# generated using pymatgen
data_TmU7(ReB6)4
_symmetry_space_group_name_H-M   'P 1'
_cell_length_a   3.63430400
_cell_length_b   9.28626265
_cell_length_c   11.37613626
_cell_angle_alpha   89.96153048
_cell_angle_beta   90.00000000
_cell_angle_gamma   90.00000000
_symmetry_Int_Tables_number   1
_chemical_formula_structural   TmU7(ReB6)4
_chemical_formula_sum   'Tm1 U7 Re4 B24'
_cell_volume   383.93429067
_cell_formula_units_Z   1
loop_
 _symmetry_equiv_pos_site_id
 _symmetry_equiv_pos_as_xyz
  1  'x, y, z'
loop_
 _atom_site_type_symbol
 _atom_site_label
 _atom_site_symmetry_multiplicity
 _atom_site_fract_x
 _atom_site_fract_y
 _atom_site_fract_z
 _atom_site_occupancy
  Tm  Tm0  1  0.000000  0.335961  0.407786  1
  U  U1  1  0.000000  0.663808  0.592864  1
  U  U2  1  0.000000  0.836358  0.093065  1
  U  U3  1  0.000000  0.163267  0.907378  1
  U  U4  1  0.000000  0.956715  0.395558  1
  U  U5  1  0.000000  0.044524  0.603891  1
  U  U6  1  0.000000  0.456588  0.103675  1
  U  U7  1  0.000000  0.543420  0.895421  1
  Re  Re8  1  0.000000  0.646521  0.319811  1
  Re  Re9  1  0.000000  0.355358  0.681657  1
  Re  Re10  1  0.000000  0.143828  0.178395  1
  Re  Re11  1  0.000000  0.855214  0.819623  1
  B  B12  1  0.500000  0.551249  0.433053  1
  B  B13  1  0.500000  0.450266  0.568513  1
  B  B14  1  0.500000  0.049808  0.067006  1
  B  B15  1  0.500000  0.949855  0.932555  1
  B  B16  1  0.500000  0.742057  0.424452  1
  B  B17  1  0.500000  0.256955  0.576533  1
  B  B18  1  0.500000  0.243050  0.076345  1
  B  B19  1  0.500000  0.756940  0.923707  1
  B  B20  1  0.500000  0.803864  0.273656  1
  B  B21  1  0.500000  0.196223  0.726692  1
  B  B22  1  0.500000  0.302846  0.225856  1
  B  B23  1  0.500000  0.696018  0.772948  1
  B  B24  1  0.500000  0.644441  0.188538  1
  B  B25  1  0.500000  0.354587  0.812006  1
  B  B26  1  0.500000  0.144471  0.311572  1
  B  B27  1  0.500000  0.854901  0.687924  1
  B  B28  1  0.500000  0.986318  0.218795  1
  B  B29  1  0.500000  0.013803  0.780741  1
  B  B30  1  0.500000  0.487193  0.281086  1
  B  B31  1  0.500000  0.514205  0.718481  1
  B  B32  1  0.500000  0.643325  0.039759  1
  B  B33  1  0.500000  0.356666  0.960393  1
  B  B34  1  0.500000  0.142207  0.460568  1
  B  B35  1  0.500000  0.857193  0.539700  1
