# generated using pymatgen
data_Y20Cd6IrOs
_symmetry_space_group_name_H-M   'P 1'
_cell_length_a   9.66169700
_cell_length_b   9.66169671
_cell_length_c   9.87680100
_cell_angle_alpha   90.00000000
_cell_angle_beta   90.00000000
_cell_angle_gamma   119.99999757
_symmetry_Int_Tables_number   1
_chemical_formula_structural   Y20Cd6IrOs
_chemical_formula_sum   'Y20 Cd6 Ir1 Os1'
_cell_volume   798.46109476
_cell_formula_units_Z   1
loop_
 _symmetry_equiv_pos_site_id
 _symmetry_equiv_pos_as_xyz
  1  'x, y, z'
loop_
 _atom_site_type_symbol
 _atom_site_label
 _atom_site_symmetry_multiplicity
 _atom_site_fract_x
 _atom_site_fract_y
 _atom_site_fract_z
 _atom_site_occupancy
  Y  Y0  1  0.000000  0.000000  0.499768  1
  Y  Y1  1  0.000000  0.000000  0.000232  1
  Y  Y2  1  0.209481  0.790519  0.440704  1
  Y  Y3  1  0.209481  0.418962  0.440704  1
  Y  Y4  1  0.581038  0.790519  0.440704  1
  Y  Y5  1  0.790314  0.209686  0.559685  1
  Y  Y6  1  0.790314  0.580629  0.559685  1
  Y  Y7  1  0.419371  0.209686  0.559685  1
  Y  Y8  1  0.790314  0.209686  0.940315  1
  Y  Y9  1  0.790314  0.580629  0.940315  1
  Y  Y10  1  0.419371  0.209686  0.940315  1
  Y  Y11  1  0.209481  0.790519  0.059296  1
  Y  Y12  1  0.209481  0.418962  0.059296  1
  Y  Y13  1  0.581038  0.790519  0.059296  1
  Y  Y14  1  0.540999  0.459001  0.250000  1
  Y  Y15  1  0.540999  0.081997  0.250000  1
  Y  Y16  1  0.918003  0.459001  0.250000  1
  Y  Y17  1  0.459771  0.540229  0.750000  1
  Y  Y18  1  0.459771  0.919542  0.750000  1
  Y  Y19  1  0.080458  0.540229  0.750000  1
  Cd  Cd20  1  0.885493  0.114507  0.250000  1
  Cd  Cd21  1  0.885493  0.770989  0.250000  1
  Cd  Cd22  1  0.229011  0.114507  0.250000  1
  Cd  Cd23  1  0.114551  0.885449  0.750000  1
  Cd  Cd24  1  0.114551  0.229100  0.750000  1
  Cd  Cd25  1  0.770900  0.885449  0.750000  1
  Ir  Ir26  1  0.333333  0.666667  0.250000  1
  Os  Os27  1  0.666667  0.333333  0.750000  1
