# generated using pymatgen
data_USi2(AsRh3)2
_symmetry_space_group_name_H-M   'P 1'
_cell_length_a   7.12967100
_cell_length_b   7.17613214
_cell_length_c   3.82585400
_cell_angle_alpha   90.00000000
_cell_angle_beta   90.00000000
_cell_angle_gamma   119.78604494
_symmetry_Int_Tables_number   1
_chemical_formula_structural   USi2(AsRh3)2
_chemical_formula_sum   'U1 Si2 As2 Rh6'
_cell_volume   169.88351104
_cell_formula_units_Z   1
loop_
 _symmetry_equiv_pos_site_id
 _symmetry_equiv_pos_as_xyz
  1  'x, y, z'
loop_
 _atom_site_type_symbol
 _atom_site_label
 _atom_site_symmetry_multiplicity
 _atom_site_fract_x
 _atom_site_fract_y
 _atom_site_fract_z
 _atom_site_occupancy
  U  U0  1  0.996318  0.992634  0.000000  1
  Si  Si1  1  0.800493  0.600983  0.500000  1
  Si  Si2  1  0.334458  0.668916  0.000000  1
  As  As3  1  0.382520  0.194322  0.500000  1
  As  As4  1  0.811803  0.194322  0.500000  1
  Rh  Rh5  1  0.530332  0.060663  0.000000  1
  Rh  Rh6  1  0.606786  0.797328  0.500000  1
  Rh  Rh7  1  0.205592  0.411182  0.500000  1
  Rh  Rh8  1  0.538553  0.474493  0.000000  1
  Rh  Rh9  1  0.190541  0.797328  0.500000  1
  Rh  Rh10  1  0.935940  0.474493  0.000000  1
