# generated using pymatgen
data_Pr6MgCo17P12
_symmetry_space_group_name_H-M   'P 1'
_cell_length_a   3.80246600
_cell_length_b   10.74509800
_cell_length_c   12.52971200
_cell_angle_alpha   90.00000000
_cell_angle_beta   90.00000000
_cell_angle_gamma   90.00000000
_symmetry_Int_Tables_number   1
_chemical_formula_structural   Pr6MgCo17P12
_chemical_formula_sum   'Pr6 Mg1 Co17 P12'
_cell_volume   511.93734167
_cell_formula_units_Z   1
loop_
 _symmetry_equiv_pos_site_id
 _symmetry_equiv_pos_as_xyz
  1  'x, y, z'
loop_
 _atom_site_type_symbol
 _atom_site_label
 _atom_site_symmetry_multiplicity
 _atom_site_fract_x
 _atom_site_fract_y
 _atom_site_fract_z
 _atom_site_occupancy
  Pr  Pr0  1  0.000000  0.500000  0.525908  1
  Pr  Pr1  1  0.500000  0.000000  0.479488  1
  Pr  Pr2  1  0.500000  0.819528  0.207350  1
  Pr  Pr3  1  0.500000  0.180472  0.207350  1
  Pr  Pr4  1  0.000000  0.683235  0.794695  1
  Pr  Pr5  1  0.000000  0.316765  0.794695  1
  Mg  Mg6  1  0.500000  0.500000  0.150808  1
  Co  Co7  1  0.000000  0.000000  0.840232  1
  Co  Co8  1  0.500000  0.500000  0.705965  1
  Co  Co9  1  0.000000  0.000000  0.293690  1
  Co  Co10  1  0.000000  0.500000  0.986091  1
  Co  Co11  1  0.500000  0.000000  0.010615  1
  Co  Co12  1  0.500000  0.328798  0.993175  1
  Co  Co13  1  0.500000  0.671202  0.993175  1
  Co  Co14  1  0.000000  0.162221  0.999998  1
  Co  Co15  1  0.000000  0.837779  0.999998  1
  Co  Co16  1  0.500000  0.295590  0.433165  1
  Co  Co17  1  0.500000  0.704410  0.433165  1
  Co  Co18  1  0.000000  0.201494  0.571220  1
  Co  Co19  1  0.000000  0.798506  0.571220  1
  Co  Co20  1  0.500000  0.882898  0.710303  1
  Co  Co21  1  0.500000  0.117102  0.710303  1
  Co  Co22  1  0.000000  0.619812  0.296757  1
  Co  Co23  1  0.000000  0.380188  0.296757  1
  P  P24  1  0.500000  0.500000  0.886978  1
  P  P25  1  0.000000  0.000000  0.111651  1
  P  P26  1  0.500000  0.500000  0.349235  1
  P  P27  1  0.000000  0.000000  0.660690  1
  P  P28  1  0.500000  0.302743  0.615192  1
  P  P29  1  0.500000  0.697257  0.615192  1
  P  P30  1  0.000000  0.195056  0.388610  1
  P  P31  1  0.000000  0.804944  0.388610  1
  P  P32  1  0.500000  0.851927  0.892392  1
  P  P33  1  0.500000  0.148073  0.892392  1
  P  P34  1  0.000000  0.661571  0.096467  1
  P  P35  1  0.000000  0.338429  0.096467  1
