# generated using pymatgen
data_Hf4In2Pd3Rh7
_symmetry_space_group_name_H-M   'P 1'
_cell_length_a   4.21180600
_cell_length_b   5.60390078
_cell_length_c   11.12127422
_cell_angle_alpha   89.49156987
_cell_angle_beta   90.00000000
_cell_angle_gamma   90.00000000
_symmetry_Int_Tables_number   1
_chemical_formula_structural   Hf4In2Pd3Rh7
_chemical_formula_sum   'Hf4 In2 Pd3 Rh7'
_cell_volume   262.48001753
_cell_formula_units_Z   1
loop_
 _symmetry_equiv_pos_site_id
 _symmetry_equiv_pos_as_xyz
  1  'x, y, z'
loop_
 _atom_site_type_symbol
 _atom_site_label
 _atom_site_symmetry_multiplicity
 _atom_site_fract_x
 _atom_site_fract_y
 _atom_site_fract_z
 _atom_site_occupancy
  Hf  Hf0  1  0.500000  0.177579  0.639493  1
  Hf  Hf1  1  0.500000  0.815476  0.365723  1
  Hf  Hf2  1  0.500000  0.693860  0.861312  1
  Hf  Hf3  1  0.500000  0.316238  0.133726  1
  In  In4  1  0.000000  0.497063  0.500662  1
  In  In5  1  0.000000  0.000033  0.998695  1
  Pd  Pd6  1  0.000000  0.443261  0.749688  1
  Pd  Pd7  1  0.000000  0.557298  0.250979  1
  Pd  Pd8  1  0.000000  0.057512  0.248470  1
  Rh  Rh9  1  0.500000  0.211971  0.882897  1
  Rh  Rh10  1  0.500000  0.791128  0.119057  1
  Rh  Rh11  1  0.500000  0.707967  0.616863  1
  Rh  Rh12  1  0.500000  0.290326  0.381065  1
  Rh  Rh13  1  0.000000  0.997518  0.499370  1
  Rh  Rh14  1  0.000000  0.500279  0.000794  1
  Rh  Rh15  1  0.000000  0.942489  0.751205  1
