# generated using pymatgen
data_Tb16Cd2Co3Hg2Ru
_symmetry_space_group_name_H-M   'P 1'
_cell_length_a   9.58682952
_cell_length_b   9.58675506
_cell_length_c   9.59379880
_cell_angle_alpha   59.55146449
_cell_angle_beta   59.55169736
_cell_angle_gamma   59.58891058
_symmetry_Int_Tables_number   1
_chemical_formula_structural   Tb16Cd2Co3Hg2Ru
_chemical_formula_sum   'Tb16 Cd2 Co3 Hg2 Ru1'
_cell_volume   617.29986154
_cell_formula_units_Z   1
loop_
 _symmetry_equiv_pos_site_id
 _symmetry_equiv_pos_as_xyz
  1  'x, y, z'
loop_
 _atom_site_type_symbol
 _atom_site_label
 _atom_site_symmetry_multiplicity
 _atom_site_fract_x
 _atom_site_fract_y
 _atom_site_fract_z
 _atom_site_occupancy
  Tb  Tb0  1  0.437595  0.437589  0.057481  1
  Tb  Tb1  1  0.596142  0.596169  0.596399  1
  Tb  Tb2  1  0.188080  0.811820  0.812442  1
  Tb  Tb3  1  0.059584  0.059556  0.437332  1
  Tb  Tb4  1  0.435835  0.060436  0.060917  1
  Tb  Tb5  1  0.811821  0.188084  0.812441  1
  Tb  Tb6  1  0.437767  0.056728  0.438492  1
  Tb  Tb7  1  0.601063  0.208148  0.600878  1
  Tb  Tb8  1  0.811906  0.811905  0.189077  1
  Tb  Tb9  1  0.208167  0.601074  0.600863  1
  Tb  Tb10  1  0.806818  0.189479  0.190328  1
  Tb  Tb11  1  0.056746  0.437772  0.438500  1
  Tb  Tb12  1  0.189475  0.806820  0.190329  1
  Tb  Tb13  1  0.600278  0.600305  0.210314  1
  Tb  Tb14  1  0.189924  0.189929  0.806887  1
  Tb  Tb15  1  0.060448  0.435839  0.060894  1
  Cd  Cd16  1  0.509225  0.829287  0.829147  1
  Cd  Cd17  1  0.829289  0.509221  0.829149  1
  Co  Co18  1  0.828347  0.392763  0.393646  1
  Co  Co19  1  0.392757  0.828338  0.393650  1
  Co  Co20  1  0.392791  0.392796  0.828758  1
  Hg  Hg21  1  0.833058  0.833059  0.496588  1
  Hg  Hg22  1  0.832751  0.832752  0.834467  1
  Ru  Ru23  1  0.390132  0.390131  0.391023  1
