# generated using pymatgen
data_Cs2HgGe3Se8
_symmetry_space_group_name_H-M   'P 1'
_cell_length_a   7.94809700
_cell_length_b   13.62271200
_cell_length_c   18.19726200
_cell_angle_alpha   90.00000000
_cell_angle_beta   90.00000000
_cell_angle_gamma   90.00000000
_symmetry_Int_Tables_number   1
_chemical_formula_structural   Cs2HgGe3Se8
_chemical_formula_sum   'Cs8 Hg4 Ge12 Se32'
_cell_volume   1970.30192614
_cell_formula_units_Z   4
loop_
 _symmetry_equiv_pos_site_id
 _symmetry_equiv_pos_as_xyz
  1  'x, y, z'
loop_
 _atom_site_type_symbol
 _atom_site_label
 _atom_site_symmetry_multiplicity
 _atom_site_fract_x
 _atom_site_fract_y
 _atom_site_fract_z
 _atom_site_occupancy
  Cs  Cs0  1  0.747438  0.371502  0.552019  1
  Cs  Cs1  1  0.752562  0.628498  0.052019  1
  Cs  Cs2  1  0.247438  0.128498  0.447981  1
  Cs  Cs3  1  0.252562  0.871502  0.947981  1
  Cs  Cs4  1  0.230793  0.201514  0.846695  1
  Cs  Cs5  1  0.269207  0.798486  0.346695  1
  Cs  Cs6  1  0.730793  0.298486  0.153305  1
  Cs  Cs7  1  0.769207  0.701514  0.653305  1
  Hg  Hg8  1  0.526744  0.503068  0.848261  1
  Hg  Hg9  1  0.973256  0.496932  0.348261  1
  Hg  Hg10  1  0.026744  0.996932  0.151739  1
  Hg  Hg11  1  0.473256  0.003068  0.651739  1
  Ge  Ge12  1  0.471967  0.470407  0.346081  1
  Ge  Ge13  1  0.028033  0.529593  0.846081  1
  Ge  Ge14  1  0.971967  0.029593  0.653919  1
  Ge  Ge15  1  0.528033  0.970407  0.153919  1
  Ge  Ge16  1  0.262965  0.445815  0.018428  1
  Ge  Ge17  1  0.237035  0.554185  0.518428  1
  Ge  Ge18  1  0.762965  0.054185  0.981572  1
  Ge  Ge19  1  0.737035  0.945815  0.481572  1
  Ge  Ge20  1  0.270199  0.450816  0.676734  1
  Ge  Ge21  1  0.229801  0.549184  0.176734  1
  Ge  Ge22  1  0.770199  0.049184  0.323266  1
  Ge  Ge23  1  0.729801  0.950816  0.823266  1
  Se  Se24  1  0.508186  0.380166  0.730427  1
  Se  Se25  1  0.991814  0.619834  0.230427  1
  Se  Se26  1  0.008186  0.119834  0.269573  1
  Se  Se27  1  0.491814  0.880166  0.769573  1
  Se  Se28  1  0.994006  0.922094  0.761599  1
  Se  Se29  1  0.505994  0.077906  0.261599  1
  Se  Se30  1  0.494006  0.577906  0.238401  1
  Se  Se31  1  0.005994  0.422094  0.738401  1
  Se  Se32  1  0.734663  0.130813  0.656933  1
  Se  Se33  1  0.765337  0.869187  0.156933  1
  Se  Se34  1  0.234663  0.369187  0.343067  1
  Se  Se35  1  0.265337  0.630813  0.843067  1
  Se  Se36  1  0.213033  0.130691  0.650534  1
  Se  Se37  1  0.286967  0.869309  0.150534  1
  Se  Se38  1  0.713033  0.369309  0.349466  1
  Se  Se39  1  0.786967  0.630691  0.849466  1
  Se  Se40  1  0.014589  0.114925  0.030420  1
  Se  Se41  1  0.485411  0.885075  0.530420  1
  Se  Se42  1  0.514589  0.385075  0.969580  1
  Se  Se43  1  0.985411  0.614925  0.469580  1
  Se  Se44  1  0.990188  0.913837  0.550853  1
  Se  Se45  1  0.509812  0.086163  0.050853  1
  Se  Se46  1  0.490188  0.586163  0.449147  1
  Se  Se47  1  0.009812  0.413837  0.949147  1
  Se  Se48  1  0.231152  0.382035  0.554360  1
  Se  Se49  1  0.268848  0.617965  0.054360  1
  Se  Se50  1  0.731152  0.117965  0.445640  1
  Se  Se51  1  0.768848  0.882035  0.945640  1
  Se  Se52  1  0.212827  0.377854  0.139582  1
  Se  Se53  1  0.287173  0.622146  0.639582  1
  Se  Se54  1  0.712827  0.122146  0.860418  1
  Se  Se55  1  0.787173  0.877854  0.360418  1
