# generated using pymatgen
data_Ce8Cu3Si12Os
_symmetry_space_group_name_H-M   'P 1'
_cell_length_a   8.14015700
_cell_length_b   8.14015783
_cell_length_c   8.35264900
_cell_angle_alpha   90.00000000
_cell_angle_beta   90.00000000
_cell_angle_gamma   119.99999256
_symmetry_Int_Tables_number   1
_chemical_formula_structural   Ce8Cu3Si12Os
_chemical_formula_sum   'Ce8 Cu3 Si12 Os1'
_cell_volume   479.31442867
_cell_formula_units_Z   1
loop_
 _symmetry_equiv_pos_site_id
 _symmetry_equiv_pos_as_xyz
  1  'x, y, z'
loop_
 _atom_site_type_symbol
 _atom_site_label
 _atom_site_symmetry_multiplicity
 _atom_site_fract_x
 _atom_site_fract_y
 _atom_site_fract_z
 _atom_site_occupancy
  Ce  Ce0  1  0.000000  0.000000  0.250939  1
  Ce  Ce1  1  0.000000  0.000000  0.749168  1
  Ce  Ce2  1  0.496006  0.503994  0.244422  1
  Ce  Ce3  1  0.496006  0.992012  0.244422  1
  Ce  Ce4  1  0.007988  0.503994  0.244422  1
  Ce  Ce5  1  0.495965  0.504035  0.755674  1
  Ce  Ce6  1  0.495965  0.991929  0.755674  1
  Ce  Ce7  1  0.008071  0.504035  0.755674  1
  Cu  Cu8  1  0.333333  0.666667  0.499391  1
  Cu  Cu9  1  0.666667  0.333333  0.499567  1
  Cu  Cu10  1  0.666667  0.333333  0.000485  1
  Si  Si11  1  0.168291  0.831709  0.500232  1
  Si  Si12  1  0.168291  0.336584  0.500232  1
  Si  Si13  1  0.663416  0.831709  0.500232  1
  Si  Si14  1  0.831110  0.168890  0.500047  1
  Si  Si15  1  0.831110  0.662218  0.500047  1
  Si  Si16  1  0.337782  0.168890  0.500047  1
  Si  Si17  1  0.831856  0.168144  0.999855  1
  Si  Si18  1  0.831856  0.663712  0.999855  1
  Si  Si19  1  0.336288  0.168144  0.999855  1
  Si  Si20  1  0.164362  0.835638  0.000199  1
  Si  Si21  1  0.164362  0.328725  0.000199  1
  Si  Si22  1  0.671275  0.835638  0.000199  1
  Os  Os23  1  0.333333  0.666667  0.999167  1
