# generated using pymatgen
data_Li4Nd3ThAs8
_symmetry_space_group_name_H-M   'P 1'
_cell_length_a   4.00624900
_cell_length_b   4.02038807
_cell_length_c   21.12799461
_cell_angle_alpha   90.31485803
_cell_angle_beta   90.00000000
_cell_angle_gamma   90.00000000
_symmetry_Int_Tables_number   1
_chemical_formula_structural   Li4Nd3ThAs8
_chemical_formula_sum   'Li4 Nd3 Th1 As8'
_cell_volume   340.29661867
_cell_formula_units_Z   1
loop_
 _symmetry_equiv_pos_site_id
 _symmetry_equiv_pos_as_xyz
  1  'x, y, z'
loop_
 _atom_site_type_symbol
 _atom_site_label
 _atom_site_symmetry_multiplicity
 _atom_site_fract_x
 _atom_site_fract_y
 _atom_site_fract_z
 _atom_site_occupancy
  Li  Li0  1  0.250000  0.227381  0.251354  1
  Li  Li1  1  0.750000  0.727768  0.251182  1
  Li  Li2  1  0.750000  0.772275  0.750335  1
  Li  Li3  1  0.250000  0.271991  0.750345  1
  Nd  Nd4  1  0.750000  0.236923  0.386040  1
  Nd  Nd5  1  0.750000  0.269946  0.885103  1
  Nd  Nd6  1  0.250000  0.729590  0.116276  1
  Th  Th7  1  0.250000  0.762673  0.611304  1
  As  As8  1  0.250000  0.772872  0.827147  1
  As  As9  1  0.750000  0.227371  0.170908  1
  As  As10  1  0.750000  0.266190  0.666296  1
  As  As11  1  0.250000  0.731694  0.331814  1
  As  As12  1  0.250000  0.255120  0.501276  1
  As  As13  1  0.250000  0.223121  0.000382  1
  As  As14  1  0.750000  0.776712  0.999098  1
  As  As15  1  0.750000  0.748373  0.501138  1
