# generated using pymatgen
data_Tm4B12IrRh
_symmetry_space_group_name_H-M   'P 1'
_cell_length_a   3.61113000
_cell_length_b   9.11931395
_cell_length_c   11.44524596
_cell_angle_alpha   90.10668418
_cell_angle_beta   90.00000000
_cell_angle_gamma   90.00000000
_symmetry_Int_Tables_number   1
_chemical_formula_structural   Tm4B12IrRh
_chemical_formula_sum   'Tm8 B24 Ir2 Rh2'
_cell_volume   376.90306401
_cell_formula_units_Z   2
loop_
 _symmetry_equiv_pos_site_id
 _symmetry_equiv_pos_as_xyz
  1  'x, y, z'
loop_
 _atom_site_type_symbol
 _atom_site_label
 _atom_site_symmetry_multiplicity
 _atom_site_fract_x
 _atom_site_fract_y
 _atom_site_fract_z
 _atom_site_occupancy
  Tm  Tm0  1  0.500000  0.322752  0.414196  1
  Tm  Tm1  1  0.500000  0.677248  0.585804  1
  Tm  Tm2  1  0.500000  0.179568  0.912719  1
  Tm  Tm3  1  0.500000  0.820432  0.087281  1
  Tm  Tm4  1  0.500000  0.445397  0.126520  1
  Tm  Tm5  1  0.500000  0.554603  0.873480  1
  Tm  Tm6  1  0.500000  0.056477  0.625808  1
  Tm  Tm7  1  0.500000  0.943523  0.374192  1
  B  B8  1  0.000000  0.109831  0.470003  1
  B  B9  1  0.000000  0.890169  0.529997  1
  B  B10  1  0.000000  0.390490  0.970280  1
  B  B11  1  0.000000  0.609510  0.029720  1
  B  B12  1  0.000000  0.132730  0.316311  1
  B  B13  1  0.000000  0.867270  0.683689  1
  B  B14  1  0.000000  0.366478  0.816419  1
  B  B15  1  0.000000  0.633522  0.183581  1
  B  B16  1  0.000000  0.054072  0.065202  1
  B  B17  1  0.000000  0.945928  0.934798  1
  B  B18  1  0.000000  0.446487  0.564870  1
  B  B19  1  0.000000  0.553513  0.435130  1
  B  B20  1  0.000000  0.482187  0.286968  1
  B  B21  1  0.000000  0.517813  0.713032  1
  B  B22  1  0.000000  0.017893  0.786308  1
  B  B23  1  0.000000  0.982107  0.213692  1
  B  B24  1  0.000000  0.250249  0.078698  1
  B  B25  1  0.000000  0.749751  0.921302  1
  B  B26  1  0.000000  0.250892  0.578812  1
  B  B27  1  0.000000  0.749108  0.421188  1
  B  B28  1  0.000000  0.294598  0.235625  1
  B  B29  1  0.000000  0.705402  0.764375  1
  B  B30  1  0.000000  0.205392  0.736109  1
  B  B31  1  0.000000  0.794608  0.263891  1
  Ir  Ir32  1  0.500000  0.139001  0.177889  1
  Ir  Ir33  1  0.500000  0.860999  0.822111  1
  Rh  Rh34  1  0.500000  0.360358  0.679732  1
  Rh  Rh35  1  0.500000  0.639642  0.320268  1
