# generated using pymatgen
data_YbDyNpO6
_symmetry_space_group_name_H-M   'P 1'
_cell_length_a   5.53666500
_cell_length_b   7.82298549
_cell_length_c   11.76097888
_cell_angle_alpha   74.17407337
_cell_angle_beta   90.00000000
_cell_angle_gamma   90.00000000
_symmetry_Int_Tables_number   1
_chemical_formula_structural   YbDyNpO6
_chemical_formula_sum   'Yb4 Dy4 Np4 O24'
_cell_volume   490.09701560
_cell_formula_units_Z   4
loop_
 _symmetry_equiv_pos_site_id
 _symmetry_equiv_pos_as_xyz
  1  'x, y, z'
loop_
 _atom_site_type_symbol
 _atom_site_label
 _atom_site_symmetry_multiplicity
 _atom_site_fract_x
 _atom_site_fract_y
 _atom_site_fract_z
 _atom_site_occupancy
  Yb  Yb0  1  0.694366  0.500000  0.250000  1
  Yb  Yb1  1  0.305634  0.500000  0.750000  1
  Yb  Yb2  1  0.744236  0.000000  0.250000  1
  Yb  Yb3  1  0.255764  0.000000  0.750000  1
  Dy  Dy4  1  0.184243  0.206291  0.419935  1
  Dy  Dy5  1  0.184243  0.793709  0.080065  1
  Dy  Dy6  1  0.815757  0.793709  0.580065  1
  Dy  Dy7  1  0.815757  0.206291  0.919935  1
  Np  Np8  1  0.254251  0.277262  0.115553  1
  Np  Np9  1  0.254251  0.722738  0.384447  1
  Np  Np10  1  0.745749  0.722738  0.884447  1
  Np  Np11  1  0.745749  0.277262  0.615553  1
  O  O12  1  0.444343  0.200195  0.270366  1
  O  O13  1  0.444343  0.799805  0.229634  1
  O  O14  1  0.555657  0.799805  0.729634  1
  O  O15  1  0.555657  0.200195  0.770366  1
  O  O16  1  0.044968  0.060723  0.100664  1
  O  O17  1  0.044968  0.939277  0.399336  1
  O  O18  1  0.955032  0.939277  0.899336  1
  O  O19  1  0.955032  0.060723  0.600664  1
  O  O20  1  0.980359  0.288490  0.231548  1
  O  O21  1  0.980359  0.711510  0.268452  1
  O  O22  1  0.019641  0.711510  0.768452  1
  O  O23  1  0.019641  0.288490  0.731548  1
  O  O24  1  0.875128  0.373500  0.450084  1
  O  O25  1  0.875128  0.626500  0.049916  1
  O  O26  1  0.124872  0.626500  0.549916  1
  O  O27  1  0.124872  0.373500  0.950084  1
  O  O28  1  0.620024  0.516642  0.613931  1
  O  O29  1  0.620024  0.483358  0.886069  1
  O  O30  1  0.379976  0.483358  0.386069  1
  O  O31  1  0.379976  0.516642  0.113931  1
  O  O32  1  0.460544  0.155266  0.564130  1
  O  O33  1  0.460544  0.844734  0.935870  1
  O  O34  1  0.539456  0.844734  0.435870  1
  O  O35  1  0.539456  0.155266  0.064130  1
