# generated using pymatgen
data_HoEr15(In3Au)2
_symmetry_space_group_name_H-M   'P 1'
_cell_length_a   10.53683200
_cell_length_b   10.53922426
_cell_length_c   6.83411201
_cell_angle_alpha   90.00419149
_cell_angle_beta   90.00000000
_cell_angle_gamma   119.99248535
_symmetry_Int_Tables_number   1
_chemical_formula_structural   HoEr15(In3Au)2
_chemical_formula_sum   'Ho1 Er15 In6 Au2'
_cell_volume   657.30101815
_cell_formula_units_Z   1
loop_
 _symmetry_equiv_pos_site_id
 _symmetry_equiv_pos_as_xyz
  1  'x, y, z'
loop_
 _atom_site_type_symbol
 _atom_site_label
 _atom_site_symmetry_multiplicity
 _atom_site_fract_x
 _atom_site_fract_y
 _atom_site_fract_z
 _atom_site_occupancy
  Ho  Ho0  1  0.523234  0.046470  0.796289  1
  Er  Er1  1  0.953166  0.476476  0.796362  1
  Er  Er2  1  0.523309  0.476476  0.796362  1
  Er  Er3  1  0.476632  0.953263  0.296277  1
  Er  Er4  1  0.046745  0.523385  0.296326  1
  Er  Er5  1  0.476641  0.523385  0.296326  1
  Er  Er6  1  0.827236  0.654472  0.512247  1
  Er  Er7  1  0.345539  0.172860  0.512051  1
  Er  Er8  1  0.827322  0.172860  0.512051  1
  Er  Er9  1  0.172846  0.345693  0.012364  1
  Er  Er10  1  0.654483  0.827027  0.012462  1
  Er  Er11  1  0.172544  0.827027  0.012462  1
  Er  Er12  1  0.666820  0.333639  0.153080  1
  Er  Er13  1  0.333172  0.666344  0.652802  1
  Er  Er14  1  0.999979  0.999958  0.777431  1
  Er  Er15  1  0.000019  0.000039  0.277457  1
  In  In16  1  0.835917  0.671836  0.032035  1
  In  In17  1  0.327948  0.164068  0.032281  1
  In  In18  1  0.836118  0.164068  0.032281  1
  In  In19  1  0.164044  0.328087  0.532125  1
  In  In20  1  0.671878  0.835963  0.532145  1
  In  In21  1  0.164087  0.835963  0.532145  1
  Au  Au22  1  0.666976  0.333951  0.565156  1
  Au  Au23  1  0.333344  0.666689  0.065399  1
