# generated using pymatgen
data_Tb16Cd4IrRuPt2
_symmetry_space_group_name_H-M   'P 1'
_cell_length_a   9.68753937
_cell_length_b   9.68753756
_cell_length_c   9.72134852
_cell_angle_alpha   59.95203702
_cell_angle_beta   59.95204464
_cell_angle_gamma   59.86990654
_symmetry_Int_Tables_number   1
_chemical_formula_structural   Tb16Cd4IrRuPt2
_chemical_formula_sum   'Tb16 Cd4 Ir1 Ru1 Pt2'
_cell_volume   644.01354557
_cell_formula_units_Z   1
loop_
 _symmetry_equiv_pos_site_id
 _symmetry_equiv_pos_as_xyz
  1  'x, y, z'
loop_
 _atom_site_type_symbol
 _atom_site_label
 _atom_site_symmetry_multiplicity
 _atom_site_fract_x
 _atom_site_fract_y
 _atom_site_fract_z
 _atom_site_occupancy
  Tb  Tb0  1  0.349015  0.349015  0.353017  1
  Tb  Tb1  1  0.350133  0.350133  0.947413  1
  Tb  Tb2  1  0.346941  0.952442  0.350927  1
  Tb  Tb3  1  0.952442  0.346941  0.350927  1
  Tb  Tb4  1  0.813094  0.189069  0.190651  1
  Tb  Tb5  1  0.188078  0.815040  0.806595  1
  Tb  Tb6  1  0.189069  0.813094  0.190651  1
  Tb  Tb7  1  0.815040  0.188078  0.806595  1
  Tb  Tb8  1  0.188767  0.188767  0.809974  1
  Tb  Tb9  1  0.808801  0.808801  0.190826  1
  Tb  Tb10  1  0.936960  0.560079  0.566303  1
  Tb  Tb11  1  0.560955  0.936736  0.936372  1
  Tb  Tb12  1  0.560079  0.936960  0.566303  1
  Tb  Tb13  1  0.936736  0.560955  0.936372  1
  Tb  Tb14  1  0.564025  0.564025  0.935998  1
  Tb  Tb15  1  0.937339  0.937339  0.563503  1
  Cd  Cd16  1  0.580552  0.580552  0.581700  1
  Cd  Cd17  1  0.580440  0.580440  0.257919  1
  Cd  Cd18  1  0.581469  0.255006  0.581907  1
  Cd  Cd19  1  0.255006  0.581469  0.581907  1
  Ir  Ir20  1  0.144138  0.144138  0.138884  1
  Ru  Ru21  1  0.143632  0.143632  0.573250  1
  Pt  Pt22  1  0.144322  0.572966  0.141004  1
  Pt  Pt23  1  0.572966  0.144322  0.141004  1
