# generated using pymatgen
data_Zr4P4IrOs3
_symmetry_space_group_name_H-M   'P 1'
_cell_length_a   3.90366900
_cell_length_b   6.52149737
_cell_length_c   7.36196697
_cell_angle_alpha   89.79448412
_cell_angle_beta   90.00000000
_cell_angle_gamma   90.00000000
_symmetry_Int_Tables_number   1
_chemical_formula_structural   Zr4P4IrOs3
_chemical_formula_sum   'Zr4 P4 Ir1 Os3'
_cell_volume   187.41803508
_cell_formula_units_Z   1
loop_
 _symmetry_equiv_pos_site_id
 _symmetry_equiv_pos_as_xyz
  1  'x, y, z'
loop_
 _atom_site_type_symbol
 _atom_site_label
 _atom_site_symmetry_multiplicity
 _atom_site_fract_x
 _atom_site_fract_y
 _atom_site_fract_z
 _atom_site_occupancy
  Zr  Zr0  1  0.250000  0.018910  0.822677  1
  Zr  Zr1  1  0.250000  0.521731  0.677822  1
  Zr  Zr2  1  0.750000  0.976392  0.177593  1
  Zr  Zr3  1  0.750000  0.480134  0.323632  1
  P  P4  1  0.250000  0.771660  0.378872  1
  P  P5  1  0.250000  0.275973  0.117645  1
  P  P6  1  0.750000  0.225407  0.627204  1
  P  P7  1  0.750000  0.722298  0.877385  1
  Ir  Ir8  1  0.250000  0.153155  0.436797  1
  Os  Os9  1  0.250000  0.653481  0.059517  1
  Os  Os10  1  0.750000  0.851543  0.559728  1
  Os  Os11  1  0.750000  0.349316  0.941129  1
