# generated using pymatgen
data_Ca7Tl(SnN)2
_symmetry_space_group_name_H-M   'P 1'
_cell_length_a   12.14277200
_cell_length_b   12.14277251
_cell_length_c   4.81663300
_cell_angle_alpha   90.00000000
_cell_angle_beta   90.00000000
_cell_angle_gamma   157.02311221
_symmetry_Int_Tables_number   1
_chemical_formula_structural   Ca7Tl(SnN)2
_chemical_formula_sum   'Ca7 Tl1 Sn2 N2'
_cell_volume   277.23261415
_cell_formula_units_Z   1
loop_
 _symmetry_equiv_pos_site_id
 _symmetry_equiv_pos_as_xyz
  1  'x, y, z'
loop_
 _atom_site_type_symbol
 _atom_site_label
 _atom_site_symmetry_multiplicity
 _atom_site_fract_x
 _atom_site_fract_y
 _atom_site_fract_z
 _atom_site_occupancy
  Ca  Ca0  1  0.903677  0.096322  0.000000  1
  Ca  Ca1  1  0.697622  0.302377  0.000000  1
  Ca  Ca2  1  0.500942  0.499058  0.000000  1
  Ca  Ca3  1  0.300059  0.699940  0.000000  1
  Ca  Ca4  1  0.098640  0.901359  0.000000  1
  Ca  Ca5  1  0.598404  0.401596  0.500001  1
  Ca  Ca6  1  0.404036  0.595964  0.500001  1
  Tl  Tl7  1  0.794420  0.205579  0.500001  1
  Sn  Sn8  1  0.999553  0.000447  0.500001  1
  Sn  Sn9  1  0.204727  0.795272  0.500001  1
  N  N10  1  0.602524  0.397475  0.000000  1
  N  N11  1  0.395394  0.604605  0.000000  1
