# generated using pymatgen
data_Be8VWAu2
_symmetry_space_group_name_H-M   'P 1'
_cell_length_a   4.43814500
_cell_length_b   4.43814498
_cell_length_c   7.42235800
_cell_angle_alpha   90.00000000
_cell_angle_beta   90.00000000
_cell_angle_gamma   120.00000763
_symmetry_Int_Tables_number   1
_chemical_formula_structural   Be8VWAu2
_chemical_formula_sum   'Be8 V1 W1 Au2'
_cell_volume   126.61217458
_cell_formula_units_Z   1
loop_
 _symmetry_equiv_pos_site_id
 _symmetry_equiv_pos_as_xyz
  1  'x, y, z'
loop_
 _atom_site_type_symbol
 _atom_site_label
 _atom_site_symmetry_multiplicity
 _atom_site_fract_x
 _atom_site_fract_y
 _atom_site_fract_z
 _atom_site_occupancy
  Be  Be0  1  0.000000  0.000000  0.500989  1
  Be  Be1  1  0.000000  0.000000  0.998788  1
  Be  Be2  1  0.833183  0.166817  0.239917  1
  Be  Be3  1  0.833183  0.666367  0.239917  1
  Be  Be4  1  0.333633  0.166817  0.239917  1
  Be  Be5  1  0.167453  0.832547  0.756784  1
  Be  Be6  1  0.167453  0.334907  0.756784  1
  Be  Be7  1  0.665093  0.832547  0.756784  1
  V  V8  1  0.666667  0.333333  0.952456  1
  W  W9  1  0.333333  0.666667  0.047740  1
  Au  Au10  1  0.333333  0.666667  0.422328  1
  Au  Au11  1  0.666667  0.333333  0.587596  1
