# generated using pymatgen
data_ErMgGa3Ir
_symmetry_space_group_name_H-M   'P 1'
_cell_length_a   5.31379300
_cell_length_b   5.31379249
_cell_length_c   8.69695100
_cell_angle_alpha   90.00000000
_cell_angle_beta   90.00000000
_cell_angle_gamma   119.99998453
_symmetry_Int_Tables_number   1
_chemical_formula_structural   ErMgGa3Ir
_chemical_formula_sum   'Er2 Mg2 Ga6 Ir2'
_cell_volume   212.67034973
_cell_formula_units_Z   2
loop_
 _symmetry_equiv_pos_site_id
 _symmetry_equiv_pos_as_xyz
  1  'x, y, z'
loop_
 _atom_site_type_symbol
 _atom_site_label
 _atom_site_symmetry_multiplicity
 _atom_site_fract_x
 _atom_site_fract_y
 _atom_site_fract_z
 _atom_site_occupancy
  Er  Er0  1  0.333333  0.666667  0.552548  1
  Er  Er1  1  0.333333  0.666667  0.947453  1
  Mg  Mg2  1  0.666666  0.333333  0.058791  1
  Mg  Mg3  1  0.666666  0.333333  0.441210  1
  Ga  Ga4  1  0.167115  0.334231  0.249999  1
  Ga  Ga5  1  0.167116  0.832884  0.249999  1
  Ga  Ga6  1  0.665769  0.832884  0.249999  1
  Ga  Ga7  1  0.333450  0.166725  0.750000  1
  Ga  Ga8  1  0.833275  0.166725  0.750000  1
  Ga  Ga9  1  0.833274  0.666550  0.750000  1
  Ir  Ir10  1  0.000000  0.000000  0.005745  1
  Ir  Ir11  1  0.000000  0.000000  0.494255  1
