# generated using pymatgen
data_Y9Lu11Cd6TcRu
_symmetry_space_group_name_H-M   'P 1'
_cell_length_a   9.48512400
_cell_length_b   9.48512370
_cell_length_c   9.78059500
_cell_angle_alpha   90.00000000
_cell_angle_beta   90.00000000
_cell_angle_gamma   120.00000103
_symmetry_Int_Tables_number   1
_chemical_formula_structural   Y9Lu11Cd6TcRu
_chemical_formula_sum   'Y9 Lu11 Cd6 Tc1 Ru1'
_cell_volume   762.04727613
_cell_formula_units_Z   1
loop_
 _symmetry_equiv_pos_site_id
 _symmetry_equiv_pos_as_xyz
  1  'x, y, z'
loop_
 _atom_site_type_symbol
 _atom_site_label
 _atom_site_symmetry_multiplicity
 _atom_site_fract_x
 _atom_site_fract_y
 _atom_site_fract_z
 _atom_site_occupancy
  Y  Y0  1  0.208409  0.791591  0.058379  1
  Y  Y1  1  0.208409  0.416819  0.058379  1
  Y  Y2  1  0.583181  0.791591  0.058379  1
  Y  Y3  1  0.539865  0.460135  0.251251  1
  Y  Y4  1  0.539865  0.079729  0.251251  1
  Y  Y5  1  0.920271  0.460135  0.251251  1
  Y  Y6  1  0.460143  0.539857  0.748419  1
  Y  Y7  1  0.460143  0.920286  0.748419  1
  Y  Y8  1  0.079714  0.539857  0.748419  1
  Lu  Lu9  1  0.000000  0.000000  0.499757  1
  Lu  Lu10  1  0.000000  0.000000  0.999055  1
  Lu  Lu11  1  0.209983  0.790017  0.442149  1
  Lu  Lu12  1  0.209983  0.419966  0.442149  1
  Lu  Lu13  1  0.580034  0.790017  0.442149  1
  Lu  Lu14  1  0.789564  0.210436  0.559295  1
  Lu  Lu15  1  0.789564  0.579127  0.559295  1
  Lu  Lu16  1  0.420873  0.210436  0.559295  1
  Lu  Lu17  1  0.789204  0.210796  0.940164  1
  Lu  Lu18  1  0.789204  0.578407  0.940164  1
  Lu  Lu19  1  0.421593  0.210796  0.940164  1
  Cd  Cd20  1  0.886346  0.113654  0.250469  1
  Cd  Cd21  1  0.886346  0.772692  0.250469  1
  Cd  Cd22  1  0.227308  0.113654  0.250469  1
  Cd  Cd23  1  0.113284  0.886716  0.749385  1
  Cd  Cd24  1  0.113284  0.226568  0.749385  1
  Cd  Cd25  1  0.773432  0.886716  0.749385  1
  Tc  Tc26  1  0.333333  0.666667  0.252870  1
  Ru  Ru27  1  0.666667  0.333333  0.749782  1
