# generated using pymatgen
data_La11Cu3Si6Ni
_symmetry_space_group_name_H-M   'P 1'
_cell_length_a   4.32181035
_cell_length_b   9.57736216
_cell_length_c   14.16717416
_cell_angle_alpha   105.17178241
_cell_angle_beta   90.00673316
_cell_angle_gamma   103.04071745
_symmetry_Int_Tables_number   1
_chemical_formula_structural   La11Cu3Si6Ni
_chemical_formula_sum   'La11 Cu3 Si6 Ni1'
_cell_volume   550.27339329
_cell_formula_units_Z   1
loop_
 _symmetry_equiv_pos_site_id
 _symmetry_equiv_pos_as_xyz
  1  'x, y, z'
loop_
 _atom_site_type_symbol
 _atom_site_label
 _atom_site_symmetry_multiplicity
 _atom_site_fract_x
 _atom_site_fract_y
 _atom_site_fract_z
 _atom_site_occupancy
  La  La0  1  0.901392  0.802235  0.219155  1
  La  La1  1  0.861196  0.720047  0.650361  1
  La  La2  1  0.222769  0.442181  0.103155  1
  La  La3  1  0.550450  0.100415  0.132083  1
  La  La4  1  0.339582  0.672952  0.398417  1
  La  La5  1  0.448586  0.898894  0.868544  1
  La  La6  1  0.000291  0.000096  0.500274  1
  La  La7  1  0.140772  0.280462  0.349673  1
  La  La8  1  0.776651  0.557311  0.898593  1
  La  La9  1  0.660544  0.322952  0.602145  1
  La  La10  1  0.098419  0.197795  0.781815  1
  Cu  Cu11  1  0.936266  0.876582  0.023025  1
  Cu  Cu12  1  0.062464  0.123293  0.978125  1
  Cu  Cu13  1  0.250630  0.499869  0.549690  1
  Si  Si14  1  0.627991  0.252756  0.952754  1
  Si  Si15  1  0.264166  0.530481  0.734679  1
  Si  Si16  1  0.737148  0.469720  0.269221  1
  Si  Si17  1  0.371008  0.747144  0.048706  1
  Si  Si18  1  0.512532  0.024492  0.346859  1
  Si  Si19  1  0.487416  0.974280  0.653816  1
  Ni  Ni20  1  0.752320  0.503091  0.450439  1
