# generated using pymatgen
data_Tb3Y3Al24NiRu7
_symmetry_space_group_name_H-M   'P 1'
_cell_length_a   8.82762000
_cell_length_b   8.81268316
_cell_length_c   9.54888322
_cell_angle_alpha   90.27785838
_cell_angle_beta   90.00000000
_cell_angle_gamma   120.05608353
_symmetry_Int_Tables_number   1
_chemical_formula_structural   Tb3Y3Al24NiRu7
_chemical_formula_sum   'Tb3 Y3 Al24 Ni1 Ru7'
_cell_volume   642.95780211
_cell_formula_units_Z   1
loop_
 _symmetry_equiv_pos_site_id
 _symmetry_equiv_pos_as_xyz
  1  'x, y, z'
loop_
 _atom_site_type_symbol
 _atom_site_label
 _atom_site_symmetry_multiplicity
 _atom_site_fract_x
 _atom_site_fract_y
 _atom_site_fract_z
 _atom_site_occupancy
  Tb  Tb0  1  0.615539  0.807088  0.749953  1
  Tb  Tb1  1  0.191549  0.807088  0.749953  1
  Tb  Tb2  1  0.193877  0.387753  0.749455  1
  Y  Y3  1  0.384451  0.192858  0.250052  1
  Y  Y4  1  0.808407  0.192858  0.250052  1
  Y  Y5  1  0.806142  0.612286  0.250528  1
  Al  Al6  1  0.440116  0.880233  0.252784  1
  Al  Al7  1  0.122806  0.561492  0.250815  1
  Al  Al8  1  0.438686  0.561492  0.250815  1
  Al  Al9  1  0.559998  0.119996  0.747225  1
  Al  Al10  1  0.876973  0.438378  0.749170  1
  Al  Al11  1  0.561404  0.438378  0.749170  1
  Al  Al12  1  0.162256  0.836249  0.423132  1
  Al  Al13  1  0.163104  0.326210  0.422699  1
  Al  Al14  1  0.673992  0.836249  0.423132  1
  Al  Al15  1  0.837737  0.163765  0.576821  1
  Al  Al16  1  0.836887  0.673773  0.577237  1
  Al  Al17  1  0.326029  0.163765  0.576821  1
  Al  Al18  1  0.836674  0.162452  0.923200  1
  Al  Al19  1  0.837028  0.674056  0.922890  1
  Al  Al20  1  0.325778  0.162452  0.923200  1
  Al  Al21  1  0.163327  0.837575  0.076836  1
  Al  Al22  1  0.162960  0.325920  0.077166  1
  Al  Al23  1  0.674247  0.837575  0.076836  1
  Al  Al24  1  0.334637  0.669274  0.516124  1
  Al  Al25  1  0.665379  0.330756  0.483840  1
  Al  Al26  1  0.666504  0.333006  0.016098  1
  Al  Al27  1  0.333498  0.666999  0.983947  1
  Al  Al28  1  0.000077  0.000153  0.249897  1
  Al  Al29  1  0.999902  0.999803  0.750110  1
  Ni  Ni30  1  0.500013  0.000026  0.499988  1
  Ru  Ru31  1  0.000008  0.000015  0.499863  1
  Ru  Ru32  1  0.000010  0.000021  0.000164  1
  Ru  Ru33  1  0.999917  0.499952  0.499920  1
  Ru  Ru34  1  0.500035  0.499952  0.499920  1
  Ru  Ru35  1  0.500062  0.000124  0.000086  1
  Ru  Ru36  1  0.999921  0.499989  0.000050  1
  Ru  Ru37  1  0.500068  0.499989  0.000050  1
