# generated using pymatgen
data_SrEr3PtRh3O14
_symmetry_space_group_name_H-M   'P 1'
_cell_length_a   7.24748961
_cell_length_b   7.25861342
_cell_length_c   7.24748900
_cell_angle_alpha   60.05067993
_cell_angle_beta   59.99999821
_cell_angle_gamma   60.05068053
_symmetry_Int_Tables_number   1
_chemical_formula_structural   SrEr3PtRh3O14
_chemical_formula_sum   'Sr1 Er3 Pt1 Rh3 O14'
_cell_volume   269.80257407
_cell_formula_units_Z   1
loop_
 _symmetry_equiv_pos_site_id
 _symmetry_equiv_pos_as_xyz
  1  'x, y, z'
loop_
 _atom_site_type_symbol
 _atom_site_label
 _atom_site_symmetry_multiplicity
 _atom_site_fract_x
 _atom_site_fract_y
 _atom_site_fract_z
 _atom_site_occupancy
  Sr  Sr0  1  0.625000  0.125000  0.625000  1
  Er  Er1  1  0.625000  0.625000  0.125000  1
  Er  Er2  1  0.625000  0.625000  0.625000  1
  Er  Er3  1  0.125000  0.625000  0.625000  1
  Pt  Pt4  1  0.125000  0.625000  0.125000  1
  Rh  Rh5  1  0.625000  0.125000  0.125000  1
  Rh  Rh6  1  0.125000  0.125000  0.125000  1
  Rh  Rh7  1  0.125000  0.125000  0.625000  1
  O  O8  1  0.037690  0.463431  0.461189  1
  O  O9  1  0.788811  0.786569  0.212310  1
  O  O10  1  0.793923  0.220021  0.192134  1
  O  O11  1  0.758143  0.725570  0.758143  1
  O  O12  1  0.037690  0.463431  0.037690  1
  O  O13  1  0.456077  0.029979  0.456077  1
  O  O14  1  0.057866  0.029979  0.456077  1
  O  O15  1  0.491857  0.524430  0.491857  1
  O  O16  1  0.192134  0.220021  0.793923  1
  O  O17  1  0.212310  0.786569  0.212310  1
  O  O18  1  0.793923  0.220021  0.793923  1
  O  O19  1  0.456077  0.029979  0.057866  1
  O  O20  1  0.461189  0.463431  0.037690  1
  O  O21  1  0.212310  0.786569  0.788811  1
