# generated using pymatgen
data_Er4Ga18Co5Pd
_symmetry_space_group_name_H-M   'P 1'
_cell_length_a   7.39198562
_cell_length_b   7.39198573
_cell_length_c   9.38102235
_cell_angle_alpha   90.13609203
_cell_angle_beta   90.13609370
_cell_angle_gamma   119.66937933
_symmetry_Int_Tables_number   1
_chemical_formula_structural   Er4Ga18Co5Pd
_chemical_formula_sum   'Er4 Ga18 Co5 Pd1'
_cell_volume   445.38484928
_cell_formula_units_Z   1
loop_
 _symmetry_equiv_pos_site_id
 _symmetry_equiv_pos_as_xyz
  1  'x, y, z'
loop_
 _atom_site_type_symbol
 _atom_site_label
 _atom_site_symmetry_multiplicity
 _atom_site_fract_x
 _atom_site_fract_y
 _atom_site_fract_z
 _atom_site_occupancy
  Er  Er0  1  0.502926  0.827058  0.751550  1
  Er  Er1  1  0.497074  0.172942  0.248450  1
  Er  Er2  1  0.172942  0.497074  0.248450  1
  Er  Er3  1  0.827058  0.502926  0.751550  1
  Ga  Ga4  1  0.164344  0.945694  0.751496  1
  Ga  Ga5  1  0.835656  0.054306  0.248504  1
  Ga  Ga6  1  0.054306  0.835656  0.248504  1
  Ga  Ga7  1  0.945694  0.164344  0.751496  1
  Ga  Ga8  1  0.629157  0.629157  0.241657  1
  Ga  Ga9  1  0.370843  0.370843  0.758343  1
  Ga  Ga10  1  0.167389  0.167389  0.057739  1
  Ga  Ga11  1  0.842867  0.842867  0.563663  1
  Ga  Ga12  1  0.832611  0.832611  0.942261  1
  Ga  Ga13  1  0.157133  0.157133  0.436337  1
  Ga  Ga14  1  0.497791  0.835292  0.072288  1
  Ga  Ga15  1  0.500447  0.155803  0.576689  1
  Ga  Ga16  1  0.164708  0.502209  0.927712  1
  Ga  Ga17  1  0.844197  0.499553  0.423311  1
  Ga  Ga18  1  0.502209  0.164708  0.927712  1
  Ga  Ga19  1  0.499553  0.844197  0.423311  1
  Ga  Ga20  1  0.835292  0.497791  0.072288  1
  Ga  Ga21  1  0.155803  0.500447  0.576689  1
  Co  Co22  1  0.171021  0.828979  0.000000  1
  Co  Co23  1  0.500000  0.500000  0.000000  1
  Co  Co24  1  0.829050  0.170950  0.500000  1
  Co  Co25  1  0.828979  0.171021  0.000000  1
  Co  Co26  1  0.170950  0.829050  0.500000  1
  Pd  Pd27  1  0.500000  0.500000  0.500000  1
