# generated using pymatgen
data_K7Rb3(Bi2Au)2
_symmetry_space_group_name_H-M   'P 1'
_cell_length_a   6.19626900
_cell_length_b   6.19626894
_cell_length_c   21.27531800
_cell_angle_alpha   90.00000000
_cell_angle_beta   90.00000000
_cell_angle_gamma   120.00000568
_symmetry_Int_Tables_number   1
_chemical_formula_structural   K7Rb3(Bi2Au)2
_chemical_formula_sum   'K7 Rb3 Bi4 Au2'
_cell_volume   707.40347640
_cell_formula_units_Z   1
loop_
 _symmetry_equiv_pos_site_id
 _symmetry_equiv_pos_as_xyz
  1  'x, y, z'
loop_
 _atom_site_type_symbol
 _atom_site_label
 _atom_site_symmetry_multiplicity
 _atom_site_fract_x
 _atom_site_fract_y
 _atom_site_fract_z
 _atom_site_occupancy
  K  K0  1  0.666667  0.333333  0.050577  1
  K  K1  1  0.666667  0.333333  0.449252  1
  K  K2  1  0.333333  0.666667  0.949412  1
  K  K3  1  0.000000  0.000000  0.146495  1
  K  K4  1  0.000000  0.000000  0.646851  1
  K  K5  1  0.000000  0.000000  0.853471  1
  K  K6  1  0.000000  0.000000  0.353340  1
  Rb  Rb7  1  0.333333  0.666667  0.550546  1
  Rb  Rb8  1  0.333333  0.666667  0.750176  1
  Rb  Rb9  1  0.666667  0.333333  0.249940  1
  Bi  Bi10  1  0.333333  0.666667  0.119328  1
  Bi  Bi11  1  0.666667  0.333333  0.619899  1
  Bi  Bi12  1  0.333333  0.666667  0.380075  1
  Bi  Bi13  1  0.666667  0.333333  0.880648  1
  Au  Au14  1  0.666667  0.333333  0.750136  1
  Au  Au15  1  0.333333  0.666667  0.249855  1
