# generated using pymatgen
data_ErTmB6(Ir2Rh)3
_symmetry_space_group_name_H-M   'P 1'
_cell_length_a   5.61349707
_cell_length_b   5.62291811
_cell_length_c   8.62604100
_cell_angle_alpha   90.00000000
_cell_angle_beta   90.00000000
_cell_angle_gamma   119.84487563
_symmetry_Int_Tables_number   1
_chemical_formula_structural   ErTmB6(Ir2Rh)3
_chemical_formula_sum   'Er1 Tm1 B6 Ir6 Rh3'
_cell_volume   236.16424685
_cell_formula_units_Z   1
loop_
 _symmetry_equiv_pos_site_id
 _symmetry_equiv_pos_as_xyz
  1  'x, y, z'
loop_
 _atom_site_type_symbol
 _atom_site_label
 _atom_site_symmetry_multiplicity
 _atom_site_fract_x
 _atom_site_fract_y
 _atom_site_fract_z
 _atom_site_occupancy
  Er  Er0  1  0.000000  0.000000  0.702992  1
  Tm  Tm1  1  0.000000  0.000000  0.298096  1
  B  B2  1  0.667026  0.331771  0.999934  1
  B  B3  1  0.332974  0.668229  0.999934  1
  B  B4  1  0.666478  0.332971  0.667848  1
  B  B5  1  0.333522  0.667029  0.667848  1
  B  B6  1  0.333653  0.667244  0.331787  1
  B  B7  1  0.666347  0.332756  0.331787  1
  Ir  Ir8  1  0.500000  0.000000  0.835780  1
  Ir  Ir9  1  0.000000  0.500000  0.836031  1
  Ir  Ir10  1  0.500000  0.000000  0.164572  1
  Ir  Ir11  1  0.500000  0.500000  0.499658  1
  Ir  Ir12  1  0.500000  0.000000  0.499840  1
  Ir  Ir13  1  0.000000  0.500000  0.498959  1
  Rh  Rh14  1  0.500000  0.500000  0.836348  1
  Rh  Rh15  1  0.500000  0.500000  0.164112  1
  Rh  Rh16  1  0.000000  0.500000  0.164476  1
