# generated using pymatgen
data_Pr8Nd8Cd3AgPt4
_symmetry_space_group_name_H-M   'P 1'
_cell_length_a   10.02725340
_cell_length_b   10.02725404
_cell_length_c   10.02970203
_cell_angle_alpha   60.12575461
_cell_angle_beta   60.12574419
_cell_angle_gamma   60.14790738
_symmetry_Int_Tables_number   1
_chemical_formula_structural   Pr8Nd8Cd3AgPt4
_chemical_formula_sum   'Pr8 Nd8 Cd3 Ag1 Pt4'
_cell_volume   715.22855615
_cell_formula_units_Z   1
loop_
 _symmetry_equiv_pos_site_id
 _symmetry_equiv_pos_as_xyz
  1  'x, y, z'
loop_
 _atom_site_type_symbol
 _atom_site_label
 _atom_site_symmetry_multiplicity
 _atom_site_fract_x
 _atom_site_fract_y
 _atom_site_fract_z
 _atom_site_occupancy
  Pr  Pr0  1  0.191327  0.191327  0.810031  1
  Pr  Pr1  1  0.808711  0.808711  0.190288  1
  Pr  Pr2  1  0.935865  0.563498  0.563491  1
  Pr  Pr3  1  0.561478  0.936128  0.936124  1
  Pr  Pr4  1  0.563498  0.935865  0.563491  1
  Pr  Pr5  1  0.936128  0.561478  0.936124  1
  Pr  Pr6  1  0.563460  0.563460  0.935857  1
  Pr  Pr7  1  0.936143  0.936143  0.561428  1
  Nd  Nd8  1  0.349324  0.349324  0.349074  1
  Nd  Nd9  1  0.351854  0.351854  0.946091  1
  Nd  Nd10  1  0.351551  0.946061  0.351897  1
  Nd  Nd11  1  0.946061  0.351551  0.351897  1
  Nd  Nd12  1  0.809957  0.191422  0.191355  1
  Nd  Nd13  1  0.190326  0.808696  0.808645  1
  Nd  Nd14  1  0.191422  0.809957  0.191355  1
  Nd  Nd15  1  0.808696  0.190326  0.808645  1
  Cd  Cd16  1  0.580649  0.580649  0.260221  1
  Cd  Cd17  1  0.580827  0.260214  0.580653  1
  Cd  Cd18  1  0.260214  0.580827  0.580653  1
  Ag  Ag19  1  0.582242  0.582242  0.582394  1
  Pt  Pt20  1  0.143928  0.143928  0.144528  1
  Pt  Pt21  1  0.142470  0.142470  0.570834  1
  Pt  Pt22  1  0.143063  0.570800  0.142457  1
  Pt  Pt23  1  0.570800  0.143063  0.142457  1
