# generated using pymatgen
data_Pr3InSn2Pt3
_symmetry_space_group_name_H-M   'P 1'
_cell_length_a   7.69119712
_cell_length_b   7.69351970
_cell_length_c   4.17302100
_cell_angle_alpha   90.00000000
_cell_angle_beta   90.00000000
_cell_angle_gamma   120.00997504
_symmetry_Int_Tables_number   1
_chemical_formula_structural   Pr3InSn2Pt3
_chemical_formula_sum   'Pr3 In1 Sn2 Pt3'
_cell_volume   213.82405058
_cell_formula_units_Z   1
loop_
 _symmetry_equiv_pos_site_id
 _symmetry_equiv_pos_as_xyz
  1  'x, y, z'
loop_
 _atom_site_type_symbol
 _atom_site_label
 _atom_site_symmetry_multiplicity
 _atom_site_fract_x
 _atom_site_fract_y
 _atom_site_fract_z
 _atom_site_occupancy
  Pr  Pr0  1  0.589963  0.588472  0.000000  1
  Pr  Pr1  1  0.410037  0.998509  0.000000  1
  Pr  Pr2  1  0.000000  0.412931  0.000000  1
  In  In3  1  0.000000  0.748268  0.500000  1
  Sn  Sn4  1  0.251939  0.250433  0.500000  1
  Sn  Sn5  1  0.748061  0.998494  0.500000  1
  Pt  Pt6  1  0.665784  0.331908  0.500000  1
  Pt  Pt7  1  0.000000  0.004862  0.000000  1
  Pt  Pt8  1  0.334216  0.666125  0.500000  1
