# generated using pymatgen
data_Tb5(In2Rh)2
_symmetry_space_group_name_H-M   'P 1'
_cell_length_a   3.65834900
_cell_length_b   8.06470200
_cell_length_c   18.39661100
_cell_angle_alpha   90.00000000
_cell_angle_beta   90.00000000
_cell_angle_gamma   90.00000000
_symmetry_Int_Tables_number   1
_chemical_formula_structural   Tb5(In2Rh)2
_chemical_formula_sum   'Tb10 In8 Rh4'
_cell_volume   542.76431140
_cell_formula_units_Z   2
loop_
 _symmetry_equiv_pos_site_id
 _symmetry_equiv_pos_as_xyz
  1  'x, y, z'
loop_
 _atom_site_type_symbol
 _atom_site_label
 _atom_site_symmetry_multiplicity
 _atom_site_fract_x
 _atom_site_fract_y
 _atom_site_fract_z
 _atom_site_occupancy
  Tb  Tb0  1  0.000000  0.500000  0.500000  1
  Tb  Tb1  1  0.000000  0.000000  0.000000  1
  Tb  Tb2  1  0.000000  0.747023  0.278216  1
  Tb  Tb3  1  0.000000  0.252977  0.721784  1
  Tb  Tb4  1  0.000000  0.752977  0.778216  1
  Tb  Tb5  1  0.000000  0.247023  0.221784  1
  Tb  Tb6  1  0.000000  0.618137  0.088532  1
  Tb  Tb7  1  0.000000  0.381863  0.911468  1
  Tb  Tb8  1  0.000000  0.881863  0.588532  1
  Tb  Tb9  1  0.000000  0.118137  0.411468  1
  In  In10  1  0.500000  0.707144  0.930809  1
  In  In11  1  0.500000  0.292856  0.069191  1
  In  In12  1  0.500000  0.792856  0.430809  1
  In  In13  1  0.500000  0.207144  0.569191  1
  In  In14  1  0.500000  0.569381  0.650523  1
  In  In15  1  0.500000  0.430619  0.349477  1
  In  In16  1  0.500000  0.930619  0.150523  1
  In  In17  1  0.500000  0.069381  0.849477  1
  Rh  Rh18  1  0.500000  0.522558  0.194590  1
  Rh  Rh19  1  0.500000  0.477442  0.805410  1
  Rh  Rh20  1  0.500000  0.977442  0.694590  1
  Rh  Rh21  1  0.500000  0.022558  0.305410  1
