# generated using pymatgen
data_Nd4Y11Tm5Bi12
_symmetry_space_group_name_H-M   'P 1'
_cell_length_a   8.31381261
_cell_length_b   9.53737124
_cell_length_c   12.16129404
_cell_angle_alpha   90.00486742
_cell_angle_beta   90.04734178
_cell_angle_gamma   89.99628099
_symmetry_Int_Tables_number   1
_chemical_formula_structural   Nd4Y11Tm5Bi12
_chemical_formula_sum   'Nd4 Y11 Tm5 Bi12'
_cell_volume   964.29198694
_cell_formula_units_Z   1
loop_
 _symmetry_equiv_pos_site_id
 _symmetry_equiv_pos_as_xyz
  1  'x, y, z'
loop_
 _atom_site_type_symbol
 _atom_site_label
 _atom_site_symmetry_multiplicity
 _atom_site_fract_x
 _atom_site_fract_y
 _atom_site_fract_z
 _atom_site_occupancy
  Nd  Nd0  1  0.183469  0.749988  0.720623  1
  Nd  Nd1  1  0.683669  0.750151  0.779495  1
  Nd  Nd2  1  0.816620  0.250227  0.279349  1
  Nd  Nd3  1  0.316490  0.250422  0.220188  1
  Y  Y4  1  0.807255  0.062395  0.560735  1
  Y  Y5  1  0.691847  0.937143  0.059973  1
  Y  Y6  1  0.192851  0.562305  0.439488  1
  Y  Y7  1  0.692831  0.562033  0.060451  1
  Y  Y8  1  0.192722  0.937808  0.439307  1
  Y  Y9  1  0.307362  0.061903  0.939733  1
  Y  Y10  1  0.807228  0.437966  0.560671  1
  Y  Y11  1  0.353654  0.750603  0.217050  1
  Y  Y12  1  0.853264  0.750372  0.282817  1
  Y  Y13  1  0.645934  0.250725  0.783058  1
  Y  Y14  1  0.147567  0.251038  0.717632  1
  Tm  Tm15  1  0.024323  0.750055  0.987874  1
  Tm  Tm16  1  0.524347  0.750220  0.512340  1
  Tm  Tm17  1  0.976499  0.250537  0.012024  1
  Tm  Tm18  1  0.475734  0.250235  0.487843  1
  Tm  Tm19  1  0.306908  0.434286  0.939667  1
  Bi  Bi20  1  0.433753  0.008142  0.670049  1
  Bi  Bi21  1  0.934428  0.492435  0.830153  1
  Bi  Bi22  1  0.566065  0.508186  0.329932  1
  Bi  Bi23  1  0.066157  0.992241  0.169931  1
  Bi  Bi24  1  0.566210  0.992380  0.330089  1
  Bi  Bi25  1  0.066230  0.508311  0.169798  1
  Bi  Bi26  1  0.433544  0.492424  0.670039  1
  Bi  Bi27  1  0.933929  0.008388  0.830112  1
  Bi  Bi28  1  0.405338  0.746663  0.962334  1
  Bi  Bi29  1  0.906719  0.750149  0.537007  1
  Bi  Bi30  1  0.593638  0.250270  0.037062  1
  Bi  Bi31  1  0.093417  0.250000  0.463175  1
