# generated using pymatgen
data_Er5Lu11(ScSb3)4
_symmetry_space_group_name_H-M   'P 1'
_cell_length_a   7.87899300
_cell_length_b   9.09193700
_cell_length_c   11.58731700
_cell_angle_alpha   90.00000000
_cell_angle_beta   89.99666836
_cell_angle_gamma   90.00000000
_symmetry_Int_Tables_number   1
_chemical_formula_structural   Er5Lu11(ScSb3)4
_chemical_formula_sum   'Er5 Lu11 Sc4 Sb12'
_cell_volume   830.06102125
_cell_formula_units_Z   1
loop_
 _symmetry_equiv_pos_site_id
 _symmetry_equiv_pos_as_xyz
  1  'x, y, z'
loop_
 _atom_site_type_symbol
 _atom_site_label
 _atom_site_symmetry_multiplicity
 _atom_site_fract_x
 _atom_site_fract_y
 _atom_site_fract_z
 _atom_site_occupancy
  Er  Er0  1  0.184753  0.750000  0.720947  1
  Er  Er1  1  0.684729  0.750000  0.779173  1
  Er  Er2  1  0.815330  0.250000  0.279161  1
  Er  Er3  1  0.315341  0.250000  0.220807  1
  Er  Er4  1  0.855223  0.750000  0.284722  1
  Lu  Lu5  1  0.196925  0.562689  0.439821  1
  Lu  Lu6  1  0.696793  0.937359  0.060038  1
  Lu  Lu7  1  0.803133  0.062682  0.560259  1
  Lu  Lu8  1  0.303094  0.437242  0.939702  1
  Lu  Lu9  1  0.803133  0.437318  0.560259  1
  Lu  Lu10  1  0.303094  0.062758  0.939702  1
  Lu  Lu11  1  0.196925  0.937311  0.439821  1
  Lu  Lu12  1  0.696793  0.562641  0.060038  1
  Lu  Lu13  1  0.355243  0.750000  0.215421  1
  Lu  Lu14  1  0.144691  0.250000  0.715457  1
  Lu  Lu15  1  0.644599  0.250000  0.784498  1
  Sc  Sc16  1  0.027991  0.750000  0.988711  1
  Sc  Sc17  1  0.527832  0.750000  0.511045  1
  Sc  Sc18  1  0.972122  0.250000  0.011005  1
  Sc  Sc19  1  0.472186  0.250000  0.488956  1
  Sb  Sb20  1  0.933229  0.495544  0.830942  1
  Sb  Sb21  1  0.433201  0.004429  0.669079  1
  Sb  Sb22  1  0.067224  0.996114  0.168718  1
  Sb  Sb23  1  0.566344  0.504139  0.330961  1
  Sb  Sb24  1  0.067224  0.503886  0.168718  1
  Sb  Sb25  1  0.566344  0.995861  0.330961  1
  Sb  Sb26  1  0.933229  0.004456  0.830942  1
  Sb  Sb27  1  0.433201  0.495571  0.669079  1
  Sb  Sb28  1  0.906820  0.750000  0.541209  1
  Sb  Sb29  1  0.406474  0.750000  0.959836  1
  Sb  Sb30  1  0.093406  0.250000  0.459828  1
  Sb  Sb31  1  0.593374  0.250000  0.040185  1
