# generated using pymatgen
data_Pr20Ga2Si9Sn
_symmetry_space_group_name_H-M   'P 1'
_cell_length_a   7.85440300
_cell_length_b   7.85440300
_cell_length_c   14.65167800
_cell_angle_alpha   90.00000000
_cell_angle_beta   90.00000000
_cell_angle_gamma   90.00000000
_symmetry_Int_Tables_number   1
_chemical_formula_structural   Pr20Ga2Si9Sn
_chemical_formula_sum   'Pr20 Ga2 Si9 Sn1'
_cell_volume   903.88613961
_cell_formula_units_Z   1
loop_
 _symmetry_equiv_pos_site_id
 _symmetry_equiv_pos_as_xyz
  1  'x, y, z'
loop_
 _atom_site_type_symbol
 _atom_site_label
 _atom_site_symmetry_multiplicity
 _atom_site_fract_x
 _atom_site_fract_y
 _atom_site_fract_z
 _atom_site_occupancy
  Pr  Pr0  1  0.821889  0.819538  0.609431  1
  Pr  Pr1  1  0.186391  0.827720  0.109532  1
  Pr  Pr2  1  0.167941  0.808244  0.390945  1
  Pr  Pr3  1  0.000000  0.500000  0.737342  1
  Pr  Pr4  1  0.832059  0.191756  0.390945  1
  Pr  Pr5  1  0.691756  0.667941  0.390945  1
  Pr  Pr6  1  0.680462  0.321889  0.609431  1
  Pr  Pr7  1  0.319538  0.678111  0.609431  1
  Pr  Pr8  1  0.000000  0.500000  0.223946  1
  Pr  Pr9  1  0.672280  0.686391  0.109532  1
  Pr  Pr10  1  0.685524  0.326602  0.890338  1
  Pr  Pr11  1  0.826602  0.814476  0.890338  1
  Pr  Pr12  1  0.308244  0.332059  0.390945  1
  Pr  Pr13  1  0.178111  0.180462  0.609431  1
  Pr  Pr14  1  0.813609  0.172280  0.109532  1
  Pr  Pr15  1  0.314476  0.673398  0.890338  1
  Pr  Pr16  1  0.327720  0.313609  0.109532  1
  Pr  Pr17  1  0.500000  0.000000  0.265380  1
  Pr  Pr18  1  0.173398  0.185524  0.890338  1
  Pr  Pr19  1  0.500000  0.000000  0.766862  1
  Ga  Ga20  1  0.500000  0.000000  0.994021  1
  Ga  Ga21  1  0.000000  0.500000  0.003831  1
  Si  Si22  1  0.612769  0.386228  0.251033  1
  Si  Si23  1  0.114365  0.887908  0.748940  1
  Si  Si24  1  0.387908  0.385635  0.748940  1
  Si  Si25  1  0.387231  0.613772  0.251033  1
  Si  Si26  1  0.886228  0.887231  0.251033  1
  Si  Si27  1  0.612092  0.614365  0.748940  1
  Si  Si28  1  0.000000  0.500000  0.511733  1
  Si  Si29  1  0.885635  0.112092  0.748940  1
  Si  Si30  1  0.113772  0.112769  0.251033  1
  Sn  Sn31  1  0.500000  0.000000  0.496008  1
