# generated using pymatgen
data_HoLu2Mg3AgSn2
_symmetry_space_group_name_H-M   'P 1'
_cell_length_a   7.44918303
_cell_length_b   7.44918287
_cell_length_c   4.48188400
_cell_angle_alpha   90.00000000
_cell_angle_beta   90.00000000
_cell_angle_gamma   120.29108396
_symmetry_Int_Tables_number   1
_chemical_formula_structural   HoLu2Mg3AgSn2
_chemical_formula_sum   'Ho1 Lu2 Mg3 Ag1 Sn2'
_cell_volume   214.74703923
_cell_formula_units_Z   1
loop_
 _symmetry_equiv_pos_site_id
 _symmetry_equiv_pos_as_xyz
  1  'x, y, z'
loop_
 _atom_site_type_symbol
 _atom_site_label
 _atom_site_symmetry_multiplicity
 _atom_site_fract_x
 _atom_site_fract_y
 _atom_site_fract_z
 _atom_site_occupancy
  Ho  Ho0  1  0.417922  0.417922  0.000000  1
  Lu  Lu1  1  0.583851  0.000779  0.000000  1
  Lu  Lu2  1  0.000779  0.583851  0.000000  1
  Mg  Mg3  1  0.236844  0.999599  0.500000  1
  Mg  Mg4  1  0.999599  0.236844  0.500000  1
  Mg  Mg5  1  0.763000  0.763000  0.500000  1
  Ag  Ag6  1  0.997502  0.997502  0.000000  1
  Sn  Sn7  1  0.332386  0.668117  0.500000  1
  Sn  Sn8  1  0.668117  0.332386  0.500000  1
