# generated using pymatgen
data_ErTm3(Zn2Cd)4
_symmetry_space_group_name_H-M   'P 1'
_cell_length_a   4.37763400
_cell_length_b   7.17453085
_cell_length_c   10.14381902
_cell_angle_alpha   89.97544406
_cell_angle_beta   90.00000000
_cell_angle_gamma   90.00000000
_symmetry_Int_Tables_number   1
_chemical_formula_structural   ErTm3(Zn2Cd)4
_chemical_formula_sum   'Er1 Tm3 Zn8 Cd4'
_cell_volume   318.59166413
_cell_formula_units_Z   1
loop_
 _symmetry_equiv_pos_site_id
 _symmetry_equiv_pos_as_xyz
  1  'x, y, z'
loop_
 _atom_site_type_symbol
 _atom_site_label
 _atom_site_symmetry_multiplicity
 _atom_site_fract_x
 _atom_site_fract_y
 _atom_site_fract_z
 _atom_site_occupancy
  Er  Er0  1  0.750000  0.199998  0.173448  1
  Tm  Tm1  1  0.250000  0.300339  0.674000  1
  Tm  Tm2  1  0.250000  0.800649  0.826369  1
  Tm  Tm3  1  0.750000  0.699700  0.326349  1
  Zn  Zn4  1  0.250000  0.920161  0.142200  1
  Zn  Zn5  1  0.250000  0.421130  0.357834  1
  Zn  Zn6  1  0.750000  0.079022  0.857453  1
  Zn  Zn7  1  0.750000  0.579354  0.642622  1
  Zn  Zn8  1  0.250000  0.192099  0.962150  1
  Zn  Zn9  1  0.250000  0.692094  0.537484  1
  Zn  Zn10  1  0.750000  0.806870  0.037490  1
  Zn  Zn11  1  0.750000  0.308389  0.463139  1
  Cd  Cd12  1  0.250000  0.537025  0.100329  1
  Cd  Cd13  1  0.250000  0.037156  0.399442  1
  Cd  Cd14  1  0.750000  0.463045  0.899252  1
  Cd  Cd15  1  0.750000  0.962970  0.600439  1
