# generated using pymatgen
data_HfZrAs2O9
_symmetry_space_group_name_H-M   'P 1'
_cell_length_a   7.92453790
_cell_length_b   7.92453789
_cell_length_c   10.60964818
_cell_angle_alpha   52.43910643
_cell_angle_beta   52.43910675
_cell_angle_gamma   51.68249008
_symmetry_Int_Tables_number   1
_chemical_formula_structural   HfZrAs2O9
_chemical_formula_sum   'Hf2 Zr2 As4 O18'
_cell_volume   384.57075439
_cell_formula_units_Z   2
loop_
 _symmetry_equiv_pos_site_id
 _symmetry_equiv_pos_as_xyz
  1  'x, y, z'
loop_
 _atom_site_type_symbol
 _atom_site_label
 _atom_site_symmetry_multiplicity
 _atom_site_fract_x
 _atom_site_fract_y
 _atom_site_fract_z
 _atom_site_occupancy
  Hf  Hf0  1  0.056022  0.056022  0.091330  1
  Hf  Hf1  1  0.943978  0.943978  0.908670  1
  Zr  Zr2  1  0.314508  0.314508  0.641407  1
  Zr  Zr3  1  0.685492  0.685492  0.358593  1
  As  As4  1  0.410536  0.410536  0.838876  1
  As  As5  1  0.830221  0.830221  0.538882  1
  As  As6  1  0.589464  0.589464  0.161124  1
  As  As7  1  0.169779  0.169779  0.461118  1
  O  O8  1  0.485112  0.485112  0.624894  1
  O  O9  1  0.716392  0.716392  0.526278  1
  O  O10  1  0.259720  0.259720  0.906575  1
  O  O11  1  0.283608  0.283608  0.473722  1
  O  O12  1  0.986482  0.385425  0.353445  1
  O  O13  1  0.366368  0.767370  0.094038  1
  O  O14  1  0.232630  0.633632  0.905962  1
  O  O15  1  0.887279  0.887279  0.153613  1
  O  O16  1  0.013518  0.614575  0.646555  1
  O  O17  1  0.978892  0.978892  0.336915  1
  O  O18  1  0.514888  0.514888  0.375106  1
  O  O19  1  0.740280  0.740280  0.093425  1
  O  O20  1  0.767370  0.366368  0.094038  1
  O  O21  1  0.021108  0.021108  0.663085  1
  O  O22  1  0.633632  0.232630  0.905962  1
  O  O23  1  0.614575  0.013518  0.646555  1
  O  O24  1  0.112721  0.112721  0.846387  1
  O  O25  1  0.385425  0.986482  0.353445  1
