# generated using pymatgen
data_Y7Ho2Er7(CdPd)4
_symmetry_space_group_name_H-M   'P 1'
_cell_length_a   9.68614097
_cell_length_b   9.68617559
_cell_length_c   9.68223000
_cell_angle_alpha   60.01265940
_cell_angle_beta   60.01358832
_cell_angle_gamma   60.13196623
_symmetry_Int_Tables_number   1
_chemical_formula_structural   Y7Ho2Er7(CdPd)4
_chemical_formula_sum   'Y7 Ho2 Er7 Cd4 Pd4'
_cell_volume   643.10380540
_cell_formula_units_Z   1
loop_
 _symmetry_equiv_pos_site_id
 _symmetry_equiv_pos_as_xyz
  1  'x, y, z'
loop_
 _atom_site_type_symbol
 _atom_site_label
 _atom_site_symmetry_multiplicity
 _atom_site_fract_x
 _atom_site_fract_y
 _atom_site_fract_z
 _atom_site_occupancy
  Y  Y0  1  0.812118  0.812125  0.187880  1
  Y  Y1  1  0.934825  0.564733  0.566060  1
  Y  Y2  1  0.564758  0.934826  0.934366  1
  Y  Y3  1  0.564765  0.934805  0.566061  1
  Y  Y4  1  0.934826  0.564753  0.934376  1
  Y  Y5  1  0.565723  0.565732  0.934292  1
  Y  Y6  1  0.935065  0.935071  0.564938  1
  Ho  Ho7  1  0.353838  0.353819  0.352943  1
  Ho  Ho8  1  0.353840  0.353830  0.939400  1
  Er  Er9  1  0.354440  0.937540  0.353995  1
  Er  Er10  1  0.937508  0.354461  0.354000  1
  Er  Er11  1  0.812115  0.188612  0.187948  1
  Er  Er12  1  0.188572  0.812113  0.811329  1
  Er  Er13  1  0.188621  0.812079  0.187991  1
  Er  Er14  1  0.812095  0.188592  0.811328  1
  Er  Er15  1  0.188250  0.188243  0.811763  1
  Cd  Cd16  1  0.581797  0.581803  0.582621  1
  Cd  Cd17  1  0.581799  0.581802  0.253777  1
  Cd  Cd18  1  0.581337  0.253985  0.582341  1
  Cd  Cd19  1  0.253985  0.581334  0.582339  1
  Pd  Pd20  1  0.144187  0.144197  0.146179  1
  Pd  Pd21  1  0.144184  0.144194  0.565434  1
  Pd  Pd22  1  0.145882  0.565467  0.144324  1
  Pd  Pd23  1  0.565473  0.145885  0.144318  1
