# generated using pymatgen
data_Tm6Al7Pd16
_symmetry_space_group_name_H-M   'P 1'
_cell_length_a   8.93626481
_cell_length_b   8.93626525
_cell_length_c   8.93626500
_cell_angle_alpha   59.99999724
_cell_angle_beta   59.99999560
_cell_angle_gamma   60.00000084
_symmetry_Int_Tables_number   1
_chemical_formula_structural   Tm6Al7Pd16
_chemical_formula_sum   'Tm6 Al7 Pd16'
_cell_volume   504.60680360
_cell_formula_units_Z   1
loop_
 _symmetry_equiv_pos_site_id
 _symmetry_equiv_pos_as_xyz
  1  'x, y, z'
loop_
 _atom_site_type_symbol
 _atom_site_label
 _atom_site_symmetry_multiplicity
 _atom_site_fract_x
 _atom_site_fract_y
 _atom_site_fract_z
 _atom_site_occupancy
  Tm  Tm0  1  0.713207  0.286793  0.286793  1
  Tm  Tm1  1  0.286793  0.713207  0.713207  1
  Tm  Tm2  1  0.286793  0.713207  0.286793  1
  Tm  Tm3  1  0.286793  0.286793  0.713207  1
  Tm  Tm4  1  0.713207  0.286793  0.713207  1
  Tm  Tm5  1  0.713207  0.713207  0.286793  1
  Al  Al6  1  0.500000  0.000000  0.000000  1
  Al  Al7  1  0.000000  0.500000  0.500000  1
  Al  Al8  1  0.000000  0.500000  0.000000  1
  Al  Al9  1  0.000000  0.000000  0.500000  1
  Al  Al10  1  0.500000  0.000000  0.500000  1
  Al  Al11  1  0.500000  0.500000  0.000000  1
  Al  Al12  1  0.000000  0.000000  0.000000  1
  Pd  Pd13  1  0.336507  0.336507  0.336507  1
  Pd  Pd14  1  0.336507  0.336507  0.990481  1
  Pd  Pd15  1  0.990481  0.336507  0.336507  1
  Pd  Pd16  1  0.336507  0.990481  0.336507  1
  Pd  Pd17  1  0.663493  0.663493  0.663493  1
  Pd  Pd18  1  0.663493  0.663493  0.009519  1
  Pd  Pd19  1  0.663493  0.009519  0.663493  1
  Pd  Pd20  1  0.009519  0.663493  0.663493  1
  Pd  Pd21  1  0.118736  0.118736  0.118736  1
  Pd  Pd22  1  0.118736  0.118736  0.643793  1
  Pd  Pd23  1  0.643793  0.118736  0.118736  1
  Pd  Pd24  1  0.118736  0.643793  0.118736  1
  Pd  Pd25  1  0.881264  0.881264  0.881264  1
  Pd  Pd26  1  0.881264  0.881264  0.356207  1
  Pd  Pd27  1  0.881264  0.356207  0.881264  1
  Pd  Pd28  1  0.356207  0.881264  0.881264  1
