# generated using pymatgen
data_Nd5HoAl24(Ir3Os)2
_symmetry_space_group_name_H-M   'P 1'
_cell_length_a   8.85382900
_cell_length_b   8.89212130
_cell_length_c   9.62088700
_cell_angle_alpha   90.00000000
_cell_angle_beta   90.00000000
_cell_angle_gamma   119.85765381
_symmetry_Int_Tables_number   1
_chemical_formula_structural   Nd5HoAl24(Ir3Os)2
_chemical_formula_sum   'Nd5 Ho1 Al24 Ir6 Os2'
_cell_volume   656.90627358
_cell_formula_units_Z   1
loop_
 _symmetry_equiv_pos_site_id
 _symmetry_equiv_pos_as_xyz
  1  'x, y, z'
loop_
 _atom_site_type_symbol
 _atom_site_label
 _atom_site_symmetry_multiplicity
 _atom_site_fract_x
 _atom_site_fract_y
 _atom_site_fract_z
 _atom_site_occupancy
  Nd  Nd0  1  0.808916  0.617830  0.750000  1
  Nd  Nd1  1  0.619933  0.809923  0.250000  1
  Nd  Nd2  1  0.380577  0.189546  0.750000  1
  Nd  Nd3  1  0.189988  0.809923  0.250000  1
  Nd  Nd4  1  0.808970  0.189546  0.750000  1
  Ho  Ho5  1  0.194283  0.388568  0.250000  1
  Al  Al6  1  0.333142  0.666285  0.027218  1
  Al  Al7  1  0.666166  0.332331  0.976202  1
  Al  Al8  1  0.666166  0.332331  0.523798  1
  Al  Al9  1  0.333142  0.666285  0.472782  1
  Al  Al10  1  0.163796  0.327593  0.572079  1
  Al  Al11  1  0.835930  0.671859  0.424923  1
  Al  Al12  1  0.671482  0.835098  0.574906  1
  Al  Al13  1  0.835930  0.671859  0.075077  1
  Al  Al14  1  0.326963  0.165302  0.423238  1
  Al  Al15  1  0.163796  0.327593  0.927921  1
  Al  Al16  1  0.163615  0.835098  0.574906  1
  Al  Al17  1  0.326963  0.165302  0.076762  1
  Al  Al18  1  0.838340  0.165302  0.423238  1
  Al  Al19  1  0.671482  0.835098  0.925094  1
  Al  Al20  1  0.838340  0.165302  0.076762  1
  Al  Al21  1  0.163615  0.835098  0.925094  1
  Al  Al22  1  0.563268  0.126535  0.250000  1
  Al  Al23  1  0.436247  0.872494  0.750000  1
  Al  Al24  1  0.875255  0.436920  0.250000  1
  Al  Al25  1  0.126154  0.561729  0.750000  1
  Al  Al26  1  0.561665  0.436920  0.250000  1
  Al  Al27  1  0.435576  0.561729  0.750000  1
  Al  Al28  1  0.003960  0.007919  0.250000  1
  Al  Al29  1  0.999241  0.998483  0.750000  1
  Ir  Ir30  1  0.499693  0.999386  0.000311  1
  Ir  Ir31  1  0.000764  0.499026  0.001424  1
  Ir  Ir32  1  0.499693  0.999386  0.499689  1
  Ir  Ir33  1  0.498261  0.499026  0.001424  1
  Ir  Ir34  1  0.000764  0.499026  0.498576  1
  Ir  Ir35  1  0.498261  0.499026  0.498576  1
  Os  Os36  1  0.999832  0.999663  0.000309  1
  Os  Os37  1  0.999832  0.999663  0.499691  1
