# generated using pymatgen
data_Dy3Ho2In2(NiHg)2
_symmetry_space_group_name_H-M   'P 1'
_cell_length_a   7.82285200
_cell_length_b   18.05594100
_cell_length_c   3.61671100
_cell_angle_alpha   90.00000000
_cell_angle_beta   90.00000000
_cell_angle_gamma   90.00000000
_symmetry_Int_Tables_number   1
_chemical_formula_structural   Dy3Ho2In2(NiHg)2
_chemical_formula_sum   'Dy6 Ho4 In4 Ni4 Hg4'
_cell_volume   510.85664626
_cell_formula_units_Z   2
loop_
 _symmetry_equiv_pos_site_id
 _symmetry_equiv_pos_as_xyz
  1  'x, y, z'
loop_
 _atom_site_type_symbol
 _atom_site_label
 _atom_site_symmetry_multiplicity
 _atom_site_fract_x
 _atom_site_fract_y
 _atom_site_fract_z
 _atom_site_occupancy
  Dy  Dy0  1  0.500000  0.500000  0.000000  1
  Dy  Dy1  1  0.000000  0.000000  0.000000  1
  Dy  Dy2  1  0.757828  0.280963  0.000000  1
  Dy  Dy3  1  0.242172  0.719037  0.000000  1
  Dy  Dy4  1  0.742172  0.780963  0.000000  1
  Dy  Dy5  1  0.257828  0.219037  0.000000  1
  Ho  Ho6  1  0.614793  0.088779  0.000000  1
  Ho  Ho7  1  0.385207  0.911221  0.000000  1
  Ho  Ho8  1  0.885207  0.588779  0.000000  1
  Ho  Ho9  1  0.114793  0.411221  0.000000  1
  In  In10  1  0.568293  0.651839  0.500000  1
  In  In11  1  0.431707  0.348161  0.500000  1
  In  In12  1  0.931707  0.151839  0.500000  1
  In  In13  1  0.068293  0.848161  0.500000  1
  Ni  Ni14  1  0.541710  0.197576  0.500000  1
  Ni  Ni15  1  0.458290  0.802424  0.500000  1
  Ni  Ni16  1  0.958290  0.697576  0.500000  1
  Ni  Ni17  1  0.041710  0.302424  0.500000  1
  Hg  Hg18  1  0.706930  0.931742  0.500000  1
  Hg  Hg19  1  0.293070  0.068258  0.500000  1
  Hg  Hg20  1  0.793070  0.431742  0.500000  1
  Hg  Hg21  1  0.206930  0.568258  0.500000  1
