# generated using pymatgen
data_Tb4MnTc7
_symmetry_space_group_name_H-M   'P 1'
_cell_length_a   5.45413245
_cell_length_b   5.33785312
_cell_length_c   8.79550200
_cell_angle_alpha   90.00000000
_cell_angle_beta   90.00000000
_cell_angle_gamma   119.27541680
_symmetry_Int_Tables_number   1
_chemical_formula_structural   Tb4MnTc7
_chemical_formula_sum   'Tb4 Mn1 Tc7'
_cell_volume   223.36155838
_cell_formula_units_Z   1
loop_
 _symmetry_equiv_pos_site_id
 _symmetry_equiv_pos_as_xyz
  1  'x, y, z'
loop_
 _atom_site_type_symbol
 _atom_site_label
 _atom_site_symmetry_multiplicity
 _atom_site_fract_x
 _atom_site_fract_y
 _atom_site_fract_z
 _atom_site_occupancy
  Tb  Tb0  1  0.668437  0.334552  0.562433  1
  Tb  Tb1  1  0.330223  0.665506  0.438440  1
  Tb  Tb2  1  0.330223  0.665506  0.061560  1
  Tb  Tb3  1  0.668437  0.334552  0.937567  1
  Mn  Mn4  1  0.341989  0.171081  0.250000  1
  Tc  Tc5  1  0.992855  0.996728  0.495964  1
  Tc  Tc6  1  0.992855  0.996728  0.004036  1
  Tc  Tc7  1  0.170054  0.339568  0.750000  1
  Tc  Tc8  1  0.172188  0.830835  0.750000  1
  Tc  Tc9  1  0.658833  0.829662  0.750000  1
  Tc  Tc10  1  0.836801  0.659792  0.250000  1
  Tc  Tc11  1  0.837106  0.175489  0.250000  1
