# generated using pymatgen
data_Pr2PaOs3
_symmetry_space_group_name_H-M   'P 1'
_cell_length_a   5.88611018
_cell_length_b   5.88611008
_cell_length_c   5.46496406
_cell_angle_alpha   57.41627020
_cell_angle_beta   57.41627486
_cell_angle_gamma   60.00000660
_symmetry_Int_Tables_number   1
_chemical_formula_structural   Pr2PaOs3
_chemical_formula_sum   'Pr2 Pa1 Os3'
_cell_volume   128.41488800
_cell_formula_units_Z   1
loop_
 _symmetry_equiv_pos_site_id
 _symmetry_equiv_pos_as_xyz
  1  'x, y, z'
loop_
 _atom_site_type_symbol
 _atom_site_label
 _atom_site_symmetry_multiplicity
 _atom_site_fract_x
 _atom_site_fract_y
 _atom_site_fract_z
 _atom_site_occupancy
  Pr  Pr0  1  0.747217  0.747217  0.758348  1
  Pr  Pr1  1  0.502783  0.502783  0.491652  1
  Pa  Pa2  1  0.125000  0.125000  0.625000  1
  Os  Os3  1  0.125000  0.625000  0.125000  1
  Os  Os4  1  0.625000  0.125000  0.125000  1
  Os  Os5  1  0.125000  0.125000  0.125000  1
