# generated using pymatgen
data_NpCd(Pb3O5)2
_symmetry_space_group_name_H-M   'P 1'
_cell_length_a   7.59534154
_cell_length_b   7.61732943
_cell_length_c   11.67060100
_cell_angle_alpha   90.00000000
_cell_angle_beta   90.00000000
_cell_angle_gamma   102.35162712
_symmetry_Int_Tables_number   1
_chemical_formula_structural   NpCd(Pb3O5)2
_chemical_formula_sum   'Np2 Cd2 Pb12 O20'
_cell_volume   659.58774936
_cell_formula_units_Z   2
loop_
 _symmetry_equiv_pos_site_id
 _symmetry_equiv_pos_as_xyz
  1  'x, y, z'
loop_
 _atom_site_type_symbol
 _atom_site_label
 _atom_site_symmetry_multiplicity
 _atom_site_fract_x
 _atom_site_fract_y
 _atom_site_fract_z
 _atom_site_occupancy
  Np  Np0  1  0.678304  0.678264  0.999960  1
  Np  Np1  1  0.321696  0.321736  0.499960  1
  Cd  Cd2  1  0.428621  0.571311  0.250109  1
  Cd  Cd3  1  0.571379  0.428689  0.750109  1
  Pb  Pb4  1  0.501220  0.935521  0.755019  1
  Pb  Pb5  1  0.935208  0.501335  0.244972  1
  Pb  Pb6  1  0.498780  0.064479  0.255019  1
  Pb  Pb7  1  0.064792  0.498665  0.744972  1
  Pb  Pb8  1  0.996292  0.003633  0.249946  1
  Pb  Pb9  1  0.003708  0.996367  0.749946  1
  Pb  Pb10  1  0.773644  0.210495  0.979375  1
  Pb  Pb11  1  0.210585  0.773459  0.020580  1
  Pb  Pb12  1  0.226356  0.789505  0.479375  1
  Pb  Pb13  1  0.789415  0.226541  0.520580  1
  Pb  Pb14  1  0.303011  0.302982  0.000236  1
  Pb  Pb15  1  0.696989  0.697018  0.500236  1
  O  O16  1  0.449918  0.579631  0.895615  1
  O  O17  1  0.579685  0.449922  0.104423  1
  O  O18  1  0.550082  0.420369  0.395615  1
  O  O19  1  0.420315  0.550078  0.604423  1
  O  O20  1  0.527290  0.188618  0.866745  1
  O  O21  1  0.188519  0.527169  0.133280  1
  O  O22  1  0.472710  0.811382  0.366745  1
  O  O23  1  0.811481  0.472831  0.633280  1
  O  O24  1  0.902887  0.752409  0.110497  1
  O  O25  1  0.752424  0.902797  0.889360  1
  O  O26  1  0.097113  0.247591  0.610497  1
  O  O27  1  0.247576  0.097203  0.389360  1
  O  O28  1  0.821329  0.531245  0.905241  1
  O  O29  1  0.531125  0.821120  0.094746  1
  O  O30  1  0.178671  0.468755  0.405241  1
  O  O31  1  0.468875  0.178880  0.594746  1
  O  O32  1  0.754250  0.984894  0.645455  1
  O  O33  1  0.984842  0.754353  0.354440  1
  O  O34  1  0.245750  0.015106  0.145455  1
  O  O35  1  0.015158  0.245647  0.854440  1
