# generated using pymatgen
data_Eu4Ga18RuPt5
_symmetry_space_group_name_H-M   'P 1'
_cell_length_a   7.70608924
_cell_length_b   7.70609886
_cell_length_c   9.66675032
_cell_angle_alpha   90.06378521
_cell_angle_beta   90.06282078
_cell_angle_gamma   119.83123697
_symmetry_Int_Tables_number   1
_chemical_formula_structural   Eu4Ga18RuPt5
_chemical_formula_sum   'Eu4 Ga18 Ru1 Pt5'
_cell_volume   497.98324036
_cell_formula_units_Z   1
loop_
 _symmetry_equiv_pos_site_id
 _symmetry_equiv_pos_as_xyz
  1  'x, y, z'
loop_
 _atom_site_type_symbol
 _atom_site_label
 _atom_site_symmetry_multiplicity
 _atom_site_fract_x
 _atom_site_fract_y
 _atom_site_fract_z
 _atom_site_occupancy
  Eu  Eu0  1  0.668071  0.996000  0.250401  1
  Eu  Eu1  1  0.004004  0.331923  0.749600  1
  Eu  Eu2  1  0.999248  0.670852  0.249824  1
  Eu  Eu3  1  0.329154  0.000747  0.750177  1
  Ga  Ga4  1  0.665764  0.007505  0.922543  1
  Ga  Ga5  1  0.131591  0.133136  0.249529  1
  Ga  Ga6  1  0.999901  0.334833  0.419552  1
  Ga  Ga7  1  0.333183  0.333151  0.566661  1
  Ga  Ga8  1  0.338692  0.541595  0.249163  1
  Ga  Ga9  1  0.458401  0.661298  0.750838  1
  Ga  Ga10  1  0.866858  0.868416  0.750471  1
  Ga  Ga11  1  0.668305  0.662794  0.061795  1
  Ga  Ga12  1  0.666853  0.666805  0.433347  1
  Ga  Ga13  1  0.999158  0.665715  0.581116  1
  Ga  Ga14  1  0.994916  0.659641  0.922713  1
  Ga  Ga15  1  0.334269  0.000836  0.418888  1
  Ga  Ga16  1  0.660561  0.452447  0.754432  1
  Ga  Ga17  1  0.547554  0.339451  0.245568  1
  Ga  Ga18  1  0.337195  0.331697  0.938199  1
  Ga  Ga19  1  0.340343  0.005080  0.077283  1
  Ga  Ga20  1  0.665181  0.000109  0.580460  1
  Ga  Ga21  1  0.992507  0.334253  0.077443  1
  Ru  Ru22  1  0.669230  0.330778  0.999999  1
  Pt  Pt23  1  0.330549  0.669453  0.500000  1
  Pt  Pt24  1  0.330093  0.669909  0.999999  1
  Pt  Pt25  1  0.668863  0.331137  0.500003  1
  Pt  Pt26  1  0.999730  0.000268  0.999996  1
  Pt  Pt27  1  0.999824  0.000172  0.500002  1
