# generated using pymatgen
data_Tm4MnTc7
_symmetry_space_group_name_H-M   'P 1'
_cell_length_a   5.31129200
_cell_length_b   5.31129217
_cell_length_c   8.85920700
_cell_angle_alpha   90.00000000
_cell_angle_beta   90.00000000
_cell_angle_gamma   119.99999892
_symmetry_Int_Tables_number   1
_chemical_formula_structural   Tm4MnTc7
_chemical_formula_sum   'Tm4 Mn1 Tc7'
_cell_volume   216.43418482
_cell_formula_units_Z   1
loop_
 _symmetry_equiv_pos_site_id
 _symmetry_equiv_pos_as_xyz
  1  'x, y, z'
loop_
 _atom_site_type_symbol
 _atom_site_label
 _atom_site_symmetry_multiplicity
 _atom_site_fract_x
 _atom_site_fract_y
 _atom_site_fract_z
 _atom_site_occupancy
  Tm  Tm0  1  0.333333  0.666667  0.436231  1
  Tm  Tm1  1  0.666667  0.333333  0.563769  1
  Tm  Tm2  1  0.666667  0.333333  0.935454  1
  Tm  Tm3  1  0.333333  0.666667  0.064546  1
  Mn  Mn4  1  0.000000  0.000000  0.500000  1
  Tc  Tc5  1  0.000000  0.000000  0.000000  1
  Tc  Tc6  1  0.829358  0.170642  0.252407  1
  Tc  Tc7  1  0.829358  0.658716  0.252407  1
  Tc  Tc8  1  0.341284  0.170642  0.252407  1
  Tc  Tc9  1  0.170642  0.829358  0.747593  1
  Tc  Tc10  1  0.170642  0.341284  0.747593  1
  Tc  Tc11  1  0.658716  0.829358  0.747593  1
