# generated using pymatgen
data_Tb10Tl7In(CoPt)2
_symmetry_space_group_name_H-M   'P 1'
_cell_length_a   3.62770600
_cell_length_b   8.20949896
_cell_length_c   18.37913291
_cell_angle_alpha   89.89104145
_cell_angle_beta   90.00000000
_cell_angle_gamma   90.00000000
_symmetry_Int_Tables_number   1
_chemical_formula_structural   Tb10Tl7In(CoPt)2
_chemical_formula_sum   'Tb10 Tl7 In1 Co2 Pt2'
_cell_volume   547.35988905
_cell_formula_units_Z   1
loop_
 _symmetry_equiv_pos_site_id
 _symmetry_equiv_pos_as_xyz
  1  'x, y, z'
loop_
 _atom_site_type_symbol
 _atom_site_label
 _atom_site_symmetry_multiplicity
 _atom_site_fract_x
 _atom_site_fract_y
 _atom_site_fract_z
 _atom_site_occupancy
  Tb  Tb0  1  0.000000  0.109707  0.408419  1
  Tb  Tb1  1  0.000000  0.889586  0.590471  1
  Tb  Tb2  1  0.000000  0.384084  0.910482  1
  Tb  Tb3  1  0.000000  0.615859  0.089728  1
  Tb  Tb4  1  0.000000  0.236028  0.223927  1
  Tb  Tb5  1  0.000000  0.765386  0.776174  1
  Tb  Tb6  1  0.000000  0.244089  0.719022  1
  Tb  Tb7  1  0.000000  0.755283  0.281159  1
  Tb  Tb8  1  0.000000  0.999867  0.999954  1
  Tb  Tb9  1  0.000000  0.501940  0.499817  1
  Tl  Tl10  1  0.500000  0.422592  0.353981  1
  Tl  Tl11  1  0.500000  0.580928  0.646468  1
  Tl  Tl12  1  0.500000  0.070883  0.847688  1
  Tl  Tl13  1  0.500000  0.929730  0.152613  1
  Tl  Tl14  1  0.500000  0.291924  0.064900  1
  Tl  Tl15  1  0.500000  0.707882  0.935337  1
  Tl  Tl16  1  0.500000  0.204095  0.566767  1
  In  In17  1  0.500000  0.796175  0.431163  1
  Co  Co18  1  0.500000  0.012587  0.307511  1
  Co  Co19  1  0.500000  0.981972  0.694436  1
  Pt  Pt20  1  0.500000  0.477417  0.801180  1
  Pt  Pt21  1  0.500000  0.521984  0.198803  1
