# generated using pymatgen
data_HoTh5(GePd)6
_symmetry_space_group_name_H-M   'P 1'
_cell_length_a   4.44141000
_cell_length_b   7.67611547
_cell_length_c   22.65634360
_cell_angle_alpha   90.09829202
_cell_angle_beta   90.00000000
_cell_angle_gamma   90.00000000
_symmetry_Int_Tables_number   1
_chemical_formula_structural   HoTh5(GePd)6
_chemical_formula_sum   'Ho2 Th10 Ge12 Pd12'
_cell_volume   772.41651088
_cell_formula_units_Z   2
loop_
 _symmetry_equiv_pos_site_id
 _symmetry_equiv_pos_as_xyz
  1  'x, y, z'
loop_
 _atom_site_type_symbol
 _atom_site_label
 _atom_site_symmetry_multiplicity
 _atom_site_fract_x
 _atom_site_fract_y
 _atom_site_fract_z
 _atom_site_occupancy
  Ho  Ho0  1  0.750000  0.223417  0.499756  1
  Ho  Ho1  1  0.250000  0.776583  0.500244  1
  Th  Th2  1  0.250000  0.731247  0.339026  1
  Th  Th3  1  0.750000  0.268753  0.660974  1
  Th  Th4  1  0.750000  0.238049  0.169175  1
  Th  Th5  1  0.250000  0.761951  0.830825  1
  Th  Th6  1  0.250000  0.765134  0.168930  1
  Th  Th7  1  0.750000  0.234866  0.831070  1
  Th  Th8  1  0.750000  0.274868  0.338435  1
  Th  Th9  1  0.250000  0.725132  0.661565  1
  Th  Th10  1  0.250000  0.736503  0.999953  1
  Th  Th11  1  0.750000  0.263497  0.000047  1
  Ge  Ge12  1  0.250000  0.086222  0.079705  1
  Ge  Ge13  1  0.750000  0.913778  0.920295  1
  Ge  Ge14  1  0.750000  0.586653  0.430327  1
  Ge  Ge15  1  0.250000  0.413347  0.569673  1
  Ge  Ge16  1  0.250000  0.086651  0.255689  1
  Ge  Ge17  1  0.750000  0.913349  0.744311  1
  Ge  Ge18  1  0.750000  0.590402  0.250294  1
  Ge  Ge19  1  0.250000  0.409598  0.749706  1
  Ge  Ge20  1  0.250000  0.089235  0.410160  1
  Ge  Ge21  1  0.750000  0.910765  0.589840  1
  Ge  Ge22  1  0.750000  0.585345  0.084106  1
  Ge  Ge23  1  0.250000  0.414655  0.915894  1
  Pd  Pd24  1  0.250000  0.420277  0.246837  1
  Pd  Pd25  1  0.750000  0.579723  0.753163  1
  Pd  Pd26  1  0.750000  0.922228  0.261006  1
  Pd  Pd27  1  0.250000  0.077772  0.738994  1
  Pd  Pd28  1  0.250000  0.417721  0.437806  1
  Pd  Pd29  1  0.750000  0.582279  0.562194  1
  Pd  Pd30  1  0.750000  0.919361  0.079852  1
  Pd  Pd31  1  0.250000  0.080639  0.920148  1
  Pd  Pd32  1  0.250000  0.418887  0.093086  1
  Pd  Pd33  1  0.750000  0.581113  0.906914  1
  Pd  Pd34  1  0.750000  0.921060  0.417605  1
  Pd  Pd35  1  0.250000  0.078940  0.582395  1
