# generated using pymatgen
data_Lu5Sc5(GaSb2)2
_symmetry_space_group_name_H-M   'P 1'
_cell_length_a   8.47869801
_cell_length_b   8.47869785
_cell_length_c   6.07006400
_cell_angle_alpha   90.00000000
_cell_angle_beta   90.00000000
_cell_angle_gamma   119.42915919
_symmetry_Int_Tables_number   1
_chemical_formula_structural   Lu5Sc5(GaSb2)2
_chemical_formula_sum   'Lu5 Sc5 Ga2 Sb4'
_cell_volume   380.05962356
_cell_formula_units_Z   1
loop_
 _symmetry_equiv_pos_site_id
 _symmetry_equiv_pos_as_xyz
  1  'x, y, z'
loop_
 _atom_site_type_symbol
 _atom_site_label
 _atom_site_symmetry_multiplicity
 _atom_site_fract_x
 _atom_site_fract_y
 _atom_site_fract_z
 _atom_site_occupancy
  Lu  Lu0  1  0.236912  0.998314  0.750000  1
  Lu  Lu1  1  0.998314  0.236912  0.750000  1
  Lu  Lu2  1  0.238516  0.238516  0.250000  1
  Lu  Lu3  1  0.765557  0.013366  0.250000  1
  Lu  Lu4  1  0.013366  0.765557  0.250000  1
  Sc  Sc5  1  0.668962  0.325559  0.004524  1
  Sc  Sc6  1  0.325559  0.668962  0.004524  1
  Sc  Sc7  1  0.325559  0.668962  0.495476  1
  Sc  Sc8  1  0.668962  0.325559  0.495476  1
  Sc  Sc9  1  0.756338  0.756338  0.750000  1
  Ga  Ga10  1  0.398864  0.001437  0.250000  1
  Ga  Ga11  1  0.001437  0.398864  0.250000  1
  Sb  Sb12  1  0.399628  0.399628  0.750000  1
  Sb  Sb13  1  0.600070  0.992227  0.750000  1
  Sb  Sb14  1  0.992227  0.600070  0.750000  1
  Sb  Sb15  1  0.609732  0.609732  0.250000  1
