# generated using pymatgen
data_YTm4CoSb2
_symmetry_space_group_name_H-M   'P 1'
_cell_length_a   7.77566400
_cell_length_b   8.71429600
_cell_length_c   12.08934600
_cell_angle_alpha   90.00000000
_cell_angle_beta   90.00000000
_cell_angle_gamma   90.00000000
_symmetry_Int_Tables_number   1
_chemical_formula_structural   YTm4CoSb2
_chemical_formula_sum   'Y4 Tm16 Co4 Sb8'
_cell_volume   819.16728703
_cell_formula_units_Z   4
loop_
 _symmetry_equiv_pos_site_id
 _symmetry_equiv_pos_as_xyz
  1  'x, y, z'
loop_
 _atom_site_type_symbol
 _atom_site_label
 _atom_site_symmetry_multiplicity
 _atom_site_fract_x
 _atom_site_fract_y
 _atom_site_fract_z
 _atom_site_occupancy
  Y  Y0  1  0.621893  0.750000  0.306723  1
  Y  Y1  1  0.878107  0.750000  0.806723  1
  Y  Y2  1  0.378107  0.250000  0.693277  1
  Y  Y3  1  0.121893  0.250000  0.193277  1
  Tm  Tm4  1  0.154844  0.750000  0.203102  1
  Tm  Tm5  1  0.345156  0.750000  0.703102  1
  Tm  Tm6  1  0.845156  0.250000  0.796898  1
  Tm  Tm7  1  0.654844  0.250000  0.296898  1
  Tm  Tm8  1  0.450305  0.750000  0.998024  1
  Tm  Tm9  1  0.049695  0.750000  0.498024  1
  Tm  Tm10  1  0.549695  0.250000  0.001976  1
  Tm  Tm11  1  0.950305  0.250000  0.501976  1
  Tm  Tm12  1  0.823109  0.536343  0.065225  1
  Tm  Tm13  1  0.676891  0.963657  0.565225  1
  Tm  Tm14  1  0.176891  0.036343  0.934775  1
  Tm  Tm15  1  0.323109  0.463657  0.434775  1
  Tm  Tm16  1  0.176891  0.463657  0.934775  1
  Tm  Tm17  1  0.323109  0.036343  0.434775  1
  Tm  Tm18  1  0.823109  0.963657  0.065225  1
  Tm  Tm19  1  0.676891  0.536343  0.565225  1
  Co  Co20  1  0.432262  0.750000  0.492092  1
  Co  Co21  1  0.067738  0.750000  0.992092  1
  Co  Co22  1  0.567738  0.250000  0.507908  1
  Co  Co23  1  0.932262  0.250000  0.007908  1
  Sb  Sb24  1  0.930113  0.508806  0.328153  1
  Sb  Sb25  1  0.569887  0.991194  0.828153  1
  Sb  Sb26  1  0.069887  0.008806  0.671847  1
  Sb  Sb27  1  0.430113  0.491194  0.171847  1
  Sb  Sb28  1  0.069887  0.491194  0.671847  1
  Sb  Sb29  1  0.430113  0.008806  0.171847  1
  Sb  Sb30  1  0.930113  0.991194  0.328153  1
  Sb  Sb31  1  0.569887  0.508806  0.828153  1
