# generated using pymatgen
data_Nd3Hf3Sn6Ir5Rh
_symmetry_space_group_name_H-M   'P 1'
_cell_length_a   7.49285300
_cell_length_b   7.49285321
_cell_length_c   7.78878900
_cell_angle_alpha   90.00000000
_cell_angle_beta   90.00000000
_cell_angle_gamma   120.00000348
_symmetry_Int_Tables_number   1
_chemical_formula_structural   Nd3Hf3Sn6Ir5Rh
_chemical_formula_sum   'Nd3 Hf3 Sn6 Ir5 Rh1'
_cell_volume   378.69972726
_cell_formula_units_Z   1
loop_
 _symmetry_equiv_pos_site_id
 _symmetry_equiv_pos_as_xyz
  1  'x, y, z'
loop_
 _atom_site_type_symbol
 _atom_site_label
 _atom_site_symmetry_multiplicity
 _atom_site_fract_x
 _atom_site_fract_y
 _atom_site_fract_z
 _atom_site_occupancy
  Nd  Nd0  1  0.000019  0.410511  0.750000  1
  Nd  Nd1  1  0.589489  0.589507  0.750000  1
  Nd  Nd2  1  0.410493  0.999981  0.750000  1
  Hf  Hf3  1  0.999578  0.391731  0.250000  1
  Hf  Hf4  1  0.608269  0.607849  0.250000  1
  Hf  Hf5  1  0.392151  0.000422  0.250000  1
  Sn  Sn6  1  0.264254  0.264521  0.489371  1
  Sn  Sn7  1  0.000268  0.735746  0.489371  1
  Sn  Sn8  1  0.000268  0.735746  0.010629  1
  Sn  Sn9  1  0.735479  0.999732  0.489371  1
  Sn  Sn10  1  0.735479  0.999732  0.010629  1
  Sn  Sn11  1  0.264254  0.264521  0.010629  1
  Ir  Ir12  1  0.333333  0.666667  0.451706  1
  Ir  Ir13  1  0.666667  0.333333  0.452462  1
  Ir  Ir14  1  0.333333  0.666667  0.048294  1
  Ir  Ir15  1  0.000000  0.000000  0.250000  1
  Ir  Ir16  1  0.666667  0.333333  0.047538  1
  Rh  Rh17  1  0.000000  0.000000  0.750000  1
