# generated using pymatgen
data_Sm2HoGa6(CuNi2)3
_symmetry_space_group_name_H-M   'P 1'
_cell_length_a   4.12879700
_cell_length_b   8.84713472
_cell_length_c   8.85019031
_cell_angle_alpha   119.98857690
_cell_angle_beta   90.00000000
_cell_angle_gamma   90.00000000
_symmetry_Int_Tables_number   1
_chemical_formula_structural   Sm2HoGa6(CuNi2)3
_chemical_formula_sum   'Sm2 Ho1 Ga6 Cu3 Ni6'
_cell_volume   280.00087687
_cell_formula_units_Z   1
loop_
 _symmetry_equiv_pos_site_id
 _symmetry_equiv_pos_as_xyz
  1  'x, y, z'
loop_
 _atom_site_type_symbol
 _atom_site_label
 _atom_site_symmetry_multiplicity
 _atom_site_fract_x
 _atom_site_fract_y
 _atom_site_fract_z
 _atom_site_occupancy
  Sm  Sm0  1  0.500000  0.333246  0.666728  1
  Sm  Sm1  1  0.500000  0.666519  0.333272  1
  Ho  Ho2  1  0.000000  0.000155  0.000000  1
  Ga  Ga3  1  0.000000  0.517811  0.000000  1
  Ga  Ga4  1  0.000000  0.482107  0.482217  1
  Ga  Ga5  1  0.000000  0.999890  0.517783  1
  Ga  Ga6  1  0.500000  0.276461  0.000000  1
  Ga  Ga7  1  0.500000  0.723233  0.723215  1
  Ga  Ga8  1  0.500000  0.000018  0.276785  1
  Cu  Cu9  1  0.500000  0.708967  0.000000  1
  Cu  Cu10  1  0.500000  0.291015  0.291102  1
  Cu  Cu11  1  0.500000  0.999912  0.708898  1
  Ni  Ni12  1  0.000000  0.171624  0.368742  1
  Ni  Ni13  1  0.000000  0.197141  0.828496  1
  Ni  Ni14  1  0.000000  0.631801  0.803330  1
  Ni  Ni15  1  0.000000  0.802884  0.631258  1
  Ni  Ni16  1  0.000000  0.368645  0.171504  1
  Ni  Ni17  1  0.000000  0.828472  0.196670  1
