# generated using pymatgen
data_Sr6MnFeRuO12
_symmetry_space_group_name_H-M   'P 1'
_cell_length_a   8.79278457
_cell_length_b   8.79278531
_cell_length_c   6.89001340
_cell_angle_alpha   67.50777739
_cell_angle_beta   67.50777616
_cell_angle_gamma   36.85386924
_symmetry_Int_Tables_number   1
_chemical_formula_structural   Sr6MnFeRuO12
_chemical_formula_sum   'Sr6 Mn1 Fe1 Ru1 O12'
_cell_volume   292.36778806
_cell_formula_units_Z   1
loop_
 _symmetry_equiv_pos_site_id
 _symmetry_equiv_pos_as_xyz
  1  'x, y, z'
loop_
 _atom_site_type_symbol
 _atom_site_label
 _atom_site_symmetry_multiplicity
 _atom_site_fract_x
 _atom_site_fract_y
 _atom_site_fract_z
 _atom_site_occupancy
  Sr  Sr0  1  0.878427  0.878427  0.714522  1
  Sr  Sr1  1  0.217519  0.217519  0.709759  1
  Sr  Sr2  1  0.548427  0.548427  0.709906  1
  Sr  Sr3  1  0.452091  0.452091  0.290617  1
  Sr  Sr4  1  0.782538  0.782538  0.289291  1
  Sr  Sr5  1  0.121341  0.121341  0.285919  1
  Mn  Mn6  1  0.331236  0.331236  0.000264  1
  Fe  Fe7  1  0.669132  0.669132  0.999573  1
  Ru  Ru8  1  0.999499  0.999499  0.000153  1
  O  O9  1  0.946173  0.946173  0.319504  1
  O  O10  1  0.281564  0.281564  0.313539  1
  O  O11  1  0.612807  0.612807  0.320627  1
  O  O12  1  0.385712  0.385712  0.685714  1
  O  O13  1  0.720226  0.720226  0.679482  1
  O  O14  1  0.052576  0.052576  0.680979  1
  O  O15  1  0.495121  0.009508  0.999863  1
  O  O16  1  0.835403  0.328466  0.000175  1
  O  O17  1  0.168556  0.663676  0.000037  1
  O  O18  1  0.009508  0.495121  0.999863  1
  O  O19  1  0.328466  0.835403  0.000175  1
  O  O20  1  0.663676  0.168556  0.000037  1
