# generated using pymatgen
data_Dy8TiV3O20
_symmetry_space_group_name_H-M   'P 1'
_cell_length_a   3.72631700
_cell_length_b   10.39893375
_cell_length_c   11.27120228
_cell_angle_alpha   90.13038180
_cell_angle_beta   90.00000000
_cell_angle_gamma   90.00000000
_symmetry_Int_Tables_number   1
_chemical_formula_structural   Dy8TiV3O20
_chemical_formula_sum   'Dy8 Ti1 V3 O20'
_cell_volume   436.75484214
_cell_formula_units_Z   1
loop_
 _symmetry_equiv_pos_site_id
 _symmetry_equiv_pos_as_xyz
  1  'x, y, z'
loop_
 _atom_site_type_symbol
 _atom_site_label
 _atom_site_symmetry_multiplicity
 _atom_site_fract_x
 _atom_site_fract_y
 _atom_site_fract_z
 _atom_site_occupancy
  Dy  Dy0  1  0.250000  0.136241  0.944118  1
  Dy  Dy1  1  0.250000  0.637301  0.554420  1
  Dy  Dy2  1  0.750000  0.862571  0.055418  1
  Dy  Dy3  1  0.750000  0.363813  0.445553  1
  Dy  Dy4  1  0.750000  0.381846  0.773747  1
  Dy  Dy5  1  0.750000  0.880971  0.725560  1
  Dy  Dy6  1  0.250000  0.616954  0.224396  1
  Dy  Dy7  1  0.250000  0.117236  0.275430  1
  Ti  Ti8  1  0.750000  0.325848  0.119621  1
  V  V9  1  0.250000  0.171422  0.618810  1
  V  V10  1  0.250000  0.671536  0.880884  1
  V  V11  1  0.750000  0.828181  0.380807  1
  O  O12  1  0.250000  0.226100  0.457706  1
  O  O13  1  0.250000  0.726822  0.041919  1
  O  O14  1  0.750000  0.773915  0.542375  1
  O  O15  1  0.750000  0.276227  0.956981  1
  O  O16  1  0.250000  0.493758  0.395000  1
  O  O17  1  0.250000  0.994665  0.105312  1
  O  O18  1  0.750000  0.506413  0.605559  1
  O  O19  1  0.750000  0.006832  0.894570  1
  O  O20  1  0.250000  0.263778  0.117158  1
  O  O21  1  0.250000  0.764306  0.383488  1
  O  O22  1  0.750000  0.735610  0.883354  1
  O  O23  1  0.750000  0.235440  0.616279  1
  O  O24  1  0.250000  0.008768  0.654554  1
  O  O25  1  0.250000  0.508708  0.845372  1
  O  O26  1  0.750000  0.991385  0.346078  1
  O  O27  1  0.750000  0.492742  0.154711  1
  O  O28  1  0.250000  0.258340  0.769705  1
  O  O29  1  0.250000  0.758529  0.730359  1
  O  O30  1  0.750000  0.742960  0.229936  1
  O  O31  1  0.750000  0.240786  0.270818  1
