# generated using pymatgen
data_K(Bi3Ir)4
_symmetry_space_group_name_H-M   'P 1'
_cell_length_a   8.55046117
_cell_length_b   8.55046146
_cell_length_c   8.55046200
_cell_angle_alpha   109.47122192
_cell_angle_beta   109.47122261
_cell_angle_gamma   109.47122468
_symmetry_Int_Tables_number   1
_chemical_formula_structural   K(Bi3Ir)4
_chemical_formula_sum   'K1 Bi12 Ir4'
_cell_volume   481.22340739
_cell_formula_units_Z   1
loop_
 _symmetry_equiv_pos_site_id
 _symmetry_equiv_pos_as_xyz
  1  'x, y, z'
loop_
 _atom_site_type_symbol
 _atom_site_label
 _atom_site_symmetry_multiplicity
 _atom_site_fract_x
 _atom_site_fract_y
 _atom_site_fract_z
 _atom_site_occupancy
  K  K0  1  0.000000  0.000000  0.000000  1
  Bi  Bi1  1  0.840995  0.661239  0.502233  1
  Bi  Bi2  1  0.159005  0.338761  0.497767  1
  Bi  Bi3  1  0.159005  0.661239  0.820245  1
  Bi  Bi4  1  0.840995  0.338761  0.179755  1
  Bi  Bi5  1  0.661239  0.502233  0.840995  1
  Bi  Bi6  1  0.338761  0.497767  0.159005  1
  Bi  Bi7  1  0.661239  0.820245  0.159005  1
  Bi  Bi8  1  0.338761  0.179755  0.840995  1
  Bi  Bi9  1  0.502233  0.840995  0.661239  1
  Bi  Bi10  1  0.497767  0.159005  0.338761  1
  Bi  Bi11  1  0.179755  0.840995  0.338761  1
  Bi  Bi12  1  0.820245  0.159005  0.661239  1
  Ir  Ir13  1  0.500000  0.500000  0.500000  1
  Ir  Ir14  1  0.500000  0.000000  0.000000  1
  Ir  Ir15  1  0.000000  0.500000  0.000000  1
  Ir  Ir16  1  0.000000  0.000000  0.500000  1
