# generated using pymatgen
data_Li3Al4ZnPt4
_symmetry_space_group_name_H-M   'P 1'
_cell_length_a   5.24973868
_cell_length_b   4.33312300
_cell_length_c   7.49333666
_cell_angle_alpha   90.00000000
_cell_angle_beta   89.57496997
_cell_angle_gamma   90.00000000
_symmetry_Int_Tables_number   1
_chemical_formula_structural   Li3Al4ZnPt4
_chemical_formula_sum   'Li3 Al4 Zn1 Pt4'
_cell_volume   170.45195966
_cell_formula_units_Z   1
loop_
 _symmetry_equiv_pos_site_id
 _symmetry_equiv_pos_as_xyz
  1  'x, y, z'
loop_
 _atom_site_type_symbol
 _atom_site_label
 _atom_site_symmetry_multiplicity
 _atom_site_fract_x
 _atom_site_fract_y
 _atom_site_fract_z
 _atom_site_occupancy
  Li  Li0  1  0.506086  0.749999  0.250686  1
  Li  Li1  1  0.491107  0.249999  0.749611  1
  Li  Li2  1  0.993047  0.249999  0.749327  1
  Al  Al3  1  0.676308  0.249999  0.080051  1
  Al  Al4  1  0.323136  0.249999  0.418117  1
  Al  Al5  1  0.681218  0.749999  0.588187  1
  Al  Al6  1  0.321438  0.749999  0.914000  1
  Zn  Zn7  1  0.004889  0.749999  0.250504  1
  Pt  Pt8  1  0.190079  0.249999  0.083329  1
  Pt  Pt9  1  0.810310  0.249999  0.415061  1
  Pt  Pt10  1  0.190064  0.749999  0.581971  1
  Pt  Pt11  1  0.812311  0.749999  0.919153  1
