# generated using pymatgen
data_Mg2Hg(P3Pd10)2
_symmetry_space_group_name_H-M   'P 1'
_cell_length_a   8.59736295
_cell_length_b   8.59736266
_cell_length_c   8.59736200
_cell_angle_alpha   60.00000253
_cell_angle_beta   60.00000367
_cell_angle_gamma   59.99999464
_symmetry_Int_Tables_number   1
_chemical_formula_structural   Mg2Hg(P3Pd10)2
_chemical_formula_sum   'Mg2 Hg1 P6 Pd20'
_cell_volume   449.34584156
_cell_formula_units_Z   1
loop_
 _symmetry_equiv_pos_site_id
 _symmetry_equiv_pos_as_xyz
  1  'x, y, z'
loop_
 _atom_site_type_symbol
 _atom_site_label
 _atom_site_symmetry_multiplicity
 _atom_site_fract_x
 _atom_site_fract_y
 _atom_site_fract_z
 _atom_site_occupancy
  Mg  Mg0  1  0.250000  0.250000  0.250000  1
  Mg  Mg1  1  0.000000  0.000000  0.000000  1
  Hg  Hg2  1  0.750000  0.750000  0.750000  1
  P  P3  1  0.734305  0.265695  0.265695  1
  P  P4  1  0.265695  0.734305  0.734305  1
  P  P5  1  0.265695  0.734305  0.265695  1
  P  P6  1  0.734305  0.265695  0.734305  1
  P  P7  1  0.265695  0.265695  0.734305  1
  P  P8  1  0.734305  0.734305  0.265695  1
  Pd  Pd9  1  0.382406  0.382406  0.382406  1
  Pd  Pd10  1  0.615986  0.615986  0.615986  1
  Pd  Pd11  1  0.382406  0.382406  0.852780  1
  Pd  Pd12  1  0.382406  0.852780  0.382406  1
  Pd  Pd13  1  0.615986  0.615986  0.152042  1
  Pd  Pd14  1  0.615986  0.152042  0.615986  1
  Pd  Pd15  1  0.852780  0.382406  0.382406  1
  Pd  Pd16  1  0.152042  0.615986  0.615986  1
  Pd  Pd17  1  0.340541  0.002056  0.002056  1
  Pd  Pd18  1  0.655346  0.002056  0.002056  1
  Pd  Pd19  1  0.002056  0.340541  0.655346  1
  Pd  Pd20  1  0.002056  0.655346  0.340541  1
  Pd  Pd21  1  0.002056  0.340541  0.002056  1
  Pd  Pd22  1  0.655346  0.002056  0.340541  1
  Pd  Pd23  1  0.002056  0.655346  0.002056  1
  Pd  Pd24  1  0.340541  0.002056  0.655346  1
  Pd  Pd25  1  0.002056  0.002056  0.340541  1
  Pd  Pd26  1  0.002056  0.002056  0.655346  1
  Pd  Pd27  1  0.655346  0.340541  0.002056  1
  Pd  Pd28  1  0.340541  0.655346  0.002056  1
