# generated using pymatgen
data_YEr4In4CoPd
_symmetry_space_group_name_H-M   'P 1'
_cell_length_a   3.57839000
_cell_length_b   8.04660396
_cell_length_c   18.01902800
_cell_angle_alpha   90.13880849
_cell_angle_beta   90.00000000
_cell_angle_gamma   90.00000000
_symmetry_Int_Tables_number   1
_chemical_formula_structural   YEr4In4CoPd
_chemical_formula_sum   'Y2 Er8 In8 Co2 Pd2'
_cell_volume   518.83633639
_cell_formula_units_Z   2
loop_
 _symmetry_equiv_pos_site_id
 _symmetry_equiv_pos_as_xyz
  1  'x, y, z'
loop_
 _atom_site_type_symbol
 _atom_site_label
 _atom_site_symmetry_multiplicity
 _atom_site_fract_x
 _atom_site_fract_y
 _atom_site_fract_z
 _atom_site_occupancy
  Y  Y0  1  0.000000  0.500000  0.500000  1
  Y  Y1  1  0.000000  0.000000  0.000000  1
  Er  Er2  1  0.000000  0.725065  0.275657  1
  Er  Er3  1  0.000000  0.274935  0.724343  1
  Er  Er4  1  0.000000  0.741403  0.780933  1
  Er  Er5  1  0.000000  0.258597  0.219067  1
  Er  Er6  1  0.000000  0.611067  0.089144  1
  Er  Er7  1  0.000000  0.388933  0.910856  1
  Er  Er8  1  0.000000  0.883023  0.585185  1
  Er  Er9  1  0.000000  0.116977  0.414815  1
  In  In10  1  0.500000  0.706536  0.931203  1
  In  In11  1  0.500000  0.293464  0.068797  1
  In  In12  1  0.500000  0.790624  0.430765  1
  In  In13  1  0.500000  0.209376  0.569235  1
  In  In14  1  0.500000  0.576275  0.651681  1
  In  In15  1  0.500000  0.423725  0.348319  1
  In  In16  1  0.500000  0.920848  0.149574  1
  In  In17  1  0.500000  0.079152  0.850426  1
  Co  Co18  1  0.500000  0.517758  0.194405  1
  Co  Co19  1  0.500000  0.482242  0.805595  1
  Pd  Pd20  1  0.500000  0.979500  0.696901  1
  Pd  Pd21  1  0.500000  0.020500  0.303099  1
