# generated using pymatgen
data_Tb4HoEr3Al4
_symmetry_space_group_name_H-M   'P 1'
_cell_length_a   5.11456300
_cell_length_b   6.56306124
_cell_length_c   9.45186300
_cell_angle_alpha   90.03525190
_cell_angle_beta   90.00000000
_cell_angle_gamma   90.00000000
_symmetry_Int_Tables_number   1
_chemical_formula_structural   Tb4HoEr3Al4
_chemical_formula_sum   'Tb4 Ho1 Er3 Al4'
_cell_volume   317.27242298
_cell_formula_units_Z   1
loop_
 _symmetry_equiv_pos_site_id
 _symmetry_equiv_pos_as_xyz
  1  'x, y, z'
loop_
 _atom_site_type_symbol
 _atom_site_label
 _atom_site_symmetry_multiplicity
 _atom_site_fract_x
 _atom_site_fract_y
 _atom_site_fract_z
 _atom_site_occupancy
  Tb  Tb0  1  0.750000  0.688253  0.427047  1
  Tb  Tb1  1  0.250000  0.311841  0.572867  1
  Tb  Tb2  1  0.750000  0.188109  0.072981  1
  Tb  Tb3  1  0.250000  0.811893  0.927060  1
  Ho  Ho4  1  0.250000  0.972153  0.289793  1
  Er  Er5  1  0.750000  0.527810  0.789847  1
  Er  Er6  1  0.250000  0.472115  0.210179  1
  Er  Er7  1  0.750000  0.027976  0.710383  1
  Al  Al8  1  0.750000  0.208261  0.397495  1
  Al  Al9  1  0.250000  0.791609  0.602344  1
  Al  Al10  1  0.750000  0.708379  0.102503  1
  Al  Al11  1  0.250000  0.291601  0.897503  1
