# generated using pymatgen
data_Lu5In4PtRh
_symmetry_space_group_name_H-M   'P 1'
_cell_length_a   3.55299500
_cell_length_b   8.03022670
_cell_length_c   17.98658846
_cell_angle_alpha   90.12378719
_cell_angle_beta   90.00000000
_cell_angle_gamma   90.00000000
_symmetry_Int_Tables_number   1
_chemical_formula_structural   Lu5In4PtRh
_chemical_formula_sum   'Lu10 In8 Pt2 Rh2'
_cell_volume   513.18054859
_cell_formula_units_Z   2
loop_
 _symmetry_equiv_pos_site_id
 _symmetry_equiv_pos_as_xyz
  1  'x, y, z'
loop_
 _atom_site_type_symbol
 _atom_site_label
 _atom_site_symmetry_multiplicity
 _atom_site_fract_x
 _atom_site_fract_y
 _atom_site_fract_z
 _atom_site_occupancy
  Lu  Lu0  1  0.000000  0.116762  0.412995  1
  Lu  Lu1  1  0.000000  0.883238  0.587005  1
  Lu  Lu2  1  0.000000  0.381278  0.913399  1
  Lu  Lu3  1  0.000000  0.618722  0.086601  1
  Lu  Lu4  1  0.000000  0.241049  0.222228  1
  Lu  Lu5  1  0.000000  0.758951  0.777772  1
  Lu  Lu6  1  0.000000  0.250723  0.721228  1
  Lu  Lu7  1  0.000000  0.749277  0.278772  1
  Lu  Lu8  1  0.000000  0.000000  0.000000  1
  Lu  Lu9  1  0.000000  0.500000  0.500000  1
  In  In10  1  0.500000  0.425267  0.352460  1
  In  In11  1  0.500000  0.574733  0.647540  1
  In  In12  1  0.500000  0.069547  0.850690  1
  In  In13  1  0.500000  0.930453  0.149310  1
  In  In14  1  0.500000  0.293470  0.065702  1
  In  In15  1  0.500000  0.706530  0.934298  1
  In  In16  1  0.500000  0.205163  0.567129  1
  In  In17  1  0.500000  0.794837  0.432871  1
  Pt  Pt18  1  0.500000  0.477351  0.803822  1
  Pt  Pt19  1  0.500000  0.522649  0.196178  1
  Rh  Rh20  1  0.500000  0.023577  0.304585  1
  Rh  Rh21  1  0.500000  0.976423  0.695415  1
