# generated using pymatgen
data_Cs3NaLiZrP3
_symmetry_space_group_name_H-M   'P 1'
_cell_length_a   10.74316290
_cell_length_b   10.74316336
_cell_length_c   16.64154400
_cell_angle_alpha   90.00000000
_cell_angle_beta   90.00000000
_cell_angle_gamma   143.85829461
_symmetry_Int_Tables_number   1
_chemical_formula_structural   Cs3NaLiZrP3
_chemical_formula_sum   'Cs12 Na4 Li4 Zr4 P12'
_cell_volume   1132.79465486
_cell_formula_units_Z   4
loop_
 _symmetry_equiv_pos_site_id
 _symmetry_equiv_pos_as_xyz
  1  'x, y, z'
loop_
 _atom_site_type_symbol
 _atom_site_label
 _atom_site_symmetry_multiplicity
 _atom_site_fract_x
 _atom_site_fract_y
 _atom_site_fract_z
 _atom_site_occupancy
  Cs  Cs0  1  0.947547  0.609092  0.825579  1
  Cs  Cs1  1  0.552453  0.890908  0.325579  1
  Cs  Cs2  1  0.390908  0.052453  0.174421  1
  Cs  Cs3  1  0.052453  0.390908  0.174421  1
  Cs  Cs4  1  0.890908  0.552453  0.325579  1
  Cs  Cs5  1  0.447547  0.109092  0.674421  1
  Cs  Cs6  1  0.609092  0.947547  0.825579  1
  Cs  Cs7  1  0.289847  0.289847  0.317952  1
  Cs  Cs8  1  0.789847  0.789847  0.182048  1
  Cs  Cs9  1  0.210153  0.210153  0.817952  1
  Cs  Cs10  1  0.710153  0.710153  0.682048  1
  Cs  Cs11  1  0.109092  0.447547  0.674421  1
  Na  Na12  1  0.755646  0.244354  0.000000  1
  Na  Na13  1  0.744354  0.255646  0.500000  1
  Na  Na14  1  0.244354  0.755646  0.000000  1
  Na  Na15  1  0.255646  0.744354  0.500000  1
  Li  Li16  1  0.921216  0.078784  0.000000  1
  Li  Li17  1  0.578784  0.421216  0.500000  1
  Li  Li18  1  0.078784  0.921216  0.000000  1
  Li  Li19  1  0.421216  0.578784  0.500000  1
  Zr  Zr20  1  0.584886  0.415114  0.000000  1
  Zr  Zr21  1  0.915114  0.084886  0.500000  1
  Zr  Zr22  1  0.415114  0.584886  0.000000  1
  Zr  Zr23  1  0.084886  0.915114  0.500000  1
  P  P24  1  0.882965  0.576453  0.086842  1
  P  P25  1  0.423547  0.117035  0.913158  1
  P  P26  1  0.617035  0.923547  0.586842  1
  P  P27  1  0.923547  0.617035  0.586842  1
  P  P28  1  0.117035  0.423547  0.913158  1
  P  P29  1  0.576453  0.882965  0.086842  1
  P  P30  1  0.382965  0.076453  0.413158  1
  P  P31  1  0.222395  0.222395  0.575419  1
  P  P32  1  0.722395  0.722395  0.924581  1
  P  P33  1  0.277605  0.277605  0.075419  1
  P  P34  1  0.076453  0.382965  0.413158  1
  P  P35  1  0.777605  0.777605  0.424581  1
