# generated using pymatgen
data_Tb2Ce2(Al8Pd3)3
_symmetry_space_group_name_H-M   'P 1'
_cell_length_a   7.54474969
_cell_length_b   7.55023927
_cell_length_c   13.23223026
_cell_angle_alpha   84.61535105
_cell_angle_beta   100.90515642
_cell_angle_gamma   119.81180253
_symmetry_Int_Tables_number   1
_chemical_formula_structural   Tb2Ce2(Al8Pd3)3
_chemical_formula_sum   'Tb2 Ce2 Al24 Pd9'
_cell_volume   642.20753364
_cell_formula_units_Z   1
loop_
 _symmetry_equiv_pos_site_id
 _symmetry_equiv_pos_as_xyz
  1  'x, y, z'
loop_
 _atom_site_type_symbol
 _atom_site_label
 _atom_site_symmetry_multiplicity
 _atom_site_fract_x
 _atom_site_fract_y
 _atom_site_fract_z
 _atom_site_occupancy
  Tb  Tb0  1  0.768664  0.501752  0.808496  1
  Tb  Tb1  1  0.231336  0.498248  0.191504  1
  Ce  Ce2  1  0.437467  0.831971  0.807318  1
  Ce  Ce3  1  0.562533  0.168029  0.192682  1
  Al  Al4  1  0.480836  0.167053  0.945129  1
  Al  Al5  1  0.519164  0.832947  0.054871  1
  Al  Al6  1  0.021635  0.165703  0.560313  1
  Al  Al7  1  0.978365  0.834297  0.439687  1
  Al  Al8  1  0.352902  0.832491  0.559176  1
  Al  Al9  1  0.647098  0.167509  0.440824  1
  Al  Al10  1  0.617185  0.834149  0.331532  1
  Al  Al11  1  0.382815  0.165851  0.668468  1
  Al  Al12  1  0.056351  0.492426  0.668885  1
  Al  Al13  1  0.943649  0.507574  0.331115  1
  Al  Al14  1  0.731657  0.840451  0.667773  1
  Al  Al15  1  0.268343  0.159549  0.332227  1
  Al  Al16  1  0.147643  0.499175  0.945472  1
  Al  Al17  1  0.852357  0.500825  0.054528  1
  Al  Al18  1  0.817727  0.832840  0.954536  1
  Al  Al19  1  0.182273  0.167160  0.045464  1
  Al  Al20  1  0.312632  0.498883  0.440711  1
  Al  Al21  1  0.687368  0.501117  0.559289  1
  Al  Al22  1  0.101141  0.835961  0.183675  1
  Al  Al23  1  0.898859  0.164039  0.816325  1
  Al  Al24  1  0.306373  0.367895  0.814816  1
  Al  Al25  1  0.693627  0.632105  0.185184  1
  Al  Al26  1  0.101424  0.959100  0.816252  1
  Al  Al27  1  0.898576  0.040900  0.183748  1
  Pd  Pd28  1  0.386482  0.505372  0.637349  1
  Pd  Pd29  1  0.613518  0.494628  0.362651  1
  Pd  Pd30  1  0.171356  0.828139  0.000179  1
  Pd  Pd31  1  0.828644  0.171861  0.999821  1
  Pd  Pd32  1  0.293196  0.831892  0.362866  1
  Pd  Pd33  1  0.706804  0.168108  0.637134  1
  Pd  Pd34  1  0.045504  0.825800  0.637854  1
  Pd  Pd35  1  0.954496  0.174200  0.362146  1
  Pd  Pd36  1  0.500000  0.500000  0.000000  1
