# generated using pymatgen
data_NaTc4Ag7Br24
_symmetry_space_group_name_H-M   'P 1'
_cell_length_a   6.99856400
_cell_length_b   6.99856295
_cell_length_c   27.42900000
_cell_angle_alpha   90.00000000
_cell_angle_beta   90.00000000
_cell_angle_gamma   120.00000497
_symmetry_Int_Tables_number   1
_chemical_formula_structural   NaTc4Ag7Br24
_chemical_formula_sum   'Na1 Tc4 Ag7 Br24'
_cell_volume   1163.47859050
_cell_formula_units_Z   1
loop_
 _symmetry_equiv_pos_site_id
 _symmetry_equiv_pos_as_xyz
  1  'x, y, z'
loop_
 _atom_site_type_symbol
 _atom_site_label
 _atom_site_symmetry_multiplicity
 _atom_site_fract_x
 _atom_site_fract_y
 _atom_site_fract_z
 _atom_site_occupancy
  Na  Na0  1  0.666667  0.333333  0.499831  1
  Tc  Tc1  1  0.000000  0.000000  0.000019  1
  Tc  Tc2  1  0.000000  0.000000  0.500000  1
  Tc  Tc3  1  0.333333  0.666667  0.750115  1
  Tc  Tc4  1  0.666667  0.333333  0.249816  1
  Ag  Ag5  1  0.000000  0.000000  0.249843  1
  Ag  Ag6  1  0.000000  0.000000  0.750009  1
  Ag  Ag7  1  0.333333  0.666667  0.999707  1
  Ag  Ag8  1  0.333333  0.666667  0.500260  1
  Ag  Ag9  1  0.333333  0.666667  0.250067  1
  Ag  Ag10  1  0.666667  0.333333  0.749997  1
  Ag  Ag11  1  0.666667  0.333333  0.000288  1
  Br  Br12  1  0.371932  0.038948  0.304333  1
  Br  Br13  1  0.333503  0.961221  0.804348  1
  Br  Br14  1  0.000779  0.294887  0.054396  1
  Br  Br15  1  0.004806  0.294867  0.555132  1
  Br  Br16  1  0.961052  0.332983  0.304333  1
  Br  Br17  1  0.038779  0.372282  0.804348  1
  Br  Br18  1  0.372216  0.333472  0.195696  1
  Br  Br19  1  0.333290  0.372218  0.695685  1
  Br  Br20  1  0.289382  0.295610  0.444839  1
  Br  Br21  1  0.294910  0.294139  0.945588  1
  Br  Br22  1  0.704390  0.993772  0.444839  1
  Br  Br23  1  0.294108  0.999221  0.054396  1
  Br  Br24  1  0.290063  0.995194  0.555132  1
  Br  Br25  1  0.705113  0.705892  0.054396  1
  Br  Br26  1  0.705133  0.709937  0.555132  1
  Br  Br27  1  0.667017  0.628068  0.304333  1
  Br  Br28  1  0.627718  0.666497  0.804348  1
  Br  Br29  1  0.961256  0.627784  0.195696  1
  Br  Br30  1  0.038928  0.666710  0.695685  1
  Br  Br31  1  0.006228  0.710618  0.444839  1
  Br  Br32  1  0.999230  0.705090  0.945588  1
  Br  Br33  1  0.705861  0.000770  0.945588  1
  Br  Br34  1  0.666528  0.038744  0.195696  1
  Br  Br35  1  0.627782  0.961072  0.695685  1
