# generated using pymatgen
data_LiNd16Hg3Ru4
_symmetry_space_group_name_H-M   'P 1'
_cell_length_a   9.94747403
_cell_length_b   9.94747330
_cell_length_c   9.94747377
_cell_angle_alpha   59.43475205
_cell_angle_beta   59.43475588
_cell_angle_gamma   59.43475621
_symmetry_Int_Tables_number   1
_chemical_formula_structural   LiNd16Hg3Ru4
_chemical_formula_sum   'Li1 Nd16 Hg3 Ru4'
_cell_volume   687.07165461
_cell_formula_units_Z   1
loop_
 _symmetry_equiv_pos_site_id
 _symmetry_equiv_pos_as_xyz
  1  'x, y, z'
loop_
 _atom_site_type_symbol
 _atom_site_label
 _atom_site_symmetry_multiplicity
 _atom_site_fract_x
 _atom_site_fract_y
 _atom_site_fract_z
 _atom_site_occupancy
  Li  Li0  1  0.185750  0.185750  0.185750  1
  Nd  Nd1  1  0.557900  0.557900  0.941000  1
  Nd  Nd2  1  0.186632  0.810634  0.186632  1
  Nd  Nd3  1  0.811130  0.811130  0.187617  1
  Nd  Nd4  1  0.186632  0.186632  0.810634  1
  Nd  Nd5  1  0.404688  0.787474  0.404688  1
  Nd  Nd6  1  0.811130  0.187617  0.811130  1
  Nd  Nd7  1  0.937285  0.937285  0.561347  1
  Nd  Nd8  1  0.810634  0.186632  0.186632  1
  Nd  Nd9  1  0.937285  0.561347  0.937285  1
  Nd  Nd10  1  0.787474  0.404688  0.404688  1
  Nd  Nd11  1  0.561347  0.937285  0.937285  1
  Nd  Nd12  1  0.187617  0.811130  0.811130  1
  Nd  Nd13  1  0.557900  0.941000  0.557900  1
  Nd  Nd14  1  0.402308  0.402308  0.402308  1
  Nd  Nd15  1  0.941000  0.557900  0.557900  1
  Nd  Nd16  1  0.404688  0.404688  0.787474  1
  Hg  Hg17  1  0.164877  0.500183  0.164877  1
  Hg  Hg18  1  0.164877  0.164877  0.500183  1
  Hg  Hg19  1  0.500183  0.164877  0.164877  1
  Ru  Ru20  1  0.163513  0.611661  0.611661  1
  Ru  Ru21  1  0.611661  0.611661  0.163513  1
  Ru  Ru22  1  0.611828  0.611828  0.611828  1
  Ru  Ru23  1  0.611661  0.163513  0.611661  1
