# generated using pymatgen
data_LiNbB4Ru5
_symmetry_space_group_name_H-M   'P 1'
_cell_length_a   2.94715700
_cell_length_b   8.35980089
_cell_length_c   10.06156303
_cell_angle_alpha   92.33910831
_cell_angle_beta   90.00000000
_cell_angle_gamma   90.00000000
_symmetry_Int_Tables_number   1
_chemical_formula_structural   LiNbB4Ru5
_chemical_formula_sum   'Li2 Nb2 B8 Ru10'
_cell_volume   247.68667310
_cell_formula_units_Z   2
loop_
 _symmetry_equiv_pos_site_id
 _symmetry_equiv_pos_as_xyz
  1  'x, y, z'
loop_
 _atom_site_type_symbol
 _atom_site_label
 _atom_site_symmetry_multiplicity
 _atom_site_fract_x
 _atom_site_fract_y
 _atom_site_fract_z
 _atom_site_occupancy
  Li  Li0  1  0.500000  0.150015  0.671619  1
  Li  Li1  1  0.500000  0.849985  0.328381  1
  Nb  Nb2  1  0.500000  0.655402  0.813472  1
  Nb  Nb3  1  0.500000  0.344598  0.186528  1
  B  B4  1  0.500000  0.861077  0.597834  1
  B  B5  1  0.500000  0.138923  0.402166  1
  B  B6  1  0.500000  0.344324  0.892220  1
  B  B7  1  0.500000  0.655676  0.107780  1
  B  B8  1  0.500000  0.966414  0.908789  1
  B  B9  1  0.500000  0.033586  0.091211  1
  B  B10  1  0.500000  0.456952  0.587949  1
  B  B11  1  0.500000  0.543048  0.412051  1
  Ru  Ru12  1  0.000000  0.391956  0.736496  1
  Ru  Ru13  1  0.000000  0.608044  0.263504  1
  Ru  Ru14  1  0.000000  0.908139  0.760033  1
  Ru  Ru15  1  0.000000  0.091861  0.239967  1
  Ru  Ru16  1  0.000000  0.000000  0.500000  1
  Ru  Ru17  1  0.000000  0.500000  0.000000  1
  Ru  Ru18  1  0.000000  0.657252  0.555164  1
  Ru  Ru19  1  0.000000  0.342748  0.444836  1
  Ru  Ru20  1  0.000000  0.162099  0.959862  1
  Ru  Ru21  1  0.000000  0.837901  0.040138  1
