# generated using pymatgen
data_TbEr3Al13Ga11Pt9
_symmetry_space_group_name_H-M   'P 1'
_cell_length_a   7.51481440
_cell_length_b   7.51867809
_cell_length_c   13.24911805
_cell_angle_alpha   84.61059531
_cell_angle_beta   100.77435389
_cell_angle_gamma   119.95013893
_symmetry_Int_Tables_number   1
_chemical_formula_structural   TbEr3Al13Ga11Pt9
_chemical_formula_sum   'Tb1 Er3 Al13 Ga11 Pt9'
_cell_volume   637.19267638
_cell_formula_units_Z   1
loop_
 _symmetry_equiv_pos_site_id
 _symmetry_equiv_pos_as_xyz
  1  'x, y, z'
loop_
 _atom_site_type_symbol
 _atom_site_label
 _atom_site_symmetry_multiplicity
 _atom_site_fract_x
 _atom_site_fract_y
 _atom_site_fract_z
 _atom_site_occupancy
  Tb  Tb0  1  0.735401  0.002618  0.192269  1
  Er  Er1  1  0.264271  0.999070  0.806996  1
  Er  Er2  1  0.062495  0.663060  0.190757  1
  Er  Er3  1  0.939086  0.336939  0.808723  1
  Al  Al4  1  0.770843  0.660542  0.331661  1
  Al  Al5  1  0.852753  0.331839  0.558104  1
  Al  Al6  1  0.186723  0.999482  0.557745  1
  Al  Al7  1  0.812264  0.999188  0.441042  1
  Al  Al8  1  0.351677  0.999661  0.054502  1
  Al  Al9  1  0.648534  0.001436  0.945235  1
  Al  Al10  1  0.556441  0.994838  0.669046  1
  Al  Al11  1  0.442840  0.004519  0.331301  1
  Al  Al12  1  0.519265  0.666069  0.560599  1
  Al  Al13  1  0.478640  0.332156  0.439283  1
  Al  Al14  1  0.686240  0.668008  0.049642  1
  Al  Al15  1  0.316068  0.333965  0.951121  1
  Al  Al16  1  0.145809  0.667390  0.440923  1
  Ga  Ga17  1  0.804351  0.873996  0.814744  1
  Ga  Ga18  1  0.195703  0.125767  0.185047  1
  Ga  Ga19  1  0.982583  0.667340  0.939443  1
  Ga  Ga20  1  0.019017  0.333747  0.060669  1
  Ga  Ga21  1  0.400876  0.666380  0.816009  1
  Ga  Ga22  1  0.600021  0.336714  0.184187  1
  Ga  Ga23  1  0.884975  0.665567  0.670631  1
  Ga  Ga24  1  0.115092  0.334241  0.329734  1
  Ga  Ga25  1  0.600266  0.458375  0.815129  1
  Ga  Ga26  1  0.402490  0.542706  0.185214  1
  Ga  Ga27  1  0.227917  0.336724  0.672100  1
  Pt  Pt28  1  0.336434  0.674447  0.001076  1
  Pt  Pt29  1  0.545706  0.321799  0.635162  1
  Pt  Pt30  1  0.456154  0.676632  0.364995  1
  Pt  Pt31  1  0.882429  0.006055  0.635215  1
  Pt  Pt32  1  0.111947  0.988753  0.363353  1
  Pt  Pt33  1  0.664346  0.326292  0.999311  1
  Pt  Pt34  1  0.208313  0.669745  0.635700  1
  Pt  Pt35  1  0.791441  0.333123  0.363909  1
  Pt  Pt36  1  0.000590  0.000818  0.999418  1
