# generated using pymatgen
data_GdY2WO7
_symmetry_space_group_name_H-M   'P 1'
_cell_length_a   6.49422102
_cell_length_b   6.49422225
_cell_length_c   7.56442800
_cell_angle_alpha   90.00000000
_cell_angle_beta   90.00000000
_cell_angle_gamma   70.70893065
_symmetry_Int_Tables_number   1
_chemical_formula_structural   GdY2WO7
_chemical_formula_sum   'Gd2 Y4 W2 O14'
_cell_volume   301.11640520
_cell_formula_units_Z   2
loop_
 _symmetry_equiv_pos_site_id
 _symmetry_equiv_pos_as_xyz
  1  'x, y, z'
loop_
 _atom_site_type_symbol
 _atom_site_label
 _atom_site_symmetry_multiplicity
 _atom_site_fract_x
 _atom_site_fract_y
 _atom_site_fract_z
 _atom_site_occupancy
  Gd  Gd0  1  0.497968  0.502031  0.250001  1
  Gd  Gd1  1  0.502031  0.497968  0.750000  1
  Y  Y2  1  0.532700  0.998907  0.000805  1
  Y  Y3  1  0.001093  0.467301  0.499196  1
  Y  Y4  1  0.467301  0.001093  0.500804  1
  Y  Y5  1  0.998907  0.532700  0.999195  1
  W  W6  1  0.000164  0.999835  0.250001  1
  W  W7  1  0.999835  0.000164  0.750000  1
  O  O8  1  0.367301  0.367301  0.000000  1
  O  O9  1  0.637757  0.637757  0.000000  1
  O  O10  1  0.928043  0.928043  0.000000  1
  O  O11  1  0.927385  0.321032  0.220262  1
  O  O12  1  0.322465  0.925318  0.221736  1
  O  O13  1  0.074682  0.677535  0.278263  1
  O  O14  1  0.678968  0.072615  0.279738  1
  O  O15  1  0.071957  0.071957  0.500000  1
  O  O16  1  0.362243  0.362243  0.500000  1
  O  O17  1  0.632700  0.632700  0.500000  1
  O  O18  1  0.072615  0.678968  0.720263  1
  O  O19  1  0.677535  0.074682  0.721737  1
  O  O20  1  0.925318  0.322465  0.778263  1
  O  O21  1  0.321032  0.927385  0.779737  1
