# generated using pymatgen
data_HoEr2Fe2Co9B4
_symmetry_space_group_name_H-M   'P 1'
_cell_length_a   5.03562506
_cell_length_b   5.03567715
_cell_length_c   9.69842400
_cell_angle_alpha   89.99998395
_cell_angle_beta   90.00013566
_cell_angle_gamma   120.01755324
_symmetry_Int_Tables_number   1
_chemical_formula_structural   HoEr2Fe2Co9B4
_chemical_formula_sum   'Ho1 Er2 Fe2 Co9 B4'
_cell_volume   212.94439779
_cell_formula_units_Z   1
loop_
 _symmetry_equiv_pos_site_id
 _symmetry_equiv_pos_as_xyz
  1  'x, y, z'
loop_
 _atom_site_type_symbol
 _atom_site_label
 _atom_site_symmetry_multiplicity
 _atom_site_fract_x
 _atom_site_fract_y
 _atom_site_fract_z
 _atom_site_occupancy
  Ho  Ho0  1  0.999981  0.999999  0.000046  1
  Er  Er1  1  0.999995  0.000000  0.341730  1
  Er  Er2  1  0.000005  0.000002  0.658244  1
  Fe  Fe3  1  0.333339  0.666661  0.000002  1
  Fe  Fe4  1  0.666623  0.333338  0.000002  1
  Co  Co5  1  0.499998  0.000000  0.499994  1
  Co  Co6  1  0.499998  0.500001  0.500001  1
  Co  Co7  1  0.999999  0.500000  0.499996  1
  Co  Co8  1  0.500013  0.000043  0.202304  1
  Co  Co9  1  0.500011  0.499981  0.202293  1
  Co  Co10  1  0.999946  0.499976  0.202291  1
  Co  Co11  1  0.500024  0.000041  0.797732  1
  Co  Co12  1  0.500024  0.499980  0.797689  1
  Co  Co13  1  0.999960  0.499979  0.797716  1
  B  B14  1  0.333319  0.666694  0.349543  1
  B  B15  1  0.666663  0.333305  0.349543  1
  B  B16  1  0.666702  0.333350  0.650436  1
  B  B17  1  0.333300  0.666649  0.650437  1
