# generated using pymatgen
data_NdSiIrPd
_symmetry_space_group_name_H-M   'P 1'
_cell_length_a   9.62724900
_cell_length_b   9.62724978
_cell_length_c   4.09525400
_cell_angle_alpha   90.00000000
_cell_angle_beta   90.00000000
_cell_angle_gamma   155.96935968
_symmetry_Int_Tables_number   1
_chemical_formula_structural   NdSiIrPd
_chemical_formula_sum   'Nd2 Si2 Ir2 Pd2'
_cell_volume   154.56809463
_cell_formula_units_Z   2
loop_
 _symmetry_equiv_pos_site_id
 _symmetry_equiv_pos_as_xyz
  1  'x, y, z'
loop_
 _atom_site_type_symbol
 _atom_site_label
 _atom_site_symmetry_multiplicity
 _atom_site_fract_x
 _atom_site_fract_y
 _atom_site_fract_z
 _atom_site_occupancy
  Nd  Nd0  1  0.607483  0.392517  0.250000  1
  Nd  Nd1  1  0.392495  0.607505  0.750000  1
  Si  Si2  1  0.819616  0.180384  0.250000  1
  Si  Si3  1  0.180430  0.819570  0.750000  1
  Ir  Ir4  1  0.249407  0.750593  0.250000  1
  Ir  Ir5  1  0.750525  0.249475  0.750000  1
  Pd  Pd6  1  0.950273  0.049727  0.250000  1
  Pd  Pd7  1  0.049769  0.950231  0.750000  1
