# generated using pymatgen
data_Hf5Zr5Ga2(Sn2Sb)2
_symmetry_space_group_name_H-M   'P 1'
_cell_length_a   8.68470442
_cell_length_b   8.68089834
_cell_length_c   5.83998300
_cell_angle_alpha   90.00000000
_cell_angle_beta   90.00000000
_cell_angle_gamma   119.98550198
_symmetry_Int_Tables_number   1
_chemical_formula_structural   Hf5Zr5Ga2(Sn2Sb)2
_chemical_formula_sum   'Hf5 Zr5 Ga2 Sn4 Sb2'
_cell_volume   381.35140915
_cell_formula_units_Z   1
loop_
 _symmetry_equiv_pos_site_id
 _symmetry_equiv_pos_as_xyz
  1  'x, y, z'
loop_
 _atom_site_type_symbol
 _atom_site_label
 _atom_site_symmetry_multiplicity
 _atom_site_fract_x
 _atom_site_fract_y
 _atom_site_fract_z
 _atom_site_occupancy
  Hf  Hf0  1  0.000000  0.730359  0.250000  1
  Hf  Hf1  1  0.666156  0.333014  0.001397  1
  Hf  Hf2  1  0.333844  0.666859  0.001397  1
  Hf  Hf3  1  0.333844  0.666859  0.498603  1
  Hf  Hf4  1  0.666156  0.333014  0.498603  1
  Zr  Zr5  1  0.733848  0.734269  0.750000  1
  Zr  Zr6  1  0.266152  0.000420  0.750000  1
  Zr  Zr7  1  0.000000  0.264528  0.750000  1
  Zr  Zr8  1  0.269795  0.270144  0.250000  1
  Zr  Zr9  1  0.730205  0.000349  0.250000  1
  Ga  Ga10  1  0.000000  0.998795  0.005714  1
  Ga  Ga11  1  0.000000  0.998795  0.494286  1
  Sn  Sn12  1  0.000000  0.610251  0.750000  1
  Sn  Sn13  1  0.614101  0.612879  0.250000  1
  Sn  Sn14  1  0.385899  0.998778  0.250000  1
  Sn  Sn15  1  0.000000  0.389212  0.250000  1
  Sb  Sb16  1  0.391254  0.391366  0.750000  1
  Sb  Sb17  1  0.608746  0.000113  0.750000  1
