# generated using pymatgen
data_Tm2AsS
_symmetry_space_group_name_H-M   'P 1'
_cell_length_a   6.85383394
_cell_length_b   6.85383306
_cell_length_c   6.85383332
_cell_angle_alpha   131.81045764
_cell_angle_beta   131.81044938
_cell_angle_gamma   70.52855446
_symmetry_Int_Tables_number   1
_chemical_formula_structural   Tm2AsS
_chemical_formula_sum   'Tm4 As2 S2'
_cell_volume   175.25160428
_cell_formula_units_Z   2
loop_
 _symmetry_equiv_pos_site_id
 _symmetry_equiv_pos_as_xyz
  1  'x, y, z'
loop_
 _atom_site_type_symbol
 _atom_site_label
 _atom_site_symmetry_multiplicity
 _atom_site_fract_x
 _atom_site_fract_y
 _atom_site_fract_z
 _atom_site_occupancy
  Tm  Tm0  1  0.750042  0.750042  0.000000  1
  Tm  Tm1  1  0.249958  0.249958  0.000000  1
  Tm  Tm2  1  0.999958  0.499958  0.500000  1
  Tm  Tm3  1  0.500042  0.000042  0.500000  1
  As  As4  1  0.500000  0.500000  0.000000  1
  As  As5  1  0.250000  0.750000  0.500000  1
  S  S6  1  0.000000  0.000000  0.000000  1
  S  S7  1  0.750000  0.250000  0.500000  1
