# generated using pymatgen
data_DyY5In2F20
_symmetry_space_group_name_H-M   'P 1'
_cell_length_a   8.31586848
_cell_length_b   8.31586851
_cell_length_c   8.31545400
_cell_angle_alpha   60.00164889
_cell_angle_beta   60.00164876
_cell_angle_gamma   59.99670113
_symmetry_Int_Tables_number   1
_chemical_formula_structural   DyY5In2F20
_chemical_formula_sum   'Dy1 Y5 In2 F20'
_cell_volume   406.61761401
_cell_formula_units_Z   1
loop_
 _symmetry_equiv_pos_site_id
 _symmetry_equiv_pos_as_xyz
  1  'x, y, z'
loop_
 _atom_site_type_symbol
 _atom_site_label
 _atom_site_symmetry_multiplicity
 _atom_site_fract_x
 _atom_site_fract_y
 _atom_site_fract_z
 _atom_site_occupancy
  Dy  Dy0  1  0.759189  0.759189  0.240811  1
  Y  Y1  1  0.759223  0.240745  0.240777  1
  Y  Y2  1  0.240745  0.759223  0.759255  1
  Y  Y3  1  0.240745  0.759223  0.240777  1
  Y  Y4  1  0.759223  0.240745  0.759255  1
  Y  Y5  1  0.240771  0.240771  0.759229  1
  In  In6  1  0.250000  0.250000  0.250000  1
  In  In7  1  0.750000  0.750000  0.750000  1
  F  F8  1  0.828585  0.500403  0.499597  1
  F  F9  1  0.171291  0.499995  0.500005  1
  F  F10  1  0.500403  0.828585  0.171415  1
  F  F11  1  0.499995  0.171291  0.828709  1
  F  F12  1  0.500403  0.828585  0.499597  1
  F  F13  1  0.171291  0.499995  0.828709  1
  F  F14  1  0.499995  0.171291  0.500005  1
  F  F15  1  0.828585  0.500403  0.171415  1
  F  F16  1  0.500000  0.500000  0.828706  1
  F  F17  1  0.500000  0.500000  0.171294  1
  F  F18  1  0.171294  0.828706  0.500000  1
  F  F19  1  0.828706  0.171294  0.500000  1
  F  F20  1  0.110331  0.110331  0.110330  1
  F  F21  1  0.889558  0.889558  0.889962  1
  F  F22  1  0.110331  0.110331  0.669008  1
  F  F23  1  0.110038  0.669078  0.110442  1
  F  F24  1  0.889558  0.889558  0.330922  1
  F  F25  1  0.889670  0.330992  0.889669  1
  F  F26  1  0.669078  0.110038  0.110442  1
  F  F27  1  0.330992  0.889670  0.889669  1
