# generated using pymatgen
data_Ho4SiRu6W
_symmetry_space_group_name_H-M   'P 1'
_cell_length_a   5.57280886
_cell_length_b   5.11818741
_cell_length_c   9.00288600
_cell_angle_alpha   90.00000000
_cell_angle_beta   90.00000000
_cell_angle_gamma   123.09368093
_symmetry_Int_Tables_number   1
_chemical_formula_structural   Ho4SiRu6W
_chemical_formula_sum   'Ho4 Si1 Ru6 W1'
_cell_volume   215.13026958
_cell_formula_units_Z   1
loop_
 _symmetry_equiv_pos_site_id
 _symmetry_equiv_pos_as_xyz
  1  'x, y, z'
loop_
 _atom_site_type_symbol
 _atom_site_label
 _atom_site_symmetry_multiplicity
 _atom_site_fract_x
 _atom_site_fract_y
 _atom_site_fract_z
 _atom_site_occupancy
  Ho  Ho0  1  0.674875  0.350245  0.563506  1
  Ho  Ho1  1  0.332176  0.664092  0.430650  1
  Ho  Ho2  1  0.332176  0.664092  0.069350  1
  Ho  Ho3  1  0.674875  0.350245  0.936494  1
  Si  Si4  1  0.833100  0.664892  0.250000  1
  Ru  Ru5  1  0.008237  0.015972  0.495764  1
  Ru  Ru6  1  0.008237  0.015972  0.004236  1
  Ru  Ru7  1  0.173014  0.815859  0.750000  1
  Ru  Ru8  1  0.642305  0.816194  0.750000  1
  Ru  Ru9  1  0.824670  0.169202  0.250000  1
  Ru  Ru10  1  0.344192  0.168835  0.250000  1
  W  W11  1  0.152143  0.304398  0.750000  1
