# generated using pymatgen
data_GdYBr6
_symmetry_space_group_name_H-M   'P 1'
_cell_length_a   7.30336020
_cell_length_b   7.30335934
_cell_length_c   7.39000960
_cell_angle_alpha   81.27135150
_cell_angle_beta   81.27135345
_cell_angle_gamma   120.06245316
_symmetry_Int_Tables_number   1
_chemical_formula_structural   GdYBr6
_chemical_formula_sum   'Gd1 Y1 Br6'
_cell_volume   325.02765691
_cell_formula_units_Z   1
loop_
 _symmetry_equiv_pos_site_id
 _symmetry_equiv_pos_as_xyz
  1  'x, y, z'
loop_
 _atom_site_type_symbol
 _atom_site_label
 _atom_site_symmetry_multiplicity
 _atom_site_fract_x
 _atom_site_fract_y
 _atom_site_fract_z
 _atom_site_occupancy
  Gd  Gd0  1  0.833691  0.166309  0.000000  1
  Y  Y1  1  0.166115  0.833885  0.000000  1
  Br  Br2  1  0.937801  0.573305  0.769279  1
  Br  Br3  1  0.426695  0.062199  0.230721  1
  Br  Br4  1  0.796093  0.792806  0.230341  1
  Br  Br5  1  0.207194  0.203907  0.769659  1
  Br  Br6  1  0.566695  0.934283  0.769347  1
  Br  Br7  1  0.065717  0.433305  0.230653  1
