# generated using pymatgen
data_KCl26
_symmetry_space_group_name_H-M   'P 1'
_cell_length_a   10.39974547
_cell_length_b   13.67156570
_cell_length_c   8.87404100
_cell_angle_alpha   87.38399975
_cell_angle_beta   57.02700383
_cell_angle_gamma   76.57114338
_symmetry_Int_Tables_number   1
_chemical_formula_structural   KCl26
_chemical_formula_sum   'K1 Cl26'
_cell_volume   1024.49577258
_cell_formula_units_Z   1
loop_
 _symmetry_equiv_pos_site_id
 _symmetry_equiv_pos_as_xyz
  1  'x, y, z'
loop_
 _atom_site_type_symbol
 _atom_site_label
 _atom_site_symmetry_multiplicity
 _atom_site_fract_x
 _atom_site_fract_y
 _atom_site_fract_z
 _atom_site_occupancy
  K  K0  1  0.000000  0.000000  0.000000  1
  Cl  Cl1  1  0.859686  0.726512  0.518024  1
  Cl  Cl2  1  0.327949  0.694093  0.416784  1
  Cl  Cl3  1  0.672051  0.305907  0.583216  1
  Cl  Cl4  1  0.140314  0.273488  0.481976  1
  Cl  Cl5  1  0.971681  0.345698  0.088890  1
  Cl  Cl6  1  0.270089  0.484661  0.044172  1
  Cl  Cl7  1  0.729911  0.515339  0.955828  1
  Cl  Cl8  1  0.028319  0.654302  0.911110  1
  Cl  Cl9  1  0.500000  0.000000  0.500000  1
  Cl  Cl10  1  0.000000  0.000000  0.500000  1
  Cl  Cl11  1  0.851665  0.099226  0.408012  1
  Cl  Cl12  1  0.307470  0.170481  0.274956  1
  Cl  Cl13  1  0.692530  0.829519  0.725044  1
  Cl  Cl14  1  0.148335  0.900774  0.591988  1
  Cl  Cl15  1  0.069440  0.524402  0.291496  1
  Cl  Cl16  1  0.446163  0.547990  0.324450  1
  Cl  Cl17  1  0.553837  0.452010  0.675550  1
  Cl  Cl18  1  0.930560  0.475598  0.708504  1
  Cl  Cl19  1  0.635517  0.957735  0.198302  1
  Cl  Cl20  1  0.186701  0.860787  0.160022  1
  Cl  Cl21  1  0.813299  0.139213  0.839978  1
  Cl  Cl22  1  0.364483  0.042265  0.801698  1
  Cl  Cl23  1  0.302018  0.770922  0.927874  1
  Cl  Cl24  1  0.854916  0.783610  0.049308  1
  Cl  Cl25  1  0.145084  0.216390  0.950692  1
  Cl  Cl26  1  0.697982  0.229078  0.072126  1
