# generated using pymatgen
data_Nd4Co5IrO19
_symmetry_space_group_name_H-M   'P 1'
_cell_length_a   7.52262059
_cell_length_b   7.56743067
_cell_length_c   7.52262138
_cell_angle_alpha   109.76959138
_cell_angle_beta   108.77347942
_cell_angle_gamma   109.62837640
_symmetry_Int_Tables_number   1
_chemical_formula_structural   Nd4Co5IrO19
_chemical_formula_sum   'Nd4 Co5 Ir1 O19'
_cell_volume   330.61883770
_cell_formula_units_Z   1
loop_
 _symmetry_equiv_pos_site_id
 _symmetry_equiv_pos_as_xyz
  1  'x, y, z'
loop_
 _atom_site_type_symbol
 _atom_site_label
 _atom_site_symmetry_multiplicity
 _atom_site_fract_x
 _atom_site_fract_y
 _atom_site_fract_z
 _atom_site_occupancy
  Nd  Nd0  1  0.996727  0.996055  0.326022  1
  Nd  Nd1  1  0.985956  0.320506  0.005402  1
  Nd  Nd2  1  0.684896  0.679494  0.665450  1
  Nd  Nd3  1  0.329967  0.003945  0.000672  1
  Co  Co4  1  0.836278  0.338288  0.493648  1
  Co  Co5  1  0.502266  0.155167  0.658493  1
  Co  Co6  1  0.155359  0.661712  0.497990  1
  Co  Co7  1  0.503326  0.844833  0.347099  1
  Co  Co8  1  0.663549  0.500000  0.163549  1
  Ir  Ir9  1  0.339853  0.500000  0.839853  1
  O  O10  1  0.358511  0.000000  0.358511  1
  O  O11  1  0.352819  0.349351  0.004601  1
  O  O12  1  0.002544  0.648900  0.648445  1
  O  O13  1  0.655249  0.650649  0.003468  1
  O  O14  1  0.999545  0.351100  0.353644  1
  O  O15  1  0.651832  0.000000  0.651832  1
  O  O16  1  0.000531  0.000000  0.000531  1
  O  O17  1  0.360580  0.317077  0.608360  1
  O  O18  1  0.031808  0.287720  0.674244  1
  O  O19  1  0.743895  0.380890  0.702017  1
  O  O20  1  0.386524  0.712280  0.744088  1
  O  O21  1  0.253095  0.961466  0.637130  1
  O  O22  1  0.618951  0.365309  0.323176  1
  O  O23  1  0.321127  0.619110  0.363005  1
  O  O24  1  0.675665  0.038534  0.291629  1
  O  O25  1  0.957868  0.634691  0.253642  1
  O  O26  1  0.707086  0.748554  0.381465  1
  O  O27  1  0.632911  0.251446  0.958531  1
  O  O28  1  0.291283  0.682923  0.043503  1
