# generated using pymatgen
data_DyY5Al24(IrOs3)2
_symmetry_space_group_name_H-M   'P 1'
_cell_length_a   8.83085317
_cell_length_b   8.79649445
_cell_length_c   9.60615705
_cell_angle_alpha   89.99810353
_cell_angle_beta   90.19063169
_cell_angle_gamma   119.87178033
_symmetry_Int_Tables_number   1
_chemical_formula_structural   DyY5Al24(IrOs3)2
_chemical_formula_sum   'Dy1 Y5 Al24 Ir2 Os6'
_cell_volume   647.06679917
_cell_formula_units_Z   1
loop_
 _symmetry_equiv_pos_site_id
 _symmetry_equiv_pos_as_xyz
  1  'x, y, z'
loop_
 _atom_site_type_symbol
 _atom_site_label
 _atom_site_symmetry_multiplicity
 _atom_site_fract_x
 _atom_site_fract_y
 _atom_site_fract_z
 _atom_site_occupancy
  Dy  Dy0  1  0.808978  0.195749  0.748935  1
  Y  Y1  1  0.191103  0.386717  0.250969  1
  Y  Y2  1  0.808884  0.613156  0.749030  1
  Y  Y3  1  0.614234  0.807106  0.252333  1
  Y  Y4  1  0.385853  0.192890  0.747661  1
  Y  Y5  1  0.191067  0.804400  0.250981  1
  Al  Al6  1  0.331825  0.665910  0.022763  1
  Al  Al7  1  0.668177  0.334050  0.977142  1
  Al  Al8  1  0.666921  0.333442  0.521188  1
  Al  Al9  1  0.333093  0.666536  0.478884  1
  Al  Al10  1  0.164856  0.328227  0.574817  1
  Al  Al11  1  0.835075  0.671722  0.425268  1
  Al  Al12  1  0.672749  0.836421  0.576294  1
  Al  Al13  1  0.837234  0.672578  0.075114  1
  Al  Al14  1  0.327302  0.163668  0.423787  1
  Al  Al15  1  0.162671  0.327367  0.924789  1
  Al  Al16  1  0.164916  0.836638  0.574733  1
  Al  Al17  1  0.326194  0.163104  0.076348  1
  Al  Al18  1  0.835089  0.163348  0.425364  1
  Al  Al19  1  0.673861  0.836996  0.923572  1
  Al  Al20  1  0.837247  0.164653  0.075009  1
  Al  Al21  1  0.162751  0.835341  0.924886  1
  Al  Al22  1  0.561021  0.123381  0.250240  1
  Al  Al23  1  0.439044  0.876650  0.749779  1
  Al  Al24  1  0.875505  0.437765  0.249237  1
  Al  Al25  1  0.124486  0.562173  0.750777  1
  Al  Al26  1  0.561045  0.437646  0.250235  1
  Al  Al27  1  0.438956  0.562343  0.749764  1
  Al  Al28  1  0.998957  0.999488  0.250013  1
  Al  Al29  1  0.000847  0.000710  0.749986  1
  Ir  Ir30  1  0.500056  0.000036  0.999944  1
  Ir  Ir31  1  0.499999  0.500011  0.000009  1
  Os  Os32  1  0.999942  0.499906  0.999899  1
  Os  Os33  1  0.500078  0.000047  0.500108  1
  Os  Os34  1  0.999922  0.499866  0.500144  1
  Os  Os35  1  0.500009  0.500015  0.500000  1
  Os  Os36  1  0.000028  0.999978  0.000037  1
  Os  Os37  1  0.000025  0.999969  0.499960  1
