# generated using pymatgen
data_Zr6Ti2Ga14GeRh7
_symmetry_space_group_name_H-M   'P 1'
_cell_length_a   8.84993677
_cell_length_b   8.84993648
_cell_length_c   8.84993628
_cell_angle_alpha   120.50835189
_cell_angle_beta   119.55003837
_cell_angle_gamma   89.95144264
_symmetry_Int_Tables_number   1
_chemical_formula_structural   Zr6Ti2Ga14GeRh7
_chemical_formula_sum   'Zr6 Ti2 Ga14 Ge1 Rh7'
_cell_volume   489.86409709
_cell_formula_units_Z   1
loop_
 _symmetry_equiv_pos_site_id
 _symmetry_equiv_pos_as_xyz
  1  'x, y, z'
loop_
 _atom_site_type_symbol
 _atom_site_label
 _atom_site_symmetry_multiplicity
 _atom_site_fract_x
 _atom_site_fract_y
 _atom_site_fract_z
 _atom_site_occupancy
  Zr  Zr0  1  0.796104  0.288689  0.075564  1
  Zr  Zr1  1  0.213126  0.288689  0.492586  1
  Zr  Zr2  1  0.204141  0.704141  0.500000  1
  Zr  Zr3  1  0.213126  0.720540  0.924436  1
  Zr  Zr4  1  0.796104  0.720540  0.507414  1
  Zr  Zr5  1  0.782626  0.282626  0.500000  1
  Ti  Ti6  1  0.379133  0.124645  0.745513  1
  Ti  Ti7  1  0.379133  0.633620  0.254487  1
  Ga  Ga8  1  0.161619  0.343437  0.181818  1
  Ga  Ga9  1  0.161619  0.979801  0.818182  1
  Ga  Ga10  1  0.157809  0.344651  0.813158  1
  Ga  Ga11  1  0.531492  0.344651  0.186842  1
  Ga  Ga12  1  0.840541  0.658065  0.817526  1
  Ga  Ga13  1  0.840541  0.023014  0.182474  1
  Ga  Ga14  1  0.840395  0.658208  0.182187  1
  Ga  Ga15  1  0.476020  0.658208  0.817813  1
  Ga  Ga16  1  0.378721  0.123451  0.255269  1
  Ga  Ga17  1  0.868183  0.123451  0.744731  1
  Ga  Ga18  1  0.617897  0.871199  0.253301  1
  Ga  Ga19  1  0.617897  0.364594  0.746699  1
  Ga  Ga20  1  0.610855  0.875369  0.735487  1
  Ga  Ga21  1  0.139881  0.875369  0.264513  1
  Ge  Ge22  1  0.993462  0.493462  0.500000  1
  Rh  Rh23  1  0.003771  0.001835  0.502945  1
  Rh  Rh24  1  0.498889  0.001835  0.998064  1
  Rh  Rh25  1  0.496848  0.496848  0.000000  1
  Rh  Rh26  1  0.498889  0.500825  0.497055  1
  Rh  Rh27  1  0.003771  0.500825  0.001936  1
  Rh  Rh28  1  0.000654  0.000654  0.000000  1
  Rh  Rh29  1  0.496754  0.996754  0.500000  1
