# generated using pymatgen
data_Lu9ScCd6(InNi2)2
_symmetry_space_group_name_H-M   'P 1'
_cell_length_a   3.49239300
_cell_length_b   7.70795639
_cell_length_c   17.79677157
_cell_angle_alpha   90.08359397
_cell_angle_beta   90.00000000
_cell_angle_gamma   90.00000000
_symmetry_Int_Tables_number   1
_chemical_formula_structural   Lu9ScCd6(InNi2)2
_chemical_formula_sum   'Lu9 Sc1 Cd6 In2 Ni4'
_cell_volume   479.07457383
_cell_formula_units_Z   1
loop_
 _symmetry_equiv_pos_site_id
 _symmetry_equiv_pos_as_xyz
  1  'x, y, z'
loop_
 _atom_site_type_symbol
 _atom_site_label
 _atom_site_symmetry_multiplicity
 _atom_site_fract_x
 _atom_site_fract_y
 _atom_site_fract_z
 _atom_site_occupancy
  Lu  Lu0  1  0.000000  0.882667  0.089138  1
  Lu  Lu1  1  0.000000  0.746654  0.279515  1
  Lu  Lu2  1  0.000000  0.755605  0.777334  1
  Lu  Lu3  1  0.000000  0.380589  0.412273  1
  Lu  Lu4  1  0.000000  0.117333  0.910862  1
  Lu  Lu5  1  0.000000  0.253346  0.720485  1
  Lu  Lu6  1  0.000000  0.500000  0.000000  1
  Lu  Lu7  1  0.000000  0.244395  0.222666  1
  Lu  Lu8  1  0.000000  0.619411  0.587727  1
  Sc  Sc9  1  0.000000  0.000000  0.500000  1
  Cd  Cd10  1  0.500000  0.209830  0.069021  1
  Cd  Cd11  1  0.500000  0.433618  0.848819  1
  Cd  Cd12  1  0.500000  0.566382  0.151181  1
  Cd  Cd13  1  0.500000  0.066441  0.351888  1
  Cd  Cd14  1  0.500000  0.933559  0.648112  1
  Cd  Cd15  1  0.500000  0.790170  0.930979  1
  In  In16  1  0.500000  0.712384  0.434059  1
  In  In17  1  0.500000  0.287616  0.565941  1
  Ni  Ni18  1  0.500000  0.964232  0.196973  1
  Ni  Ni19  1  0.500000  0.035768  0.803027  1
  Ni  Ni20  1  0.500000  0.531798  0.694137  1
  Ni  Ni21  1  0.500000  0.468202  0.305863  1
