# generated using pymatgen
data_La8Pr12Si15Pd
_symmetry_space_group_name_H-M   'P 1'
_cell_length_a   7.98245848
_cell_length_b   7.96738846
_cell_length_c   15.39918124
_cell_angle_alpha   89.93567135
_cell_angle_beta   89.69049457
_cell_angle_gamma   90.02502208
_symmetry_Int_Tables_number   1
_chemical_formula_structural   La8Pr12Si15Pd
_chemical_formula_sum   'La8 Pr12 Si15 Pd1'
_cell_volume   979.36287811
_cell_formula_units_Z   1
loop_
 _symmetry_equiv_pos_site_id
 _symmetry_equiv_pos_as_xyz
  1  'x, y, z'
loop_
 _atom_site_type_symbol
 _atom_site_label
 _atom_site_symmetry_multiplicity
 _atom_site_fract_x
 _atom_site_fract_y
 _atom_site_fract_z
 _atom_site_occupancy
  La  La0  1  0.373192  0.011986  0.448836  1
  La  La1  1  0.488832  0.872865  0.698910  1
  La  La2  1  0.510736  0.124870  0.198594  1
  La  La3  1  0.875720  0.488007  0.300040  1
  La  La4  1  0.124614  0.512050  0.800542  1
  La  La5  1  0.626838  0.987327  0.949433  1
  La  La6  1  0.006063  0.376166  0.550218  1
  La  La7  1  0.988118  0.626163  0.051146  1
  Pr  Pr8  1  0.307912  0.307086  0.999314  1
  Pr  Pr9  1  0.190544  0.808821  0.249979  1
  Pr  Pr10  1  0.806653  0.186572  0.751374  1
  Pr  Pr11  1  0.692353  0.688561  0.499545  1
  Pr  Pr12  1  0.132715  0.986565  0.876061  1
  Pr  Pr13  1  0.516183  0.629955  0.126123  1
  Pr  Pr14  1  0.481758  0.367417  0.627252  1
  Pr  Pr15  1  0.628417  0.517695  0.874342  1
  Pr  Pr16  1  0.371833  0.483070  0.373419  1
  Pr  Pr17  1  0.871937  0.018220  0.375853  1
  Pr  Pr18  1  0.982786  0.127966  0.124450  1
  Pr  Pr19  1  0.018202  0.872513  0.623488  1
  Si  Si20  1  0.332742  0.696670  0.951328  1
  Si  Si21  1  0.665765  0.303400  0.451877  1
  Si  Si22  1  0.698398  0.334487  0.048749  1
  Si  Si23  1  0.303425  0.667379  0.547916  1
  Si  Si24  1  0.803330  0.832763  0.202359  1
  Si  Si25  1  0.167727  0.197493  0.298153  1
  Si  Si26  1  0.834463  0.803223  0.797957  1
  Si  Si27  1  0.287903  0.921707  0.059484  1
  Si  Si28  1  0.579070  0.787078  0.309870  1
  Si  Si29  1  0.429060  0.212350  0.813414  1
  Si  Si30  1  0.787396  0.579211  0.690233  1
  Si  Si31  1  0.212134  0.422216  0.190328  1
  Si  Si32  1  0.708046  0.076834  0.558818  1
  Si  Si33  1  0.921059  0.288520  0.941150  1
  Si  Si34  1  0.078740  0.713869  0.440996  1
  Pd  Pd35  1  0.195336  0.168924  0.698452  1
