# generated using pymatgen
data_HoEr11In20
_symmetry_space_group_name_H-M   'P 1'
_cell_length_a   6.46722643
_cell_length_b   10.40604129
_cell_length_c   12.23571118
_cell_angle_alpha   89.98021843
_cell_angle_beta   89.98730819
_cell_angle_gamma   89.99688029
_symmetry_Int_Tables_number   1
_chemical_formula_structural   HoEr11In20
_chemical_formula_sum   'Ho1 Er11 In20'
_cell_volume   823.44157659
_cell_formula_units_Z   1
loop_
 _symmetry_equiv_pos_site_id
 _symmetry_equiv_pos_as_xyz
  1  'x, y, z'
loop_
 _atom_site_type_symbol
 _atom_site_label
 _atom_site_symmetry_multiplicity
 _atom_site_fract_x
 _atom_site_fract_y
 _atom_site_fract_z
 _atom_site_occupancy
  Ho  Ho0  1  0.608766  0.494730  0.642170  1
  Er  Er1  1  0.348557  0.750024  0.055934  1
  Er  Er2  1  0.151068  0.749929  0.555873  1
  Er  Er3  1  0.651354  0.250096  0.944087  1
  Er  Er4  1  0.848678  0.249852  0.444000  1
  Er  Er5  1  0.891503  0.494659  0.141959  1
  Er  Er6  1  0.608482  0.005285  0.641890  1
  Er  Er7  1  0.108553  0.994655  0.858084  1
  Er  Er8  1  0.391324  0.505315  0.357790  1
  Er  Er9  1  0.108552  0.505314  0.858099  1
  Er  Er10  1  0.391440  0.994730  0.358024  1
  Er  Er11  1  0.891448  0.005385  0.141939  1
  In  In12  1  0.616645  0.750349  0.504804  1
  In  In13  1  0.883306  0.750064  0.005349  1
  In  In14  1  0.383113  0.249959  0.494707  1
  In  In15  1  0.116760  0.249988  0.994727  1
  In  In16  1  0.649489  0.750036  0.246143  1
  In  In17  1  0.850950  0.750312  0.746509  1
  In  In18  1  0.350403  0.249712  0.753925  1
  In  In19  1  0.149521  0.249964  0.253712  1
  In  In20  1  0.128889  0.750041  0.285839  1
  In  In21  1  0.371144  0.750031  0.785816  1
  In  In22  1  0.871604  0.249625  0.714316  1
  In  In23  1  0.628862  0.249971  0.214177  1
  In  In24  1  0.875770  0.543523  0.401160  1
  In  In25  1  0.624182  0.956509  0.901281  1
  In  In26  1  0.124153  0.043434  0.598688  1
  In  In27  1  0.375770  0.456451  0.098742  1
  In  In28  1  0.123876  0.456409  0.598606  1
  In  In29  1  0.375791  0.043509  0.098740  1
  In  In30  1  0.875956  0.956499  0.401211  1
  In  In31  1  0.624091  0.543643  0.901697  1
