# generated using pymatgen
data_TbEr4Tm(RuI3)2
_symmetry_space_group_name_H-M   'P 1'
_cell_length_a   4.19726200
_cell_length_b   8.85862645
_cell_length_c   12.30743700
_cell_angle_alpha   94.10058128
_cell_angle_beta   90.00000000
_cell_angle_gamma   90.00000000
_symmetry_Int_Tables_number   1
_chemical_formula_structural   TbEr4Tm(RuI3)2
_chemical_formula_sum   'Tb1 Er4 Tm1 Ru2 I6'
_cell_volume   456.44336157
_cell_formula_units_Z   1
loop_
 _symmetry_equiv_pos_site_id
 _symmetry_equiv_pos_as_xyz
  1  'x, y, z'
loop_
 _atom_site_type_symbol
 _atom_site_label
 _atom_site_symmetry_multiplicity
 _atom_site_fract_x
 _atom_site_fract_y
 _atom_site_fract_z
 _atom_site_occupancy
  Tb  Tb0  1  0.750000  0.264440  0.602799  1
  Er  Er1  1  0.250000  0.740600  0.397635  1
  Er  Er2  1  0.250000  0.128793  0.373371  1
  Er  Er3  1  0.750000  0.896753  0.187611  1
  Er  Er4  1  0.250000  0.100563  0.812786  1
  Tm  Tm5  1  0.750000  0.872240  0.625315  1
  Ru  Ru6  1  0.750000  0.945209  0.408133  1
  Ru  Ru7  1  0.250000  0.053994  0.591779  1
  I  I8  1  0.750000  0.424709  0.366095  1
  I  I9  1  0.250000  0.577492  0.633326  1
  I  I10  1  0.750000  0.861468  0.889941  1
  I  I11  1  0.250000  0.135891  0.109454  1
  I  I12  1  0.750000  0.353645  0.865360  1
  I  I13  1  0.250000  0.644203  0.136393  1
