# generated using pymatgen
data_Tb6Ti2Co16SiP11
_symmetry_space_group_name_H-M   'P 1'
_cell_length_a   3.71645000
_cell_length_b   10.64959481
_cell_length_c   12.34389957
_cell_angle_alpha   90.10890969
_cell_angle_beta   90.00000000
_cell_angle_gamma   90.00000000
_symmetry_Int_Tables_number   1
_chemical_formula_structural   Tb6Ti2Co16SiP11
_chemical_formula_sum   'Tb6 Ti2 Co16 Si1 P11'
_cell_volume   488.55445047
_cell_formula_units_Z   1
loop_
 _symmetry_equiv_pos_site_id
 _symmetry_equiv_pos_as_xyz
  1  'x, y, z'
loop_
 _atom_site_type_symbol
 _atom_site_label
 _atom_site_symmetry_multiplicity
 _atom_site_fract_x
 _atom_site_fract_y
 _atom_site_fract_z
 _atom_site_occupancy
  Tb  Tb0  1  0.000000  0.502713  0.524280  1
  Tb  Tb1  1  0.500000  0.999838  0.475483  1
  Tb  Tb2  1  0.500000  0.820595  0.204457  1
  Tb  Tb3  1  0.500000  0.179664  0.203681  1
  Tb  Tb4  1  0.000000  0.679669  0.795950  1
  Tb  Tb5  1  0.000000  0.320640  0.797659  1
  Ti  Ti6  1  0.500000  0.499863  0.153135  1
  Ti  Ti7  1  0.000000  0.999690  0.847580  1
  Co  Co8  1  0.500000  0.504555  0.704304  1
  Co  Co9  1  0.000000  0.999731  0.297134  1
  Co  Co10  1  0.000000  0.500071  0.988041  1
  Co  Co11  1  0.500000  0.999875  0.012657  1
  Co  Co12  1  0.500000  0.332029  0.994412  1
  Co  Co13  1  0.500000  0.668168  0.994654  1
  Co  Co14  1  0.000000  0.167633  0.006220  1
  Co  Co15  1  0.000000  0.832061  0.006210  1
  Co  Co16  1  0.500000  0.296213  0.427670  1
  Co  Co17  1  0.500000  0.704755  0.431361  1
  Co  Co18  1  0.000000  0.198145  0.566098  1
  Co  Co19  1  0.000000  0.796074  0.567867  1
  Co  Co20  1  0.500000  0.877871  0.706251  1
  Co  Co21  1  0.500000  0.117563  0.707636  1
  Co  Co22  1  0.000000  0.621500  0.293748  1
  Co  Co23  1  0.000000  0.379948  0.293247  1
  Si  Si24  1  0.500000  0.308510  0.614630  1
  P  P25  1  0.500000  0.500154  0.884602  1
  P  P26  1  0.000000  0.000168  0.115939  1
  P  P27  1  0.500000  0.499390  0.351953  1
  P  P28  1  0.000000  0.000728  0.648581  1
  P  P29  1  0.500000  0.691831  0.615322  1
  P  P30  1  0.000000  0.191367  0.384459  1
  P  P31  1  0.000000  0.809514  0.384426  1
  P  P32  1  0.500000  0.843011  0.892746  1
  P  P33  1  0.500000  0.156507  0.892502  1
  P  P34  1  0.000000  0.656751  0.107552  1
  P  P35  1  0.000000  0.343204  0.107554  1
