# generated using pymatgen
data_Li4RuO5
_symmetry_space_group_name_H-M   'P 1'
_cell_length_a   5.37880239
_cell_length_b   5.37880540
_cell_length_c   7.98703672
_cell_angle_alpha   97.16522384
_cell_angle_beta   97.16528522
_cell_angle_gamma   66.95039439
_symmetry_Int_Tables_number   1
_chemical_formula_structural   Li4RuO5
_chemical_formula_sum   'Li8 Ru2 O10'
_cell_volume   210.23869524
_cell_formula_units_Z   2
loop_
 _symmetry_equiv_pos_site_id
 _symmetry_equiv_pos_as_xyz
  1  'x, y, z'
loop_
 _atom_site_type_symbol
 _atom_site_label
 _atom_site_symmetry_multiplicity
 _atom_site_fract_x
 _atom_site_fract_y
 _atom_site_fract_z
 _atom_site_occupancy
  Li  Li0  1  0.213542  0.557390  0.054154  1
  Li  Li1  1  0.363262  0.038082  0.152640  1
  Li  Li2  1  0.961917  0.636738  0.347359  1
  Li  Li3  1  0.442609  0.786459  0.445845  1
  Li  Li4  1  0.557391  0.213543  0.554154  1
  Li  Li5  1  0.038083  0.363262  0.652640  1
  Li  Li6  1  0.636738  0.961918  0.847360  1
  Li  Li7  1  0.786457  0.442610  0.945845  1
  Ru  Ru8  1  0.831111  0.168888  0.250000  1
  Ru  Ru9  1  0.168888  0.831112  0.749999  1
  O  O10  1  0.584494  0.232367  0.065378  1
  O  O11  1  0.022002  0.358336  0.155325  1
  O  O12  1  0.139912  0.860088  0.250000  1
  O  O13  1  0.641664  0.977998  0.344675  1
  O  O14  1  0.767634  0.415505  0.434621  1
  O  O15  1  0.232366  0.584494  0.565378  1
  O  O16  1  0.358336  0.022002  0.655325  1
  O  O17  1  0.860089  0.139911  0.750000  1
  O  O18  1  0.977998  0.641664  0.844675  1
  O  O19  1  0.415506  0.767633  0.934622  1
