# generated using pymatgen
data_TbY2Pd2RhPb3
_symmetry_space_group_name_H-M   'P 1'
_cell_length_a   7.86335300
_cell_length_b   7.84794698
_cell_length_c   3.85313400
_cell_angle_alpha   90.00000000
_cell_angle_beta   90.00000000
_cell_angle_gamma   120.06496313
_symmetry_Int_Tables_number   1
_chemical_formula_structural   TbY2Pd2RhPb3
_chemical_formula_sum   'Tb1 Y2 Pd2 Rh1 Pb3'
_cell_volume   205.78983091
_cell_formula_units_Z   1
loop_
 _symmetry_equiv_pos_site_id
 _symmetry_equiv_pos_as_xyz
  1  'x, y, z'
loop_
 _atom_site_type_symbol
 _atom_site_label
 _atom_site_symmetry_multiplicity
 _atom_site_fract_x
 _atom_site_fract_y
 _atom_site_fract_z
 _atom_site_occupancy
  Tb  Tb0  1  0.397598  0.000000  0.500000  1
  Y  Y1  1  0.000265  0.397200  0.500000  1
  Y  Y2  1  0.603065  0.602800  0.500000  1
  Pd  Pd3  1  0.332952  0.666848  0.000000  1
  Pd  Pd4  1  0.666104  0.333152  0.000000  1
  Rh  Rh5  1  0.999760  0.000000  0.500000  1
  Pb  Pb6  1  0.735334  0.000000  0.000000  1
  Pb  Pb7  1  0.999924  0.734926  0.000000  1
  Pb  Pb8  1  0.264998  0.265074  0.000000  1
