# generated using pymatgen
data_Hf3Zn3(Ir2Pt)2
_symmetry_space_group_name_H-M   'P 1'
_cell_length_a   4.66141337
_cell_length_b   6.01434100
_cell_length_c   13.93578524
_cell_angle_alpha   90.00000000
_cell_angle_beta   99.98029229
_cell_angle_gamma   90.00000000
_symmetry_Int_Tables_number   1
_chemical_formula_structural   Hf3Zn3(Ir2Pt)2
_chemical_formula_sum   'Hf6 Zn6 Ir8 Pt4'
_cell_volume   384.78211981
_cell_formula_units_Z   2
loop_
 _symmetry_equiv_pos_site_id
 _symmetry_equiv_pos_as_xyz
  1  'x, y, z'
loop_
 _atom_site_type_symbol
 _atom_site_label
 _atom_site_symmetry_multiplicity
 _atom_site_fract_x
 _atom_site_fract_y
 _atom_site_fract_z
 _atom_site_occupancy
  Hf  Hf0  1  0.011281  0.500000  0.994484  1
  Hf  Hf1  1  0.488444  0.000000  0.172151  1
  Hf  Hf2  1  0.978903  0.500000  0.338391  1
  Hf  Hf3  1  0.495606  0.000000  0.500558  1
  Hf  Hf4  1  0.004651  0.500000  0.666125  1
  Hf  Hf5  1  0.521121  0.000000  0.828268  1
  Zn  Zn6  1  0.010290  0.000000  0.996153  1
  Zn  Zn7  1  0.489436  0.500000  0.170533  1
  Zn  Zn8  1  0.984699  0.000000  0.336894  1
  Zn  Zn9  1  0.495667  0.500000  0.499893  1
  Zn  Zn10  1  0.004631  0.000000  0.666811  1
  Zn  Zn11  1  0.515332  0.500000  0.829762  1
  Ir  Ir12  1  0.482158  0.251425  0.332633  1
  Ir  Ir13  1  0.482158  0.748574  0.332633  1
  Ir  Ir14  1  0.995482  0.248700  0.500417  1
  Ir  Ir15  1  0.995482  0.751300  0.500417  1
  Ir  Ir16  1  0.504780  0.251326  0.666254  1
  Ir  Ir17  1  0.504780  0.748673  0.666254  1
  Ir  Ir18  1  0.017829  0.248537  0.834043  1
  Ir  Ir19  1  0.017829  0.751463  0.834043  1
  Pt  Pt20  1  0.509640  0.251569  0.001136  1
  Pt  Pt21  1  0.509640  0.748430  0.001136  1
  Pt  Pt22  1  0.990082  0.248492  0.165504  1
  Pt  Pt23  1  0.990082  0.751508  0.165504  1
