# generated using pymatgen
data_Er12CuNi4Hg
_symmetry_space_group_name_H-M   'P 1'
_cell_length_a   8.19382866
_cell_length_b   8.19382792
_cell_length_c   8.19382921
_cell_angle_alpha   111.81028781
_cell_angle_beta   109.94169977
_cell_angle_gamma   106.70246783
_symmetry_Int_Tables_number   1
_chemical_formula_structural   Er12CuNi4Hg
_chemical_formula_sum   'Er12 Cu1 Ni4 Hg1'
_cell_volume   422.63005620
_cell_formula_units_Z   1
loop_
 _symmetry_equiv_pos_site_id
 _symmetry_equiv_pos_as_xyz
  1  'x, y, z'
loop_
 _atom_site_type_symbol
 _atom_site_label
 _atom_site_symmetry_multiplicity
 _atom_site_fract_x
 _atom_site_fract_y
 _atom_site_fract_z
 _atom_site_occupancy
  Er  Er0  1  0.325132  0.131523  0.806390  1
  Er  Er1  1  0.674868  0.481258  0.806390  1
  Er  Er2  1  0.420312  0.728754  0.691559  1
  Er  Er3  1  0.579688  0.271246  0.308441  1
  Er  Er4  1  0.962806  0.271246  0.691559  1
  Er  Er5  1  0.037194  0.728754  0.308441  1
  Er  Er6  1  0.325132  0.518742  0.193610  1
  Er  Er7  1  0.674868  0.868477  0.193610  1
  Er  Er8  1  0.179486  0.786307  0.965793  1
  Er  Er9  1  0.820514  0.786307  0.606820  1
  Er  Er10  1  0.179486  0.213693  0.393180  1
  Er  Er11  1  0.820514  0.213693  0.034207  1
  Cu  Cu12  1  0.000000  0.500000  0.500000  1
  Ni  Ni13  1  0.875868  0.875868  0.000000  1
  Ni  Ni14  1  0.124132  0.124132  0.000000  1
  Ni  Ni15  1  0.648611  0.500000  0.148611  1
  Ni  Ni16  1  0.351389  0.500000  0.851389  1
  Hg  Hg17  1  0.500000  0.000000  0.500000  1
