# generated using pymatgen
data_La4Pr5Y(Ga2Ru3)2
_symmetry_space_group_name_H-M   'P 1'
_cell_length_a   8.48784572
_cell_length_b   8.58466207
_cell_length_c   8.65133026
_cell_angle_alpha   109.65009574
_cell_angle_beta   109.67264542
_cell_angle_gamma   109.09443383
_symmetry_Int_Tables_number   1
_chemical_formula_structural   La4Pr5Y(Ga2Ru3)2
_chemical_formula_sum   'La4 Pr5 Y1 Ga4 Ru6'
_cell_volume   485.23511711
_cell_formula_units_Z   1
loop_
 _symmetry_equiv_pos_site_id
 _symmetry_equiv_pos_as_xyz
  1  'x, y, z'
loop_
 _atom_site_type_symbol
 _atom_site_label
 _atom_site_symmetry_multiplicity
 _atom_site_fract_x
 _atom_site_fract_y
 _atom_site_fract_z
 _atom_site_occupancy
  La  La0  1  0.751013  0.810726  0.057423  1
  La  La1  1  0.440581  0.243672  0.687682  1
  La  La2  1  0.693518  0.441016  0.251448  1
  La  La3  1  0.062315  0.751510  0.806533  1
  Pr  Pr4  1  0.810082  0.060963  0.747599  1
  Pr  Pr5  1  0.217122  0.221835  0.217328  1
  Pr  Pr6  1  0.496445  0.995862  0.278490  1
  Pr  Pr7  1  0.282154  0.497323  0.999565  1
  Pr  Pr8  1  0.006118  0.285850  0.505569  1
  Y  Y9  1  0.252219  0.684360  0.433961  1
  Ga  Ga10  1  0.582373  0.586066  0.585717  1
  Ga  Ga11  1  0.501995  0.001037  0.909788  1
  Ga  Ga12  1  0.922021  0.504098  0.006136  1
  Ga  Ga13  1  0.997338  0.909323  0.495740  1
  Ru  Ru14  1  0.243135  0.115433  0.864438  1
  Ru  Ru15  1  0.749137  0.380912  0.637240  1
  Ru  Ru16  1  0.869792  0.263144  0.130868  1
  Ru  Ru17  1  0.109755  0.869993  0.247837  1
  Ru  Ru18  1  0.622024  0.736988  0.375694  1
  Ru  Ru19  1  0.390863  0.639888  0.760945  1
