# generated using pymatgen
data_Ca2YbSc(Al3Pd)6
_symmetry_space_group_name_H-M   'P 1'
_cell_length_a   7.63666108
_cell_length_b   7.64005456
_cell_length_c   9.47784100
_cell_angle_alpha   90.00000000
_cell_angle_beta   90.00000000
_cell_angle_gamma   119.59472705
_symmetry_Int_Tables_number   1
_chemical_formula_structural   Ca2YbSc(Al3Pd)6
_chemical_formula_sum   'Ca2 Yb1 Sc1 Al18 Pd6'
_cell_volume   480.83840923
_cell_formula_units_Z   1
loop_
 _symmetry_equiv_pos_site_id
 _symmetry_equiv_pos_as_xyz
  1  'x, y, z'
loop_
 _atom_site_type_symbol
 _atom_site_label
 _atom_site_symmetry_multiplicity
 _atom_site_fract_x
 _atom_site_fract_y
 _atom_site_fract_z
 _atom_site_occupancy
  Ca  Ca0  1  0.994549  0.670181  0.250000  1
  Ca  Ca1  1  0.671481  0.996101  0.250000  1
  Yb  Yb2  1  0.003314  0.329978  0.750000  1
  Sc  Sc3  1  0.330139  0.003314  0.750000  1
  Al  Al4  1  0.134825  0.132707  0.250000  1
  Al  Al5  1  0.874162  0.872251  0.750000  1
  Al  Al6  1  0.002438  0.335228  0.073344  1
  Al  Al7  1  0.004003  0.668613  0.917047  1
  Al  Al8  1  0.004003  0.668613  0.582953  1
  Al  Al9  1  0.334467  0.000446  0.431092  1
  Al  Al10  1  0.002438  0.335228  0.426656  1
  Al  Al11  1  0.661541  0.000958  0.582939  1
  Al  Al12  1  0.661541  0.000958  0.917061  1
  Al  Al13  1  0.334467  0.000446  0.068908  1
  Al  Al14  1  0.331457  0.327928  0.565589  1
  Al  Al15  1  0.665373  0.665529  0.451123  1
  Al  Al16  1  0.665373  0.665529  0.048877  1
  Al  Al17  1  0.331457  0.327928  0.934411  1
  Al  Al18  1  0.340728  0.546390  0.250000  1
  Al  Al19  1  0.655547  0.448647  0.750000  1
  Al  Al20  1  0.543061  0.338981  0.250000  1
  Al  Al21  1  0.453503  0.664175  0.750000  1
  Pd  Pd22  1  0.672147  0.328364  0.998683  1
  Pd  Pd23  1  0.327740  0.670924  0.998096  1
  Pd  Pd24  1  0.327740  0.670924  0.501904  1
  Pd  Pd25  1  0.672147  0.328364  0.501317  1
  Pd  Pd26  1  0.000180  0.000649  0.998349  1
  Pd  Pd27  1  0.000180  0.000649  0.501651  1
