# generated using pymatgen
data_Sm3YFe2(AuO7)2
_symmetry_space_group_name_H-M   'P 1'
_cell_length_a   7.36478482
_cell_length_b   7.40021412
_cell_length_c   7.36479926
_cell_angle_alpha   59.86858089
_cell_angle_beta   59.64539451
_cell_angle_gamma   59.86848628
_symmetry_Int_Tables_number   1
_chemical_formula_structural   Sm3YFe2(AuO7)2
_chemical_formula_sum   'Sm3 Y1 Fe2 Au2 O14'
_cell_volume   282.49555246
_cell_formula_units_Z   1
loop_
 _symmetry_equiv_pos_site_id
 _symmetry_equiv_pos_as_xyz
  1  'x, y, z'
loop_
 _atom_site_type_symbol
 _atom_site_label
 _atom_site_symmetry_multiplicity
 _atom_site_fract_x
 _atom_site_fract_y
 _atom_site_fract_z
 _atom_site_occupancy
  Sm  Sm0  1  0.499999  0.999999  0.500001  1
  Sm  Sm1  1  0.000000  0.499998  0.500000  1
  Sm  Sm2  1  0.500000  0.500000  0.000000  1
  Y  Y3  1  0.500002  0.500002  0.499998  1
  Fe  Fe4  1  0.999998  0.500002  0.000000  1
  Fe  Fe5  1  0.999999  0.000005  0.000003  1
  Au  Au6  1  0.500002  0.999993  0.000004  1
  Au  Au7  1  0.000005  0.000001  0.500001  1
  O  O8  1  0.620066  0.625358  0.620064  1
  O  O9  1  0.379935  0.374642  0.379938  1
  O  O10  1  0.337748  0.915074  0.910665  1
  O  O11  1  0.092520  0.663224  0.661477  1
  O  O12  1  0.916783  0.333541  0.916783  1
  O  O13  1  0.910665  0.915072  0.337746  1
  O  O14  1  0.338522  0.336778  0.907476  1
  O  O15  1  0.337504  0.910266  0.337504  1
  O  O16  1  0.907482  0.336774  0.338521  1
  O  O17  1  0.661476  0.663227  0.092521  1
  O  O18  1  0.089334  0.084926  0.662252  1
  O  O19  1  0.662252  0.084927  0.089336  1
  O  O20  1  0.662495  0.089736  0.662494  1
  O  O21  1  0.083217  0.666460  0.083216  1
