# generated using pymatgen
data_Y6Ho5Lu5(CdIr)4
_symmetry_space_group_name_H-M   'P 1'
_cell_length_a   9.58045303
_cell_length_b   9.56778425
_cell_length_c   9.56778380
_cell_angle_alpha   59.97480721
_cell_angle_beta   59.95619239
_cell_angle_gamma   59.95618799
_symmetry_Int_Tables_number   1
_chemical_formula_structural   Y6Ho5Lu5(CdIr)4
_chemical_formula_sum   'Y6 Ho5 Lu5 Cd4 Ir4'
_cell_volume   619.61686268
_cell_formula_units_Z   1
loop_
 _symmetry_equiv_pos_site_id
 _symmetry_equiv_pos_as_xyz
  1  'x, y, z'
loop_
 _atom_site_type_symbol
 _atom_site_label
 _atom_site_symmetry_multiplicity
 _atom_site_fract_x
 _atom_site_fract_y
 _atom_site_fract_z
 _atom_site_occupancy
  Y  Y0  1  0.939512  0.560488  0.560488  1
  Y  Y1  1  0.560477  0.939523  0.939523  1
  Y  Y2  1  0.560182  0.939478  0.560833  1
  Y  Y3  1  0.939507  0.560833  0.939478  1
  Y  Y4  1  0.560182  0.560833  0.939478  1
  Y  Y5  1  0.939507  0.939478  0.560833  1
  Ho  Ho6  1  0.347989  0.349129  0.349129  1
  Ho  Ho7  1  0.348933  0.349324  0.952811  1
  Ho  Ho8  1  0.348933  0.952811  0.349324  1
  Ho  Ho9  1  0.953754  0.349129  0.349129  1
  Ho  Ho10  1  0.812184  0.187816  0.187816  1
  Lu  Lu11  1  0.187476  0.812524  0.812524  1
  Lu  Lu12  1  0.188376  0.811626  0.187281  1
  Lu  Lu13  1  0.812717  0.187281  0.811626  1
  Lu  Lu14  1  0.188376  0.187281  0.811626  1
  Lu  Lu15  1  0.812717  0.811626  0.187281  1
  Cd  Cd16  1  0.580337  0.580227  0.580227  1
  Cd  Cd17  1  0.580329  0.580568  0.258776  1
  Cd  Cd18  1  0.580329  0.258776  0.580568  1
  Cd  Cd19  1  0.259211  0.580227  0.580227  1
  Ir  Ir20  1  0.141671  0.140838  0.140838  1
  Ir  Ir21  1  0.140325  0.141327  0.578023  1
  Ir  Ir22  1  0.140325  0.578023  0.141327  1
  Ir  Ir23  1  0.576653  0.140838  0.140838  1
