# generated using pymatgen
data_GaSiTc
_symmetry_space_group_name_H-M   'P 1'
_cell_length_a   3.20453500
_cell_length_b   3.20453500
_cell_length_c   8.08742600
_cell_angle_alpha   90.00000000
_cell_angle_beta   90.00000000
_cell_angle_gamma   90.00000000
_symmetry_Int_Tables_number   1
_chemical_formula_structural   GaSiTc
_chemical_formula_sum   'Ga2 Si2 Tc2'
_cell_volume   83.05013802
_cell_formula_units_Z   2
loop_
 _symmetry_equiv_pos_site_id
 _symmetry_equiv_pos_as_xyz
  1  'x, y, z'
loop_
 _atom_site_type_symbol
 _atom_site_label
 _atom_site_symmetry_multiplicity
 _atom_site_fract_x
 _atom_site_fract_y
 _atom_site_fract_z
 _atom_site_occupancy
  Ga  Ga0  1  0.750001  0.750001  0.087643  1
  Ga  Ga1  1  0.250001  0.250001  0.912867  1
  Si  Si2  1  0.750001  0.750001  0.415484  1
  Si  Si3  1  0.250001  0.250001  0.584389  1
  Tc  Tc4  1  0.250001  0.250001  0.271079  1
  Tc  Tc5  1  0.750001  0.750001  0.728538  1
