# generated using pymatgen
data_Li8Nd8Si7As
_symmetry_space_group_name_H-M   'P 1'
_cell_length_a   9.02504100
_cell_length_b   9.01863981
_cell_length_c   7.42579700
_cell_angle_alpha   90.08753857
_cell_angle_beta   90.00000000
_cell_angle_gamma   120.02348555
_symmetry_Int_Tables_number   1
_chemical_formula_structural   Li8Nd8Si7As
_chemical_formula_sum   'Li8 Nd8 Si7 As1'
_cell_volume   523.31167881
_cell_formula_units_Z   1
loop_
 _symmetry_equiv_pos_site_id
 _symmetry_equiv_pos_as_xyz
  1  'x, y, z'
loop_
 _atom_site_type_symbol
 _atom_site_label
 _atom_site_symmetry_multiplicity
 _atom_site_fract_x
 _atom_site_fract_y
 _atom_site_fract_z
 _atom_site_occupancy
  Li  Li0  1  0.166885  0.333779  0.279709  1
  Li  Li1  1  0.167709  0.833421  0.285433  1
  Li  Li2  1  0.665718  0.833434  0.285437  1
  Li  Li3  1  0.833046  0.666082  0.782436  1
  Li  Li4  1  0.832997  0.166921  0.787079  1
  Li  Li5  1  0.333918  0.166919  0.787077  1
  Li  Li6  1  0.333046  0.666108  0.669382  1
  Li  Li7  1  0.666511  0.333002  0.171118  1
  Nd  Nd8  1  0.512171  0.024337  0.496024  1
  Nd  Nd9  1  0.515630  0.489950  0.493190  1
  Nd  Nd10  1  0.974322  0.489948  0.493187  1
  Nd  Nd11  1  0.487857  0.975714  0.995776  1
  Nd  Nd12  1  0.491931  0.513843  0.996770  1
  Nd  Nd13  1  0.021903  0.513837  0.996766  1
  Nd  Nd14  1  0.998661  0.997322  0.502480  1
  Nd  Nd15  1  0.997935  0.995870  0.005367  1
  Si  Si16  1  0.166227  0.832847  0.729234  1
  Si  Si17  1  0.666625  0.832857  0.729233  1
  Si  Si18  1  0.833245  0.666475  0.232186  1
  Si  Si19  1  0.833958  0.167352  0.229566  1
  Si  Si20  1  0.333389  0.167343  0.229563  1
  Si  Si21  1  0.332623  0.665257  0.265307  1
  Si  Si22  1  0.666982  0.333948  0.765479  1
  As  As23  1  0.166712  0.333436  0.734174  1
