# generated using pymatgen
data_LiY3Al2Si2Ni
_symmetry_space_group_name_H-M   'P 1'
_cell_length_a   6.94117300
_cell_length_b   6.81865154
_cell_length_c   4.23467900
_cell_angle_alpha   90.00000000
_cell_angle_beta   90.00000000
_cell_angle_gamma   120.59620224
_symmetry_Int_Tables_number   1
_chemical_formula_structural   LiY3Al2Si2Ni
_chemical_formula_sum   'Li1 Y3 Al2 Si2 Ni1'
_cell_volume   172.52097035
_cell_formula_units_Z   1
loop_
 _symmetry_equiv_pos_site_id
 _symmetry_equiv_pos_as_xyz
  1  'x, y, z'
loop_
 _atom_site_type_symbol
 _atom_site_label
 _atom_site_symmetry_multiplicity
 _atom_site_fract_x
 _atom_site_fract_y
 _atom_site_fract_z
 _atom_site_occupancy
  Li  Li0  1  0.760603  0.000000  0.500001  1
  Y  Y1  1  0.412864  0.000000  0.000000  1
  Y  Y2  1  0.994188  0.404522  0.000000  1
  Y  Y3  1  0.589666  0.595478  0.000000  1
  Al  Al4  1  0.229666  0.230418  0.500001  1
  Al  Al5  1  0.999249  0.769583  0.500001  1
  Si  Si6  1  0.664536  0.340066  0.500001  1
  Si  Si7  1  0.324470  0.659934  0.500001  1
  Ni  Ni8  1  0.024758  0.000000  0.000000  1
