# generated using pymatgen
data_Ti8Ga15Co5Pd2
_symmetry_space_group_name_H-M   'P 1'
_cell_length_a   8.50057918
_cell_length_b   8.50058019
_cell_length_c   8.50057900
_cell_angle_alpha   120.25711559
_cell_angle_beta   119.80226415
_cell_angle_gamma   89.94903306
_symmetry_Int_Tables_number   1
_chemical_formula_structural   Ti8Ga15Co5Pd2
_chemical_formula_sum   'Ti8 Ga15 Co5 Pd2'
_cell_volume   434.13711500
_cell_formula_units_Z   1
loop_
 _symmetry_equiv_pos_site_id
 _symmetry_equiv_pos_as_xyz
  1  'x, y, z'
loop_
 _atom_site_type_symbol
 _atom_site_label
 _atom_site_symmetry_multiplicity
 _atom_site_fract_x
 _atom_site_fract_y
 _atom_site_fract_z
 _atom_site_occupancy
  Ti  Ti0  1  0.789143  0.285997  0.068642  1
  Ti  Ti1  1  0.217355  0.285997  0.496855  1
  Ti  Ti2  1  0.209100  0.709100  0.500000  1
  Ti  Ti3  1  0.217355  0.720501  0.931358  1
  Ti  Ti4  1  0.789143  0.720501  0.503145  1
  Ti  Ti5  1  0.779816  0.279816  0.500000  1
  Ti  Ti6  1  0.376359  0.127976  0.751618  1
  Ti  Ti7  1  0.376359  0.624743  0.248382  1
  Ga  Ga8  1  0.994352  0.494352  0.500000  1
  Ga  Ga9  1  0.156464  0.357497  0.201032  1
  Ga  Ga10  1  0.156464  0.955433  0.798968  1
  Ga  Ga11  1  0.152276  0.350507  0.801768  1
  Ga  Ga12  1  0.548738  0.350507  0.198232  1
  Ga  Ga13  1  0.842585  0.639950  0.797366  1
  Ga  Ga14  1  0.842585  0.045218  0.202634  1
  Ga  Ga15  1  0.847479  0.651691  0.195789  1
  Ga  Ga16  1  0.455902  0.651691  0.804211  1
  Ga  Ga17  1  0.382120  0.131856  0.250264  1
  Ga  Ga18  1  0.881592  0.131856  0.749736  1
  Ga  Ga19  1  0.621001  0.863090  0.242089  1
  Ga  Ga20  1  0.621001  0.378912  0.757911  1
  Ga  Ga21  1  0.606105  0.869372  0.736732  1
  Ga  Ga22  1  0.132639  0.869372  0.263268  1
  Co  Co23  1  0.006639  0.001926  0.505525  1
  Co  Co24  1  0.496402  0.001926  0.995288  1
  Co  Co25  1  0.494962  0.494962  0.000000  1
  Co  Co26  1  0.496402  0.501114  0.494475  1
  Co  Co27  1  0.006639  0.501114  0.004712  1
  Pd  Pd28  1  0.997707  0.997707  0.000000  1
  Pd  Pd29  1  0.505313  0.005313  0.500000  1
