# generated using pymatgen
data_HoZr(Ga2Pd)2
_symmetry_space_group_name_H-M   'P 1'
_cell_length_a   5.47502824
_cell_length_b   5.47502797
_cell_length_c   6.48900700
_cell_angle_alpha   90.00000000
_cell_angle_beta   90.00000000
_cell_angle_gamma   132.95091876
_symmetry_Int_Tables_number   1
_chemical_formula_structural   HoZr(Ga2Pd)2
_chemical_formula_sum   'Ho1 Zr1 Ga4 Pd2'
_cell_volume   142.37214802
_cell_formula_units_Z   1
loop_
 _symmetry_equiv_pos_site_id
 _symmetry_equiv_pos_as_xyz
  1  'x, y, z'
loop_
 _atom_site_type_symbol
 _atom_site_label
 _atom_site_symmetry_multiplicity
 _atom_site_fract_x
 _atom_site_fract_y
 _atom_site_fract_z
 _atom_site_occupancy
  Ho  Ho0  1  0.915926  0.084074  0.750000  1
  Zr  Zr1  1  0.087331  0.912669  0.250000  1
  Ga  Ga2  1  0.372701  0.627299  0.053540  1
  Ga  Ga3  1  0.624160  0.375840  0.543320  1
  Ga  Ga4  1  0.624160  0.375840  0.956680  1
  Ga  Ga5  1  0.372701  0.627299  0.446460  1
  Pd  Pd6  1  0.799748  0.200252  0.250000  1
  Pd  Pd7  1  0.203272  0.796728  0.750000  1
