# generated using pymatgen
data_Y12Si3BBr12
_symmetry_space_group_name_H-M   'P 1'
_cell_length_a   10.11489434
_cell_length_b   9.99684469
_cell_length_c   9.99684426
_cell_angle_alpha   109.23077507
_cell_angle_beta   109.71060720
_cell_angle_gamma   109.71060913
_symmetry_Int_Tables_number   1
_chemical_formula_structural   Y12Si3BBr12
_chemical_formula_sum   'Y12 Si3 B1 Br12'
_cell_volume   775.84280029
_cell_formula_units_Z   1
loop_
 _symmetry_equiv_pos_site_id
 _symmetry_equiv_pos_as_xyz
  1  'x, y, z'
loop_
 _atom_site_type_symbol
 _atom_site_label
 _atom_site_symmetry_multiplicity
 _atom_site_fract_x
 _atom_site_fract_y
 _atom_site_fract_z
 _atom_site_occupancy
  Y  Y0  1  0.462831  0.491891  0.222814  1
  Y  Y1  1  0.750000  0.237469  0.262531  1
  Y  Y2  1  0.750000  0.011444  0.488556  1
  Y  Y3  1  0.238556  0.477112  0.488556  1
  Y  Y4  1  0.259984  0.730923  0.222814  1
  Y  Y5  1  0.037169  0.277186  0.008109  1
  Y  Y6  1  0.012531  0.025061  0.262531  1
  Y  Y7  1  0.470938  0.730923  0.008109  1
  Y  Y8  1  0.487469  0.237469  0.474939  1
  Y  Y9  1  0.029062  0.491891  0.769077  1
  Y  Y10  1  0.261444  0.011444  0.022888  1
  Y  Y11  1  0.240016  0.277186  0.769077  1
  Si  Si12  1  0.250000  0.250869  0.249131  1
  Si  Si13  1  0.499131  0.998262  0.249131  1
  Si  Si14  1  0.000869  0.250869  0.501738  1
  B  B15  1  0.250000  0.500000  0.000000  1
  Br  Br16  1  0.250000  0.755525  0.744475  1
  Br  Br17  1  0.511894  0.506541  0.757753  1
  Br  Br18  1  0.988106  0.742247  0.993459  1
  Br  Br19  1  0.745860  0.251212  0.757753  1
  Br  Br20  1  0.994475  0.988950  0.744475  1
  Br  Br21  1  0.250000  0.995550  0.504450  1
  Br  Br22  1  0.754450  0.508902  0.504450  1
  Br  Br23  1  0.505352  0.251212  0.993459  1
  Br  Br24  1  0.754140  0.742247  0.248788  1
  Br  Br25  1  0.745550  0.995550  0.991098  1
  Br  Br26  1  0.994648  0.506541  0.248788  1
  Br  Br27  1  0.505525  0.755525  0.511050  1
