# generated using pymatgen
data_Yb4Ga3FeO10
_symmetry_space_group_name_H-M   'P 1'
_cell_length_a   5.36700100
_cell_length_b   5.59617000
_cell_length_c   15.61022587
_cell_angle_alpha   68.95887212
_cell_angle_beta   90.00000000
_cell_angle_gamma   90.00000000
_symmetry_Int_Tables_number   1
_chemical_formula_structural   Yb4Ga3FeO10
_chemical_formula_sum   'Yb8 Ga6 Fe2 O20'
_cell_volume   437.58628741
_cell_formula_units_Z   2
loop_
 _symmetry_equiv_pos_site_id
 _symmetry_equiv_pos_as_xyz
  1  'x, y, z'
loop_
 _atom_site_type_symbol
 _atom_site_label
 _atom_site_symmetry_multiplicity
 _atom_site_fract_x
 _atom_site_fract_y
 _atom_site_fract_z
 _atom_site_occupancy
  Yb  Yb0  1  0.022130  0.632803  0.893171  1
  Yb  Yb1  1  0.522130  0.367197  0.606829  1
  Yb  Yb2  1  0.978711  0.080670  0.393002  1
  Yb  Yb3  1  0.478711  0.919330  0.106998  1
  Yb  Yb4  1  0.977870  0.367197  0.106829  1
  Yb  Yb5  1  0.477870  0.632803  0.393171  1
  Yb  Yb6  1  0.021289  0.919330  0.606998  1
  Yb  Yb7  1  0.521289  0.080670  0.893002  1
  Ga  Ga8  1  0.551783  0.681824  0.750224  1
  Ga  Ga9  1  0.051783  0.318176  0.749776  1
  Ga  Ga10  1  0.448217  0.318176  0.249776  1
  Ga  Ga11  1  0.948217  0.681824  0.250224  1
  Ga  Ga12  1  0.500000  0.500000  0.000000  1
  Ga  Ga13  1  0.000000  0.500000  0.500000  1
  Fe  Fe14  1  0.500000  0.000000  0.500000  1
  Fe  Fe15  1  0.000000  0.000000  0.000000  1
  O  O16  1  0.236269  0.714870  0.016788  1
  O  O17  1  0.736269  0.285130  0.483212  1
  O  O18  1  0.766765  0.747318  0.516640  1
  O  O19  1  0.266765  0.252682  0.983360  1
  O  O20  1  0.763731  0.285130  0.983212  1
  O  O21  1  0.263731  0.714870  0.516788  1
  O  O22  1  0.233235  0.252682  0.483360  1
  O  O23  1  0.733235  0.747318  0.016640  1
  O  O24  1  0.905003  0.629124  0.750049  1
  O  O25  1  0.405003  0.370876  0.749951  1
  O  O26  1  0.094997  0.370876  0.249951  1
  O  O27  1  0.594997  0.629124  0.250049  1
  O  O28  1  0.465288  0.720578  0.858216  1
  O  O29  1  0.965288  0.279422  0.641784  1
  O  O30  1  0.533906  0.064020  0.358275  1
  O  O31  1  0.033906  0.935980  0.141725  1
  O  O32  1  0.534712  0.279422  0.141784  1
  O  O33  1  0.034712  0.720578  0.358216  1
  O  O34  1  0.466094  0.935980  0.641725  1
  O  O35  1  0.966094  0.064020  0.858275  1
