# generated using pymatgen
data_Nd6ErCoBr12
_symmetry_space_group_name_H-M   'P 1'
_cell_length_a   9.39016200
_cell_length_b   9.39016205
_cell_length_c   9.39016219
_cell_angle_alpha   106.85329358
_cell_angle_beta   106.85329941
_cell_angle_gamma   106.85329804
_symmetry_Int_Tables_number   1
_chemical_formula_structural   Nd6ErCoBr12
_chemical_formula_sum   'Nd6 Er1 Co1 Br12'
_cell_volume   692.28970901
_cell_formula_units_Z   1
loop_
 _symmetry_equiv_pos_site_id
 _symmetry_equiv_pos_as_xyz
  1  'x, y, z'
loop_
 _atom_site_type_symbol
 _atom_site_label
 _atom_site_symmetry_multiplicity
 _atom_site_fract_x
 _atom_site_fract_y
 _atom_site_fract_z
 _atom_site_occupancy
  Nd  Nd0  1  0.100429  0.023780  0.309651  1
  Nd  Nd1  1  0.309651  0.100429  0.023780  1
  Nd  Nd2  1  0.023780  0.309651  0.100429  1
  Nd  Nd3  1  0.899571  0.976220  0.690349  1
  Nd  Nd4  1  0.690349  0.899571  0.976220  1
  Nd  Nd5  1  0.976220  0.690349  0.899571  1
  Er  Er6  1  0.500000  0.500000  0.500000  1
  Co  Co7  1  0.000000  0.000000  0.000000  1
  Br  Br8  1  0.069977  0.679834  0.226184  1
  Br  Br9  1  0.226184  0.069977  0.679834  1
  Br  Br10  1  0.679834  0.226184  0.069977  1
  Br  Br11  1  0.930023  0.320166  0.773816  1
  Br  Br12  1  0.773816  0.930023  0.320166  1
  Br  Br13  1  0.320166  0.773816  0.930023  1
  Br  Br14  1  0.468163  0.177042  0.392581  1
  Br  Br15  1  0.392581  0.468163  0.177042  1
  Br  Br16  1  0.177042  0.392581  0.468163  1
  Br  Br17  1  0.531837  0.822958  0.607419  1
  Br  Br18  1  0.607419  0.531837  0.822958  1
  Br  Br19  1  0.822958  0.607419  0.531837  1
