# generated using pymatgen
data_PrAg3Ir3RuO14
_symmetry_space_group_name_H-M   'P 1'
_cell_length_a   7.23210468
_cell_length_b   7.29748478
_cell_length_c   7.25506122
_cell_angle_alpha   60.28119270
_cell_angle_beta   60.10461084
_cell_angle_gamma   60.29591523
_symmetry_Int_Tables_number   1
_chemical_formula_structural   PrAg3Ir3RuO14
_chemical_formula_sum   'Pr1 Ag3 Ir3 Ru1 O14'
_cell_volume   272.13824501
_cell_formula_units_Z   1
loop_
 _symmetry_equiv_pos_site_id
 _symmetry_equiv_pos_as_xyz
  1  'x, y, z'
loop_
 _atom_site_type_symbol
 _atom_site_label
 _atom_site_symmetry_multiplicity
 _atom_site_fract_x
 _atom_site_fract_y
 _atom_site_fract_z
 _atom_site_occupancy
  Pr  Pr0  1  0.125000  0.625000  0.125000  1
  Ag  Ag1  1  0.125000  0.125000  0.625000  1
  Ag  Ag2  1  0.125000  0.125000  0.125000  1
  Ag  Ag3  1  0.625000  0.125000  0.125000  1
  Ir  Ir4  1  0.625000  0.625000  0.625000  1
  Ir  Ir5  1  0.125000  0.625000  0.625000  1
  Ir  Ir6  1  0.625000  0.125000  0.625000  1
  Ru  Ru7  1  0.625000  0.625000  0.125000  1
  O  O8  1  0.953902  0.547509  0.544687  1
  O  O9  1  0.303208  0.306237  0.697579  1
  O  O10  1  0.950270  0.550928  0.949762  1
  O  O11  1  0.688439  0.313503  0.309618  1
  O  O12  1  0.549038  0.550928  0.949762  1
  O  O13  1  0.557025  0.943763  0.552421  1
  O  O14  1  0.561561  0.936497  0.940382  1
  O  O15  1  0.260021  0.221289  0.258667  1
  O  O16  1  0.296098  0.702491  0.705313  1
  O  O17  1  0.692975  0.306237  0.697579  1
  O  O18  1  0.989979  0.028711  0.991333  1
  O  O19  1  0.946792  0.943763  0.552421  1
  O  O20  1  0.299730  0.699072  0.300238  1
  O  O21  1  0.700962  0.699072  0.300238  1
