# generated using pymatgen
data_Sr5PWN7
_symmetry_space_group_name_H-M   'P 1'
_cell_length_a   6.43307925
_cell_length_b   9.00744420
_cell_length_c   9.17958537
_cell_angle_alpha   114.04373574
_cell_angle_beta   97.42426476
_cell_angle_gamma   89.36131632
_symmetry_Int_Tables_number   1
_chemical_formula_structural   Sr5PWN7
_chemical_formula_sum   'Sr10 P2 W2 N14'
_cell_volume   481.18624487
_cell_formula_units_Z   2
loop_
 _symmetry_equiv_pos_site_id
 _symmetry_equiv_pos_as_xyz
  1  'x, y, z'
loop_
 _atom_site_type_symbol
 _atom_site_label
 _atom_site_symmetry_multiplicity
 _atom_site_fract_x
 _atom_site_fract_y
 _atom_site_fract_z
 _atom_site_occupancy
  Sr  Sr0  1  0.854131  0.582285  0.340650  1
  Sr  Sr1  1  0.273138  0.980122  0.561932  1
  Sr  Sr2  1  0.699709  0.408278  0.841230  1
  Sr  Sr3  1  0.300291  0.591722  0.158770  1
  Sr  Sr4  1  0.399394  0.785756  0.906697  1
  Sr  Sr5  1  0.600606  0.214244  0.093303  1
  Sr  Sr6  1  0.145869  0.417715  0.659350  1
  Sr  Sr7  1  0.896152  0.839133  0.753317  1
  Sr  Sr8  1  0.103848  0.160867  0.246683  1
  Sr  Sr9  1  0.726862  0.019878  0.438068  1
  P  P10  1  0.568865  0.363907  0.473935  1
  P  P11  1  0.431135  0.636093  0.526065  1
  W  W12  1  0.120577  0.216598  0.914262  1
  W  W13  1  0.879423  0.783402  0.085738  1
  N  N14  1  0.546300  0.543089  0.646261  1
  N  N15  1  0.453700  0.456911  0.353739  1
  N  N16  1  0.193878  0.685384  0.569422  1
  N  N17  1  0.806122  0.314616  0.430578  1
  N  N18  1  0.423789  0.217714  0.478636  1
  N  N19  1  0.576211  0.782286  0.521364  1
  N  N20  1  0.948593  0.131116  0.711077  1
  N  N21  1  0.051407  0.868884  0.288923  1
  N  N22  1  0.236256  0.050720  0.968178  1
  N  N23  1  0.763744  0.949280  0.031822  1
  N  N24  1  0.353814  0.334232  0.903547  1
  N  N25  1  0.967327  0.348510  0.080313  1
  N  N26  1  0.032673  0.651490  0.919687  1
  N  N27  1  0.646186  0.665768  0.096453  1
