# generated using pymatgen
data_DyY2Er2Re2C7
_symmetry_space_group_name_H-M   'P 1'
_cell_length_a   8.33499789
_cell_length_b   8.29480766
_cell_length_c   3.41267700
_cell_angle_alpha   90.00000000
_cell_angle_beta   90.00000000
_cell_angle_gamma   122.50716475
_symmetry_Int_Tables_number   1
_chemical_formula_structural   DyY2Er2Re2C7
_chemical_formula_sum   'Dy1 Y2 Er2 Re2 C7'
_cell_volume   198.97640910
_cell_formula_units_Z   1
loop_
 _symmetry_equiv_pos_site_id
 _symmetry_equiv_pos_as_xyz
  1  'x, y, z'
loop_
 _atom_site_type_symbol
 _atom_site_label
 _atom_site_symmetry_multiplicity
 _atom_site_fract_x
 _atom_site_fract_y
 _atom_site_fract_z
 _atom_site_occupancy
  Dy  Dy0  1  0.924481  0.667585  0.500000  1
  Y  Y1  1  0.500098  0.499946  0.000000  1
  Y  Y2  1  0.075643  0.331959  0.500000  1
  Er  Er3  1  0.661848  0.923284  0.500000  1
  Er  Er4  1  0.338306  0.076656  0.500000  1
  Re  Re5  1  0.715443  0.285358  0.000000  1
  Re  Re6  1  0.284461  0.714880  0.000000  1
  C  C7  1  0.627897  0.373413  0.500000  1
  C  C8  1  0.372551  0.627467  0.500000  1
  C  C9  1  0.999828  0.999763  0.000000  1
  C  C10  1  0.172143  0.166347  0.000000  1
  C  C11  1  0.827668  0.833031  0.000000  1
  C  C12  1  0.999729  0.500380  0.000000  1
  C  C13  1  0.499904  0.999932  0.000000  1
