# generated using pymatgen
data_Al6Cu2IrPd
_symmetry_space_group_name_H-M   'P 1'
_cell_length_a   4.21345400
_cell_length_b   4.21345296
_cell_length_c   10.13698400
_cell_angle_alpha   90.00000000
_cell_angle_beta   90.00000000
_cell_angle_gamma   120.00000817
_symmetry_Int_Tables_number   1
_chemical_formula_structural   Al6Cu2IrPd
_chemical_formula_sum   'Al6 Cu2 Ir1 Pd1'
_cell_volume   155.85321429
_cell_formula_units_Z   1
loop_
 _symmetry_equiv_pos_site_id
 _symmetry_equiv_pos_as_xyz
  1  'x, y, z'
loop_
 _atom_site_type_symbol
 _atom_site_label
 _atom_site_symmetry_multiplicity
 _atom_site_fract_x
 _atom_site_fract_y
 _atom_site_fract_z
 _atom_site_occupancy
  Al  Al0  1  0.666667  0.333333  0.182310  1
  Al  Al1  1  0.666667  0.333333  0.678058  1
  Al  Al2  1  0.000000  0.000000  0.324894  1
  Al  Al3  1  0.000000  0.000000  0.822854  1
  Al  Al4  1  0.333333  0.666667  0.002127  1
  Al  Al5  1  0.333333  0.666667  0.475712  1
  Cu  Cu6  1  0.000000  0.000000  0.078217  1
  Cu  Cu7  1  0.000000  0.000000  0.579427  1
  Ir  Ir8  1  0.666667  0.333333  0.429029  1
  Pd  Pd9  1  0.666667  0.333333  0.927372  1
