# generated using pymatgen
data_YbNpPa8O20
_symmetry_space_group_name_H-M   'P 1'
_cell_length_a   6.65916696
_cell_length_b   7.72618894
_cell_length_c   8.61291626
_cell_angle_alpha   102.96786991
_cell_angle_beta   97.51666230
_cell_angle_gamma   106.84755170
_symmetry_Int_Tables_number   1
_chemical_formula_structural   YbNpPa8O20
_chemical_formula_sum   'Yb1 Np1 Pa8 O20'
_cell_volume   404.08291907
_cell_formula_units_Z   1
loop_
 _symmetry_equiv_pos_site_id
 _symmetry_equiv_pos_as_xyz
  1  'x, y, z'
loop_
 _atom_site_type_symbol
 _atom_site_label
 _atom_site_symmetry_multiplicity
 _atom_site_fract_x
 _atom_site_fract_y
 _atom_site_fract_z
 _atom_site_occupancy
  Yb  Yb0  1  0.000000  0.000000  0.000000  1
  Np  Np1  1  0.000000  0.500000  0.000000  1
  Pa  Pa2  1  0.801925  0.603142  0.606093  1
  Pa  Pa3  1  0.602788  0.198842  0.197085  1
  Pa  Pa4  1  0.801415  0.100878  0.606550  1
  Pa  Pa5  1  0.605833  0.702121  0.197818  1
  Pa  Pa6  1  0.198075  0.396858  0.393907  1
  Pa  Pa7  1  0.394167  0.297879  0.802182  1
  Pa  Pa8  1  0.198585  0.899122  0.393450  1
  Pa  Pa9  1  0.397212  0.801158  0.802915  1
  O  O10  1  0.850756  0.325894  0.453767  1
  O  O11  1  0.638697  0.922542  0.052209  1
  O  O12  1  0.851945  0.826723  0.453426  1
  O  O13  1  0.949265  0.775789  0.159160  1
  O  O14  1  0.445266  0.522669  0.648189  1
  O  O15  1  0.641699  0.423465  0.051198  1
  O  O16  1  0.739150  0.370967  0.745673  1
  O  O17  1  0.262499  0.129667  0.256820  1
  O  O18  1  0.948083  0.278463  0.159592  1
  O  O19  1  0.554993  0.976207  0.352373  1
  O  O20  1  0.051917  0.721537  0.840408  1
  O  O21  1  0.445007  0.023793  0.647627  1
  O  O22  1  0.737501  0.870333  0.743180  1
  O  O23  1  0.358301  0.576535  0.948802  1
  O  O24  1  0.260850  0.629033  0.254327  1
  O  O25  1  0.050735  0.224211  0.840840  1
  O  O26  1  0.554734  0.477331  0.351811  1
  O  O27  1  0.148055  0.173277  0.546574  1
  O  O28  1  0.361303  0.077458  0.947791  1
  O  O29  1  0.149244  0.674106  0.546233  1
