# generated using pymatgen
data_Eu7(LuPt3)2
_symmetry_space_group_name_H-M   'P 1'
_cell_length_a   7.76631822
_cell_length_b   7.76631791
_cell_length_c   7.76631874
_cell_angle_alpha   69.81715987
_cell_angle_beta   69.81715687
_cell_angle_gamma   69.81716746
_symmetry_Int_Tables_number   1
_chemical_formula_structural   Eu7(LuPt3)2
_chemical_formula_sum   'Eu7 Lu2 Pt6'
_cell_volume   398.86255877
_cell_formula_units_Z   1
loop_
 _symmetry_equiv_pos_site_id
 _symmetry_equiv_pos_as_xyz
  1  'x, y, z'
loop_
 _atom_site_type_symbol
 _atom_site_label
 _atom_site_symmetry_multiplicity
 _atom_site_fract_x
 _atom_site_fract_y
 _atom_site_fract_z
 _atom_site_occupancy
  Eu  Eu0  1  0.199196  0.199196  0.199196  1
  Eu  Eu1  1  0.334355  0.603041  0.844862  1
  Eu  Eu2  1  0.844862  0.334355  0.603041  1
  Eu  Eu3  1  0.603041  0.844862  0.334355  1
  Eu  Eu4  1  0.666997  0.397030  0.153809  1
  Eu  Eu5  1  0.153809  0.666997  0.397030  1
  Eu  Eu6  1  0.397030  0.153809  0.666997  1
  Lu  Lu7  1  0.000033  0.000033  0.000033  1
  Lu  Lu8  1  0.805996  0.805996  0.805996  1
  Pt  Pt9  1  0.141351  0.954098  0.612440  1
  Pt  Pt10  1  0.612440  0.141351  0.954098  1
  Pt  Pt11  1  0.954098  0.612440  0.141351  1
  Pt  Pt12  1  0.842601  0.032674  0.411516  1
  Pt  Pt13  1  0.411516  0.842601  0.032674  1
  Pt  Pt14  1  0.032674  0.411516  0.842601  1
