# generated using pymatgen
data_Ho6Ta4Al12Ir5Ru2
_symmetry_space_group_name_H-M   'P 1'
_cell_length_a   9.00079472
_cell_length_b   9.00079428
_cell_length_c   9.00310500
_cell_angle_alpha   59.99150362
_cell_angle_beta   59.99150522
_cell_angle_gamma   59.90984086
_symmetry_Int_Tables_number   1
_chemical_formula_structural   Ho6Ta4Al12Ir5Ru2
_chemical_formula_sum   'Ho6 Ta4 Al12 Ir5 Ru2'
_cell_volume   515.33129094
_cell_formula_units_Z   1
loop_
 _symmetry_equiv_pos_site_id
 _symmetry_equiv_pos_as_xyz
  1  'x, y, z'
loop_
 _atom_site_type_symbol
 _atom_site_label
 _atom_site_symmetry_multiplicity
 _atom_site_fract_x
 _atom_site_fract_y
 _atom_site_fract_z
 _atom_site_occupancy
  Ho  Ho0  1  0.701963  0.701963  0.298037  1
  Ho  Ho1  1  0.299526  0.700576  0.299806  1
  Ho  Ho2  1  0.700576  0.299526  0.299806  1
  Ho  Ho3  1  0.298339  0.298339  0.701661  1
  Ho  Ho4  1  0.700576  0.299526  0.700092  1
  Ho  Ho5  1  0.299526  0.700576  0.700092  1
  Ta  Ta6  1  0.880919  0.880919  0.359998  1
  Ta  Ta7  1  0.880418  0.360476  0.879554  1
  Ta  Ta8  1  0.360476  0.880418  0.879554  1
  Ta  Ta9  1  0.880919  0.880919  0.878167  1
  Al  Al10  1  0.118689  0.118689  0.641068  1
  Al  Al11  1  0.119492  0.641027  0.119740  1
  Al  Al12  1  0.641027  0.119492  0.119740  1
  Al  Al13  1  0.118689  0.118689  0.121552  1
  Al  Al14  1  0.665565  0.665565  0.003742  1
  Al  Al15  1  0.667251  0.001320  0.665715  1
  Al  Al16  1  0.001320  0.667251  0.665715  1
  Al  Al17  1  0.665565  0.665565  0.665128  1
  Al  Al18  1  0.328644  0.328644  0.013962  1
  Al  Al19  1  0.327500  0.014370  0.329065  1
  Al  Al20  1  0.014370  0.327500  0.329065  1
  Al  Al21  1  0.328644  0.328644  0.328751  1
  Ir  Ir22  1  0.502159  0.997959  0.502959  1
  Ir  Ir23  1  0.997959  0.502159  0.502959  1
  Ir  Ir24  1  0.502602  0.502602  0.997398  1
  Ir  Ir25  1  0.997959  0.502159  0.996923  1
  Ir  Ir26  1  0.502159  0.997959  0.996923  1
  Ru  Ru27  1  0.000581  0.000581  0.999419  1
  Ru  Ru28  1  0.996587  0.996587  0.503413  1
