# generated using pymatgen
data_YEr3SiI6
_symmetry_space_group_name_H-M   'P 1'
_cell_length_a   4.19041500
_cell_length_b   13.93336502
_cell_length_c   14.71801502
_cell_angle_alpha   90.00587520
_cell_angle_beta   90.00000000
_cell_angle_gamma   90.00000000
_symmetry_Int_Tables_number   1
_chemical_formula_structural   YEr3SiI6
_chemical_formula_sum   'Y2 Er6 Si2 I12'
_cell_volume   859.33458295
_cell_formula_units_Z   2
loop_
 _symmetry_equiv_pos_site_id
 _symmetry_equiv_pos_as_xyz
  1  'x, y, z'
loop_
 _atom_site_type_symbol
 _atom_site_label
 _atom_site_symmetry_multiplicity
 _atom_site_fract_x
 _atom_site_fract_y
 _atom_site_fract_z
 _atom_site_occupancy
  Y  Y0  1  0.500000  0.114205  0.347594  1
  Y  Y1  1  0.500000  0.885795  0.652406  1
  Er  Er2  1  0.500000  0.613617  0.151520  1
  Er  Er3  1  0.500000  0.386383  0.848480  1
  Er  Er4  1  0.000000  0.110400  0.573964  1
  Er  Er5  1  0.000000  0.889600  0.426036  1
  Er  Er6  1  0.000000  0.610167  0.926208  1
  Er  Er7  1  0.000000  0.389833  0.073792  1
  Si  Si8  1  0.500000  0.000000  0.500000  1
  Si  Si9  1  0.500000  0.500000  0.000000  1
  I  I10  1  0.500000  0.246484  0.160885  1
  I  I11  1  0.500000  0.753516  0.839115  1
  I  I12  1  0.500000  0.745995  0.338515  1
  I  I13  1  0.500000  0.254005  0.661485  1
  I  I14  1  0.000000  0.259348  0.415079  1
  I  I15  1  0.000000  0.740652  0.584921  1
  I  I16  1  0.000000  0.757945  0.085841  1
  I  I17  1  0.000000  0.242055  0.914159  1
  I  I18  1  0.000000  0.998287  0.240111  1
  I  I19  1  0.000000  0.001713  0.759889  1
  I  I20  1  0.000000  0.499665  0.259006  1
  I  I21  1  0.000000  0.500335  0.740994  1
