# generated using pymatgen
data_K4Sr2TiSb4
_symmetry_space_group_name_H-M   'P 1'
_cell_length_a   10.90321561
_cell_length_b   10.90321534
_cell_length_c   8.25204030
_cell_angle_alpha   88.17795216
_cell_angle_beta   88.17795591
_cell_angle_gamma   119.52362062
_symmetry_Int_Tables_number   1
_chemical_formula_structural   K4Sr2TiSb4
_chemical_formula_sum   'K8 Sr4 Ti2 Sb8'
_cell_volume   851.91964257
_cell_formula_units_Z   2
loop_
 _symmetry_equiv_pos_site_id
 _symmetry_equiv_pos_as_xyz
  1  'x, y, z'
loop_
 _atom_site_type_symbol
 _atom_site_label
 _atom_site_symmetry_multiplicity
 _atom_site_fract_x
 _atom_site_fract_y
 _atom_site_fract_z
 _atom_site_occupancy
  K  K0  1  0.049798  0.521500  0.621044  1
  K  K1  1  0.521500  0.049798  0.121044  1
  K  K2  1  0.283511  0.136832  0.837717  1
  K  K3  1  0.872157  0.729508  0.772063  1
  K  K4  1  0.857809  0.147000  0.809127  1
  K  K5  1  0.729508  0.872157  0.272063  1
  K  K6  1  0.136832  0.283511  0.337717  1
  K  K7  1  0.147000  0.857809  0.309127  1
  Sr  Sr8  1  0.471720  0.940203  0.615009  1
  Sr  Sr9  1  0.475349  0.521389  0.628369  1
  Sr  Sr10  1  0.940203  0.471720  0.115009  1
  Sr  Sr11  1  0.521389  0.475349  0.128369  1
  Ti  Ti12  1  0.664264  0.334850  0.511478  1
  Ti  Ti13  1  0.334850  0.664264  0.011478  1
  Sb  Sb14  1  0.601423  0.791482  0.878470  1
  Sb  Sb15  1  0.200541  0.393048  0.925928  1
  Sb  Sb16  1  0.194571  0.792683  0.905279  1
  Sb  Sb17  1  0.393048  0.200541  0.425928  1
  Sb  Sb18  1  0.791482  0.601423  0.378470  1
  Sb  Sb19  1  0.792683  0.194571  0.405279  1
  Sb  Sb20  1  0.667343  0.352579  0.841150  1
  Sb  Sb21  1  0.352579  0.667343  0.341150  1
