# generated using pymatgen
data_SrTlPt2O7
_symmetry_space_group_name_H-M   'P 1'
_cell_length_a   7.40507758
_cell_length_b   7.40507730
_cell_length_c   7.33354800
_cell_angle_alpha   60.31901347
_cell_angle_beta   60.31901471
_cell_angle_gamma   60.66419954
_symmetry_Int_Tables_number   1
_chemical_formula_structural   SrTlPt2O7
_chemical_formula_sum   'Sr2 Tl2 Pt4 O14'
_cell_volume   287.13720165
_cell_formula_units_Z   2
loop_
 _symmetry_equiv_pos_site_id
 _symmetry_equiv_pos_as_xyz
  1  'x, y, z'
loop_
 _atom_site_type_symbol
 _atom_site_label
 _atom_site_symmetry_multiplicity
 _atom_site_fract_x
 _atom_site_fract_y
 _atom_site_fract_z
 _atom_site_occupancy
  Sr  Sr0  1  0.625000  0.125000  0.125000  1
  Sr  Sr1  1  0.125000  0.625000  0.125000  1
  Tl  Tl2  1  0.125000  0.125000  0.125000  1
  Tl  Tl3  1  0.125000  0.125000  0.625000  1
  Pt  Pt4  1  0.625000  0.625000  0.125000  1
  Pt  Pt5  1  0.625000  0.625000  0.625000  1
  Pt  Pt6  1  0.625000  0.125000  0.625000  1
  Pt  Pt7  1  0.125000  0.625000  0.625000  1
  O  O8  1  0.710156  0.296951  0.297013  1
  O  O9  1  0.710156  0.296951  0.695880  1
  O  O10  1  0.019619  0.019619  0.980381  1
  O  O11  1  0.296951  0.710156  0.297013  1
  O  O12  1  0.703980  0.703980  0.296020  1
  O  O13  1  0.953049  0.539844  0.554120  1
  O  O14  1  0.296951  0.710156  0.695880  1
  O  O15  1  0.230381  0.230381  0.269619  1
  O  O16  1  0.953049  0.539844  0.952987  1
  O  O17  1  0.539844  0.953049  0.554120  1
  O  O18  1  0.546020  0.546020  0.953980  1
  O  O19  1  0.953169  0.953169  0.546831  1
  O  O20  1  0.539844  0.953049  0.952987  1
  O  O21  1  0.296831  0.296831  0.703169  1
