# generated using pymatgen
data_La2Yb(GaPt)4
_symmetry_space_group_name_H-M   'P 1'
_cell_length_a   8.36192846
_cell_length_b   8.36192754
_cell_length_c   8.36192869
_cell_angle_alpha   150.91288357
_cell_angle_beta   127.53460562
_cell_angle_gamma   61.11049554
_symmetry_Int_Tables_number   1
_chemical_formula_structural   La2Yb(GaPt)4
_chemical_formula_sum   'La2 Yb1 Ga4 Pt4'
_cell_volume   223.54595709
_cell_formula_units_Z   1
loop_
 _symmetry_equiv_pos_site_id
 _symmetry_equiv_pos_as_xyz
  1  'x, y, z'
loop_
 _atom_site_type_symbol
 _atom_site_label
 _atom_site_symmetry_multiplicity
 _atom_site_fract_x
 _atom_site_fract_y
 _atom_site_fract_z
 _atom_site_occupancy
  La  La0  1  0.499916  0.999916  0.500000  1
  La  La1  1  0.122423  0.122423  0.000000  1
  Yb  Yb2  1  0.873955  0.873955  0.000000  1
  Ga  Ga3  1  0.483579  0.676223  0.807356  1
  Ga  Ga4  1  0.868866  0.676223  0.192644  1
  Ga  Ga5  1  0.123784  0.325867  0.797917  1
  Ga  Ga6  1  0.527950  0.325867  0.202083  1
  Pt  Pt7  1  0.283000  0.783000  0.500000  1
  Pt  Pt8  1  0.718687  0.218687  0.500000  1
  Pt  Pt9  1  0.794281  0.498921  0.295360  1
  Pt  Pt10  1  0.203560  0.498921  0.704640  1
