# generated using pymatgen
data_Tb3Er(ScIr)4
_symmetry_space_group_name_H-M   'P 1'
_cell_length_a   4.27662900
_cell_length_b   7.14136064
_cell_length_c   8.68901694
_cell_angle_alpha   89.87873668
_cell_angle_beta   90.00000000
_cell_angle_gamma   90.00000000
_symmetry_Int_Tables_number   1
_chemical_formula_structural   Tb3Er(ScIr)4
_chemical_formula_sum   'Tb3 Er1 Sc4 Ir4'
_cell_volume   265.37023784
_cell_formula_units_Z   1
loop_
 _symmetry_equiv_pos_site_id
 _symmetry_equiv_pos_as_xyz
  1  'x, y, z'
loop_
 _atom_site_type_symbol
 _atom_site_label
 _atom_site_symmetry_multiplicity
 _atom_site_fract_x
 _atom_site_fract_y
 _atom_site_fract_z
 _atom_site_occupancy
  Tb  Tb0  1  0.250000  0.981610  0.326198  1
  Tb  Tb1  1  0.250000  0.481449  0.172755  1
  Tb  Tb2  1  0.750000  0.018898  0.673985  1
  Er  Er3  1  0.750000  0.518331  0.827534  1
  Sc  Sc4  1  0.250000  0.360423  0.566158  1
  Sc  Sc5  1  0.250000  0.857873  0.934492  1
  Sc  Sc6  1  0.750000  0.640822  0.435251  1
  Sc  Sc7  1  0.750000  0.140535  0.065176  1
  Ir  Ir8  1  0.250000  0.239941  0.892592  1
  Ir  Ir9  1  0.250000  0.739105  0.606712  1
  Ir  Ir10  1  0.750000  0.759839  0.105748  1
  Ir  Ir11  1  0.750000  0.261176  0.393400  1
