# generated using pymatgen
data_Sm3CoNi7MoP6
_symmetry_space_group_name_H-M   'P 1'
_cell_length_a   3.79733000
_cell_length_b   10.68463600
_cell_length_c   12.41116400
_cell_angle_alpha   90.00000000
_cell_angle_beta   90.00000000
_cell_angle_gamma   90.00000000
_symmetry_Int_Tables_number   1
_chemical_formula_structural   Sm3CoNi7MoP6
_chemical_formula_sum   'Sm6 Co2 Ni14 Mo2 P12'
_cell_volume   503.55925935
_cell_formula_units_Z   2
loop_
 _symmetry_equiv_pos_site_id
 _symmetry_equiv_pos_as_xyz
  1  'x, y, z'
loop_
 _atom_site_type_symbol
 _atom_site_label
 _atom_site_symmetry_multiplicity
 _atom_site_fract_x
 _atom_site_fract_y
 _atom_site_fract_z
 _atom_site_occupancy
  Sm  Sm0  1  0.000000  0.500000  0.522727  1
  Sm  Sm1  1  0.500000  0.000000  0.477273  1
  Sm  Sm2  1  0.500000  0.817364  0.206069  1
  Sm  Sm3  1  0.500000  0.182636  0.206069  1
  Sm  Sm4  1  0.000000  0.682636  0.793931  1
  Sm  Sm5  1  0.000000  0.317364  0.793931  1
  Co  Co6  1  0.000000  0.500000  0.984904  1
  Co  Co7  1  0.500000  0.000000  0.015096  1
  Ni  Ni8  1  0.500000  0.500000  0.702475  1
  Ni  Ni9  1  0.000000  0.000000  0.297525  1
  Ni  Ni10  1  0.500000  0.332468  0.988649  1
  Ni  Ni11  1  0.500000  0.667532  0.988649  1
  Ni  Ni12  1  0.000000  0.167532  0.011351  1
  Ni  Ni13  1  0.000000  0.832468  0.011351  1
  Ni  Ni14  1  0.500000  0.301816  0.426729  1
  Ni  Ni15  1  0.500000  0.698184  0.426729  1
  Ni  Ni16  1  0.000000  0.198184  0.573271  1
  Ni  Ni17  1  0.000000  0.801816  0.573271  1
  Ni  Ni18  1  0.500000  0.880955  0.710650  1
  Ni  Ni19  1  0.500000  0.119045  0.710650  1
  Ni  Ni20  1  0.000000  0.619045  0.289350  1
  Ni  Ni21  1  0.000000  0.380955  0.289350  1
  Mo  Mo22  1  0.500000  0.500000  0.150744  1
  Mo  Mo23  1  0.000000  0.000000  0.849256  1
  P  P24  1  0.500000  0.500000  0.882157  1
  P  P25  1  0.000000  0.000000  0.117843  1
  P  P26  1  0.500000  0.500000  0.344934  1
  P  P27  1  0.000000  0.000000  0.655066  1
  P  P28  1  0.500000  0.311806  0.613169  1
  P  P29  1  0.500000  0.688194  0.613169  1
  P  P30  1  0.000000  0.188194  0.386831  1
  P  P31  1  0.000000  0.811806  0.386831  1
  P  P32  1  0.500000  0.847720  0.894897  1
  P  P33  1  0.500000  0.152280  0.894897  1
  P  P34  1  0.000000  0.652280  0.105103  1
  P  P35  1  0.000000  0.347720  0.105103  1
