# generated using pymatgen
data_Y4Tm2Al24Os7Pt
_symmetry_space_group_name_H-M   'P 1'
_cell_length_a   8.84004599
_cell_length_b   8.84004573
_cell_length_c   9.55071035
_cell_angle_alpha   89.63103679
_cell_angle_beta   90.36897091
_cell_angle_gamma   119.99688009
_symmetry_Int_Tables_number   1
_chemical_formula_structural   Y4Tm2Al24Os7Pt
_chemical_formula_sum   'Y4 Tm2 Al24 Os7 Pt1'
_cell_volume   646.36374296
_cell_formula_units_Z   1
loop_
 _symmetry_equiv_pos_site_id
 _symmetry_equiv_pos_as_xyz
  1  'x, y, z'
loop_
 _atom_site_type_symbol
 _atom_site_label
 _atom_site_symmetry_multiplicity
 _atom_site_fract_x
 _atom_site_fract_y
 _atom_site_fract_z
 _atom_site_occupancy
  Y  Y0  1  0.190186  0.385867  0.251322  1
  Y  Y1  1  0.809814  0.614133  0.748678  1
  Y  Y2  1  0.614133  0.809814  0.251322  1
  Y  Y3  1  0.385867  0.190186  0.748678  1
  Tm  Tm4  1  0.195537  0.804463  0.251868  1
  Tm  Tm5  1  0.804463  0.195537  0.748132  1
  Al  Al6  1  0.331310  0.668690  0.020612  1
  Al  Al7  1  0.668690  0.331310  0.979388  1
  Al  Al8  1  0.666491  0.333509  0.516989  1
  Al  Al9  1  0.333509  0.666491  0.483011  1
  Al  Al10  1  0.163455  0.325811  0.577301  1
  Al  Al11  1  0.836545  0.674189  0.422699  1
  Al  Al12  1  0.674189  0.836545  0.577301  1
  Al  Al13  1  0.842542  0.675358  0.077563  1
  Al  Al14  1  0.325811  0.163455  0.422699  1
  Al  Al15  1  0.157458  0.324642  0.922437  1
  Al  Al16  1  0.163547  0.836453  0.574495  1
  Al  Al17  1  0.324642  0.157458  0.077563  1
  Al  Al18  1  0.836453  0.163547  0.425505  1
  Al  Al19  1  0.675358  0.842542  0.922437  1
  Al  Al20  1  0.836642  0.163358  0.074466  1
  Al  Al21  1  0.163358  0.836642  0.925534  1
  Al  Al22  1  0.559556  0.121898  0.249042  1
  Al  Al23  1  0.440444  0.878102  0.750958  1
  Al  Al24  1  0.878102  0.440444  0.249042  1
  Al  Al25  1  0.121898  0.559556  0.750958  1
  Al  Al26  1  0.561922  0.438078  0.252050  1
  Al  Al27  1  0.438078  0.561922  0.747950  1
  Al  Al28  1  0.000722  0.999278  0.250038  1
  Al  Al29  1  0.999278  0.000722  0.749962  1
  Os  Os30  1  0.500000  0.000000  0.000000  1
  Os  Os31  1  0.000000  0.500000  0.000000  1
  Os  Os32  1  0.500000  0.000000  0.500000  1
  Os  Os33  1  0.000000  0.500000  0.500000  1
  Os  Os34  1  0.500000  0.500000  0.500000  1
  Os  Os35  1  0.000000  0.000000  0.000000  1
  Os  Os36  1  0.000000  0.000000  0.500000  1
  Pt  Pt37  1  0.500000  0.500000  0.000000  1
