# generated using pymatgen
data_Eu5CdAg2
_symmetry_space_group_name_H-M   'P 1'
_cell_length_a   9.57208644
_cell_length_b   9.57208641
_cell_length_c   9.57208658
_cell_angle_alpha   128.00924227
_cell_angle_beta   128.00924177
_cell_angle_gamma   76.61005587
_symmetry_Int_Tables_number   1
_chemical_formula_structural   Eu5CdAg2
_chemical_formula_sum   'Eu10 Cd2 Ag4'
_cell_volume   528.85416179
_cell_formula_units_Z   2
loop_
 _symmetry_equiv_pos_site_id
 _symmetry_equiv_pos_as_xyz
  1  'x, y, z'
loop_
 _atom_site_type_symbol
 _atom_site_label
 _atom_site_symmetry_multiplicity
 _atom_site_fract_x
 _atom_site_fract_y
 _atom_site_fract_z
 _atom_site_occupancy
  Eu  Eu0  1  0.500000  0.500000  0.000000  1
  Eu  Eu1  1  0.000000  0.000000  0.000000  1
  Eu  Eu2  1  0.523499  0.023499  0.834319  1
  Eu  Eu3  1  0.189179  0.689179  0.165681  1
  Eu  Eu4  1  0.023499  0.189179  0.500000  1
  Eu  Eu5  1  0.689179  0.523499  0.500000  1
  Eu  Eu6  1  0.476501  0.976501  0.165681  1
  Eu  Eu7  1  0.810821  0.310821  0.834319  1
  Eu  Eu8  1  0.976501  0.810821  0.500000  1
  Eu  Eu9  1  0.310821  0.476501  0.500000  1
  Cd  Cd10  1  0.250000  0.250000  0.000000  1
  Cd  Cd11  1  0.750000  0.750000  0.000000  1
  Ag  Ag12  1  0.124224  0.624224  0.748448  1
  Ag  Ag13  1  0.875776  0.375776  0.251552  1
  Ag  Ag14  1  0.624224  0.875776  0.500000  1
  Ag  Ag15  1  0.375776  0.124224  0.500000  1
