# generated using pymatgen
data_Th8AlTe17
_symmetry_space_group_name_H-M   'P 1'
_cell_length_a   9.07746974
_cell_length_b   9.07746917
_cell_length_c   12.09959300
_cell_angle_alpha   79.88207404
_cell_angle_beta   79.88206186
_cell_angle_gamma   64.99421201
_symmetry_Int_Tables_number   1
_chemical_formula_structural   Th8AlTe17
_chemical_formula_sum   'Th8 Al1 Te17'
_cell_volume   883.73967413
_cell_formula_units_Z   1
loop_
 _symmetry_equiv_pos_site_id
 _symmetry_equiv_pos_as_xyz
  1  'x, y, z'
loop_
 _atom_site_type_symbol
 _atom_site_label
 _atom_site_symmetry_multiplicity
 _atom_site_fract_x
 _atom_site_fract_y
 _atom_site_fract_z
 _atom_site_occupancy
  Th  Th0  1  0.818077  0.306091  0.297725  1
  Th  Th1  1  0.306091  0.818077  0.297725  1
  Th  Th2  1  0.181923  0.693909  0.702275  1
  Th  Th3  1  0.693909  0.181923  0.702275  1
  Th  Th4  1  0.202000  0.202000  0.544474  1
  Th  Th5  1  0.798000  0.798000  0.455526  1
  Th  Th6  1  0.680424  0.680424  0.982665  1
  Th  Th7  1  0.319576  0.319576  0.017335  1
  Al  Al8  1  0.000000  0.000000  0.000000  1
  Te  Te9  1  0.820922  0.433185  0.534631  1
  Te  Te10  1  0.433185  0.820922  0.534631  1
  Te  Te11  1  0.179078  0.566815  0.465369  1
  Te  Te12  1  0.566815  0.179078  0.465369  1
  Te  Te13  1  0.947692  0.321843  0.030904  1
  Te  Te14  1  0.321843  0.947692  0.030904  1
  Te  Te15  1  0.052308  0.678157  0.969096  1
  Te  Te16  1  0.678157  0.052308  0.969096  1
  Te  Te17  1  0.213643  0.213643  0.278339  1
  Te  Te18  1  0.786357  0.786357  0.721661  1
  Te  Te19  1  0.054095  0.054095  0.772436  1
  Te  Te20  1  0.945905  0.945905  0.227564  1
  Te  Te21  1  0.300087  0.300087  0.754181  1
  Te  Te22  1  0.699913  0.699913  0.245819  1
  Te  Te23  1  0.518695  0.518695  0.831804  1
  Te  Te24  1  0.481305  0.481305  0.168196  1
  Te  Te25  1  0.000000  0.000000  0.500000  1
