# generated using pymatgen
data_TbHo9(SiPb3)2
_symmetry_space_group_name_H-M   'P 1'
_cell_length_a   9.30333019
_cell_length_b   9.30333095
_cell_length_c   6.50240500
_cell_angle_alpha   90.00000000
_cell_angle_beta   90.00000000
_cell_angle_gamma   119.97664984
_symmetry_Int_Tables_number   1
_chemical_formula_structural   TbHo9(SiPb3)2
_chemical_formula_sum   'Tb1 Ho9 Si2 Pb6'
_cell_volume   487.51018233
_cell_formula_units_Z   1
loop_
 _symmetry_equiv_pos_site_id
 _symmetry_equiv_pos_as_xyz
  1  'x, y, z'
loop_
 _atom_site_type_symbol
 _atom_site_label
 _atom_site_symmetry_multiplicity
 _atom_site_fract_x
 _atom_site_fract_y
 _atom_site_fract_z
 _atom_site_occupancy
  Tb  Tb0  1  0.249833  0.249833  0.750000  1
  Ho  Ho1  1  0.249182  0.999932  0.250000  1
  Ho  Ho2  1  0.750907  0.000033  0.750000  1
  Ho  Ho3  1  0.999932  0.249182  0.250000  1
  Ho  Ho4  1  0.000033  0.750907  0.750000  1
  Ho  Ho5  1  0.750832  0.750832  0.250000  1
  Ho  Ho6  1  0.333335  0.666758  0.999948  1
  Ho  Ho7  1  0.666758  0.333335  0.999948  1
  Ho  Ho8  1  0.666758  0.333335  0.500052  1
  Ho  Ho9  1  0.333335  0.666758  0.500052  1
  Si  Si10  1  0.999514  0.999514  0.000442  1
  Si  Si11  1  0.999514  0.999514  0.499558  1
  Pb  Pb12  1  0.606850  0.999988  0.250000  1
  Pb  Pb13  1  0.393297  0.999765  0.750000  1
  Pb  Pb14  1  0.999988  0.606850  0.250000  1
  Pb  Pb15  1  0.999765  0.393297  0.750000  1
  Pb  Pb16  1  0.393112  0.393112  0.250000  1
  Pb  Pb17  1  0.607057  0.607057  0.750000  1
