# generated using pymatgen
data_Ho15Er5(IrRh5)2
_symmetry_space_group_name_H-M   'P 1'
_cell_length_a   10.83373306
_cell_length_b   10.83516301
_cell_length_c   6.32596704
_cell_angle_alpha   90.00517628
_cell_angle_beta   90.00031985
_cell_angle_gamma   90.00213620
_symmetry_Int_Tables_number   1
_chemical_formula_structural   Ho15Er5(IrRh5)2
_chemical_formula_sum   'Ho15 Er5 Ir2 Rh10'
_cell_volume   742.57530552
_cell_formula_units_Z   1
loop_
 _symmetry_equiv_pos_site_id
 _symmetry_equiv_pos_as_xyz
  1  'x, y, z'
loop_
 _atom_site_type_symbol
 _atom_site_label
 _atom_site_symmetry_multiplicity
 _atom_site_fract_x
 _atom_site_fract_y
 _atom_site_fract_z
 _atom_site_occupancy
  Ho  Ho0  1  0.290766  0.089713  0.377899  1
  Ho  Ho1  1  0.290832  0.910378  0.877990  1
  Ho  Ho2  1  0.709187  0.088198  0.877702  1
  Ho  Ho3  1  0.709178  0.911795  0.377713  1
  Ho  Ho4  1  0.586864  0.790047  0.877874  1
  Ho  Ho5  1  0.586844  0.209940  0.377901  1
  Ho  Ho6  1  0.411131  0.790300  0.378623  1
  Ho  Ho7  1  0.411113  0.209710  0.878667  1
  Ho  Ho8  1  0.210412  0.412717  0.621445  1
  Ho  Ho9  1  0.210418  0.587085  0.121443  1
  Ho  Ho10  1  0.790940  0.411454  0.121968  1
  Ho  Ho11  1  0.790848  0.588512  0.621920  1
  Ho  Ho12  1  0.911930  0.709371  0.122047  1
  Ho  Ho13  1  0.911992  0.290612  0.622041  1
  Ho  Ho14  1  0.089847  0.708983  0.622291  1
  Er  Er15  1  0.089920  0.291313  0.122204  1
  Er  Er16  1  0.999807  0.999727  0.500021  1
  Er  Er17  1  0.999884  0.000390  0.000085  1
  Er  Er18  1  0.499765  0.499716  0.999966  1
  Er  Er19  1  0.499737  0.500264  0.499961  1
  Ir  Ir20  1  0.346114  0.345568  0.249865  1
  Ir  Ir21  1  0.346302  0.654365  0.749956  1
  Rh  Rh22  1  0.845940  0.153826  0.250142  1
  Rh  Rh23  1  0.845821  0.846218  0.750195  1
  Rh  Rh24  1  0.152979  0.153526  0.750073  1
  Rh  Rh25  1  0.153050  0.846557  0.249745  1
  Rh  Rh26  1  0.654694  0.345939  0.750094  1
  Rh  Rh27  1  0.654685  0.654040  0.250114  1
  Rh  Rh28  1  0.500542  0.999800  0.123397  1
  Rh  Rh29  1  0.500562  0.000243  0.623431  1
  Rh  Rh30  1  0.998955  0.499735  0.876752  1
  Rh  Rh31  1  0.998947  0.499956  0.376475  1
