# generated using pymatgen
data_HoPa3OsPt3
_symmetry_space_group_name_H-M   'P 1'
_cell_length_a   4.34269000
_cell_length_b   5.66733669
_cell_length_c   7.19030124
_cell_angle_alpha   89.99313527
_cell_angle_beta   90.00000000
_cell_angle_gamma   90.00000000
_symmetry_Int_Tables_number   1
_chemical_formula_structural   HoPa3OsPt3
_chemical_formula_sum   'Ho1 Pa3 Os1 Pt3'
_cell_volume   176.96399961
_cell_formula_units_Z   1
loop_
 _symmetry_equiv_pos_site_id
 _symmetry_equiv_pos_as_xyz
  1  'x, y, z'
loop_
 _atom_site_type_symbol
 _atom_site_label
 _atom_site_symmetry_multiplicity
 _atom_site_fract_x
 _atom_site_fract_y
 _atom_site_fract_z
 _atom_site_occupancy
  Ho  Ho0  1  0.750000  0.848053  0.821609  1
  Pa  Pa1  1  0.250000  0.340534  0.674927  1
  Pa  Pa2  1  0.250000  0.150622  0.185695  1
  Pa  Pa3  1  0.750000  0.653801  0.324621  1
  Os  Os4  1  0.750000  0.185909  0.440116  1
  Pt  Pt5  1  0.250000  0.833704  0.550331  1
  Pt  Pt6  1  0.250000  0.656373  0.053075  1
  Pt  Pt7  1  0.750000  0.331005  0.949625  1
