# generated using pymatgen
data_Pr7Ho13(SnSb3)4
_symmetry_space_group_name_H-M   'P 1'
_cell_length_a   8.15402193
_cell_length_b   8.11517323
_cell_length_c   15.19661800
_cell_angle_alpha   90.01332990
_cell_angle_beta   90.16034926
_cell_angle_gamma   89.99710327
_symmetry_Int_Tables_number   1
_chemical_formula_structural   Pr7Ho13(SnSb3)4
_chemical_formula_sum   'Pr7 Ho13 Sn4 Sb12'
_cell_volume   1005.57600980
_cell_formula_units_Z   1
loop_
 _symmetry_equiv_pos_site_id
 _symmetry_equiv_pos_as_xyz
  1  'x, y, z'
loop_
 _atom_site_type_symbol
 _atom_site_label
 _atom_site_symmetry_multiplicity
 _atom_site_fract_x
 _atom_site_fract_y
 _atom_site_fract_z
 _atom_site_occupancy
  Pr  Pr0  1  0.023016  0.180398  0.596774  1
  Pr  Pr1  1  0.477797  0.679904  0.404697  1
  Pr  Pr2  1  0.975893  0.820243  0.095083  1
  Pr  Pr3  1  0.477202  0.679589  0.095721  1
  Pr  Pr4  1  0.977697  0.820509  0.404729  1
  Pr  Pr5  1  0.521642  0.320028  0.594973  1
  Pr  Pr6  1  0.022654  0.178510  0.904428  1
  Ho  Ho7  1  0.356836  0.846194  0.876867  1
  Ho  Ho8  1  0.855839  0.652413  0.624070  1
  Ho  Ho9  1  0.641603  0.153237  0.376317  1
  Ho  Ho10  1  0.140132  0.346438  0.123428  1
  Ho  Ho11  1  0.640231  0.153730  0.123061  1
  Ho  Ho12  1  0.142303  0.346882  0.376363  1
  Ho  Ho13  1  0.358460  0.847910  0.625033  1
  Ho  Ho14  1  0.859875  0.654240  0.876528  1
  Ho  Ho15  1  0.527553  0.321028  0.901338  1
  Ho  Ho16  1  0.189604  0.498050  0.750006  1
  Ho  Ho17  1  0.689692  0.002554  0.750324  1
  Ho  Ho18  1  0.809875  0.502262  0.249138  1
  Ho  Ho19  1  0.310018  0.998214  0.250033  1
  Sn  Sn20  1  0.338353  0.153021  0.753077  1
  Sn  Sn21  1  0.832333  0.350324  0.751117  1
  Sn  Sn22  1  0.665743  0.850248  0.249934  1
  Sn  Sn23  1  0.165259  0.650123  0.249801  1
  Sb  Sb24  1  0.293906  0.042097  0.046017  1
  Sb  Sb25  1  0.795075  0.457886  0.453580  1
  Sb  Sb26  1  0.705825  0.958130  0.546498  1
  Sb  Sb27  1  0.213673  0.534344  0.952770  1
  Sb  Sb28  1  0.702840  0.961167  0.953116  1
  Sb  Sb29  1  0.204717  0.543494  0.546541  1
  Sb  Sb30  1  0.294796  0.042589  0.454465  1
  Sb  Sb31  1  0.790804  0.455645  0.043256  1
  Sb  Sb32  1  0.555430  0.627164  0.751509  1
  Sb  Sb33  1  0.055430  0.871144  0.749940  1
  Sb  Sb34  1  0.444004  0.371467  0.249651  1
  Sb  Sb35  1  0.943891  0.128828  0.249820  1
