# generated using pymatgen
data_BaZn2SnPb
_symmetry_space_group_name_H-M   'P 1'
_cell_length_a   4.91158800
_cell_length_b   4.91158800
_cell_length_c   11.45260800
_cell_angle_alpha   90.00000000
_cell_angle_beta   90.00000000
_cell_angle_gamma   90.00000000
_symmetry_Int_Tables_number   1
_chemical_formula_structural   BaZn2SnPb
_chemical_formula_sum   'Ba2 Zn4 Sn2 Pb2'
_cell_volume   276.27924161
_cell_formula_units_Z   2
loop_
 _symmetry_equiv_pos_site_id
 _symmetry_equiv_pos_as_xyz
  1  'x, y, z'
loop_
 _atom_site_type_symbol
 _atom_site_label
 _atom_site_symmetry_multiplicity
 _atom_site_fract_x
 _atom_site_fract_y
 _atom_site_fract_z
 _atom_site_occupancy
  Ba  Ba0  1  0.000000  0.500000  0.763624  1
  Ba  Ba1  1  0.500000  0.000000  0.236376  1
  Zn  Zn2  1  0.000000  0.500000  0.358226  1
  Zn  Zn3  1  0.500000  0.000000  0.641774  1
  Zn  Zn4  1  0.500000  0.500000  0.000000  1
  Zn  Zn5  1  0.000000  0.000000  0.000000  1
  Sn  Sn6  1  0.500000  0.000000  0.879203  1
  Sn  Sn7  1  0.000000  0.500000  0.120797  1
  Pb  Pb8  1  0.500000  0.500000  0.500000  1
  Pb  Pb9  1  0.000000  0.000000  0.500000  1
