# generated using pymatgen
data_Er4MnGaTc6
_symmetry_space_group_name_H-M   'P 1'
_cell_length_a   5.41765300
_cell_length_b   5.41765360
_cell_length_c   8.73744300
_cell_angle_alpha   90.00000000
_cell_angle_beta   90.00000000
_cell_angle_gamma   122.86773504
_symmetry_Int_Tables_number   1
_chemical_formula_structural   Er4MnGaTc6
_chemical_formula_sum   'Er4 Mn1 Ga1 Tc6'
_cell_volume   215.40094130
_cell_formula_units_Z   1
loop_
 _symmetry_equiv_pos_site_id
 _symmetry_equiv_pos_as_xyz
  1  'x, y, z'
loop_
 _atom_site_type_symbol
 _atom_site_label
 _atom_site_symmetry_multiplicity
 _atom_site_fract_x
 _atom_site_fract_y
 _atom_site_fract_z
 _atom_site_occupancy
  Er  Er0  1  0.335712  0.664288  0.436978  1
  Er  Er1  1  0.664107  0.335893  0.559271  1
  Er  Er2  1  0.664107  0.335893  0.940729  1
  Er  Er3  1  0.335712  0.664288  0.063022  1
  Mn  Mn4  1  0.828742  0.171258  0.250000  1
  Ga  Ga5  1  0.171075  0.828925  0.750000  1
  Tc  Tc6  1  0.998247  0.001753  0.495514  1
  Tc  Tc7  1  0.998247  0.001753  0.004486  1
  Tc  Tc8  1  0.824746  0.657959  0.250000  1
  Tc  Tc9  1  0.342041  0.175254  0.250000  1
  Tc  Tc10  1  0.175672  0.338408  0.750000  1
  Tc  Tc11  1  0.661592  0.824328  0.750000  1
