# generated using pymatgen
data_TbSc2Fe9
_symmetry_space_group_name_H-M   'P 1'
_cell_length_a   8.44190034
_cell_length_b   8.44190017
_cell_length_c   8.44190071
_cell_angle_alpha   34.44216770
_cell_angle_beta   34.44216697
_cell_angle_gamma   34.44216613
_symmetry_Int_Tables_number   1
_chemical_formula_structural   TbSc2Fe9
_chemical_formula_sum   'Tb1 Sc2 Fe9'
_cell_volume   171.66516299
_cell_formula_units_Z   1
loop_
 _symmetry_equiv_pos_site_id
 _symmetry_equiv_pos_as_xyz
  1  'x, y, z'
loop_
 _atom_site_type_symbol
 _atom_site_label
 _atom_site_symmetry_multiplicity
 _atom_site_fract_x
 _atom_site_fract_y
 _atom_site_fract_z
 _atom_site_occupancy
  Tb  Tb0  1  0.000000  0.000000  0.000000  1
  Sc  Sc1  1  0.143330  0.143330  0.143330  1
  Sc  Sc2  1  0.856670  0.856670  0.856670  1
  Fe  Fe3  1  0.500000  0.500000  0.500000  1
  Fe  Fe4  1  0.332728  0.332728  0.332728  1
  Fe  Fe5  1  0.667272  0.667272  0.667272  1
  Fe  Fe6  1  0.082760  0.585307  0.585307  1
  Fe  Fe7  1  0.585307  0.585307  0.082760  1
  Fe  Fe8  1  0.585307  0.082760  0.585307  1
  Fe  Fe9  1  0.414693  0.917240  0.414693  1
  Fe  Fe10  1  0.917240  0.414693  0.414693  1
  Fe  Fe11  1  0.414693  0.414693  0.917240  1
