# generated using pymatgen
data_Tb5Ce4Sm7(CdRu)4
_symmetry_space_group_name_H-M   'P 1'
_cell_length_a   9.73270124
_cell_length_b   9.73270102
_cell_length_c   9.74351400
_cell_angle_alpha   59.96324178
_cell_angle_beta   59.96324252
_cell_angle_gamma   60.01703198
_symmetry_Int_Tables_number   1
_chemical_formula_structural   Tb5Ce4Sm7(CdRu)4
_chemical_formula_sum   'Tb5 Ce4 Sm7 Cd4 Ru4'
_cell_volume   652.35152752
_cell_formula_units_Z   1
loop_
 _symmetry_equiv_pos_site_id
 _symmetry_equiv_pos_as_xyz
  1  'x, y, z'
loop_
 _atom_site_type_symbol
 _atom_site_label
 _atom_site_symmetry_multiplicity
 _atom_site_fract_x
 _atom_site_fract_y
 _atom_site_fract_z
 _atom_site_occupancy
  Tb  Tb0  1  0.811084  0.188344  0.811357  1
  Tb  Tb1  1  0.188343  0.811085  0.811357  1
  Tb  Tb2  1  0.811659  0.811660  0.188341  1
  Tb  Tb3  1  0.188343  0.811084  0.189213  1
  Tb  Tb4  1  0.811084  0.188344  0.189214  1
  Ce  Ce5  1  0.344697  0.344697  0.965836  1
  Ce  Ce6  1  0.347011  0.962851  0.345069  1
  Ce  Ce7  1  0.962851  0.347011  0.345069  1
  Ce  Ce8  1  0.344697  0.344697  0.344770  1
  Sm  Sm9  1  0.560410  0.560410  0.939590  1
  Sm  Sm10  1  0.939211  0.560950  0.939941  1
  Sm  Sm11  1  0.560950  0.939211  0.939941  1
  Sm  Sm12  1  0.940834  0.940834  0.559166  1
  Sm  Sm13  1  0.560950  0.939211  0.559897  1
  Sm  Sm14  1  0.939211  0.560950  0.559897  1
  Sm  Sm15  1  0.188754  0.188754  0.811246  1
  Cd  Cd16  1  0.579660  0.579660  0.259719  1
  Cd  Cd17  1  0.580523  0.259094  0.580192  1
  Cd  Cd18  1  0.259094  0.580523  0.580192  1
  Cd  Cd19  1  0.579660  0.579660  0.580961  1
  Ru  Ru20  1  0.145152  0.145152  0.564690  1
  Ru  Ru21  1  0.144908  0.565759  0.144666  1
  Ru  Ru22  1  0.565759  0.144908  0.144666  1
  Ru  Ru23  1  0.145152  0.145152  0.145005  1
