# generated using pymatgen
data_K2Bi3SbAu4
_symmetry_space_group_name_H-M   'P 1'
_cell_length_a   4.90264500
_cell_length_b   5.16026204
_cell_length_c   11.44401376
_cell_angle_alpha   87.27516258
_cell_angle_beta   90.00000000
_cell_angle_gamma   90.00000000
_symmetry_Int_Tables_number   1
_chemical_formula_structural   K2Bi3SbAu4
_chemical_formula_sum   'K2 Bi3 Sb1 Au4'
_cell_volume   289.19399173
_cell_formula_units_Z   1
loop_
 _symmetry_equiv_pos_site_id
 _symmetry_equiv_pos_as_xyz
  1  'x, y, z'
loop_
 _atom_site_type_symbol
 _atom_site_label
 _atom_site_symmetry_multiplicity
 _atom_site_fract_x
 _atom_site_fract_y
 _atom_site_fract_z
 _atom_site_occupancy
  K  K0  1  0.250000  0.741636  0.756824  1
  K  K1  1  0.750000  0.270912  0.242450  1
  Bi  Bi2  1  0.750000  0.752247  0.500261  1
  Bi  Bi3  1  0.250000  0.244398  0.504850  1
  Bi  Bi4  1  0.250000  0.812727  0.116554  1
  Sb  Sb5  1  0.750000  0.184317  0.886073  1
  Au  Au6  1  0.750000  0.675183  0.989372  1
  Au  Au7  1  0.750000  0.241534  0.645946  1
  Au  Au8  1  0.250000  0.755094  0.364967  1
  Au  Au9  1  0.250000  0.321949  0.992704  1
