# generated using pymatgen
data_Na2Yb(CuS)4
_symmetry_space_group_name_H-M   'P 1'
_cell_length_a   3.85456200
_cell_length_b   6.90324400
_cell_length_c   14.59306800
_cell_angle_alpha   90.00000000
_cell_angle_beta   90.00000000
_cell_angle_gamma   90.00000000
_symmetry_Int_Tables_number   1
_chemical_formula_structural   Na2Yb(CuS)4
_chemical_formula_sum   'Na4 Yb2 Cu8 S8'
_cell_volume   388.30668372
_cell_formula_units_Z   2
loop_
 _symmetry_equiv_pos_site_id
 _symmetry_equiv_pos_as_xyz
  1  'x, y, z'
loop_
 _atom_site_type_symbol
 _atom_site_label
 _atom_site_symmetry_multiplicity
 _atom_site_fract_x
 _atom_site_fract_y
 _atom_site_fract_z
 _atom_site_occupancy
  Na  Na0  1  0.000000  0.478353  0.741134  1
  Na  Na1  1  0.000000  0.521647  0.258866  1
  Na  Na2  1  0.000000  0.021647  0.241134  1
  Na  Na3  1  0.000000  0.978353  0.758866  1
  Yb  Yb4  1  0.500000  0.500000  0.500000  1
  Yb  Yb5  1  0.500000  0.000000  0.000000  1
  Cu  Cu6  1  0.500000  0.914714  0.585592  1
  Cu  Cu7  1  0.000000  0.331313  0.061375  1
  Cu  Cu8  1  0.500000  0.414714  0.914408  1
  Cu  Cu9  1  0.000000  0.831313  0.438625  1
  Cu  Cu10  1  0.500000  0.085286  0.414408  1
  Cu  Cu11  1  0.000000  0.168687  0.561375  1
  Cu  Cu12  1  0.000000  0.668687  0.938625  1
  Cu  Cu13  1  0.500000  0.585286  0.085592  1
  S  S14  1  0.500000  0.775644  0.350784  1
  S  S15  1  0.500000  0.724356  0.850784  1
  S  S16  1  0.500000  0.275644  0.149216  1
  S  S17  1  0.000000  0.730304  0.589062  1
  S  S18  1  0.000000  0.230304  0.910938  1
  S  S19  1  0.000000  0.269696  0.410938  1
  S  S20  1  0.000000  0.769696  0.089062  1
  S  S21  1  0.500000  0.224356  0.649216  1
