# generated using pymatgen
data_Sm4Sc4Re3B24Rh
_symmetry_space_group_name_H-M   'P 1'
_cell_length_a   3.62015400
_cell_length_b   9.04899009
_cell_length_c   11.46757211
_cell_angle_alpha   90.01589781
_cell_angle_beta   90.00000000
_cell_angle_gamma   90.00000000
_symmetry_Int_Tables_number   1
_chemical_formula_structural   Sm4Sc4Re3B24Rh
_chemical_formula_sum   'Sm4 Sc4 Re3 B24 Rh1'
_cell_volume   375.66317190
_cell_formula_units_Z   1
loop_
 _symmetry_equiv_pos_site_id
 _symmetry_equiv_pos_as_xyz
  1  'x, y, z'
loop_
 _atom_site_type_symbol
 _atom_site_label
 _atom_site_symmetry_multiplicity
 _atom_site_fract_x
 _atom_site_fract_y
 _atom_site_fract_z
 _atom_site_occupancy
  Sm  Sm0  1  0.000000  0.318675  0.416215  1
  Sm  Sm1  1  0.000000  0.678963  0.588776  1
  Sm  Sm2  1  0.000000  0.823567  0.082627  1
  Sm  Sm3  1  0.000000  0.178737  0.913637  1
  Sc  Sc4  1  0.000000  0.947321  0.371023  1
  Sc  Sc5  1  0.000000  0.054998  0.629232  1
  Sc  Sc6  1  0.000000  0.440528  0.126934  1
  Sc  Sc7  1  0.000000  0.555448  0.871149  1
  Re  Re8  1  0.000000  0.359609  0.681470  1
  Re  Re9  1  0.000000  0.141434  0.183174  1
  Re  Re10  1  0.000000  0.858413  0.817771  1
  B  B11  1  0.500000  0.556462  0.431675  1
  B  B12  1  0.500000  0.444617  0.568482  1
  B  B13  1  0.500000  0.055081  0.068711  1
  B  B14  1  0.500000  0.944592  0.931051  1
  B  B15  1  0.500000  0.754623  0.417301  1
  B  B16  1  0.500000  0.245312  0.583081  1
  B  B17  1  0.500000  0.254574  0.083364  1
  B  B18  1  0.500000  0.745883  0.916817  1
  B  B19  1  0.500000  0.793802  0.265279  1
  B  B20  1  0.500000  0.205561  0.734653  1
  B  B21  1  0.500000  0.294740  0.235312  1
  B  B22  1  0.500000  0.705493  0.765457  1
  B  B23  1  0.500000  0.628652  0.182167  1
  B  B24  1  0.500000  0.371616  0.816602  1
  B  B25  1  0.500000  0.128776  0.317018  1
  B  B26  1  0.500000  0.871114  0.682980  1
  B  B27  1  0.500000  0.982561  0.215015  1
  B  B28  1  0.500000  0.017325  0.784595  1
  B  B29  1  0.500000  0.483730  0.285291  1
  B  B30  1  0.500000  0.518152  0.714680  1
  B  B31  1  0.500000  0.596274  0.026467  1
  B  B32  1  0.500000  0.404373  0.974768  1
  B  B33  1  0.500000  0.095145  0.474082  1
  B  B34  1  0.500000  0.903004  0.525331  1
  Rh  Rh35  1  0.000000  0.640848  0.317814  1
