# generated using pymatgen
data_Zr4ReBi2
_symmetry_space_group_name_H-M   'P 1'
_cell_length_a   8.42728777
_cell_length_b   8.42728801
_cell_length_c   8.42728807
_cell_angle_alpha   95.94079890
_cell_angle_beta   95.94080465
_cell_angle_gamma   142.46659063
_symmetry_Int_Tables_number   1
_chemical_formula_structural   Zr4ReBi2
_chemical_formula_sum   'Zr8 Re2 Bi4'
_cell_volume   345.23546122
_cell_formula_units_Z   2
loop_
 _symmetry_equiv_pos_site_id
 _symmetry_equiv_pos_as_xyz
  1  'x, y, z'
loop_
 _atom_site_type_symbol
 _atom_site_label
 _atom_site_symmetry_multiplicity
 _atom_site_fract_x
 _atom_site_fract_y
 _atom_site_fract_z
 _atom_site_occupancy
  Zr  Zr0  1  0.085449  0.203627  0.289075  1
  Zr  Zr1  1  0.914551  0.796373  0.710925  1
  Zr  Zr2  1  0.796373  0.085449  0.881821  1
  Zr  Zr3  1  0.414551  0.703627  0.118179  1
  Zr  Zr4  1  0.203627  0.914551  0.118179  1
  Zr  Zr5  1  0.585449  0.296373  0.881821  1
  Zr  Zr6  1  0.703627  0.585449  0.289075  1
  Zr  Zr7  1  0.296373  0.414551  0.710925  1
  Re  Re8  1  0.250000  0.250000  0.000000  1
  Re  Re9  1  0.750000  0.750000  0.000000  1
  Bi  Bi10  1  0.140108  0.640108  0.780215  1
  Bi  Bi11  1  0.859892  0.359892  0.219785  1
  Bi  Bi12  1  0.359892  0.140108  0.500000  1
  Bi  Bi13  1  0.640108  0.859892  0.500000  1
