# generated using pymatgen
data_Tb10Y6Cd4NiIr3
_symmetry_space_group_name_H-M   'P 1'
_cell_length_a   9.64665862
_cell_length_b   9.68177058
_cell_length_c   9.68180071
_cell_angle_alpha   59.94471536
_cell_angle_beta   59.79909911
_cell_angle_gamma   59.79881648
_symmetry_Int_Tables_number   1
_chemical_formula_structural   Tb10Y6Cd4NiIr3
_chemical_formula_sum   'Tb10 Y6 Cd4 Ni1 Ir3'
_cell_volume   637.18529963
_cell_formula_units_Z   1
loop_
 _symmetry_equiv_pos_site_id
 _symmetry_equiv_pos_as_xyz
  1  'x, y, z'
loop_
 _atom_site_type_symbol
 _atom_site_label
 _atom_site_symmetry_multiplicity
 _atom_site_fract_x
 _atom_site_fract_y
 _atom_site_fract_z
 _atom_site_occupancy
  Tb  Tb0  1  0.600752  0.596551  0.596548  1
  Tb  Tb1  1  0.602430  0.598048  0.203265  1
  Tb  Tb2  1  0.602429  0.203267  0.598046  1
  Tb  Tb3  1  0.201870  0.599738  0.599739  1
  Tb  Tb4  1  0.057736  0.439866  0.439868  1
  Tb  Tb5  1  0.437439  0.060192  0.060194  1
  Tb  Tb6  1  0.439193  0.059413  0.440508  1
  Tb  Tb7  1  0.059188  0.438481  0.061602  1
  Tb  Tb8  1  0.439195  0.440507  0.059412  1
  Tb  Tb9  1  0.059189  0.061601  0.438482  1
  Y  Y10  1  0.188867  0.812418  0.812417  1
  Y  Y11  1  0.810463  0.186696  0.186696  1
  Y  Y12  1  0.811285  0.187573  0.816346  1
  Y  Y13  1  0.188452  0.811794  0.187907  1
  Y  Y14  1  0.811285  0.816346  0.187573  1
  Y  Y15  1  0.188452  0.187906  0.811795  1
  Cd  Cd16  1  0.829462  0.830764  0.830764  1
  Cd  Cd17  1  0.830250  0.831203  0.506195  1
  Cd  Cd18  1  0.830250  0.506196  0.831202  1
  Cd  Cd19  1  0.506227  0.831089  0.831089  1
  Ni  Ni20  1  0.825231  0.391898  0.391895  1
  Ir  Ir21  1  0.393869  0.391665  0.391668  1
  Ir  Ir22  1  0.393243  0.392669  0.824117  1
  Ir  Ir23  1  0.393244  0.824118  0.392669  1
