# generated using pymatgen
data_Yb2ErUN4
_symmetry_space_group_name_H-M   'P 1'
_cell_length_a   5.99310097
_cell_length_b   5.99353726
_cell_length_c   4.87029275
_cell_angle_alpha   66.04073001
_cell_angle_beta   66.03327607
_cell_angle_gamma   47.94887796
_symmetry_Int_Tables_number   1
_chemical_formula_structural   Yb2ErUN4
_chemical_formula_sum   'Yb2 Er1 U1 N4'
_cell_volume   116.36335326
_cell_formula_units_Z   1
loop_
 _symmetry_equiv_pos_site_id
 _symmetry_equiv_pos_as_xyz
  1  'x, y, z'
loop_
 _atom_site_type_symbol
 _atom_site_label
 _atom_site_symmetry_multiplicity
 _atom_site_fract_x
 _atom_site_fract_y
 _atom_site_fract_z
 _atom_site_occupancy
  Yb  Yb0  1  0.247140  0.252871  0.252876  1
  Yb  Yb1  1  0.497166  0.502819  0.502832  1
  Er  Er2  1  0.747128  0.752796  0.752844  1
  U  U3  1  0.997213  0.002724  0.002777  1
  N  N4  1  0.988812  0.994407  0.512612  1
  N  N5  1  0.213380  0.219152  0.786643  1
  N  N6  1  0.504189  0.512612  0.994393  1
  N  N7  1  0.780905  0.786685  0.219089  1
