# generated using pymatgen
data_LiHf7(Co4P3)4
_symmetry_space_group_name_H-M   'P 1'
_cell_length_a   11.99990023
_cell_length_b   11.99989939
_cell_length_c   3.62383600
_cell_angle_alpha   90.00000000
_cell_angle_beta   90.00000000
_cell_angle_gamma   120.33484314
_symmetry_Int_Tables_number   1
_chemical_formula_structural   LiHf7(Co4P3)4
_chemical_formula_sum   'Li1 Hf7 Co16 P12'
_cell_volume   450.38004744
_cell_formula_units_Z   1
loop_
 _symmetry_equiv_pos_site_id
 _symmetry_equiv_pos_as_xyz
  1  'x, y, z'
loop_
 _atom_site_type_symbol
 _atom_site_label
 _atom_site_symmetry_multiplicity
 _atom_site_fract_x
 _atom_site_fract_y
 _atom_site_fract_z
 _atom_site_occupancy
  Li  Li0  1  0.444016  0.444016  0.000000  1
  Hf  Hf1  1  0.816827  0.816827  0.500000  1
  Hf  Hf2  1  0.999205  0.175937  0.500000  1
  Hf  Hf3  1  0.554367  0.998305  0.000000  1
  Hf  Hf4  1  0.332222  0.664192  0.000000  1
  Hf  Hf5  1  0.664192  0.332222  0.000000  1
  Hf  Hf6  1  0.998305  0.554367  0.000000  1
  Hf  Hf7  1  0.175937  0.999205  0.500000  1
  Co  Co8  1  0.629629  0.820734  0.000000  1
  Co  Co9  1  0.376190  0.200576  0.000000  1
  Co  Co10  1  0.001035  0.721877  0.500000  1
  Co  Co11  1  0.283795  0.283795  0.500000  1
  Co  Co12  1  0.872408  0.354779  0.500000  1
  Co  Co13  1  0.721877  0.001035  0.500000  1
  Co  Co14  1  0.820734  0.629629  0.000000  1
  Co  Co15  1  0.178150  0.807191  0.000000  1
  Co  Co16  1  0.354779  0.872408  0.500000  1
  Co  Co17  1  0.127561  0.478764  0.500000  1
  Co  Co18  1  0.644460  0.517222  0.500000  1
  Co  Co19  1  0.002349  0.002349  0.000000  1
  Co  Co20  1  0.517222  0.644460  0.500000  1
  Co  Co21  1  0.478764  0.127561  0.500000  1
  Co  Co22  1  0.200576  0.376190  0.000000  1
  Co  Co23  1  0.807191  0.178150  0.000000  1
  P  P24  1  0.004785  0.346377  0.000000  1
  P  P25  1  0.824969  0.516949  0.500000  1
  P  P26  1  0.688772  0.173700  0.500000  1
  P  P27  1  0.178908  0.178908  0.000000  1
  P  P28  1  0.639106  0.639106  0.000000  1
  P  P29  1  0.825504  0.998268  0.000000  1
  P  P30  1  0.516949  0.824969  0.500000  1
  P  P31  1  0.173700  0.688772  0.500000  1
  P  P32  1  0.346377  0.004785  0.000000  1
  P  P33  1  0.483427  0.317441  0.500000  1
  P  P34  1  0.998268  0.825504  0.000000  1
  P  P35  1  0.317441  0.483427  0.500000  1
