# generated using pymatgen
data_TbTh3Pd11Pt
_symmetry_space_group_name_H-M   'P 1'
_cell_length_a   5.92615800
_cell_length_b   5.92486261
_cell_length_c   9.76889064
_cell_angle_alpha   89.86807704
_cell_angle_beta   90.00000000
_cell_angle_gamma   120.00723269
_symmetry_Int_Tables_number   1
_chemical_formula_structural   TbTh3Pd11Pt
_chemical_formula_sum   'Tb1 Th3 Pd11 Pt1'
_cell_volume   297.02581611
_cell_formula_units_Z   1
loop_
 _symmetry_equiv_pos_site_id
 _symmetry_equiv_pos_as_xyz
  1  'x, y, z'
loop_
 _atom_site_type_symbol
 _atom_site_label
 _atom_site_symmetry_multiplicity
 _atom_site_fract_x
 _atom_site_fract_y
 _atom_site_fract_z
 _atom_site_occupancy
  Tb  Tb0  1  0.000000  0.000000  0.500000  1
  Th  Th1  1  0.000000  0.000000  0.000000  1
  Th  Th2  1  0.333600  0.667201  0.253963  1
  Th  Th3  1  0.666400  0.332799  0.746037  1
  Pd  Pd4  1  0.500000  0.500000  0.500000  1
  Pd  Pd5  1  0.500000  0.000000  0.500000  1
  Pd  Pd6  1  0.000000  0.500000  0.500000  1
  Pd  Pd7  1  0.500000  0.500000  0.000000  1
  Pd  Pd8  1  0.000000  0.500000  0.000000  1
  Pd  Pd9  1  0.826094  0.652189  0.250761  1
  Pd  Pd10  1  0.348509  0.174528  0.250419  1
  Pd  Pd11  1  0.826018  0.174528  0.250419  1
  Pd  Pd12  1  0.173906  0.347811  0.749239  1
  Pd  Pd13  1  0.651491  0.825472  0.749581  1
  Pd  Pd14  1  0.173982  0.825472  0.749581  1
  Pt  Pt15  1  0.500000  0.000000  0.000000  1
