# generated using pymatgen
data_TbPaZn5Sn
_symmetry_space_group_name_H-M   'P 1'
_cell_length_a   8.37567293
_cell_length_b   8.37567428
_cell_length_c   8.92688800
_cell_angle_alpha   90.00000000
_cell_angle_beta   90.00000000
_cell_angle_gamma   149.30243902
_symmetry_Int_Tables_number   1
_chemical_formula_structural   TbPaZn5Sn
_chemical_formula_sum   'Tb2 Pa2 Zn10 Sn2'
_cell_volume   319.69856999
_cell_formula_units_Z   2
loop_
 _symmetry_equiv_pos_site_id
 _symmetry_equiv_pos_as_xyz
  1  'x, y, z'
loop_
 _atom_site_type_symbol
 _atom_site_label
 _atom_site_symmetry_multiplicity
 _atom_site_fract_x
 _atom_site_fract_y
 _atom_site_fract_z
 _atom_site_occupancy
  Tb  Tb0  1  0.000000  0.000000  0.500000  1
  Tb  Tb1  1  0.000000  0.000000  0.000000  1
  Pa  Pa2  1  0.204456  0.795544  0.250000  1
  Pa  Pa3  1  0.795544  0.204456  0.750000  1
  Zn  Zn4  1  0.813323  0.186677  0.392890  1
  Zn  Zn5  1  0.186677  0.813323  0.607110  1
  Zn  Zn6  1  0.813323  0.186677  0.107110  1
  Zn  Zn7  1  0.186677  0.813323  0.892890  1
  Zn  Zn8  1  0.657676  0.342324  0.480403  1
  Zn  Zn9  1  0.342324  0.657676  0.519597  1
  Zn  Zn10  1  0.657676  0.342324  0.019597  1
  Zn  Zn11  1  0.342324  0.657676  0.980403  1
  Zn  Zn12  1  0.392132  0.607868  0.250000  1
  Zn  Zn13  1  0.607868  0.392132  0.750000  1
  Sn  Sn14  1  0.554020  0.445980  0.250000  1
  Sn  Sn15  1  0.445980  0.554020  0.750000  1
