# generated using pymatgen
data_MnPCl9
_symmetry_space_group_name_H-M   'P 1'
_cell_length_a   7.22254335
_cell_length_b   9.17710779
_cell_length_c   9.77345402
_cell_angle_alpha   102.07403292
_cell_angle_beta   97.17328009
_cell_angle_gamma   94.95307797
_symmetry_Int_Tables_number   1
_chemical_formula_structural   MnPCl9
_chemical_formula_sum   'Mn2 P2 Cl18'
_cell_volume   624.27938426
_cell_formula_units_Z   2
loop_
 _symmetry_equiv_pos_site_id
 _symmetry_equiv_pos_as_xyz
  1  'x, y, z'
loop_
 _atom_site_type_symbol
 _atom_site_label
 _atom_site_symmetry_multiplicity
 _atom_site_fract_x
 _atom_site_fract_y
 _atom_site_fract_z
 _atom_site_occupancy
  Mn  Mn0  1  0.392463  0.370522  0.333783  1
  Mn  Mn1  1  0.607537  0.629478  0.666217  1
  P  P2  1  0.053701  0.195538  0.777432  1
  P  P3  1  0.946299  0.804462  0.222568  1
  Cl  Cl4  1  0.909043  0.709186  0.747914  1
  Cl  Cl5  1  0.833164  0.608723  0.110768  1
  Cl  Cl6  1  0.374175  0.567157  0.227499  1
  Cl  Cl7  1  0.625825  0.432843  0.772501  1
  Cl  Cl8  1  0.419182  0.175530  0.438944  1
  Cl  Cl9  1  0.580818  0.824470  0.561056  1
  Cl  Cl10  1  0.090957  0.290814  0.252086  1
  Cl  Cl11  1  0.486425  0.755180  0.850137  1
  Cl  Cl12  1  0.513575  0.244820  0.149863  1
  Cl  Cl13  1  0.304021  0.517106  0.544314  1
  Cl  Cl14  1  0.145093  0.884208  0.129364  1
  Cl  Cl15  1  0.695979  0.482894  0.455686  1
  Cl  Cl16  1  0.946231  0.210657  0.588136  1
  Cl  Cl17  1  0.053769  0.789343  0.411864  1
  Cl  Cl18  1  0.247167  0.057220  0.763533  1
  Cl  Cl19  1  0.752833  0.942780  0.236467  1
  Cl  Cl20  1  0.854907  0.115792  0.870636  1
  Cl  Cl21  1  0.166836  0.391277  0.889232  1
