# generated using pymatgen
data_Er3Tm7(InSb)3
_symmetry_space_group_name_H-M   'P 1'
_cell_length_a   6.44788700
_cell_length_b   8.85816631
_cell_length_c   8.85816700
_cell_angle_alpha   59.99851807
_cell_angle_beta   89.99961857
_cell_angle_gamma   90.00038664
_symmetry_Int_Tables_number   1
_chemical_formula_structural   Er3Tm7(InSb)3
_chemical_formula_sum   'Er3 Tm7 In3 Sb3'
_cell_volume   438.15649877
_cell_formula_units_Z   1
loop_
 _symmetry_equiv_pos_site_id
 _symmetry_equiv_pos_as_xyz
  1  'x, y, z'
loop_
 _atom_site_type_symbol
 _atom_site_label
 _atom_site_symmetry_multiplicity
 _atom_site_fract_x
 _atom_site_fract_y
 _atom_site_fract_z
 _atom_site_occupancy
  Er  Er0  1  0.250057  0.761429  0.238571  1
  Er  Er1  1  0.249999  0.238605  0.999960  1
  Er  Er2  1  0.249999  0.000040  0.761395  1
  Tm  Tm3  1  0.502599  0.333300  0.333295  1
  Tm  Tm4  1  0.502599  0.666705  0.666700  1
  Tm  Tm5  1  0.997377  0.666634  0.666668  1
  Tm  Tm6  1  0.997377  0.333332  0.333366  1
  Tm  Tm7  1  0.749980  0.237850  0.762150  1
  Tm  Tm8  1  0.750026  0.762170  0.000033  1
  Tm  Tm9  1  0.750026  0.999967  0.237830  1
  In  In10  1  0.749878  0.606548  0.393452  1
  In  In11  1  0.750038  0.393442  0.999999  1
  In  In12  1  0.750038  0.000001  0.606558  1
  Sb  Sb13  1  0.250047  0.395679  0.604321  1
  Sb  Sb14  1  0.249980  0.604343  0.000041  1
  Sb  Sb15  1  0.249980  0.999959  0.395657  1
