# generated using pymatgen
data_Dy3Hf(P3Ir4)2
_symmetry_space_group_name_H-M   'P 1'
_cell_length_a   4.00475500
_cell_length_b   11.20382600
_cell_length_c   12.91225300
_cell_angle_alpha   90.00000000
_cell_angle_beta   90.00000000
_cell_angle_gamma   90.00000000
_symmetry_Int_Tables_number   1
_chemical_formula_structural   Dy3Hf(P3Ir4)2
_chemical_formula_sum   'Dy6 Hf2 P12 Ir16'
_cell_volume   579.35443337
_cell_formula_units_Z   2
loop_
 _symmetry_equiv_pos_site_id
 _symmetry_equiv_pos_as_xyz
  1  'x, y, z'
loop_
 _atom_site_type_symbol
 _atom_site_label
 _atom_site_symmetry_multiplicity
 _atom_site_fract_x
 _atom_site_fract_y
 _atom_site_fract_z
 _atom_site_occupancy
  Dy  Dy0  1  0.000000  0.500000  0.523312  1
  Dy  Dy1  1  0.500000  0.000000  0.476688  1
  Dy  Dy2  1  0.500000  0.820436  0.202601  1
  Dy  Dy3  1  0.500000  0.179564  0.202601  1
  Dy  Dy4  1  0.000000  0.679564  0.797399  1
  Dy  Dy5  1  0.000000  0.320436  0.797399  1
  Hf  Hf6  1  0.500000  0.500000  0.159223  1
  Hf  Hf7  1  0.000000  0.000000  0.840777  1
  P  P8  1  0.500000  0.500000  0.876657  1
  P  P9  1  0.000000  0.000000  0.123343  1
  P  P10  1  0.500000  0.500000  0.360385  1
  P  P11  1  0.000000  0.000000  0.639615  1
  P  P12  1  0.500000  0.313657  0.617045  1
  P  P13  1  0.500000  0.686343  0.617045  1
  P  P14  1  0.000000  0.186343  0.382955  1
  P  P15  1  0.000000  0.813657  0.382955  1
  P  P16  1  0.500000  0.842407  0.886978  1
  P  P17  1  0.500000  0.157593  0.886978  1
  P  P18  1  0.000000  0.657593  0.113022  1
  P  P19  1  0.000000  0.342407  0.113022  1
  Ir  Ir20  1  0.500000  0.500000  0.698986  1
  Ir  Ir21  1  0.000000  0.000000  0.301014  1
  Ir  Ir22  1  0.000000  0.500000  0.991355  1
  Ir  Ir23  1  0.500000  0.000000  0.008645  1
  Ir  Ir24  1  0.500000  0.331183  0.983053  1
  Ir  Ir25  1  0.500000  0.668817  0.983053  1
  Ir  Ir26  1  0.000000  0.168817  0.016947  1
  Ir  Ir27  1  0.000000  0.831183  0.016947  1
  Ir  Ir28  1  0.500000  0.294936  0.432403  1
  Ir  Ir29  1  0.500000  0.705064  0.432403  1
  Ir  Ir30  1  0.000000  0.205064  0.567597  1
  Ir  Ir31  1  0.000000  0.794936  0.567597  1
  Ir  Ir32  1  0.500000  0.871354  0.708932  1
  Ir  Ir33  1  0.500000  0.128646  0.708932  1
  Ir  Ir34  1  0.000000  0.628646  0.291068  1
  Ir  Ir35  1  0.000000  0.371354  0.291068  1
