# generated using pymatgen
data_Zr16NbSi16W3
_symmetry_space_group_name_H-M   'P 1'
_cell_length_a   7.02878285
_cell_length_b   7.02878285
_cell_length_c   12.89841401
_cell_angle_alpha   89.96786858
_cell_angle_beta   90.03213142
_cell_angle_gamma   90.04650119
_symmetry_Int_Tables_number   1
_chemical_formula_structural   Zr16NbSi16W3
_chemical_formula_sum   'Zr16 Nb1 Si16 W3'
_cell_volume   637.23010678
_cell_formula_units_Z   1
loop_
 _symmetry_equiv_pos_site_id
 _symmetry_equiv_pos_as_xyz
  1  'x, y, z'
loop_
 _atom_site_type_symbol
 _atom_site_label
 _atom_site_symmetry_multiplicity
 _atom_site_fract_x
 _atom_site_fract_y
 _atom_site_fract_z
 _atom_site_occupancy
  Zr  Zr0  1  0.355271  0.503518  0.376430  1
  Zr  Zr1  1  0.854902  0.997225  0.374629  1
  Zr  Zr2  1  0.003230  0.144401  0.126172  1
  Zr  Zr3  1  0.997225  0.854902  0.625371  1
  Zr  Zr4  1  0.644573  0.498411  0.874375  1
  Zr  Zr5  1  0.503518  0.355271  0.623570  1
  Zr  Zr6  1  0.498411  0.644573  0.125625  1
  Zr  Zr7  1  0.144401  0.003230  0.873828  1
  Zr  Zr8  1  0.999041  0.651003  0.033812  1
  Zr  Zr9  1  0.000943  0.348860  0.532470  1
  Zr  Zr10  1  0.651003  0.999041  0.966188  1
  Zr  Zr11  1  0.150105  0.502236  0.782450  1
  Zr  Zr12  1  0.848661  0.499446  0.283580  1
  Zr  Zr13  1  0.502236  0.150105  0.217550  1
  Zr  Zr14  1  0.499446  0.848661  0.716420  1
  Zr  Zr15  1  0.348860  0.000943  0.467530  1
  Nb  Nb16  1  0.325161  0.325161  0.000000  1
  Si  Si17  1  0.047879  0.699499  0.434357  1
  Si  Si18  1  0.948581  0.299751  0.934018  1
  Si  Si19  1  0.699499  0.047879  0.565643  1
  Si  Si20  1  0.197961  0.453893  0.185959  1
  Si  Si21  1  0.800434  0.548311  0.684094  1
  Si  Si22  1  0.453893  0.197961  0.814041  1
  Si  Si23  1  0.548311  0.800434  0.315906  1
  Si  Si24  1  0.299751  0.948581  0.065982  1
  Si  Si25  1  0.852555  0.797806  0.820990  1
  Si  Si26  1  0.148322  0.201835  0.321374  1
  Si  Si27  1  0.797806  0.852555  0.179010  1
  Si  Si28  1  0.298314  0.647741  0.571282  1
  Si  Si29  1  0.703855  0.352921  0.071013  1
  Si  Si30  1  0.647741  0.298314  0.428718  1
  Si  Si31  1  0.352921  0.703855  0.928987  1
  Si  Si32  1  0.201835  0.148322  0.678626  1
  W  W33  1  0.674925  0.674925  0.500000  1
  W  W34  1  0.825163  0.173269  0.749145  1
  W  W35  1  0.173269  0.825163  0.250855  1
