# generated using pymatgen
data_Sr7Tc4O19
_symmetry_space_group_name_H-M   'P 1'
_cell_length_a   7.44828935
_cell_length_b   7.44827755
_cell_length_c   10.48582017
_cell_angle_alpha   82.05685339
_cell_angle_beta   82.05686243
_cell_angle_gamma   44.20190512
_symmetry_Int_Tables_number   1
_chemical_formula_structural   Sr7Tc4O19
_chemical_formula_sum   'Sr7 Tc4 O19'
_cell_volume   401.03306571
_cell_formula_units_Z   1
loop_
 _symmetry_equiv_pos_site_id
 _symmetry_equiv_pos_as_xyz
  1  'x, y, z'
loop_
 _atom_site_type_symbol
 _atom_site_label
 _atom_site_symmetry_multiplicity
 _atom_site_fract_x
 _atom_site_fract_y
 _atom_site_fract_z
 _atom_site_occupancy
  Sr  Sr0  1  0.205916  0.205918  0.410823  1
  Sr  Sr1  1  0.794084  0.794082  0.589177  1
  Sr  Sr2  1  0.418928  0.418929  0.165437  1
  Sr  Sr3  1  0.581072  0.581071  0.834563  1
  Sr  Sr4  1  0.500000  0.500000  0.500000  1
  Sr  Sr5  1  0.860268  0.860267  0.953820  1
  Sr  Sr6  1  0.139732  0.139733  0.046180  1
  Tc  Tc7  1  0.964893  0.964894  0.322655  1
  Tc  Tc8  1  0.035107  0.035106  0.677345  1
  Tc  Tc9  1  0.671647  0.671647  0.218433  1
  Tc  Tc10  1  0.328353  0.328353  0.781567  1
  O  O11  1  0.000000  0.000000  0.500000  1
  O  O12  1  0.697068  0.697065  0.385390  1
  O  O13  1  0.302932  0.302935  0.614610  1
  O  O14  1  0.046630  0.046632  0.854366  1
  O  O15  1  0.953370  0.953368  0.145634  1
  O  O16  1  0.398051  0.398053  0.931180  1
  O  O17  1  0.601949  0.601947  0.068820  1
  O  O18  1  0.825761  0.315358  0.284742  1
  O  O19  1  0.684641  0.174239  0.715258  1
  O  O20  1  0.174239  0.684642  0.715258  1
  O  O21  1  0.315359  0.825761  0.284742  1
  O  O22  1  0.628869  0.120232  0.373555  1
  O  O23  1  0.879767  0.371131  0.626445  1
  O  O24  1  0.371131  0.879768  0.626445  1
  O  O25  1  0.120233  0.628869  0.373555  1
  O  O26  1  0.997726  0.516991  0.153109  1
  O  O27  1  0.483009  0.002274  0.846891  1
  O  O28  1  0.002274  0.483009  0.846891  1
  O  O29  1  0.516991  0.997726  0.153109  1
