# generated using pymatgen
data_Th3Ga24RePd8
_symmetry_space_group_name_H-M   'P 1'
_cell_length_a   8.52710221
_cell_length_b   8.52707530
_cell_length_c   8.52713853
_cell_angle_alpha   89.97839924
_cell_angle_beta   89.98152258
_cell_angle_gamma   89.97861472
_symmetry_Int_Tables_number   1
_chemical_formula_structural   Th3Ga24RePd8
_chemical_formula_sum   'Th3 Ga24 Re1 Pd8'
_cell_volume   620.01871892
_cell_formula_units_Z   1
loop_
 _symmetry_equiv_pos_site_id
 _symmetry_equiv_pos_as_xyz
  1  'x, y, z'
loop_
 _atom_site_type_symbol
 _atom_site_label
 _atom_site_symmetry_multiplicity
 _atom_site_fract_x
 _atom_site_fract_y
 _atom_site_fract_z
 _atom_site_occupancy
  Th  Th0  1  0.000000  0.500000  0.000000  1
  Th  Th1  1  0.500000  0.000000  0.000000  1
  Th  Th2  1  0.000000  0.000000  0.500000  1
  Ga  Ga3  1  0.989433  0.643678  0.643684  1
  Ga  Ga4  1  0.643698  0.643704  0.989427  1
  Ga  Ga5  1  0.643671  0.989419  0.643683  1
  Ga  Ga6  1  0.010567  0.356322  0.356316  1
  Ga  Ga7  1  0.356302  0.356296  0.010573  1
  Ga  Ga8  1  0.356329  0.010581  0.356317  1
  Ga  Ga9  1  0.733776  0.500007  0.266220  1
  Ga  Ga10  1  0.266224  0.499993  0.733780  1
  Ga  Ga11  1  0.499996  0.266219  0.733778  1
  Ga  Ga12  1  0.500004  0.733781  0.266222  1
  Ga  Ga13  1  0.266229  0.733776  0.499995  1
  Ga  Ga14  1  0.733771  0.266224  0.500005  1
  Ga  Ga15  1  0.838226  0.143542  0.838242  1
  Ga  Ga16  1  0.143561  0.838231  0.838250  1
  Ga  Ga17  1  0.838261  0.838262  0.143550  1
  Ga  Ga18  1  0.161774  0.856458  0.161758  1
  Ga  Ga19  1  0.856439  0.161769  0.161750  1
  Ga  Ga20  1  0.161739  0.161738  0.856450  1
  Ga  Ga21  1  0.728697  0.489499  0.728701  1
  Ga  Ga22  1  0.489489  0.728699  0.728706  1
  Ga  Ga23  1  0.728701  0.728699  0.489497  1
  Ga  Ga24  1  0.271303  0.510501  0.271299  1
  Ga  Ga25  1  0.510511  0.271301  0.271294  1
  Ga  Ga26  1  0.271299  0.271301  0.510503  1
  Re  Re27  1  0.500000  0.500000  0.500000  1
  Pd  Pd28  1  0.837490  0.837481  0.837474  1
  Pd  Pd29  1  0.162510  0.162519  0.162526  1
  Pd  Pd30  1  0.664254  0.335750  0.999996  1
  Pd  Pd31  1  0.999993  0.335723  0.664268  1
  Pd  Pd32  1  0.335726  0.999998  0.664261  1
  Pd  Pd33  1  0.335746  0.664250  0.000004  1
  Pd  Pd34  1  0.000007  0.664277  0.335732  1
  Pd  Pd35  1  0.664274  0.000002  0.335739  1
