# generated using pymatgen
data_Y3Tm9ZnCo4Pb
_symmetry_space_group_name_H-M   'P 1'
_cell_length_a   8.27543068
_cell_length_b   8.27543188
_cell_length_c   8.25802648
_cell_angle_alpha   110.04005973
_cell_angle_beta   111.22742385
_cell_angle_gamma   107.26155878
_symmetry_Int_Tables_number   1
_chemical_formula_structural   Y3Tm9ZnCo4Pb
_chemical_formula_sum   'Y3 Tm9 Zn1 Co4 Pb1'
_cell_volume   434.31728563
_cell_formula_units_Z   1
loop_
 _symmetry_equiv_pos_site_id
 _symmetry_equiv_pos_as_xyz
  1  'x, y, z'
loop_
 _atom_site_type_symbol
 _atom_site_label
 _atom_site_symmetry_multiplicity
 _atom_site_fract_x
 _atom_site_fract_y
 _atom_site_fract_z
 _atom_site_occupancy
  Y  Y0  1  0.286049  0.186353  0.472403  1
  Y  Y1  1  0.714613  0.814387  0.528999  1
  Y  Y2  1  0.285980  0.814169  0.100148  1
  Tm  Tm3  1  0.713449  0.184529  0.897980  1
  Tm  Tm4  1  0.620541  0.314031  0.304742  1
  Tm  Tm5  1  0.380502  0.686388  0.694528  1
  Tm  Tm6  1  0.008140  0.314027  0.694528  1
  Tm  Tm7  1  0.990710  0.684200  0.304742  1
  Tm  Tm8  1  0.219360  0.425163  0.204020  1
  Tm  Tm9  1  0.778733  0.571800  0.794688  1
  Tm  Tm10  1  0.222887  0.015955  0.794688  1
  Tm  Tm11  1  0.778857  0.984660  0.204020  1
  Zn  Zn12  1  0.998534  0.999524  0.998058  1
  Co  Co13  1  0.999178  0.376303  0.375481  1
  Co  Co14  1  0.000165  0.623533  0.623700  1
  Co  Co15  1  0.387407  0.888505  0.503585  1
  Co  Co16  1  0.615080  0.116178  0.503585  1
  Pb  Pb17  1  0.499813  0.500294  0.000107  1
