# generated using pymatgen
data_Tb7Ho3(GePb3)2
_symmetry_space_group_name_H-M   'P 1'
_cell_length_a   9.34291800
_cell_length_b   9.34294643
_cell_length_c   6.59691100
_cell_angle_alpha   90.00000000
_cell_angle_beta   90.00000000
_cell_angle_gamma   120.00009760
_symmetry_Int_Tables_number   1
_chemical_formula_structural   Tb7Ho3(GePb3)2
_chemical_formula_sum   'Tb7 Ho3 Ge2 Pb6'
_cell_volume   498.69753968
_cell_formula_units_Z   1
loop_
 _symmetry_equiv_pos_site_id
 _symmetry_equiv_pos_as_xyz
  1  'x, y, z'
loop_
 _atom_site_type_symbol
 _atom_site_label
 _atom_site_symmetry_multiplicity
 _atom_site_fract_x
 _atom_site_fract_y
 _atom_site_fract_z
 _atom_site_occupancy
  Tb  Tb0  1  0.251784  0.000086  0.250013  1
  Tb  Tb1  1  0.748301  0.000086  0.749987  1
  Tb  Tb2  1  0.999914  0.251698  0.250013  1
  Tb  Tb3  1  0.999914  0.748217  0.749987  1
  Tb  Tb4  1  0.748302  0.748217  0.250013  1
  Tb  Tb5  1  0.251783  0.251698  0.749987  1
  Tb  Tb6  1  0.333333  0.666667  0.500000  1
  Ho  Ho7  1  0.333333  0.666667  0.000000  1
  Ho  Ho8  1  0.666667  0.333333  0.000000  1
  Ho  Ho9  1  0.666667  0.333333  0.500000  1
  Ge  Ge10  1  0.000000  0.000000  0.000000  1
  Ge  Ge11  1  0.000000  0.000000  0.500000  1
  Pb  Pb12  1  0.605989  0.000249  0.249853  1
  Pb  Pb13  1  0.394260  0.000249  0.750147  1
  Pb  Pb14  1  0.999751  0.605741  0.249853  1
  Pb  Pb15  1  0.999751  0.394010  0.750147  1
  Pb  Pb16  1  0.394260  0.394011  0.249853  1
  Pb  Pb17  1  0.605989  0.605740  0.750147  1
