# generated using pymatgen
data_Yb10Cu3RuPb2
_symmetry_space_group_name_H-M   'P 1'
_cell_length_a   9.13630053
_cell_length_b   9.13630080
_cell_length_c   9.08425008
_cell_angle_alpha   129.84939576
_cell_angle_beta   129.84939321
_cell_angle_gamma   74.08311727
_symmetry_Int_Tables_number   1
_chemical_formula_structural   Yb10Cu3RuPb2
_chemical_formula_sum   'Yb10 Cu3 Ru1 Pb2'
_cell_volume   434.81661683
_cell_formula_units_Z   1
loop_
 _symmetry_equiv_pos_site_id
 _symmetry_equiv_pos_as_xyz
  1  'x, y, z'
loop_
 _atom_site_type_symbol
 _atom_site_label
 _atom_site_symmetry_multiplicity
 _atom_site_fract_x
 _atom_site_fract_y
 _atom_site_fract_z
 _atom_site_occupancy
  Yb  Yb0  1  0.493126  0.503313  0.996440  1
  Yb  Yb1  1  0.003313  0.993126  0.996440  1
  Yb  Yb2  1  0.535913  0.035913  0.840298  1
  Yb  Yb3  1  0.186367  0.686367  0.137867  1
  Yb  Yb4  1  0.038950  0.206369  0.511024  1
  Yb  Yb5  1  0.706369  0.538950  0.511024  1
  Yb  Yb6  1  0.451501  0.951501  0.137867  1
  Yb  Yb7  1  0.804384  0.304384  0.840298  1
  Yb  Yb8  1  0.972074  0.804655  0.511024  1
  Yb  Yb9  1  0.304655  0.472074  0.511024  1
  Cu  Cu10  1  0.879624  0.379624  0.259248  1
  Cu  Cu11  1  0.612667  0.885508  0.498175  1
  Cu  Cu12  1  0.385508  0.112667  0.498175  1
  Ru  Ru13  1  0.116875  0.616875  0.733751  1
  Pb  Pb14  1  0.254336  0.254336  0.008673  1
  Pb  Pb15  1  0.754336  0.754336  0.008673  1
