# generated using pymatgen
data_PuMg4IrN6
_symmetry_space_group_name_H-M   'P 1'
_cell_length_a   5.35191587
_cell_length_b   5.35191416
_cell_length_c   5.46670154
_cell_angle_alpha   99.30893195
_cell_angle_beta   99.30892541
_cell_angle_gamma   120.04314678
_symmetry_Int_Tables_number   1
_chemical_formula_structural   PuMg4IrN6
_chemical_formula_sum   'Pu1 Mg4 Ir1 N6'
_cell_volume   128.24657229
_cell_formula_units_Z   1
loop_
 _symmetry_equiv_pos_site_id
 _symmetry_equiv_pos_as_xyz
  1  'x, y, z'
loop_
 _atom_site_type_symbol
 _atom_site_label
 _atom_site_symmetry_multiplicity
 _atom_site_fract_x
 _atom_site_fract_y
 _atom_site_fract_z
 _atom_site_occupancy
  Pu  Pu0  1  0.666866  0.333134  0.000000  1
  Mg  Mg1  1  0.838389  0.161611  0.500000  1
  Mg  Mg2  1  0.164987  0.835013  0.500000  1
  Mg  Mg3  1  0.495345  0.504655  0.500000  1
  Mg  Mg4  1  0.000060  0.999940  0.000000  1
  Ir  Ir5  1  0.333699  0.666301  0.000000  1
  N  N6  1  0.422926  0.080728  0.238330  1
  N  N7  1  0.919272  0.577074  0.761670  1
  N  N8  1  0.578225  0.920143  0.758856  1
  N  N9  1  0.079857  0.421775  0.241144  1
  N  N10  1  0.739446  0.739073  0.242315  1
  N  N11  1  0.260927  0.260554  0.757685  1
