# generated using pymatgen
data_GdDy3Mn4F28
_symmetry_space_group_name_H-M   'P 1'
_cell_length_a   5.44238427
_cell_length_b   8.71741214
_cell_length_c   11.71539700
_cell_angle_alpha   62.45583592
_cell_angle_beta   89.98195552
_cell_angle_gamma   89.99376545
_symmetry_Int_Tables_number   1
_chemical_formula_structural   GdDy3Mn4F28
_chemical_formula_sum   'Gd1 Dy3 Mn4 F28'
_cell_volume   492.81993346
_cell_formula_units_Z   1
loop_
 _symmetry_equiv_pos_site_id
 _symmetry_equiv_pos_as_xyz
  1  'x, y, z'
loop_
 _atom_site_type_symbol
 _atom_site_label
 _atom_site_symmetry_multiplicity
 _atom_site_fract_x
 _atom_site_fract_y
 _atom_site_fract_z
 _atom_site_occupancy
  Gd  Gd0  1  0.761125  0.810536  0.764835  1
  Dy  Dy1  1  0.261466  0.191960  0.735181  1
  Dy  Dy2  1  0.238386  0.189768  0.235475  1
  Dy  Dy3  1  0.738479  0.810398  0.264601  1
  Mn  Mn4  1  0.758802  0.272203  0.957400  1
  Mn  Mn5  1  0.258261  0.726314  0.541985  1
  Mn  Mn6  1  0.241451  0.726319  0.044264  1
  Mn  Mn7  1  0.741088  0.274353  0.456346  1
  F  F8  1  0.429005  0.704586  0.922731  1
  F  F9  1  0.931188  0.294660  0.577899  1
  F  F10  1  0.568523  0.294256  0.078215  1
  F  F11  1  0.068388  0.705254  0.420853  1
  F  F12  1  0.455145  0.280083  0.540039  1
  F  F13  1  0.955730  0.718829  0.962274  1
  F  F14  1  0.545593  0.720134  0.459512  1
  F  F15  1  0.045032  0.279406  0.040398  1
  F  F16  1  0.774221  0.509193  0.863043  1
  F  F17  1  0.273539  0.488210  0.637159  1
  F  F18  1  0.226796  0.487954  0.138141  1
  F  F19  1  0.726319  0.512184  0.362098  1
  F  F20  1  0.757195  0.035934  0.047309  1
  F  F21  1  0.256921  0.962878  0.452833  1
  F  F22  1  0.242560  0.962640  0.953336  1
  F  F23  1  0.742766  0.038191  0.545519  1
  F  F24  1  0.980113  0.726008  0.630892  1
  F  F25  1  0.480470  0.272699  0.867581  1
  F  F26  1  0.019297  0.272900  0.367045  1
  F  F27  1  0.520225  0.727356  0.132995  1
  F  F28  1  0.053863  0.743282  0.170083  1
  F  F29  1  0.553242  0.256987  0.330478  1
  F  F30  1  0.946348  0.256163  0.830904  1
  F  F31  1  0.441982  0.742051  0.668859  1
  F  F32  1  0.408038  0.969468  0.228708  1
  F  F33  1  0.907944  0.030666  0.271353  1
  F  F34  1  0.592278  0.035139  0.771859  1
  F  F35  1  0.098219  0.971036  0.727800  1
