# generated using pymatgen
data_DyY2Ga6Co8Ni
_symmetry_space_group_name_H-M   'P 1'
_cell_length_a   4.06349900
_cell_length_b   8.77992757
_cell_length_c   8.71963702
_cell_angle_alpha   60.22511225
_cell_angle_beta   90.00000000
_cell_angle_gamma   90.00000000
_symmetry_Int_Tables_number   1
_chemical_formula_structural   DyY2Ga6Co8Ni
_chemical_formula_sum   'Dy1 Y2 Ga6 Co8 Ni1'
_cell_volume   270.02303284
_cell_formula_units_Z   1
loop_
 _symmetry_equiv_pos_site_id
 _symmetry_equiv_pos_as_xyz
  1  'x, y, z'
loop_
 _atom_site_type_symbol
 _atom_site_label
 _atom_site_symmetry_multiplicity
 _atom_site_fract_x
 _atom_site_fract_y
 _atom_site_fract_z
 _atom_site_occupancy
  Dy  Dy0  1  0.000000  0.999923  0.997003  1
  Y  Y1  1  0.500000  0.333627  0.334309  1
  Y  Y2  1  0.500000  0.666654  0.668127  1
  Ga  Ga3  1  0.000000  0.506427  0.495533  1
  Ga  Ga4  1  0.000000  0.493639  0.001935  1
  Ga  Ga5  1  0.000000  0.999947  0.508209  1
  Ga  Ga6  1  0.500000  0.273482  0.725428  1
  Ga  Ga7  1  0.500000  0.726437  0.998845  1
  Ga  Ga8  1  0.500000  0.000006  0.273186  1
  Co  Co9  1  0.000000  0.179226  0.180822  1
  Co  Co10  1  0.000000  0.187306  0.634296  1
  Co  Co11  1  0.000000  0.640641  0.180347  1
  Co  Co12  1  0.000000  0.812732  0.821783  1
  Co  Co13  1  0.000000  0.359526  0.821042  1
  Co  Co14  1  0.000000  0.820768  0.360426  1
  Co  Co15  1  0.500000  0.706415  0.295299  1
  Co  Co16  1  0.500000  0.293266  0.001644  1
  Ni  Ni17  1  0.500000  0.999877  0.701867  1
