# generated using pymatgen
data_ThCrFe3Tc8
_symmetry_space_group_name_H-M   'P 1'
_cell_length_a   6.76653365
_cell_length_b   6.82421526
_cell_length_c   6.78018612
_cell_angle_alpha   97.36851991
_cell_angle_beta   96.93829485
_cell_angle_gamma   138.72097288
_symmetry_Int_Tables_number   1
_chemical_formula_structural   ThCrFe3Tc8
_chemical_formula_sum   'Th1 Cr1 Fe3 Tc8'
_cell_volume   193.22939392
_cell_formula_units_Z   1
loop_
 _symmetry_equiv_pos_site_id
 _symmetry_equiv_pos_as_xyz
  1  'x, y, z'
loop_
 _atom_site_type_symbol
 _atom_site_label
 _atom_site_symmetry_multiplicity
 _atom_site_fract_x
 _atom_site_fract_y
 _atom_site_fract_z
 _atom_site_occupancy
  Th  Th0  1  0.000000  0.000000  0.000000  1
  Cr  Cr1  1  0.000000  0.500000  0.000000  1
  Fe  Fe2  1  0.500000  0.500000  0.500000  1
  Fe  Fe3  1  0.500000  0.000000  0.000000  1
  Fe  Fe4  1  0.000000  0.000000  0.500000  1
  Tc  Tc5  1  0.278537  0.499372  0.779090  1
  Tc  Tc6  1  0.500552  0.279718  0.779090  1
  Tc  Tc7  1  0.499448  0.720282  0.220910  1
  Tc  Tc8  1  0.721463  0.500628  0.220910  1
  Tc  Tc9  1  0.357928  0.000302  0.357807  1
  Tc  Tc10  1  0.642072  0.999698  0.642193  1
  Tc  Tc11  1  0.000121  0.642495  0.642193  1
  Tc  Tc12  1  0.999879  0.357505  0.357807  1
