# generated using pymatgen
data_Tb7NdHg4
_symmetry_space_group_name_H-M   'P 1'
_cell_length_a   5.15293100
_cell_length_b   7.07905863
_cell_length_c   9.41259941
_cell_angle_alpha   90.07940303
_cell_angle_beta   90.00000000
_cell_angle_gamma   90.00000000
_symmetry_Int_Tables_number   1
_chemical_formula_structural   Tb7NdHg4
_chemical_formula_sum   'Tb7 Nd1 Hg4'
_cell_volume   343.35153685
_cell_formula_units_Z   1
loop_
 _symmetry_equiv_pos_site_id
 _symmetry_equiv_pos_as_xyz
  1  'x, y, z'
loop_
 _atom_site_type_symbol
 _atom_site_label
 _atom_site_symmetry_multiplicity
 _atom_site_fract_x
 _atom_site_fract_y
 _atom_site_fract_z
 _atom_site_occupancy
  Tb  Tb0  1  0.250000  0.479668  0.195451  1
  Tb  Tb1  1  0.750000  0.517076  0.804738  1
  Tb  Tb2  1  0.250000  0.981131  0.304887  1
  Tb  Tb3  1  0.750000  0.020324  0.692748  1
  Tb  Tb4  1  0.750000  0.666720  0.427855  1
  Tb  Tb5  1  0.250000  0.328947  0.574310  1
  Tb  Tb6  1  0.750000  0.174711  0.075104  1
  Nd  Nd7  1  0.250000  0.827942  0.924164  1
  Hg  Hg8  1  0.250000  0.273877  0.897519  1
  Hg  Hg9  1  0.750000  0.731898  0.108417  1
  Hg  Hg10  1  0.250000  0.766629  0.597198  1
  Hg  Hg11  1  0.750000  0.231076  0.397608  1
