# generated using pymatgen
data_Dy3Y3Co2(P3Ir4)4
_symmetry_space_group_name_H-M   'P 1'
_cell_length_a   3.93188800
_cell_length_b   11.10039800
_cell_length_c   12.78732801
_cell_angle_alpha   90.00329544
_cell_angle_beta   90.00000000
_cell_angle_gamma   90.00000000
_symmetry_Int_Tables_number   1
_chemical_formula_structural   Dy3Y3Co2(P3Ir4)4
_chemical_formula_sum   'Dy3 Y3 Co2 P12 Ir16'
_cell_volume   558.10960114
_cell_formula_units_Z   1
loop_
 _symmetry_equiv_pos_site_id
 _symmetry_equiv_pos_as_xyz
  1  'x, y, z'
loop_
 _atom_site_type_symbol
 _atom_site_label
 _atom_site_symmetry_multiplicity
 _atom_site_fract_x
 _atom_site_fract_y
 _atom_site_fract_z
 _atom_site_occupancy
  Dy  Dy0  1  0.500000  0.815872  0.200461  1
  Dy  Dy1  1  0.500000  0.184119  0.200479  1
  Dy  Dy2  1  0.000000  0.684125  0.799528  1
  Y  Y3  1  0.000000  0.500013  0.522362  1
  Y  Y4  1  0.500000  0.000002  0.477629  1
  Y  Y5  1  0.000000  0.315973  0.799584  1
  Co  Co6  1  0.000000  0.500094  0.977307  1
  Co  Co7  1  0.500000  0.999987  0.022785  1
  P  P8  1  0.500000  0.500190  0.880348  1
  P  P9  1  0.000000  0.000002  0.119644  1
  P  P10  1  0.500000  0.500000  0.357955  1
  P  P11  1  0.000000  0.000017  0.642075  1
  P  P12  1  0.500000  0.315565  0.619234  1
  P  P13  1  0.500000  0.684462  0.619376  1
  P  P14  1  0.000000  0.184491  0.380650  1
  P  P15  1  0.000000  0.815516  0.380645  1
  P  P16  1  0.500000  0.851957  0.896547  1
  P  P17  1  0.500000  0.147850  0.896587  1
  P  P18  1  0.000000  0.648024  0.103456  1
  P  P19  1  0.000000  0.351966  0.103461  1
  Ir  Ir20  1  0.500000  0.500009  0.177818  1
  Ir  Ir21  1  0.000000  0.999892  0.822216  1
  Ir  Ir22  1  0.500000  0.500236  0.702636  1
  Ir  Ir23  1  0.000000  0.000006  0.297252  1
  Ir  Ir24  1  0.500000  0.339054  0.998001  1
  Ir  Ir25  1  0.500000  0.660965  0.997900  1
  Ir  Ir26  1  0.000000  0.160876  0.002217  1
  Ir  Ir27  1  0.000000  0.839034  0.002113  1
  Ir  Ir28  1  0.500000  0.292844  0.429251  1
  Ir  Ir29  1  0.500000  0.707154  0.429269  1
  Ir  Ir30  1  0.000000  0.207083  0.570634  1
  Ir  Ir31  1  0.000000  0.792857  0.570723  1
  Ir  Ir32  1  0.500000  0.870276  0.714759  1
  Ir  Ir33  1  0.500000  0.129492  0.714668  1
  Ir  Ir34  1  0.000000  0.629708  0.285218  1
  Ir  Ir35  1  0.000000  0.370288  0.285212  1
