# generated using pymatgen
data_Er3Si2IrPt
_symmetry_space_group_name_H-M   'P 1'
_cell_length_a   5.54862379
_cell_length_b   5.54862347
_cell_length_c   13.24207500
_cell_angle_alpha   90.00000000
_cell_angle_beta   90.00000000
_cell_angle_gamma   136.92879060
_symmetry_Int_Tables_number   1
_chemical_formula_structural   Er3Si2IrPt
_chemical_formula_sum   'Er6 Si4 Ir2 Pt2'
_cell_volume   278.41203611
_cell_formula_units_Z   2
loop_
 _symmetry_equiv_pos_site_id
 _symmetry_equiv_pos_as_xyz
  1  'x, y, z'
loop_
 _atom_site_type_symbol
 _atom_site_label
 _atom_site_symmetry_multiplicity
 _atom_site_fract_x
 _atom_site_fract_y
 _atom_site_fract_z
 _atom_site_occupancy
  Er  Er0  1  0.776009  0.223991  0.602083  1
  Er  Er1  1  0.517855  0.482145  0.250000  1
  Er  Er2  1  0.223991  0.776009  0.397917  1
  Er  Er3  1  0.776009  0.223991  0.897917  1
  Er  Er4  1  0.482145  0.517855  0.750000  1
  Er  Er5  1  0.223991  0.776009  0.102083  1
  Si  Si6  1  0.061702  0.938298  0.589329  1
  Si  Si7  1  0.061702  0.938298  0.910671  1
  Si  Si8  1  0.938298  0.061702  0.410671  1
  Si  Si9  1  0.938298  0.061702  0.089329  1
  Ir  Ir10  1  0.500000  0.500000  0.000000  1
  Ir  Ir11  1  0.500000  0.500000  0.500000  1
  Pt  Pt12  1  0.805509  0.194491  0.250000  1
  Pt  Pt13  1  0.194491  0.805509  0.750000  1
