# generated using pymatgen
data_LiZr(Pa3Sb5)2
_symmetry_space_group_name_H-M   'P 1'
_cell_length_a   9.24791100
_cell_length_b   9.24791087
_cell_length_c   6.20144900
_cell_angle_alpha   90.00000000
_cell_angle_beta   90.00000000
_cell_angle_gamma   119.99999688
_symmetry_Int_Tables_number   1
_chemical_formula_structural   LiZr(Pa3Sb5)2
_chemical_formula_sum   'Li1 Zr1 Pa6 Sb10'
_cell_volume   459.31549749
_cell_formula_units_Z   1
loop_
 _symmetry_equiv_pos_site_id
 _symmetry_equiv_pos_as_xyz
  1  'x, y, z'
loop_
 _atom_site_type_symbol
 _atom_site_label
 _atom_site_symmetry_multiplicity
 _atom_site_fract_x
 _atom_site_fract_y
 _atom_site_fract_z
 _atom_site_occupancy
  Li  Li0  1  0.000000  0.000000  0.000000  1
  Zr  Zr1  1  0.000000  0.000000  0.500000  1
  Pa  Pa2  1  0.386665  0.000000  0.748899  1
  Pa  Pa3  1  0.386665  0.386665  0.251101  1
  Pa  Pa4  1  0.000000  0.613335  0.251101  1
  Pa  Pa5  1  0.000000  0.386665  0.748899  1
  Pa  Pa6  1  0.613335  0.613335  0.748899  1
  Pa  Pa7  1  0.613335  0.000000  0.251101  1
  Sb  Sb8  1  0.666667  0.333333  0.500000  1
  Sb  Sb9  1  0.333333  0.666667  0.000000  1
  Sb  Sb10  1  0.733463  0.000000  0.755466  1
  Sb  Sb11  1  0.733463  0.733463  0.244534  1
  Sb  Sb12  1  0.333333  0.666667  0.500000  1
  Sb  Sb13  1  0.666667  0.333333  0.000000  1
  Sb  Sb14  1  0.266537  0.000000  0.244534  1
  Sb  Sb15  1  0.266537  0.266537  0.755466  1
  Sb  Sb16  1  0.000000  0.733463  0.755466  1
  Sb  Sb17  1  0.000000  0.266537  0.244534  1
