# generated using pymatgen
data_ErPuSe2
_symmetry_space_group_name_H-M   'P 1'
_cell_length_a   7.10511079
_cell_length_b   7.10511061
_cell_length_c   7.10511085
_cell_angle_alpha   33.11605683
_cell_angle_beta   33.11605652
_cell_angle_gamma   33.11604201
_symmetry_Int_Tables_number   1
_chemical_formula_structural   ErPuSe2
_chemical_formula_sum   'Er1 Pu1 Se2'
_cell_volume   95.29341293
_cell_formula_units_Z   1
loop_
 _symmetry_equiv_pos_site_id
 _symmetry_equiv_pos_as_xyz
  1  'x, y, z'
loop_
 _atom_site_type_symbol
 _atom_site_label
 _atom_site_symmetry_multiplicity
 _atom_site_fract_x
 _atom_site_fract_y
 _atom_site_fract_z
 _atom_site_occupancy
  Er  Er0  1  0.000000  0.000000  0.000000  1
  Pu  Pu1  1  0.500000  0.500000  0.500000  1
  Se  Se2  1  0.252959  0.252959  0.252959  1
  Se  Se3  1  0.747041  0.747041  0.747041  1
