# generated using pymatgen
data_LuPaB4
_symmetry_space_group_name_H-M   'P 1'
_cell_length_a   3.20874200
_cell_length_b   3.20874243
_cell_length_c   7.84261100
_cell_angle_alpha   90.00000000
_cell_angle_beta   90.00000000
_cell_angle_gamma   120.00001623
_symmetry_Int_Tables_number   1
_chemical_formula_structural   LuPaB4
_chemical_formula_sum   'Lu1 Pa1 B4'
_cell_volume   69.92957523
_cell_formula_units_Z   1
loop_
 _symmetry_equiv_pos_site_id
 _symmetry_equiv_pos_as_xyz
  1  'x, y, z'
loop_
 _atom_site_type_symbol
 _atom_site_label
 _atom_site_symmetry_multiplicity
 _atom_site_fract_x
 _atom_site_fract_y
 _atom_site_fract_z
 _atom_site_occupancy
  Lu  Lu0  1  0.000000  0.000000  0.500000  1
  Pa  Pa1  1  0.000000  0.000000  0.000000  1
  B  B2  1  0.666667  0.333335  0.259725  1
  B  B3  1  0.333333  0.666666  0.259725  1
  B  B4  1  0.666667  0.333335  0.740274  1
  B  B5  1  0.333333  0.666666  0.740274  1
