# generated using pymatgen
data_LiTb9S10
_symmetry_space_group_name_H-M   'P 1'
_cell_length_a   6.77129949
_cell_length_b   7.82863518
_cell_length_c   8.79639462
_cell_angle_alpha   103.22474136
_cell_angle_beta   97.20598352
_cell_angle_gamma   106.86250248
_symmetry_Int_Tables_number   1
_chemical_formula_structural   LiTb9S10
_chemical_formula_sum   'Li1 Tb9 S10'
_cell_volume   425.10782145
_cell_formula_units_Z   1
loop_
 _symmetry_equiv_pos_site_id
 _symmetry_equiv_pos_as_xyz
  1  'x, y, z'
loop_
 _atom_site_type_symbol
 _atom_site_label
 _atom_site_symmetry_multiplicity
 _atom_site_fract_x
 _atom_site_fract_y
 _atom_site_fract_z
 _atom_site_occupancy
  Li  Li0  1  0.000000  0.500000  0.000000  1
  Tb  Tb1  1  0.799547  0.600522  0.600276  1
  Tb  Tb2  1  0.602109  0.200962  0.203760  1
  Tb  Tb3  1  0.397891  0.799038  0.796240  1
  Tb  Tb4  1  0.600277  0.702284  0.202935  1
  Tb  Tb5  1  0.200453  0.399478  0.399724  1
  Tb  Tb6  1  0.399723  0.297716  0.797065  1
  Tb  Tb7  1  0.000000  0.000000  0.000000  1
  Tb  Tb8  1  0.200783  0.901075  0.402879  1
  Tb  Tb9  1  0.799217  0.098925  0.597121  1
  S  S10  1  0.704861  0.647018  0.903520  1
  S  S11  1  0.500585  0.251029  0.499940  1
  S  S12  1  0.705386  0.157145  0.903484  1
  S  S13  1  0.294614  0.842855  0.096516  1
  S  S14  1  0.499415  0.748971  0.500060  1
  S  S15  1  0.096968  0.450977  0.706686  1
  S  S16  1  0.295139  0.352982  0.096480  1
  S  S17  1  0.902164  0.050080  0.298953  1
  S  S18  1  0.097836  0.949920  0.701047  1
  S  S19  1  0.903032  0.549023  0.293314  1
