# generated using pymatgen
data_Li2(TiSe2)5
_symmetry_space_group_name_H-M   'P 1'
_cell_length_a   6.18220116
_cell_length_b   7.47998507
_cell_length_c   9.02133796
_cell_angle_alpha   110.88019912
_cell_angle_beta   110.00830608
_cell_angle_gamma   90.01273784
_symmetry_Int_Tables_number   1
_chemical_formula_structural   Li2(TiSe2)5
_chemical_formula_sum   'Li2 Ti5 Se10'
_cell_volume   362.68585307
_cell_formula_units_Z   1
loop_
 _symmetry_equiv_pos_site_id
 _symmetry_equiv_pos_as_xyz
  1  'x, y, z'
loop_
 _atom_site_type_symbol
 _atom_site_label
 _atom_site_symmetry_multiplicity
 _atom_site_fract_x
 _atom_site_fract_y
 _atom_site_fract_z
 _atom_site_occupancy
  Li  Li0  1  0.896109  0.294771  0.794332  1
  Li  Li1  1  0.103891  0.705229  0.205668  1
  Ti  Ti2  1  0.604491  0.198890  0.199270  1
  Ti  Ti3  1  0.200285  0.402243  0.403076  1
  Ti  Ti4  1  0.395509  0.801110  0.800730  1
  Ti  Ti5  1  0.799715  0.597757  0.596924  1
  Ti  Ti6  1  0.000000  0.000000  0.000000  1
  Se  Se7  1  0.182589  0.458154  0.695340  1
  Se  Se8  1  0.382564  0.858722  0.094837  1
  Se  Se9  1  0.577343  0.256343  0.491263  1
  Se  Se10  1  0.778831  0.657627  0.894356  1
  Se  Se11  1  0.981508  0.060036  0.296792  1
  Se  Se12  1  0.018492  0.939964  0.703208  1
  Se  Se13  1  0.221169  0.342373  0.105644  1
  Se  Se14  1  0.422657  0.743657  0.508737  1
  Se  Se15  1  0.617436  0.141278  0.905163  1
  Se  Se16  1  0.817411  0.541846  0.304660  1
