# generated using pymatgen
data_Er3Lu13In6NiPt
_symmetry_space_group_name_H-M   'P 1'
_cell_length_a   10.28514000
_cell_length_b   10.28513905
_cell_length_c   6.84198400
_cell_angle_alpha   90.00000000
_cell_angle_beta   90.00000000
_cell_angle_gamma   119.99999663
_symmetry_Int_Tables_number   1
_chemical_formula_structural   Er3Lu13In6NiPt
_chemical_formula_sum   'Er3 Lu13 In6 Ni1 Pt1'
_cell_volume   626.80590006
_cell_formula_units_Z   1
loop_
 _symmetry_equiv_pos_site_id
 _symmetry_equiv_pos_as_xyz
  1  'x, y, z'
loop_
 _atom_site_type_symbol
 _atom_site_label
 _atom_site_symmetry_multiplicity
 _atom_site_fract_x
 _atom_site_fract_y
 _atom_site_fract_z
 _atom_site_occupancy
  Er  Er0  1  0.333333  0.666667  0.677875  1
  Er  Er1  1  0.000000  0.000000  0.775782  1
  Er  Er2  1  0.000000  0.000000  0.273226  1
  Lu  Lu3  1  0.530124  0.060247  0.795925  1
  Lu  Lu4  1  0.939753  0.469876  0.795925  1
  Lu  Lu5  1  0.530124  0.469876  0.795925  1
  Lu  Lu6  1  0.468012  0.936025  0.294459  1
  Lu  Lu7  1  0.063975  0.531988  0.294459  1
  Lu  Lu8  1  0.468012  0.531988  0.294459  1
  Lu  Lu9  1  0.823568  0.647137  0.499831  1
  Lu  Lu10  1  0.352863  0.176432  0.499831  1
  Lu  Lu11  1  0.823568  0.176432  0.499831  1
  Lu  Lu12  1  0.178080  0.356159  0.002176  1
  Lu  Lu13  1  0.643841  0.821920  0.002176  1
  Lu  Lu14  1  0.178080  0.821920  0.002176  1
  Lu  Lu15  1  0.666667  0.333333  0.169286  1
  In  In16  1  0.837632  0.675264  0.037697  1
  In  In17  1  0.324736  0.162368  0.037697  1
  In  In18  1  0.837632  0.162368  0.037697  1
  In  In19  1  0.162921  0.325842  0.537586  1
  In  In20  1  0.674158  0.837079  0.537586  1
  In  In21  1  0.162921  0.837079  0.537586  1
  Ni  Ni22  1  0.333333  0.666667  0.067981  1
  Pt  Pt23  1  0.666667  0.333333  0.568732  1
