# generated using pymatgen
data_MnV17CoSi12Tc
_symmetry_space_group_name_H-M   'P 1'
_cell_length_a   7.01678298
_cell_length_b   7.01667877
_cell_length_c   13.19917000
_cell_angle_alpha   90.00000000
_cell_angle_beta   90.00000000
_cell_angle_gamma   140.38860524
_symmetry_Int_Tables_number   1
_chemical_formula_structural   MnV17CoSi12Tc
_chemical_formula_sum   'Mn1 V17 Co1 Si12 Tc1'
_cell_volume   414.33254644
_cell_formula_units_Z   1
loop_
 _symmetry_equiv_pos_site_id
 _symmetry_equiv_pos_as_xyz
  1  'x, y, z'
loop_
 _atom_site_type_symbol
 _atom_site_label
 _atom_site_symmetry_multiplicity
 _atom_site_fract_x
 _atom_site_fract_y
 _atom_site_fract_z
 _atom_site_occupancy
  Mn  Mn0  1  0.001665  0.001659  0.000000  1
  V  V1  1  0.071075  0.421469  0.398522  1
  V  V2  1  0.574883  0.931182  0.902068  1
  V  V3  1  0.421476  0.071075  0.601480  1
  V  V4  1  0.931173  0.574889  0.097947  1
  V  V5  1  0.851388  0.652484  0.677653  1
  V  V6  1  0.348483  0.149059  0.175796  1
  V  V7  1  0.652487  0.851402  0.322358  1
  V  V8  1  0.149083  0.348477  0.824208  1
  V  V9  1  0.652487  0.851402  0.677642  1
  V  V10  1  0.149083  0.348477  0.175792  1
  V  V11  1  0.851388  0.652484  0.322347  1
  V  V12  1  0.348483  0.149059  0.824204  1
  V  V13  1  0.421476  0.071075  0.398520  1
  V  V14  1  0.931173  0.574889  0.902053  1
  V  V15  1  0.071075  0.421469  0.601478  1
  V  V16  1  0.574883  0.931182  0.097932  1
  V  V17  1  0.998440  0.998433  0.500000  1
  Co  Co18  1  0.501755  0.501753  0.000000  1
  Si  Si19  1  0.250594  0.749330  0.751317  1
  Si  Si20  1  0.749255  0.250532  0.248681  1
  Si  Si21  1  0.749255  0.250532  0.751319  1
  Si  Si22  1  0.250594  0.749330  0.248683  1
  Si  Si23  1  0.244341  0.244331  0.667703  1
  Si  Si24  1  0.748223  0.748239  0.159582  1
  Si  Si25  1  0.244341  0.244331  0.332297  1
  Si  Si26  1  0.748223  0.748239  0.840418  1
  Si  Si27  1  0.584272  0.919551  0.500000  1
  Si  Si28  1  0.096191  0.414904  0.000000  1
  Si  Si29  1  0.919560  0.584293  0.500000  1
  Si  Si30  1  0.414905  0.096183  0.000000  1
  Tc  Tc31  1  0.498288  0.498289  0.500000  1
