# generated using pymatgen
data_Sr5CaGe6(MoO6)4
_symmetry_space_group_name_H-M   'P 1'
_cell_length_a   11.23390786
_cell_length_b   11.23390800
_cell_length_c   11.23390815
_cell_angle_alpha   109.32408474
_cell_angle_beta   109.76590675
_cell_angle_gamma   109.32407651
_symmetry_Int_Tables_number   1
_chemical_formula_structural   Sr5CaGe6(MoO6)4
_chemical_formula_sum   'Sr10 Ca2 Ge12 Mo8 O48'
_cell_volume   1091.34498663
_cell_formula_units_Z   2
loop_
 _symmetry_equiv_pos_site_id
 _symmetry_equiv_pos_as_xyz
  1  'x, y, z'
loop_
 _atom_site_type_symbol
 _atom_site_label
 _atom_site_symmetry_multiplicity
 _atom_site_fract_x
 _atom_site_fract_y
 _atom_site_fract_z
 _atom_site_occupancy
  Sr  Sr0  1  0.250000  0.874725  0.624725  1
  Sr  Sr1  1  0.750000  0.625275  0.875275  1
  Sr  Sr2  1  0.624725  0.874725  0.750000  1
  Sr  Sr3  1  0.875275  0.625275  0.250000  1
  Sr  Sr4  1  0.625000  0.250000  0.875000  1
  Sr  Sr5  1  0.875000  0.750000  0.625000  1
  Sr  Sr6  1  0.750000  0.124715  0.374715  1
  Sr  Sr7  1  0.250000  0.375285  0.125285  1
  Sr  Sr8  1  0.374715  0.124715  0.250000  1
  Sr  Sr9  1  0.125285  0.375285  0.750000  1
  Ca  Ca10  1  0.375000  0.750000  0.125000  1
  Ca  Ca11  1  0.125000  0.250000  0.375000  1
  Ge  Ge12  1  0.128164  0.750000  0.878164  1
  Ge  Ge13  1  0.878164  0.250000  0.128164  1
  Ge  Ge14  1  0.625038  0.375038  0.250000  1
  Ge  Ge15  1  0.750000  0.875254  0.125254  1
  Ge  Ge16  1  0.874962  0.124962  0.750000  1
  Ge  Ge17  1  0.250000  0.624746  0.374746  1
  Ge  Ge18  1  0.750000  0.375038  0.625038  1
  Ge  Ge19  1  0.250000  0.124962  0.874962  1
  Ge  Ge20  1  0.125254  0.875254  0.250000  1
  Ge  Ge21  1  0.374746  0.624746  0.750000  1
  Ge  Ge22  1  0.621836  0.750000  0.371836  1
  Ge  Ge23  1  0.371836  0.250000  0.621836  1
  Mo  Mo24  1  0.498050  0.499680  0.499001  1
  Mo  Mo25  1  0.498371  0.999049  0.498050  1
  Mo  Mo26  1  0.001629  0.499680  0.500678  1
  Mo  Mo27  1  0.499001  0.500951  0.999322  1
  Mo  Mo28  1  0.999322  0.000320  0.498371  1
  Mo  Mo29  1  0.001950  0.500951  0.001629  1
  Mo  Mo30  1  0.500678  0.999049  0.000999  1
  Mo  Mo31  1  0.000999  0.000320  0.001950  1
  O  O32  1  0.411511  0.806499  0.794626  1
  O  O33  1  0.884899  0.393904  0.089349  1
  O  O34  1  0.105065  0.988584  0.692575  1
  O  O35  1  0.511873  0.616885  0.705374  1
  O  O36  1  0.692575  0.087510  0.703990  1
  O  O37  1  0.615101  0.704449  0.509005  1
  O  O38  1  0.616481  0.412490  0.105065  1
  O  O39  1  0.703990  0.511416  0.616481  1
  O  O40  1  0.807425  0.511416  0.394935  1
  O  O41  1  0.990995  0.795551  0.884899  1
  O  O42  1  0.794626  0.883115  0.988127  1
  O  O43  1  0.705374  0.693501  0.088489  1
  O  O44  1  0.410651  0.106096  0.615101  1
  O  O45  1  0.394988  0.806499  0.511873  1
  O  O46  1  0.089349  0.704449  0.695445  1
  O  O47  1  0.105012  0.616885  0.411511  1
  O  O48  1  0.509005  0.393904  0.804555  1
  O  O49  1  0.088489  0.883115  0.394988  1
  O  O50  1  0.988127  0.693501  0.105012  1
  O  O51  1  0.194117  0.485200  0.602911  1
  O  O52  1  0.695445  0.106096  0.990995  1
  O  O53  1  0.796010  0.412490  0.807425  1
  O  O54  1  0.394935  0.087510  0.883519  1
  O  O55  1  0.883519  0.988584  0.796010  1
  O  O56  1  0.589279  0.193639  0.205641  1
  O  O57  1  0.125403  0.608492  0.920248  1
  O  O58  1  0.897089  0.014800  0.305883  1
  O  O59  1  0.487998  0.383638  0.294359  1
  O  O60  1  0.305883  0.908794  0.291083  1
  O  O61  1  0.374597  0.294844  0.483089  1
  O  O62  1  0.382289  0.591206  0.897089  1
  O  O63  1  0.291083  0.485200  0.382289  1
  O  O64  1  0.117711  0.014800  0.208917  1
  O  O65  1  0.602911  0.908794  0.117711  1
  O  O66  1  0.208917  0.591206  0.194117  1
  O  O67  1  0.188244  0.205156  0.579752  1
  O  O68  1  0.311756  0.891508  0.016911  1
  O  O69  1  0.012002  0.306361  0.895640  1
  O  O70  1  0.910721  0.116362  0.604360  1
  O  O71  1  0.483089  0.608492  0.188244  1
  O  O72  1  0.895640  0.383638  0.589279  1
  O  O73  1  0.920248  0.294844  0.311756  1
  O  O74  1  0.604360  0.193639  0.487998  1
  O  O75  1  0.579752  0.891508  0.374597  1
  O  O76  1  0.294359  0.306361  0.910721  1
  O  O77  1  0.205641  0.116362  0.012002  1
  O  O78  1  0.016911  0.205156  0.125403  1
  O  O79  1  0.804555  0.795551  0.410651  1
