# generated using pymatgen
data_Cs2NaMn6F21
_symmetry_space_group_name_H-M   'P 1'
_cell_length_a   7.72325940
_cell_length_b   7.72326202
_cell_length_c   10.71719858
_cell_angle_alpha   68.65113507
_cell_angle_beta   68.65114068
_cell_angle_gamma   60.02898143
_symmetry_Int_Tables_number   1
_chemical_formula_structural   Cs2NaMn6F21
_chemical_formula_sum   'Cs2 Na1 Mn6 F21'
_cell_volume   502.46290711
_cell_formula_units_Z   1
loop_
 _symmetry_equiv_pos_site_id
 _symmetry_equiv_pos_as_xyz
  1  'x, y, z'
loop_
 _atom_site_type_symbol
 _atom_site_label
 _atom_site_symmetry_multiplicity
 _atom_site_fract_x
 _atom_site_fract_y
 _atom_site_fract_z
 _atom_site_occupancy
  Cs  Cs0  1  0.130231  0.130756  0.611330  1
  Cs  Cs1  1  0.869244  0.869769  0.388671  1
  Na  Na2  1  0.513436  0.486563  0.500000  1
  Mn  Mn3  1  0.454840  0.911492  0.199713  1
  Mn  Mn4  1  0.088509  0.545159  0.800288  1
  Mn  Mn5  1  0.956872  0.413246  0.194975  1
  Mn  Mn6  1  0.457319  0.412238  0.196380  1
  Mn  Mn7  1  0.587762  0.542682  0.803620  1
  Mn  Mn8  1  0.586755  0.043129  0.805025  1
  F  F9  1  0.677129  0.565474  0.614490  1
  F  F10  1  0.434526  0.322871  0.385511  1
  F  F11  1  0.176919  0.482398  0.221949  1
  F  F12  1  0.517602  0.823081  0.778051  1
  F  F13  1  0.889269  0.460290  0.818237  1
  F  F14  1  0.515030  0.950731  0.002017  1
  F  F15  1  0.737219  0.341455  0.170703  1
  F  F16  1  0.149324  0.589026  0.609377  1
  F  F17  1  0.863920  0.853259  0.800008  1
  F  F18  1  0.767342  0.688925  0.193172  1
  F  F19  1  0.658545  0.262782  0.829296  1
  F  F20  1  0.479674  0.520326  0.000000  1
  F  F21  1  0.865896  0.347553  0.383932  1
  F  F22  1  0.286394  0.633469  0.781223  1
  F  F23  1  0.410974  0.850676  0.390623  1
  F  F24  1  0.311074  0.232659  0.806828  1
  F  F25  1  0.539710  0.110731  0.181764  1
  F  F26  1  0.366530  0.713607  0.218777  1
  F  F27  1  0.146741  0.136080  0.199992  1
  F  F28  1  0.049268  0.484969  0.997983  1
  F  F29  1  0.652446  0.134104  0.616069  1
