# generated using pymatgen
data_YTm(GaRu)2
_symmetry_space_group_name_H-M   'P 1'
_cell_length_a   7.13667700
_cell_length_b   4.49245500
_cell_length_c   7.13607600
_cell_angle_alpha   90.00000000
_cell_angle_beta   90.00000000
_cell_angle_gamma   90.00000000
_symmetry_Int_Tables_number   1
_chemical_formula_structural   YTm(GaRu)2
_chemical_formula_sum   'Y2 Tm2 Ga4 Ru4'
_cell_volume   228.79116179
_cell_formula_units_Z   2
loop_
 _symmetry_equiv_pos_site_id
 _symmetry_equiv_pos_as_xyz
  1  'x, y, z'
loop_
 _atom_site_type_symbol
 _atom_site_label
 _atom_site_symmetry_multiplicity
 _atom_site_fract_x
 _atom_site_fract_y
 _atom_site_fract_z
 _atom_site_occupancy
  Y  Y0  1  0.485228  0.249999  0.694320  1
  Y  Y1  1  0.985228  0.249999  0.805679  1
  Tm  Tm2  1  0.017331  0.749999  0.199905  1
  Tm  Tm3  1  0.517331  0.749999  0.300096  1
  Ga  Ga4  1  0.302231  0.249999  0.105396  1
  Ga  Ga5  1  0.802231  0.249999  0.394604  1
  Ga  Ga6  1  0.197976  0.749999  0.603303  1
  Ga  Ga7  1  0.697976  0.749999  0.896696  1
  Ru  Ru8  1  0.660513  0.249999  0.067014  1
  Ru  Ru9  1  0.160512  0.249999  0.432987  1
  Ru  Ru10  1  0.836719  0.749999  0.562005  1
  Ru  Ru11  1  0.336719  0.749999  0.937994  1
