# generated using pymatgen
data_La20Si11P
_symmetry_space_group_name_H-M   'P 1'
_cell_length_a   7.88077700
_cell_length_b   7.88077700
_cell_length_c   14.48592200
_cell_angle_alpha   90.00000000
_cell_angle_beta   90.00000000
_cell_angle_gamma   90.00000000
_symmetry_Int_Tables_number   1
_chemical_formula_structural   La20Si11P
_chemical_formula_sum   'La20 Si11 P1'
_cell_volume   899.67203143
_cell_formula_units_Z   1
loop_
 _symmetry_equiv_pos_site_id
 _symmetry_equiv_pos_as_xyz
  1  'x, y, z'
loop_
 _atom_site_type_symbol
 _atom_site_label
 _atom_site_symmetry_multiplicity
 _atom_site_fract_x
 _atom_site_fract_y
 _atom_site_fract_z
 _atom_site_occupancy
  La  La0  1  0.500000  0.000000  0.778210  1
  La  La1  1  0.328444  0.315129  0.106248  1
  La  La2  1  0.829481  0.814326  0.893868  1
  La  La3  1  0.000000  0.500000  0.221353  1
  La  La4  1  0.830729  0.186143  0.394773  1
  La  La5  1  0.170519  0.185674  0.893868  1
  La  La6  1  0.671556  0.684871  0.106248  1
  La  La7  1  0.000000  0.500000  0.721479  1
  La  La8  1  0.816352  0.828803  0.605699  1
  La  La9  1  0.313857  0.330729  0.394773  1
  La  La10  1  0.184871  0.828444  0.106248  1
  La  La11  1  0.183648  0.171197  0.605699  1
  La  La12  1  0.815129  0.171556  0.106248  1
  La  La13  1  0.328803  0.683648  0.605699  1
  La  La14  1  0.500000  0.000000  0.274757  1
  La  La15  1  0.685674  0.329481  0.893868  1
  La  La16  1  0.671197  0.316352  0.605699  1
  La  La17  1  0.314326  0.670519  0.893868  1
  La  La18  1  0.169271  0.813857  0.394773  1
  La  La19  1  0.686143  0.669271  0.394773  1
  Si  Si20  1  0.613161  0.386417  0.250647  1
  Si  Si21  1  0.886342  0.113242  0.749547  1
  Si  Si22  1  0.500000  0.000000  0.495249  1
  Si  Si23  1  0.886417  0.886839  0.250647  1
  Si  Si24  1  0.000000  0.500000  0.003524  1
  Si  Si25  1  0.113658  0.886758  0.749547  1
  Si  Si26  1  0.386758  0.386342  0.749547  1
  Si  Si27  1  0.113583  0.113161  0.250647  1
  Si  Si28  1  0.386839  0.613583  0.250647  1
  Si  Si29  1  0.613242  0.613658  0.749547  1
  Si  Si30  1  0.500000  0.000000  0.997295  1
  P  P31  1  0.000000  0.500000  0.504998  1
