# generated using pymatgen
data_La7TbSi12Ni3Pd
_symmetry_space_group_name_H-M   'P 1'
_cell_length_a   8.18044500
_cell_length_b   8.18044422
_cell_length_c   8.68373300
_cell_angle_alpha   90.00000000
_cell_angle_beta   90.00000000
_cell_angle_gamma   120.00000718
_symmetry_Int_Tables_number   1
_chemical_formula_structural   La7TbSi12Ni3Pd
_chemical_formula_sum   'La7 Tb1 Si12 Ni3 Pd1'
_cell_volume   503.25822199
_cell_formula_units_Z   1
loop_
 _symmetry_equiv_pos_site_id
 _symmetry_equiv_pos_as_xyz
  1  'x, y, z'
loop_
 _atom_site_type_symbol
 _atom_site_label
 _atom_site_symmetry_multiplicity
 _atom_site_fract_x
 _atom_site_fract_y
 _atom_site_fract_z
 _atom_site_occupancy
  La  La0  1  0.501150  0.002300  0.248769  1
  La  La1  1  0.500854  0.001709  0.751146  1
  La  La2  1  0.997700  0.498850  0.248769  1
  La  La3  1  0.998291  0.499146  0.751146  1
  La  La4  1  0.501150  0.498850  0.248769  1
  La  La5  1  0.500854  0.499146  0.751146  1
  La  La6  1  0.000000  0.000000  0.248737  1
  Tb  Tb7  1  0.000000  0.000000  0.750463  1
  Si  Si8  1  0.169748  0.339496  0.998298  1
  Si  Si9  1  0.830815  0.661628  0.997567  1
  Si  Si10  1  0.660504  0.830252  0.998298  1
  Si  Si11  1  0.829997  0.659994  0.501969  1
  Si  Si12  1  0.338372  0.169185  0.997567  1
  Si  Si13  1  0.163151  0.326301  0.502722  1
  Si  Si14  1  0.169748  0.830252  0.998298  1
  Si  Si15  1  0.340006  0.170003  0.501969  1
  Si  Si16  1  0.830815  0.169185  0.997567  1
  Si  Si17  1  0.673699  0.836849  0.502722  1
  Si  Si18  1  0.829997  0.170003  0.501969  1
  Si  Si19  1  0.163151  0.836849  0.502722  1
  Ni  Ni20  1  0.333333  0.666667  0.998651  1
  Ni  Ni21  1  0.666667  0.333333  0.997615  1
  Ni  Ni22  1  0.666667  0.333333  0.502460  1
  Pd  Pd23  1  0.333333  0.666667  0.500657  1
