# generated using pymatgen
data_SrLaPr5TcI12
_symmetry_space_group_name_H-M   'P 1'
_cell_length_a   10.14612809
_cell_length_b   10.14409519
_cell_length_c   9.99559900
_cell_angle_alpha   106.51467628
_cell_angle_beta   106.04403570
_cell_angle_gamma   106.19926239
_symmetry_Int_Tables_number   1
_chemical_formula_structural   SrLaPr5TcI12
_chemical_formula_sum   'Sr1 La1 Pr5 Tc1 I12'
_cell_volume   873.64442003
_cell_formula_units_Z   1
loop_
 _symmetry_equiv_pos_site_id
 _symmetry_equiv_pos_as_xyz
  1  'x, y, z'
loop_
 _atom_site_type_symbol
 _atom_site_label
 _atom_site_symmetry_multiplicity
 _atom_site_fract_x
 _atom_site_fract_y
 _atom_site_fract_z
 _atom_site_occupancy
  Sr  Sr0  1  0.499993  0.500309  0.500484  1
  La  La1  1  0.979514  0.908259  0.716894  1
  Pr  Pr2  1  0.021078  0.095140  0.293450  1
  Pr  Pr3  1  0.101602  0.314414  0.020457  1
  Pr  Pr4  1  0.299822  0.020857  0.096468  1
  Pr  Pr5  1  0.898302  0.685318  0.977497  1
  Pr  Pr6  1  0.700467  0.978719  0.902664  1
  Tc  Tc7  1  0.999194  0.994099  0.981908  1
  I  I8  1  0.547451  0.629711  0.858767  1
  I  I9  1  0.452840  0.370499  0.142950  1
  I  I10  1  0.323406  0.926718  0.775709  1
  I  I11  1  0.369111  0.145447  0.454477  1
  I  I12  1  0.928327  0.778081  0.322967  1
  I  I13  1  0.683271  0.074942  0.228601  1
  I  I14  1  0.073966  0.228823  0.679375  1
  I  I15  1  0.774120  0.319883  0.927185  1
  I  I16  1  0.226238  0.680648  0.075152  1
  I  I17  1  0.851773  0.542358  0.626456  1
  I  I18  1  0.144962  0.452114  0.373503  1
  I  I19  1  0.624562  0.853659  0.545036  1
