# generated using pymatgen
data_Rb3Tm2Br9
_symmetry_space_group_name_H-M   'P 1'
_cell_length_a   10.25633539
_cell_length_b   10.25633567
_cell_length_c   10.25633589
_cell_angle_alpha   83.27826791
_cell_angle_beta   83.27826802
_cell_angle_gamma   83.27827248
_symmetry_Int_Tables_number   1
_chemical_formula_structural   Rb3Tm2Br9
_chemical_formula_sum   'Rb6 Tm4 Br18'
_cell_volume   1058.25011841
_cell_formula_units_Z   2
loop_
 _symmetry_equiv_pos_site_id
 _symmetry_equiv_pos_as_xyz
  1  'x, y, z'
loop_
 _atom_site_type_symbol
 _atom_site_label
 _atom_site_symmetry_multiplicity
 _atom_site_fract_x
 _atom_site_fract_y
 _atom_site_fract_z
 _atom_site_occupancy
  Rb  Rb0  1  0.089079  0.750000  0.410921  1
  Rb  Rb1  1  0.750000  0.410921  0.089079  1
  Rb  Rb2  1  0.250000  0.589079  0.910921  1
  Rb  Rb3  1  0.410921  0.089079  0.750000  1
  Rb  Rb4  1  0.910921  0.250000  0.589079  1
  Rb  Rb5  1  0.589079  0.910921  0.250000  1
  Tm  Tm6  1  0.347366  0.347366  0.347366  1
  Tm  Tm7  1  0.652634  0.652634  0.652634  1
  Tm  Tm8  1  0.847366  0.847366  0.847366  1
  Tm  Tm9  1  0.152634  0.152634  0.152634  1
  Br  Br10  1  0.266296  0.918345  0.081538  1
  Br  Br11  1  0.733704  0.081655  0.918462  1
  Br  Br12  1  0.907125  0.592875  0.750000  1
  Br  Br13  1  0.081655  0.918462  0.733704  1
  Br  Br14  1  0.592875  0.750000  0.907125  1
  Br  Br15  1  0.418462  0.581655  0.233704  1
  Br  Br16  1  0.250000  0.092875  0.407125  1
  Br  Br17  1  0.918345  0.081538  0.266296  1
  Br  Br18  1  0.581538  0.418345  0.766296  1
  Br  Br19  1  0.081538  0.266296  0.918345  1
  Br  Br20  1  0.918462  0.733704  0.081655  1
  Br  Br21  1  0.418345  0.766296  0.581538  1
  Br  Br22  1  0.233704  0.418462  0.581655  1
  Br  Br23  1  0.750000  0.907125  0.592875  1
  Br  Br24  1  0.092875  0.407125  0.250000  1
  Br  Br25  1  0.766296  0.581538  0.418345  1
  Br  Br26  1  0.407125  0.250000  0.092875  1
  Br  Br27  1  0.581655  0.233704  0.418462  1
