# generated using pymatgen
data_Er4Zn2B4IrRh9
_symmetry_space_group_name_H-M   'P 1'
_cell_length_a   9.49946637
_cell_length_b   9.49946637
_cell_length_c   3.17543800
_cell_angle_alpha   90.00000000
_cell_angle_beta   90.00000000
_cell_angle_gamma   89.70086270
_symmetry_Int_Tables_number   1
_chemical_formula_structural   Er4Zn2B4IrRh9
_chemical_formula_sum   'Er4 Zn2 B4 Ir1 Rh9'
_cell_volume   286.54717915
_cell_formula_units_Z   1
loop_
 _symmetry_equiv_pos_site_id
 _symmetry_equiv_pos_as_xyz
  1  'x, y, z'
loop_
 _atom_site_type_symbol
 _atom_site_label
 _atom_site_symmetry_multiplicity
 _atom_site_fract_x
 _atom_site_fract_y
 _atom_site_fract_z
 _atom_site_occupancy
  Er  Er0  1  0.322443  0.822443  0.000000  1
  Er  Er1  1  0.677557  0.177557  0.000000  1
  Er  Er2  1  0.175650  0.324350  0.000000  1
  Er  Er3  1  0.824350  0.675650  0.000000  1
  Zn  Zn4  1  0.500000  0.500000  0.000000  1
  Zn  Zn5  1  0.000000  0.000000  0.000000  1
  B  B6  1  0.123018  0.623018  0.000000  1
  B  B7  1  0.876982  0.376982  0.000000  1
  B  B8  1  0.377658  0.122342  0.000000  1
  B  B9  1  0.622342  0.877658  0.000000  1
  Ir  Ir10  1  0.500000  0.000000  0.500000  1
  Rh  Rh11  1  0.570177  0.719428  0.500000  1
  Rh  Rh12  1  0.429823  0.280572  0.500000  1
  Rh  Rh13  1  0.930969  0.220051  0.500000  1
  Rh  Rh14  1  0.069031  0.779949  0.500000  1
  Rh  Rh15  1  0.780572  0.929823  0.500000  1
  Rh  Rh16  1  0.219428  0.070177  0.500000  1
  Rh  Rh17  1  0.279949  0.569031  0.500000  1
  Rh  Rh18  1  0.720051  0.430969  0.500000  1
  Rh  Rh19  1  0.000000  0.500000  0.500000  1
