# generated using pymatgen
data_Sr6Nb3Ni2RuO18
_symmetry_space_group_name_H-M   'P 1'
_cell_length_a   5.69400804
_cell_length_b   9.86786056
_cell_length_c   6.99950854
_cell_angle_alpha   90.07510576
_cell_angle_beta   89.99430690
_cell_angle_gamma   89.99757519
_symmetry_Int_Tables_number   1
_chemical_formula_structural   Sr6Nb3Ni2RuO18
_chemical_formula_sum   'Sr6 Nb3 Ni2 Ru1 O18'
_cell_volume   393.28578762
_cell_formula_units_Z   1
loop_
 _symmetry_equiv_pos_site_id
 _symmetry_equiv_pos_as_xyz
  1  'x, y, z'
loop_
 _atom_site_type_symbol
 _atom_site_label
 _atom_site_symmetry_multiplicity
 _atom_site_fract_x
 _atom_site_fract_y
 _atom_site_fract_z
 _atom_site_occupancy
  Sr  Sr0  1  0.999997  0.003415  0.005204  1
  Sr  Sr1  1  0.499957  0.497449  0.004968  1
  Sr  Sr2  1  0.499938  0.173829  0.330462  1
  Sr  Sr3  1  0.999964  0.659371  0.332391  1
  Sr  Sr4  1  0.000013  0.333472  0.652202  1
  Sr  Sr5  1  0.500031  0.833078  0.667771  1
  Nb  Nb6  1  0.499886  0.834537  0.182816  1
  Nb  Nb7  1  0.500113  0.166553  0.820165  1
  Nb  Nb8  1  0.000106  0.665283  0.820391  1
  Ni  Ni9  1  0.500033  0.499957  0.501012  1
  Ni  Ni10  1  0.999990  0.000013  0.500751  1
  Ru  Ru11  1  0.999894  0.334103  0.172617  1
  O  O12  1  0.500001  0.999643  0.999867  1
  O  O13  1  0.999975  0.498795  0.003362  1
  O  O14  1  0.249693  0.250655  0.003572  1
  O  O15  1  0.749555  0.749481  0.000727  1
  O  O16  1  0.750405  0.250653  0.003530  1
  O  O17  1  0.250448  0.749469  0.000722  1
  O  O18  1  0.999885  0.174587  0.330688  1
  O  O19  1  0.499928  0.669221  0.333809  1
  O  O20  1  0.500066  0.329609  0.665319  1
  O  O21  1  0.000076  0.828428  0.667873  1
  O  O22  1  0.756039  0.416580  0.324989  1
  O  O23  1  0.251085  0.919003  0.328268  1
  O  O24  1  0.251806  0.082800  0.673755  1
  O  O25  1  0.752650  0.580473  0.671882  1
  O  O26  1  0.749055  0.082972  0.674271  1
  O  O27  1  0.248210  0.580644  0.672390  1
  O  O28  1  0.243219  0.416722  0.325421  1
  O  O29  1  0.747986  0.919206  0.328809  1
