# generated using pymatgen
data_Dy4Ga2TcOs5
_symmetry_space_group_name_H-M   'P 1'
_cell_length_a   5.35921442
_cell_length_b   5.35921584
_cell_length_c   8.80170900
_cell_angle_alpha   90.00000000
_cell_angle_beta   90.00000000
_cell_angle_gamma   119.13733779
_symmetry_Int_Tables_number   1
_chemical_formula_structural   Dy4Ga2TcOs5
_chemical_formula_sum   'Dy4 Ga2 Tc1 Os5'
_cell_volume   220.80554585
_cell_formula_units_Z   1
loop_
 _symmetry_equiv_pos_site_id
 _symmetry_equiv_pos_as_xyz
  1  'x, y, z'
loop_
 _atom_site_type_symbol
 _atom_site_label
 _atom_site_symmetry_multiplicity
 _atom_site_fract_x
 _atom_site_fract_y
 _atom_site_fract_z
 _atom_site_occupancy
  Dy  Dy0  1  0.328257  0.671743  0.443324  1
  Dy  Dy1  1  0.662118  0.337882  0.569102  1
  Dy  Dy2  1  0.662118  0.337882  0.930898  1
  Dy  Dy3  1  0.328257  0.671743  0.056676  1
  Ga  Ga4  1  0.838932  0.654265  0.250000  1
  Ga  Ga5  1  0.345735  0.161068  0.250000  1
  Tc  Tc6  1  0.840229  0.159771  0.250000  1
  Os  Os7  1  0.989238  0.010762  0.498589  1
  Os  Os8  1  0.989238  0.010762  0.001411  1
  Os  Os9  1  0.182340  0.817660  0.750000  1
  Os  Os10  1  0.162226  0.328686  0.750000  1
  Os  Os11  1  0.671314  0.837774  0.750000  1
