# generated using pymatgen
data_Nd2Ho6BePd24
_symmetry_space_group_name_H-M   'P 1'
_cell_length_a   8.32819910
_cell_length_b   8.32819905
_cell_length_c   8.32820100
_cell_angle_alpha   89.85115683
_cell_angle_beta   90.14883629
_cell_angle_gamma   90.14883030
_symmetry_Int_Tables_number   1
_chemical_formula_structural   Nd2Ho6BePd24
_chemical_formula_sum   'Nd2 Ho6 Be1 Pd24'
_cell_volume   577.62902241
_cell_formula_units_Z   1
loop_
 _symmetry_equiv_pos_site_id
 _symmetry_equiv_pos_as_xyz
  1  'x, y, z'
loop_
 _atom_site_type_symbol
 _atom_site_label
 _atom_site_symmetry_multiplicity
 _atom_site_fract_x
 _atom_site_fract_y
 _atom_site_fract_z
 _atom_site_occupancy
  Nd  Nd0  1  0.251902  0.748098  0.748098  1
  Nd  Nd1  1  0.748098  0.251902  0.251902  1
  Ho  Ho2  1  0.250343  0.250850  0.250850  1
  Ho  Ho3  1  0.749657  0.749150  0.749150  1
  Ho  Ho4  1  0.749150  0.749657  0.250850  1
  Ho  Ho5  1  0.749150  0.250850  0.749657  1
  Ho  Ho6  1  0.250850  0.250343  0.749150  1
  Ho  Ho7  1  0.250850  0.749150  0.250343  1
  Be  Be8  1  0.000000  0.000000  0.000000  1
  Pd  Pd9  1  0.253617  0.497088  0.002070  1
  Pd  Pd10  1  0.746383  0.502912  0.997930  1
  Pd  Pd11  1  0.002070  0.253617  0.502912  1
  Pd  Pd12  1  0.497088  0.253617  0.997930  1
  Pd  Pd13  1  0.997930  0.746383  0.497088  1
  Pd  Pd14  1  0.502912  0.746383  0.002070  1
  Pd  Pd15  1  0.497088  0.997930  0.253617  1
  Pd  Pd16  1  0.253617  0.002070  0.497088  1
  Pd  Pd17  1  0.502912  0.002070  0.746383  1
  Pd  Pd18  1  0.746383  0.997930  0.502912  1
  Pd  Pd19  1  0.002070  0.502912  0.253617  1
  Pd  Pd20  1  0.997930  0.497088  0.746383  1
  Pd  Pd21  1  0.250701  0.496676  0.496676  1
  Pd  Pd22  1  0.749299  0.503324  0.503324  1
  Pd  Pd23  1  0.496676  0.250701  0.503324  1
  Pd  Pd24  1  0.503324  0.749299  0.496676  1
  Pd  Pd25  1  0.496676  0.503324  0.250701  1
  Pd  Pd26  1  0.503324  0.496676  0.749299  1
  Pd  Pd27  1  0.268040  0.001658  0.001658  1
  Pd  Pd28  1  0.731960  0.998342  0.998342  1
  Pd  Pd29  1  0.001658  0.268040  0.998342  1
  Pd  Pd30  1  0.998342  0.731960  0.001658  1
  Pd  Pd31  1  0.001658  0.998342  0.268040  1
  Pd  Pd32  1  0.998342  0.001658  0.731960  1
