# generated using pymatgen
data_Hf5ZrIn2(Pd2N)2
_symmetry_space_group_name_H-M   'P 1'
_cell_length_a   8.75353466
_cell_length_b   8.73837098
_cell_length_c   8.73837118
_cell_angle_alpha   60.11483734
_cell_angle_beta   59.94257749
_cell_angle_gamma   59.94257754
_symmetry_Int_Tables_number   1
_chemical_formula_structural   Hf5ZrIn2(Pd2N)2
_chemical_formula_sum   'Hf10 Zr2 In4 Pd8 N4'
_cell_volume   472.63597948
_cell_formula_units_Z   2
loop_
 _symmetry_equiv_pos_site_id
 _symmetry_equiv_pos_as_xyz
  1  'x, y, z'
loop_
 _atom_site_type_symbol
 _atom_site_label
 _atom_site_symmetry_multiplicity
 _atom_site_fract_x
 _atom_site_fract_y
 _atom_site_fract_z
 _atom_site_occupancy
  Hf  Hf0  1  0.816268  0.816268  0.183732  1
  Hf  Hf1  1  0.183732  0.183732  0.816268  1
  Hf  Hf2  1  0.816268  0.183732  0.816268  1
  Hf  Hf3  1  0.183732  0.816268  0.183732  1
  Hf  Hf4  1  0.185216  0.814784  0.814784  1
  Hf  Hf5  1  0.814784  0.185216  0.185216  1
  Hf  Hf6  1  0.434550  0.434550  0.065450  1
  Hf  Hf7  1  0.065450  0.065450  0.434550  1
  Hf  Hf8  1  0.434550  0.065450  0.434550  1
  Hf  Hf9  1  0.065450  0.434550  0.065450  1
  Zr  Zr10  1  0.064357  0.435643  0.435643  1
  Zr  Zr11  1  0.435643  0.064357  0.064357  1
  In  In12  1  0.124621  0.624757  0.624757  1
  In  In13  1  0.624757  0.124621  0.625865  1
  In  In14  1  0.624757  0.625865  0.124621  1
  In  In15  1  0.625865  0.624757  0.624757  1
  Pd  Pd16  1  0.778131  0.405939  0.405939  1
  Pd  Pd17  1  0.405939  0.778131  0.409991  1
  Pd  Pd18  1  0.405939  0.409991  0.778131  1
  Pd  Pd19  1  0.409991  0.405939  0.405939  1
  Pd  Pd20  1  0.470127  0.843087  0.843087  1
  Pd  Pd21  1  0.843087  0.470127  0.843699  1
  Pd  Pd22  1  0.843087  0.843699  0.470127  1
  Pd  Pd23  1  0.843699  0.843087  0.843087  1
  N  N24  1  0.627343  0.125674  0.125674  1
  N  N25  1  0.125674  0.627343  0.121308  1
  N  N26  1  0.125674  0.121308  0.627343  1
  N  N27  1  0.121308  0.125674  0.125674  1
