# generated using pymatgen
data_Tb7Er11Sc2(Cd3Ru)2
_symmetry_space_group_name_H-M   'P 1'
_cell_length_a   9.49082997
_cell_length_b   9.48809224
_cell_length_c   9.72399134
_cell_angle_alpha   89.99999845
_cell_angle_beta   90.02221776
_cell_angle_gamma   119.99046058
_symmetry_Int_Tables_number   1
_chemical_formula_structural   Tb7Er11Sc2(Cd3Ru)2
_chemical_formula_sum   'Tb7 Er11 Sc2 Cd6 Ru2'
_cell_volume   758.40289394
_cell_formula_units_Z   1
loop_
 _symmetry_equiv_pos_site_id
 _symmetry_equiv_pos_as_xyz
  1  'x, y, z'
loop_
 _atom_site_type_symbol
 _atom_site_label
 _atom_site_symmetry_multiplicity
 _atom_site_fract_x
 _atom_site_fract_y
 _atom_site_fract_z
 _atom_site_occupancy
  Tb  Tb0  1  0.582768  0.791384  0.059322  1
  Tb  Tb1  1  0.540445  0.459036  0.250363  1
  Tb  Tb2  1  0.540445  0.081410  0.250363  1
  Tb  Tb3  1  0.919354  0.459677  0.250007  1
  Tb  Tb4  1  0.459399  0.540030  0.749526  1
  Tb  Tb5  1  0.459399  0.919369  0.749526  1
  Tb  Tb6  1  0.080975  0.540487  0.749923  1
  Er  Er7  1  0.208684  0.791150  0.440688  1
  Er  Er8  1  0.208684  0.417534  0.440688  1
  Er  Er9  1  0.582513  0.791256  0.441017  1
  Er  Er10  1  0.791209  0.208851  0.559364  1
  Er  Er11  1  0.791209  0.582357  0.559364  1
  Er  Er12  1  0.417596  0.208798  0.559363  1
  Er  Er13  1  0.791404  0.209245  0.940442  1
  Er  Er14  1  0.791404  0.582160  0.940442  1
  Er  Er15  1  0.417772  0.208886  0.940582  1
  Er  Er16  1  0.208304  0.791160  0.059461  1
  Er  Er17  1  0.208304  0.417144  0.059461  1
  Sc  Sc18  1  0.000091  0.000046  0.499929  1
  Sc  Sc19  1  0.000734  0.000367  0.999840  1
  Cd  Cd20  1  0.889329  0.110972  0.250088  1
  Cd  Cd21  1  0.889329  0.778359  0.250088  1
  Cd  Cd22  1  0.221574  0.110788  0.250028  1
  Cd  Cd23  1  0.110745  0.889145  0.749920  1
  Cd  Cd24  1  0.110745  0.221598  0.749920  1
  Cd  Cd25  1  0.778587  0.889293  0.749815  1
  Ru  Ru26  1  0.332394  0.666198  0.250511  1
  Ru  Ru27  1  0.666603  0.333301  0.749958  1
