# generated using pymatgen
data_Nb6ZnRe(Si3Ru2)2
_symmetry_space_group_name_H-M   'P 1'
_cell_length_a   7.48832455
_cell_length_b   7.46131281
_cell_length_c   7.46131265
_cell_angle_alpha   127.21375589
_cell_angle_beta   122.29781929
_cell_angle_gamma   81.92113715
_symmetry_Int_Tables_number   1
_chemical_formula_structural   Nb6ZnRe(Si3Ru2)2
_chemical_formula_sum   'Nb6 Zn1 Re1 Si6 Ru4'
_cell_volume   270.11025873
_cell_formula_units_Z   1
loop_
 _symmetry_equiv_pos_site_id
 _symmetry_equiv_pos_as_xyz
  1  'x, y, z'
loop_
 _atom_site_type_symbol
 _atom_site_label
 _atom_site_symmetry_multiplicity
 _atom_site_fract_x
 _atom_site_fract_y
 _atom_site_fract_z
 _atom_site_occupancy
  Nb  Nb0  1  0.564025  0.092322  0.040173  1
  Nb  Nb1  1  0.435975  0.476148  0.528297  1
  Nb  Nb2  1  0.970395  0.485925  0.031541  1
  Nb  Nb3  1  0.029605  0.061146  0.515530  1
  Nb  Nb4  1  0.749192  0.925232  0.669202  1
  Nb  Nb5  1  0.250808  0.920010  0.176040  1
  Zn  Zn6  1  0.500000  0.258112  0.758112  1
  Re  Re7  1  0.000000  0.252967  0.252967  1
  Si  Si8  1  0.786994  0.558396  0.276123  1
  Si  Si9  1  0.213006  0.489128  0.771401  1
  Si  Si10  1  0.336469  0.821616  0.495102  1
  Si  Si11  1  0.663531  0.158632  0.485147  1
  Si  Si12  1  0.826342  0.816661  0.980345  1
  Si  Si13  1  0.173658  0.154002  0.990319  1
  Ru  Ru14  1  0.163199  0.747066  0.657911  1
  Ru  Ru15  1  0.836801  0.494710  0.583867  1
  Ru  Ru16  1  0.586731  0.740951  0.075905  1
  Ru  Ru17  1  0.413269  0.489172  0.154220  1
