# generated using pymatgen
data_Li3Ti(MnPt2)4
_symmetry_space_group_name_H-M   'P 1'
_cell_length_a   5.76217200
_cell_length_b   6.90927200
_cell_length_c   5.82408900
_cell_angle_alpha   90.00000000
_cell_angle_beta   89.99976263
_cell_angle_gamma   90.00000000
_symmetry_Int_Tables_number   1
_chemical_formula_structural   Li3Ti(MnPt2)4
_chemical_formula_sum   'Li3 Ti1 Mn4 Pt8'
_cell_volume   231.87104045
_cell_formula_units_Z   1
loop_
 _symmetry_equiv_pos_site_id
 _symmetry_equiv_pos_as_xyz
  1  'x, y, z'
loop_
 _atom_site_type_symbol
 _atom_site_label
 _atom_site_symmetry_multiplicity
 _atom_site_fract_x
 _atom_site_fract_y
 _atom_site_fract_z
 _atom_site_occupancy
  Li  Li0  1  0.250002  0.750001  0.999997  1
  Li  Li1  1  0.249998  0.750001  0.499996  1
  Li  Li2  1  0.750001  0.250000  0.500005  1
  Ti  Ti3  1  0.750001  0.250000  0.000005  1
  Mn  Mn4  1  0.250007  0.250000  0.999988  1
  Mn  Mn5  1  0.749992  0.750001  0.999998  1
  Mn  Mn6  1  0.750001  0.750001  0.499999  1
  Mn  Mn7  1  0.249992  0.250000  0.500014  1
  Pt  Pt8  1  0.000167  0.001081  0.251393  1
  Pt  Pt9  1  0.000167  0.498923  0.251393  1
  Pt  Pt10  1  0.499827  0.001075  0.251397  1
  Pt  Pt11  1  0.499827  0.498922  0.251397  1
  Pt  Pt12  1  0.499826  0.001080  0.748603  1
  Pt  Pt13  1  0.499826  0.498924  0.748603  1
  Pt  Pt14  1  0.000181  0.001073  0.748606  1
  Pt  Pt15  1  0.000181  0.498922  0.748606  1
