# generated using pymatgen
data_Tb7DyCd2CoOs
_symmetry_space_group_name_H-M   'P 1'
_cell_length_a   9.72477668
_cell_length_b   9.61900530
_cell_length_c   9.63983117
_cell_angle_alpha   59.22775080
_cell_angle_beta   59.43909113
_cell_angle_gamma   59.38705964
_symmetry_Int_Tables_number   1
_chemical_formula_structural   Tb7DyCd2CoOs
_chemical_formula_sum   'Tb14 Dy2 Cd4 Co2 Os2'
_cell_volume   628.20324198
_cell_formula_units_Z   2
loop_
 _symmetry_equiv_pos_site_id
 _symmetry_equiv_pos_as_xyz
  1  'x, y, z'
loop_
 _atom_site_type_symbol
 _atom_site_label
 _atom_site_symmetry_multiplicity
 _atom_site_fract_x
 _atom_site_fract_y
 _atom_site_fract_z
 _atom_site_occupancy
  Tb  Tb0  1  0.186439  0.813586  0.813977  1
  Tb  Tb1  1  0.065187  0.057159  0.435878  1
  Tb  Tb2  1  0.439013  0.060492  0.060368  1
  Tb  Tb3  1  0.815211  0.189140  0.806110  1
  Tb  Tb4  1  0.439786  0.057101  0.436571  1
  Tb  Tb5  1  0.593534  0.211253  0.602524  1
  Tb  Tb6  1  0.815371  0.805896  0.189150  1
  Tb  Tb7  1  0.212530  0.599761  0.599396  1
  Tb  Tb8  1  0.807214  0.192787  0.192576  1
  Tb  Tb9  1  0.061037  0.438845  0.438543  1
  Tb  Tb10  1  0.189726  0.806205  0.189449  1
  Tb  Tb11  1  0.593276  0.602629  0.211275  1
  Tb  Tb12  1  0.189622  0.189494  0.806394  1
  Tb  Tb13  1  0.065384  0.435936  0.057312  1
  Dy  Dy14  1  0.439737  0.436885  0.057088  1
  Dy  Dy15  1  0.590319  0.598983  0.599223  1
  Cd  Cd16  1  0.830467  0.829079  0.508282  1
  Cd  Cd17  1  0.831025  0.829480  0.829450  1
  Cd  Cd18  1  0.508390  0.829244  0.829505  1
  Cd  Cd19  1  0.830333  0.508269  0.829187  1
  Co  Co20  1  0.388962  0.831430  0.393568  1
  Co  Co21  1  0.389013  0.393508  0.831618  1
  Os  Os22  1  0.389089  0.390916  0.390676  1
  Os  Os23  1  0.829331  0.391919  0.391880  1
