# generated using pymatgen
data_Dy6Ho2B24OsRu3
_symmetry_space_group_name_H-M   'P 1'
_cell_length_a   3.65828300
_cell_length_b   9.14763190
_cell_length_c   11.52108900
_cell_angle_alpha   89.97403457
_cell_angle_beta   90.00000000
_cell_angle_gamma   90.00000000
_symmetry_Int_Tables_number   1
_chemical_formula_structural   Dy6Ho2B24OsRu3
_chemical_formula_sum   'Dy6 Ho2 B24 Os1 Ru3'
_cell_volume   385.54889806
_cell_formula_units_Z   1
loop_
 _symmetry_equiv_pos_site_id
 _symmetry_equiv_pos_as_xyz
  1  'x, y, z'
loop_
 _atom_site_type_symbol
 _atom_site_label
 _atom_site_symmetry_multiplicity
 _atom_site_fract_x
 _atom_site_fract_y
 _atom_site_fract_z
 _atom_site_occupancy
  Dy  Dy0  1  0.000000  0.323013  0.413925  1
  Dy  Dy1  1  0.000000  0.677186  0.585936  1
  Dy  Dy2  1  0.000000  0.822359  0.086279  1
  Dy  Dy3  1  0.000000  0.177123  0.914069  1
  Dy  Dy4  1  0.000000  0.944396  0.372557  1
  Dy  Dy5  1  0.000000  0.056315  0.627956  1
  Ho  Ho6  1  0.000000  0.443596  0.127021  1
  Ho  Ho7  1  0.000000  0.556156  0.872228  1
  B  B8  1  0.500000  0.553929  0.432996  1
  B  B9  1  0.500000  0.445851  0.567204  1
  B  B10  1  0.500000  0.054179  0.067013  1
  B  B11  1  0.500000  0.945692  0.932991  1
  B  B12  1  0.500000  0.747750  0.419719  1
  B  B13  1  0.500000  0.252366  0.580294  1
  B  B14  1  0.500000  0.247853  0.080070  1
  B  B15  1  0.500000  0.751905  0.919812  1
  B  B16  1  0.500000  0.791085  0.266386  1
  B  B17  1  0.500000  0.209166  0.733684  1
  B  B18  1  0.500000  0.291317  0.233339  1
  B  B19  1  0.500000  0.708742  0.766530  1
  B  B20  1  0.500000  0.631710  0.185257  1
  B  B21  1  0.500000  0.368142  0.814820  1
  B  B22  1  0.500000  0.132414  0.314592  1
  B  B23  1  0.500000  0.867790  0.685453  1
  B  B24  1  0.500000  0.983997  0.212799  1
  B  B25  1  0.500000  0.016028  0.787288  1
  B  B26  1  0.500000  0.483400  0.286831  1
  B  B27  1  0.500000  0.516309  0.713090  1
  B  B28  1  0.500000  0.608254  0.029777  1
  B  B29  1  0.500000  0.391385  0.969826  1
  B  B30  1  0.500000  0.109383  0.469973  1
  B  B31  1  0.500000  0.891053  0.530268  1
  Os  Os32  1  0.000000  0.637557  0.321131  1
  Ru  Ru33  1  0.000000  0.362537  0.678834  1
  Ru  Ru34  1  0.000000  0.138176  0.178675  1
  Ru  Ru35  1  0.000000  0.861883  0.821379  1
