# generated using pymatgen
data_Th2Zn3In2Cu5Rh2
_symmetry_space_group_name_H-M   'P 1'
_cell_length_a   5.08972300
_cell_length_b   8.48028124
_cell_length_c   10.96565049
_cell_angle_alpha   89.78335584
_cell_angle_beta   90.00000000
_cell_angle_gamma   90.00000000
_symmetry_Int_Tables_number   1
_chemical_formula_structural   Th2Zn3In2Cu5Rh2
_chemical_formula_sum   'Th4 Zn6 In4 Cu10 Rh4'
_cell_volume   473.29912045
_cell_formula_units_Z   2
loop_
 _symmetry_equiv_pos_site_id
 _symmetry_equiv_pos_as_xyz
  1  'x, y, z'
loop_
 _atom_site_type_symbol
 _atom_site_label
 _atom_site_symmetry_multiplicity
 _atom_site_fract_x
 _atom_site_fract_y
 _atom_site_fract_z
 _atom_site_occupancy
  Th  Th0  1  0.750044  0.233861  0.941126  1
  Th  Th1  1  0.250044  0.766139  0.058874  1
  Th  Th2  1  0.751471  0.737980  0.555827  1
  Th  Th3  1  0.251471  0.262020  0.444173  1
  Zn  Zn4  1  0.997799  0.437966  0.187113  1
  Zn  Zn5  1  0.497799  0.562034  0.812887  1
  Zn  Zn6  1  0.747599  0.187127  0.263344  1
  Zn  Zn7  1  0.247599  0.812873  0.736656  1
  Zn  Zn8  1  0.745930  0.693436  0.238872  1
  Zn  Zn9  1  0.245930  0.306564  0.761128  1
  In  In10  1  0.752584  0.353802  0.642756  1
  In  In11  1  0.252584  0.646198  0.357244  1
  In  In12  1  0.753568  0.857879  0.855325  1
  In  In13  1  0.253568  0.142121  0.144675  1
  Cu  Cu14  1  0.497807  0.937196  0.313550  1
  Cu  Cu15  1  0.997807  0.062804  0.686450  1
  Cu  Cu16  1  0.996469  0.562291  0.812465  1
  Cu  Cu17  1  0.496469  0.437709  0.187535  1
  Cu  Cu18  1  0.501580  0.063010  0.687044  1
  Cu  Cu19  1  0.001580  0.936990  0.312956  1
  Cu  Cu20  1  0.750090  0.078901  0.486402  1
  Cu  Cu21  1  0.250090  0.921099  0.513598  1
  Cu  Cu22  1  0.751166  0.579774  0.012990  1
  Cu  Cu23  1  0.251166  0.420226  0.987010  1
  Rh  Rh24  1  0.753250  0.448608  0.405468  1
  Rh  Rh25  1  0.253250  0.551392  0.594532  1
  Rh  Rh26  1  0.750641  0.948578  0.092770  1
  Rh  Rh27  1  0.250641  0.051422  0.907230  1
