# generated using pymatgen
data_NdU2Cu2S7
_symmetry_space_group_name_H-M   'P 1'
_cell_length_a   9.75377136
_cell_length_b   9.81519727
_cell_length_c   5.73542600
_cell_angle_alpha   89.55979897
_cell_angle_beta   90.42581424
_cell_angle_gamma   120.54407077
_symmetry_Int_Tables_number   1
_chemical_formula_structural   NdU2Cu2S7
_chemical_formula_sum   'Nd2 U4 Cu4 S14'
_cell_volume   472.87272892
_cell_formula_units_Z   2
loop_
 _symmetry_equiv_pos_site_id
 _symmetry_equiv_pos_as_xyz
  1  'x, y, z'
loop_
 _atom_site_type_symbol
 _atom_site_label
 _atom_site_symmetry_multiplicity
 _atom_site_fract_x
 _atom_site_fract_y
 _atom_site_fract_z
 _atom_site_occupancy
  Nd  Nd0  1  0.222999  0.843946  0.032947  1
  Nd  Nd1  1  0.154206  0.379238  0.031087  1
  U  U2  1  0.850801  0.618893  0.535460  1
  U  U3  1  0.618205  0.770930  0.023681  1
  U  U4  1  0.771186  0.151031  0.533681  1
  U  U5  1  0.378403  0.229702  0.534526  1
  Cu  Cu6  1  0.664626  0.335621  0.152939  1
  Cu  Cu7  1  0.334912  0.666755  0.649762  1
  Cu  Cu8  1  0.999628  0.000411  0.499344  1
  Cu  Cu9  1  0.995892  0.997287  0.001461  1
  S  S10  1  0.665565  0.331796  0.754698  1
  S  S11  1  0.567744  0.485757  0.286100  1
  S  S12  1  0.150589  0.894718  0.518197  1
  S  S13  1  0.515932  0.088418  0.295551  1
  S  S14  1  0.445822  0.521499  0.774519  1
  S  S15  1  0.495912  0.917773  0.778653  1
  S  S16  1  0.837344  0.098373  0.017877  1
  S  S17  1  0.075853  0.565534  0.763772  1
  S  S18  1  0.740309  0.847743  0.505590  1
  S  S19  1  0.352695  0.673516  0.256400  1
  S  S20  1  0.914335  0.435056  0.284566  1
  S  S21  1  0.260812  0.152607  0.010120  1
  S  S22  1  0.107827  0.258931  0.519358  1
  S  S23  1  0.878400  0.734462  0.006115  1
