# generated using pymatgen
data_Dy2B8RuRh
_symmetry_space_group_name_H-M   'P 1'
_cell_length_a   3.56818300
_cell_length_b   5.96779190
_cell_length_c   11.55655274
_cell_angle_alpha   90.06292389
_cell_angle_beta   90.00000000
_cell_angle_gamma   90.00000000
_symmetry_Int_Tables_number   1
_chemical_formula_structural   Dy2B8RuRh
_chemical_formula_sum   'Dy4 B16 Ru2 Rh2'
_cell_volume   246.08709196
_cell_formula_units_Z   2
loop_
 _symmetry_equiv_pos_site_id
 _symmetry_equiv_pos_as_xyz
  1  'x, y, z'
loop_
 _atom_site_type_symbol
 _atom_site_label
 _atom_site_symmetry_multiplicity
 _atom_site_fract_x
 _atom_site_fract_y
 _atom_site_fract_z
 _atom_site_occupancy
  Dy  Dy0  1  0.000000  0.130131  0.648522  1
  Dy  Dy1  1  0.000000  0.869869  0.351478  1
  Dy  Dy2  1  0.000000  0.630130  0.849939  1
  Dy  Dy3  1  0.000000  0.369870  0.150061  1
  B  B4  1  0.500000  0.475039  0.691765  1
  B  B5  1  0.500000  0.524961  0.308235  1
  B  B6  1  0.500000  0.977153  0.806948  1
  B  B7  1  0.500000  0.022847  0.193052  1
  B  B8  1  0.500000  0.289184  0.812695  1
  B  B9  1  0.500000  0.710816  0.187305  1
  B  B10  1  0.500000  0.788547  0.686210  1
  B  B11  1  0.500000  0.211453  0.313790  1
  B  B12  1  0.500000  0.363558  0.969998  1
  B  B13  1  0.500000  0.636442  0.030002  1
  B  B14  1  0.500000  0.863757  0.530422  1
  B  B15  1  0.500000  0.136243  0.469578  1
  B  B16  1  0.500000  0.388190  0.546505  1
  B  B17  1  0.500000  0.611810  0.453495  1
  B  B18  1  0.500000  0.887658  0.952793  1
  B  B19  1  0.500000  0.112342  0.047207  1
  Ru  Ru20  1  0.000000  0.640986  0.592612  1
  Ru  Ru21  1  0.000000  0.359014  0.407388  1
  Rh  Rh22  1  0.000000  0.141645  0.905442  1
  Rh  Rh23  1  0.000000  0.858355  0.094558  1
