# generated using pymatgen
data_Mn16Cr4Co(WC3)2
_symmetry_space_group_name_H-M   'P 1'
_cell_length_a   7.41704573
_cell_length_b   7.41536190
_cell_length_c   7.41534497
_cell_angle_alpha   60.21467970
_cell_angle_beta   60.07140332
_cell_angle_gamma   60.07128016
_symmetry_Int_Tables_number   1
_chemical_formula_structural   Mn16Cr4Co(WC3)2
_chemical_formula_sum   'Mn16 Cr4 Co1 W2 C6'
_cell_volume   289.16673462
_cell_formula_units_Z   1
loop_
 _symmetry_equiv_pos_site_id
 _symmetry_equiv_pos_as_xyz
  1  'x, y, z'
loop_
 _atom_site_type_symbol
 _atom_site_label
 _atom_site_symmetry_multiplicity
 _atom_site_fract_x
 _atom_site_fract_y
 _atom_site_fract_z
 _atom_site_occupancy
  Mn  Mn0  1  0.615738  0.615419  0.152594  1
  Mn  Mn1  1  0.615741  0.152596  0.615418  1
  Mn  Mn2  1  0.152683  0.616098  0.616100  1
  Mn  Mn3  1  0.615113  0.615724  0.615725  1
  Mn  Mn4  1  0.383202  0.383679  0.848284  1
  Mn  Mn5  1  0.383203  0.848281  0.383679  1
  Mn  Mn6  1  0.848487  0.383312  0.383312  1
  Mn  Mn7  1  0.385525  0.383552  0.383553  1
  Mn  Mn8  1  0.000904  0.999125  0.335790  1
  Mn  Mn9  1  0.665368  0.999112  0.335245  1
  Mn  Mn10  1  0.998367  0.665993  0.335328  1
  Mn  Mn11  1  0.665368  0.335247  0.999110  1
  Mn  Mn12  1  0.000902  0.335791  0.999125  1
  Mn  Mn13  1  0.998362  0.335332  0.665996  1
  Mn  Mn14  1  0.336048  0.665246  0.999901  1
  Mn  Mn15  1  0.336048  0.999899  0.665248  1
  Cr  Cr16  1  0.332799  0.999945  0.999944  1
  Cr  Cr17  1  0.000792  0.000499  0.664740  1
  Cr  Cr18  1  0.000793  0.664743  0.000497  1
  Cr  Cr19  1  0.664613  0.000927  0.000932  1
  Co  Co20  1  0.999439  0.000378  0.000377  1
  W  W21  1  0.750410  0.749443  0.749441  1
  W  W22  1  0.250657  0.249975  0.249977  1
  C  C23  1  0.721292  0.722431  0.280469  1
  C  C24  1  0.275304  0.720589  0.279019  1
  C  C25  1  0.725651  0.274581  0.274580  1
  C  C26  1  0.275305  0.279020  0.720589  1
  C  C27  1  0.721291  0.280469  0.722433  1
  C  C28  1  0.280597  0.722594  0.722594  1
