# generated using pymatgen
data_Tm4BeSi6Ir
_symmetry_space_group_name_H-M   'P 1'
_cell_length_a   7.99360300
_cell_length_b   7.99360252
_cell_length_c   8.01365100
_cell_angle_alpha   90.00000000
_cell_angle_beta   90.00000000
_cell_angle_gamma   119.99999785
_symmetry_Int_Tables_number   1
_chemical_formula_structural   Tm4BeSi6Ir
_chemical_formula_sum   'Tm8 Be2 Si12 Ir2'
_cell_volume   443.45156345
_cell_formula_units_Z   2
loop_
 _symmetry_equiv_pos_site_id
 _symmetry_equiv_pos_as_xyz
  1  'x, y, z'
loop_
 _atom_site_type_symbol
 _atom_site_label
 _atom_site_symmetry_multiplicity
 _atom_site_fract_x
 _atom_site_fract_y
 _atom_site_fract_z
 _atom_site_occupancy
  Tm  Tm0  1  0.995935  0.497968  0.246122  1
  Tm  Tm1  1  0.502032  0.497968  0.246122  1
  Tm  Tm2  1  0.497968  0.995935  0.753878  1
  Tm  Tm3  1  0.004065  0.502032  0.753878  1
  Tm  Tm4  1  0.497968  0.502032  0.753878  1
  Tm  Tm5  1  0.502032  0.004065  0.246122  1
  Tm  Tm6  1  0.000000  0.000000  0.746829  1
  Tm  Tm7  1  0.000000  0.000000  0.253171  1
  Be  Be8  1  0.666667  0.333333  0.509053  1
  Be  Be9  1  0.333333  0.666667  0.490947  1
  Si  Si10  1  0.172670  0.827330  0.501101  1
  Si  Si11  1  0.172670  0.345338  0.501101  1
  Si  Si12  1  0.654662  0.827330  0.501101  1
  Si  Si13  1  0.332567  0.166284  0.996405  1
  Si  Si14  1  0.827330  0.654662  0.498899  1
  Si  Si15  1  0.833716  0.166284  0.996405  1
  Si  Si16  1  0.833716  0.667433  0.996405  1
  Si  Si17  1  0.166284  0.332567  0.003595  1
  Si  Si18  1  0.667433  0.833716  0.003595  1
  Si  Si19  1  0.345338  0.172670  0.498899  1
  Si  Si20  1  0.827330  0.172670  0.498899  1
  Si  Si21  1  0.166284  0.833716  0.003595  1
  Ir  Ir22  1  0.333333  0.666667  0.003059  1
  Ir  Ir23  1  0.666667  0.333333  0.996941  1
