# generated using pymatgen
data_Er2Tm14MgIn3Ni4
_symmetry_space_group_name_H-M   'P 1'
_cell_length_a   9.49730589
_cell_length_b   9.44677902
_cell_length_c   9.46530100
_cell_angle_alpha   59.93512398
_cell_angle_beta   60.11141614
_cell_angle_gamma   60.03611036
_symmetry_Int_Tables_number   1
_chemical_formula_structural   Er2Tm14MgIn3Ni4
_chemical_formula_sum   'Er2 Tm14 Mg1 In3 Ni4'
_cell_volume   600.85916250
_cell_formula_units_Z   1
loop_
 _symmetry_equiv_pos_site_id
 _symmetry_equiv_pos_as_xyz
  1  'x, y, z'
loop_
 _atom_site_type_symbol
 _atom_site_label
 _atom_site_symmetry_multiplicity
 _atom_site_fract_x
 _atom_site_fract_y
 _atom_site_fract_z
 _atom_site_occupancy
  Er  Er0  1  0.435680  0.436527  0.063897  1
  Er  Er1  1  0.061789  0.061525  0.438343  1
  Tm  Tm2  1  0.187266  0.813931  0.813830  1
  Tm  Tm3  1  0.813498  0.186883  0.186702  1
  Tm  Tm4  1  0.813498  0.186883  0.812916  1
  Tm  Tm5  1  0.187266  0.813931  0.184974  1
  Tm  Tm6  1  0.814010  0.813821  0.186084  1
  Tm  Tm7  1  0.187373  0.187083  0.812773  1
  Tm  Tm8  1  0.596393  0.595636  0.596782  1
  Tm  Tm9  1  0.596393  0.595636  0.211188  1
  Tm  Tm10  1  0.598591  0.208521  0.596443  1
  Tm  Tm11  1  0.202536  0.599478  0.598993  1
  Tm  Tm12  1  0.060352  0.440057  0.438676  1
  Tm  Tm13  1  0.436227  0.063210  0.062924  1
  Tm  Tm14  1  0.436227  0.063210  0.437639  1
  Tm  Tm15  1  0.060352  0.440057  0.060915  1
  Mg  Mg16  1  0.518884  0.827040  0.827038  1
  In  In17  1  0.832684  0.833350  0.833282  1
  In  In18  1  0.832684  0.833350  0.500684  1
  In  In19  1  0.832342  0.501881  0.832889  1
  Ni  Ni20  1  0.390932  0.391675  0.395267  1
  Ni  Ni21  1  0.390932  0.391675  0.822126  1
  Ni  Ni22  1  0.389592  0.822487  0.393960  1
  Ni  Ni23  1  0.824498  0.392155  0.391673  1
