# generated using pymatgen
data_Li8Pr7ErBi8
_symmetry_space_group_name_H-M   'P 1'
_cell_length_a   9.87718600
_cell_length_b   9.87718551
_cell_length_c   7.42337800
_cell_angle_alpha   90.00000000
_cell_angle_beta   90.00000000
_cell_angle_gamma   119.99999496
_symmetry_Int_Tables_number   1
_chemical_formula_structural   Li8Pr7ErBi8
_chemical_formula_sum   'Li8 Pr7 Er1 Bi8'
_cell_volume   627.18934512
_cell_formula_units_Z   1
loop_
 _symmetry_equiv_pos_site_id
 _symmetry_equiv_pos_as_xyz
  1  'x, y, z'
loop_
 _atom_site_type_symbol
 _atom_site_label
 _atom_site_symmetry_multiplicity
 _atom_site_fract_x
 _atom_site_fract_y
 _atom_site_fract_z
 _atom_site_occupancy
  Li  Li0  1  0.166772  0.833228  0.289178  1
  Li  Li1  1  0.666456  0.833228  0.289178  1
  Li  Li2  1  0.166772  0.333544  0.289178  1
  Li  Li3  1  0.834335  0.165665  0.800646  1
  Li  Li4  1  0.331332  0.165665  0.800646  1
  Li  Li5  1  0.834335  0.668668  0.800646  1
  Li  Li6  1  0.333333  0.666667  0.693884  1
  Li  Li7  1  0.666667  0.333333  0.200292  1
  Pr  Pr8  1  0.511427  0.488573  0.508389  1
  Pr  Pr9  1  0.977148  0.488573  0.508389  1
  Pr  Pr10  1  0.511427  0.022852  0.508389  1
  Pr  Pr11  1  0.489356  0.510644  0.008360  1
  Pr  Pr12  1  0.021289  0.510644  0.008360  1
  Pr  Pr13  1  0.489356  0.978711  0.008360  1
  Pr  Pr14  1  0.000000  0.000000  0.517726  1
  Er  Er15  1  0.000000  0.000000  0.018122  1
  Bi  Bi16  1  0.165553  0.834447  0.754951  1
  Bi  Bi17  1  0.668895  0.834447  0.754951  1
  Bi  Bi18  1  0.165553  0.331105  0.754951  1
  Bi  Bi19  1  0.835610  0.164390  0.244425  1
  Bi  Bi20  1  0.328780  0.164390  0.244425  1
  Bi  Bi21  1  0.835610  0.671220  0.244425  1
  Bi  Bi22  1  0.333333  0.666667  0.281326  1
  Bi  Bi23  1  0.666667  0.333333  0.780788  1
