# generated using pymatgen
data_Tb2PaIn3Ir2Rh
_symmetry_space_group_name_H-M   'P 1'
_cell_length_a   7.62102385
_cell_length_b   7.85898250
_cell_length_c   3.80956300
_cell_angle_alpha   90.00000000
_cell_angle_beta   90.00000000
_cell_angle_gamma   121.03837630
_symmetry_Int_Tables_number   1
_chemical_formula_structural   Tb2PaIn3Ir2Rh
_chemical_formula_sum   'Tb2 Pa1 In3 Ir2 Rh1'
_cell_volume   195.49942390
_cell_formula_units_Z   1
loop_
 _symmetry_equiv_pos_site_id
 _symmetry_equiv_pos_as_xyz
  1  'x, y, z'
loop_
 _atom_site_type_symbol
 _atom_site_label
 _atom_site_symmetry_multiplicity
 _atom_site_fract_x
 _atom_site_fract_y
 _atom_site_fract_z
 _atom_site_occupancy
  Tb  Tb0  1  0.405389  0.406262  0.500000  1
  Tb  Tb1  1  0.594611  0.000873  0.500000  1
  Pa  Pa2  1  0.000000  0.580588  0.500000  1
  In  In3  1  0.731631  0.742409  0.000000  1
  In  In4  1  0.000000  0.242511  0.000000  1
  In  In5  1  0.268369  0.010778  0.000000  1
  Ir  Ir6  1  0.299496  0.663462  0.000000  1
  Ir  Ir7  1  0.700504  0.363966  0.000000  1
  Rh  Rh8  1  0.000000  0.989151  0.500000  1
