# generated using pymatgen
data_Tb4CdPd4Au
_symmetry_space_group_name_H-M   'P 1'
_cell_length_a   3.75413400
_cell_length_b   7.67427000
_cell_length_c   7.67427000
_cell_angle_alpha   90.00000000
_cell_angle_beta   90.00000000
_cell_angle_gamma   90.00000000
_symmetry_Int_Tables_number   1
_chemical_formula_structural   Tb4CdPd4Au
_chemical_formula_sum   'Tb4 Cd1 Pd4 Au1'
_cell_volume   221.09754466
_cell_formula_units_Z   1
loop_
 _symmetry_equiv_pos_site_id
 _symmetry_equiv_pos_as_xyz
  1  'x, y, z'
loop_
 _atom_site_type_symbol
 _atom_site_label
 _atom_site_symmetry_multiplicity
 _atom_site_fract_x
 _atom_site_fract_y
 _atom_site_fract_z
 _atom_site_occupancy
  Tb  Tb0  1  0.500000  0.153302  0.690691  1
  Tb  Tb1  1  0.500000  0.846698  0.309309  1
  Tb  Tb2  1  0.500000  0.309309  0.153302  1
  Tb  Tb3  1  0.500000  0.690691  0.846698  1
  Cd  Cd4  1  0.000000  0.500000  0.500000  1
  Pd  Pd5  1  0.000000  0.618437  0.140452  1
  Pd  Pd6  1  0.000000  0.381563  0.859548  1
  Pd  Pd7  1  0.000000  0.859548  0.618437  1
  Pd  Pd8  1  0.000000  0.140452  0.381563  1
  Au  Au9  1  0.000000  0.000000  0.000000  1
