# generated using pymatgen
data_K2AcI5
_symmetry_space_group_name_H-M   'P 1'
_cell_length_a   9.43781100
_cell_length_b   10.15735700
_cell_length_c   14.87255100
_cell_angle_alpha   90.00000000
_cell_angle_beta   90.00000000
_cell_angle_gamma   90.00000000
_symmetry_Int_Tables_number   1
_chemical_formula_structural   K2AcI5
_chemical_formula_sum   'K8 Ac4 I20'
_cell_volume   1425.73056341
_cell_formula_units_Z   4
loop_
 _symmetry_equiv_pos_site_id
 _symmetry_equiv_pos_as_xyz
  1  'x, y, z'
loop_
 _atom_site_type_symbol
 _atom_site_label
 _atom_site_symmetry_multiplicity
 _atom_site_fract_x
 _atom_site_fract_y
 _atom_site_fract_z
 _atom_site_occupancy
  K  K0  1  0.948679  0.002729  0.827033  1
  K  K1  1  0.051321  0.997271  0.172967  1
  K  K2  1  0.448679  0.997271  0.672967  1
  K  K3  1  0.051321  0.502729  0.172967  1
  K  K4  1  0.551321  0.002729  0.327033  1
  K  K5  1  0.948679  0.497271  0.827033  1
  K  K6  1  0.551321  0.497271  0.327033  1
  K  K7  1  0.448679  0.502729  0.672967  1
  Ac  Ac8  1  0.920538  0.750000  0.506141  1
  Ac  Ac9  1  0.079462  0.250000  0.493859  1
  Ac  Ac10  1  0.420538  0.250000  0.993859  1
  Ac  Ac11  1  0.579462  0.750000  0.006141  1
  I  I12  1  0.132652  0.750000  0.684721  1
  I  I13  1  0.867348  0.250000  0.315279  1
  I  I14  1  0.632652  0.250000  0.815279  1
  I  I15  1  0.367348  0.750000  0.184721  1
  I  I16  1  0.829308  0.047005  0.581619  1
  I  I17  1  0.170692  0.952995  0.418381  1
  I  I18  1  0.329308  0.952995  0.918381  1
  I  I19  1  0.170692  0.547005  0.418381  1
  I  I20  1  0.670692  0.047005  0.081619  1
  I  I21  1  0.829308  0.452995  0.581619  1
  I  I22  1  0.670692  0.452995  0.081619  1
  I  I23  1  0.329308  0.547005  0.918381  1
  I  I24  1  0.565446  0.750000  0.506412  1
  I  I25  1  0.434554  0.250000  0.493588  1
  I  I26  1  0.065446  0.250000  0.993588  1
  I  I27  1  0.934554  0.750000  0.006412  1
  I  I28  1  0.667281  0.750000  0.789249  1
  I  I29  1  0.332719  0.250000  0.210751  1
  I  I30  1  0.167281  0.250000  0.710751  1
  I  I31  1  0.832719  0.750000  0.289249  1
