# generated using pymatgen
data_Tb5Ho2Cd(Co3Sn11)2
_symmetry_space_group_name_H-M   'P 1'
_cell_length_a   9.69187105
_cell_length_b   9.69234202
_cell_length_c   10.02637207
_cell_angle_alpha   89.99999898
_cell_angle_beta   90.01170418
_cell_angle_gamma   120.00160682
_symmetry_Int_Tables_number   1
_chemical_formula_structural   Tb5Ho2Cd(Co3Sn11)2
_chemical_formula_sum   'Tb5 Ho2 Cd1 Co6 Sn22'
_cell_volume   815.64985444
_cell_formula_units_Z   1
loop_
 _symmetry_equiv_pos_site_id
 _symmetry_equiv_pos_as_xyz
  1  'x, y, z'
loop_
 _atom_site_type_symbol
 _atom_site_label
 _atom_site_symmetry_multiplicity
 _atom_site_fract_x
 _atom_site_fract_y
 _atom_site_fract_z
 _atom_site_occupancy
  Tb  Tb0  1  0.999987  0.999993  0.000041  1
  Tb  Tb1  1  0.521082  0.478913  0.693653  1
  Tb  Tb2  1  0.521082  0.042168  0.693653  1
  Tb  Tb3  1  0.957822  0.478911  0.693743  1
  Tb  Tb4  1  0.042167  0.521084  0.306228  1
  Ho  Ho5  1  0.479005  0.958045  0.306275  1
  Ho  Ho6  1  0.479005  0.520961  0.306275  1
  Cd  Cd7  1  0.999985  0.999993  0.499965  1
  Co  Co8  1  0.167936  0.832064  0.803221  1
  Co  Co9  1  0.167936  0.335873  0.803221  1
  Co  Co10  1  0.664152  0.832076  0.803210  1
  Co  Co11  1  0.336030  0.168015  0.196934  1
  Co  Co12  1  0.831863  0.664080  0.196871  1
  Co  Co13  1  0.831863  0.167783  0.196871  1
  Sn  Sn14  1  0.666510  0.333254  0.181446  1
  Sn  Sn15  1  0.666651  0.333325  0.881344  1
  Sn  Sn16  1  0.333731  0.666866  0.119142  1
  Sn  Sn17  1  0.346220  0.346134  0.000125  1
  Sn  Sn18  1  0.999967  0.653849  0.000012  1
  Sn  Sn19  1  0.653810  0.999995  0.000097  1
  Sn  Sn20  1  0.653810  0.653815  0.000097  1
  Sn  Sn21  1  0.333351  0.666676  0.818577  1
  Sn  Sn22  1  0.435244  0.217622  0.452655  1
  Sn  Sn23  1  0.217753  0.782514  0.546847  1
  Sn  Sn24  1  0.217753  0.435239  0.546847  1
  Sn  Sn25  1  0.564719  0.782359  0.546695  1
  Sn  Sn26  1  0.116735  0.883704  0.271129  1
  Sn  Sn27  1  0.782087  0.564753  0.452840  1
  Sn  Sn28  1  0.782087  0.217334  0.452840  1
  Sn  Sn29  1  0.346220  0.000087  0.000125  1
  Sn  Sn30  1  0.116735  0.233031  0.271129  1
  Sn  Sn31  1  0.766745  0.883373  0.271162  1
  Sn  Sn32  1  0.232874  0.116437  0.728909  1
  Sn  Sn33  1  0.883559  0.767136  0.728904  1
  Sn  Sn34  1  0.883559  0.116424  0.728904  1
  Sn  Sn35  1  0.999967  0.346117  0.000012  1
