# generated using pymatgen
data_Nd12Gd8Si15Sb
_symmetry_space_group_name_H-M   'P 1'
_cell_length_a   7.81582189
_cell_length_b   7.79213089
_cell_length_c   15.02876000
_cell_angle_alpha   90.14287689
_cell_angle_beta   89.72983181
_cell_angle_gamma   90.06337232
_symmetry_Int_Tables_number   1
_chemical_formula_structural   Nd12Gd8Si15Sb
_chemical_formula_sum   'Nd12 Gd8 Si15 Sb1'
_cell_volume   915.26657776
_cell_formula_units_Z   1
loop_
 _symmetry_equiv_pos_site_id
 _symmetry_equiv_pos_as_xyz
  1  'x, y, z'
loop_
 _atom_site_type_symbol
 _atom_site_label
 _atom_site_symmetry_multiplicity
 _atom_site_fract_x
 _atom_site_fract_y
 _atom_site_fract_z
 _atom_site_occupancy
  Nd  Nd0  1  0.989237  0.629508  0.046723  1
  Nd  Nd1  1  0.010595  0.366184  0.552093  1
  Nd  Nd2  1  0.629597  0.990096  0.951725  1
  Nd  Nd3  1  0.130301  0.512446  0.796983  1
  Nd  Nd4  1  0.860988  0.482217  0.291220  1
  Nd  Nd5  1  0.509831  0.126505  0.199829  1
  Nd  Nd6  1  0.491195  0.872018  0.705264  1
  Nd  Nd7  1  0.375159  0.011428  0.450700  1
  Nd  Nd8  1  0.675173  0.689889  0.502536  1
  Nd  Nd9  1  0.813304  0.187173  0.750879  1
  Nd  Nd10  1  0.188524  0.814022  0.242870  1
  Nd  Nd11  1  0.312548  0.314363  0.000270  1
  Gd  Gd12  1  0.372407  0.481380  0.375256  1
  Gd  Gd13  1  0.855864  0.024668  0.368843  1
  Gd  Gd14  1  0.984230  0.132662  0.124717  1
  Gd  Gd15  1  0.017307  0.867426  0.629441  1
  Gd  Gd16  1  0.634597  0.514107  0.876328  1
  Gd  Gd17  1  0.489339  0.361820  0.626855  1
  Gd  Gd18  1  0.513790  0.634785  0.123198  1
  Gd  Gd19  1  0.134063  0.986136  0.874574  1
  Si  Si20  1  0.925733  0.287134  0.941002  1
  Si  Si21  1  0.718129  0.073061  0.559305  1
  Si  Si22  1  0.213204  0.425735  0.191756  1
  Si  Si23  1  0.790936  0.573875  0.691304  1
  Si  Si24  1  0.426341  0.214697  0.810325  1
  Si  Si25  1  0.570282  0.786452  0.308898  1
  Si  Si26  1  0.287942  0.927247  0.056329  1
  Si  Si27  1  0.838902  0.799818  0.804344  1
  Si  Si28  1  0.162830  0.199195  0.303181  1
  Si  Si29  1  0.800162  0.835853  0.195121  1
  Si  Si30  1  0.309566  0.657919  0.565753  1
  Si  Si31  1  0.701302  0.339568  0.054394  1
  Si  Si32  1  0.664514  0.304221  0.449534  1
  Si  Si33  1  0.339522  0.700825  0.944518  1
  Si  Si34  1  0.199693  0.162944  0.698415  1
  Sb  Sb35  1  0.062890  0.712620  0.435515  1
