# generated using pymatgen
data_Sr9AcLa2(Si7Br3)2
_symmetry_space_group_name_H-M   'P 1'
_cell_length_a   4.24072500
_cell_length_b   12.08144400
_cell_length_c   17.49320300
_cell_angle_alpha   90.00000000
_cell_angle_beta   90.00000000
_cell_angle_gamma   90.00000000
_symmetry_Int_Tables_number   1
_chemical_formula_structural   Sr9AcLa2(Si7Br3)2
_chemical_formula_sum   'Sr9 Ac1 La2 Si14 Br6'
_cell_volume   896.24819007
_cell_formula_units_Z   1
loop_
 _symmetry_equiv_pos_site_id
 _symmetry_equiv_pos_as_xyz
  1  'x, y, z'
loop_
 _atom_site_type_symbol
 _atom_site_label
 _atom_site_symmetry_multiplicity
 _atom_site_fract_x
 _atom_site_fract_y
 _atom_site_fract_z
 _atom_site_occupancy
  Sr  Sr0  1  0.000000  0.671084  0.000000  1
  Sr  Sr1  1  0.500000  0.348562  0.753454  1
  Sr  Sr2  1  0.000000  0.651119  0.746692  1
  Sr  Sr3  1  0.500000  0.348562  0.246546  1
  Sr  Sr4  1  0.000000  0.651119  0.253308  1
  Sr  Sr5  1  0.500000  0.054827  0.876922  1
  Sr  Sr6  1  0.000000  0.941744  0.624148  1
  Sr  Sr7  1  0.500000  0.054827  0.123078  1
  Sr  Sr8  1  0.000000  0.941744  0.375852  1
  Ac  Ac9  1  0.500000  0.336708  0.500000  1
  La  La10  1  0.500000  0.362385  0.000000  1
  La  La11  1  0.000000  0.642525  0.500000  1
  Si  Si12  1  0.000000  0.165700  0.000000  1
  Si  Si13  1  0.500000  0.834729  0.500000  1
  Si  Si14  1  0.500000  0.555781  0.875650  1
  Si  Si15  1  0.000000  0.441912  0.623388  1
  Si  Si16  1  0.500000  0.555781  0.124350  1
  Si  Si17  1  0.000000  0.441912  0.376612  1
  Si  Si18  1  0.000000  0.259288  0.881808  1
  Si  Si19  1  0.500000  0.739131  0.618894  1
  Si  Si20  1  0.000000  0.259288  0.118192  1
  Si  Si21  1  0.500000  0.739131  0.381106  1
  Si  Si22  1  0.000000  0.457469  0.880372  1
  Si  Si23  1  0.500000  0.542396  0.618685  1
  Si  Si24  1  0.500000  0.542396  0.381315  1
  Si  Si25  1  0.000000  0.457469  0.119628  1
  Br  Br26  1  0.500000  0.107872  0.690859  1
  Br  Br27  1  0.000000  0.893429  0.807423  1
  Br  Br28  1  0.000000  0.137582  0.500000  1
  Br  Br29  1  0.500000  0.862230  0.000000  1
  Br  Br30  1  0.500000  0.107872  0.309141  1
  Br  Br31  1  0.000000  0.893429  0.192577  1
