# generated using pymatgen
data_Ti2SiPtRh4
_symmetry_space_group_name_H-M   'P 1'
_cell_length_a   3.97627600
_cell_length_b   5.43307672
_cell_length_c   10.57544304
_cell_angle_alpha   90.86332132
_cell_angle_beta   90.00000000
_cell_angle_gamma   90.00000000
_symmetry_Int_Tables_number   1
_chemical_formula_structural   Ti2SiPtRh4
_chemical_formula_sum   'Ti4 Si2 Pt2 Rh8'
_cell_volume   228.43972436
_cell_formula_units_Z   2
loop_
 _symmetry_equiv_pos_site_id
 _symmetry_equiv_pos_as_xyz
  1  'x, y, z'
loop_
 _atom_site_type_symbol
 _atom_site_label
 _atom_site_symmetry_multiplicity
 _atom_site_fract_x
 _atom_site_fract_y
 _atom_site_fract_z
 _atom_site_occupancy
  Ti  Ti0  1  0.500000  0.335880  0.139743  1
  Ti  Ti1  1  0.500000  0.664120  0.860257  1
  Ti  Ti2  1  0.500000  0.820347  0.361148  1
  Ti  Ti3  1  0.500000  0.179653  0.638852  1
  Si  Si4  1  0.000000  0.000000  0.000000  1
  Si  Si5  1  0.000000  0.500000  0.500000  1
  Pt  Pt6  1  0.000000  0.075875  0.240461  1
  Pt  Pt7  1  0.000000  0.924125  0.759539  1
  Rh  Rh8  1  0.000000  0.000000  0.500000  1
  Rh  Rh9  1  0.000000  0.500000  0.000000  1
  Rh  Rh10  1  0.000000  0.576689  0.260783  1
  Rh  Rh11  1  0.000000  0.423311  0.739217  1
  Rh  Rh12  1  0.500000  0.314646  0.394661  1
  Rh  Rh13  1  0.500000  0.685354  0.605339  1
  Rh  Rh14  1  0.500000  0.816701  0.104066  1
  Rh  Rh15  1  0.500000  0.183299  0.895934  1
