# generated using pymatgen
data_AgS23
_symmetry_space_group_name_H-M   'P 1'
_cell_length_a   5.51784902
_cell_length_b   9.64772952
_cell_length_c   15.45065100
_cell_angle_alpha   89.51739091
_cell_angle_beta   84.84501947
_cell_angle_gamma   90.86978670
_symmetry_Int_Tables_number   1
_chemical_formula_structural   AgS23
_chemical_formula_sum   'Ag1 S23'
_cell_volume   819.05024749
_cell_formula_units_Z   1
loop_
 _symmetry_equiv_pos_site_id
 _symmetry_equiv_pos_as_xyz
  1  'x, y, z'
loop_
 _atom_site_type_symbol
 _atom_site_label
 _atom_site_symmetry_multiplicity
 _atom_site_fract_x
 _atom_site_fract_y
 _atom_site_fract_z
 _atom_site_occupancy
  Ag  Ag0  1  0.477481  0.297422  0.425292  1
  S  S1  1  0.522937  0.795563  0.391535  1
  S  S2  1  0.996705  0.299487  0.109371  1
  S  S3  1  0.758287  0.191461  0.510851  1
  S  S4  1  0.301213  0.758809  0.504957  1
  S  S5  1  0.195630  0.258287  0.993264  1
  S  S6  1  0.795797  0.739068  0.007619  1
  S  S7  1  0.228408  0.384319  0.321548  1
  S  S8  1  0.679954  0.611291  0.350535  1
  S  S9  1  0.795816  0.124489  0.149713  1
  S  S10  1  0.204775  0.871715  0.132456  1
  S  S11  1  0.704844  0.626750  0.632323  1
  S  S12  1  0.328030  0.347868  0.640364  1
  S  S13  1  0.203047  0.876019  0.856729  1
  S  S14  1  0.790635  0.126133  0.867454  1
  S  S15  1  0.000720  0.696476  0.109779  1
  S  S16  1  0.503939  0.798888  0.608089  1
  S  S17  1  0.554724  0.178482  0.626790  1
  S  S18  1  0.001423  0.699309  0.892367  1
  S  S19  1  0.989396  0.302356  0.891636  1
  S  S20  1  0.468018  0.523072  0.260665  1
  S  S21  1  0.006581  0.996893  0.219366  1
  S  S22  1  0.491052  0.493837  0.714176  1
  S  S23  1  0.000589  0.002007  0.783121  1
