# generated using pymatgen
data_Tm3Be2Ni7
_symmetry_space_group_name_H-M   'P 1'
_cell_length_a   5.00058202
_cell_length_b   5.00983095
_cell_length_c   15.12935700
_cell_angle_alpha   90.00000000
_cell_angle_beta   90.00000000
_cell_angle_gamma   119.92429314
_symmetry_Int_Tables_number   1
_chemical_formula_structural   Tm3Be2Ni7
_chemical_formula_sum   'Tm6 Be4 Ni14'
_cell_volume   328.49255823
_cell_formula_units_Z   2
loop_
 _symmetry_equiv_pos_site_id
 _symmetry_equiv_pos_as_xyz
  1  'x, y, z'
loop_
 _atom_site_type_symbol
 _atom_site_label
 _atom_site_symmetry_multiplicity
 _atom_site_fract_x
 _atom_site_fract_y
 _atom_site_fract_z
 _atom_site_occupancy
  Tm  Tm0  1  0.666540  0.333047  0.039535  1
  Tm  Tm1  1  0.333460  0.666953  0.960465  1
  Tm  Tm2  1  0.333460  0.666953  0.539535  1
  Tm  Tm3  1  0.666540  0.333047  0.460465  1
  Tm  Tm4  1  0.666668  0.333398  0.250000  1
  Tm  Tm5  1  0.333332  0.666602  0.750000  1
  Be  Be6  1  0.666517  0.332918  0.750000  1
  Be  Be7  1  0.333483  0.667082  0.250000  1
  Be  Be8  1  0.000280  0.000520  0.750000  1
  Be  Be9  1  0.999720  0.999480  0.250000  1
  Ni  Ni10  1  0.833867  0.667671  0.636690  1
  Ni  Ni11  1  0.833738  0.166157  0.636582  1
  Ni  Ni12  1  0.332552  0.166169  0.636545  1
  Ni  Ni13  1  0.166133  0.332329  0.363310  1
  Ni  Ni14  1  0.166262  0.833843  0.363418  1
  Ni  Ni15  1  0.667448  0.833831  0.363455  1
  Ni  Ni16  1  0.166133  0.332329  0.136690  1
  Ni  Ni17  1  0.166262  0.833843  0.136582  1
  Ni  Ni18  1  0.667448  0.833831  0.136545  1
  Ni  Ni19  1  0.833867  0.667671  0.863310  1
  Ni  Ni20  1  0.833738  0.166157  0.863418  1
  Ni  Ni21  1  0.332552  0.166169  0.863455  1
  Ni  Ni22  1  0.000000  0.000000  0.500000  1
  Ni  Ni23  1  0.000000  0.000000  0.000000  1
