# generated using pymatgen
data_Dy5Ho11(ErBi3)4
_symmetry_space_group_name_H-M   'P 1'
_cell_length_a   8.24082378
_cell_length_b   9.50685416
_cell_length_c   12.00922201
_cell_angle_alpha   89.99248721
_cell_angle_beta   90.02346838
_cell_angle_gamma   90.00811685
_symmetry_Int_Tables_number   1
_chemical_formula_structural   Dy5Ho11(ErBi3)4
_chemical_formula_sum   'Dy5 Ho11 Er4 Bi12'
_cell_volume   940.85411408
_cell_formula_units_Z   1
loop_
 _symmetry_equiv_pos_site_id
 _symmetry_equiv_pos_as_xyz
  1  'x, y, z'
loop_
 _atom_site_type_symbol
 _atom_site_label
 _atom_site_symmetry_multiplicity
 _atom_site_fract_x
 _atom_site_fract_y
 _atom_site_fract_z
 _atom_site_occupancy
  Dy  Dy0  1  0.192288  0.563939  0.440959  1
  Dy  Dy1  1  0.312728  0.250001  0.218409  1
  Dy  Dy2  1  0.812870  0.250007  0.281583  1
  Dy  Dy3  1  0.687270  0.750040  0.781663  1
  Dy  Dy4  1  0.187490  0.750169  0.718566  1
  Ho  Ho5  1  0.353177  0.750331  0.216381  1
  Ho  Ho6  1  0.852558  0.750246  0.283359  1
  Ho  Ho7  1  0.647224  0.250082  0.783475  1
  Ho  Ho8  1  0.147310  0.250233  0.716532  1
  Ho  Ho9  1  0.692519  0.564849  0.059040  1
  Ho  Ho10  1  0.192536  0.935029  0.440832  1
  Ho  Ho11  1  0.307408  0.064813  0.940992  1
  Ho  Ho12  1  0.807631  0.435061  0.559040  1
  Ho  Ho13  1  0.307520  0.435165  0.940910  1
  Ho  Ho14  1  0.807152  0.064771  0.559214  1
  Ho  Ho15  1  0.692543  0.935188  0.059011  1
  Er  Er16  1  0.475896  0.250050  0.488445  1
  Er  Er17  1  0.975845  0.250130  0.011478  1
  Er  Er18  1  0.524387  0.750096  0.511613  1
  Er  Er19  1  0.024164  0.750018  0.988394  1
  Bi  Bi20  1  0.405950  0.749976  0.957838  1
  Bi  Bi21  1  0.905755  0.750302  0.542245  1
  Bi  Bi22  1  0.594063  0.250021  0.042087  1
  Bi  Bi23  1  0.093674  0.248717  0.458111  1
  Bi  Bi24  1  0.565469  0.995255  0.325830  1
  Bi  Bi25  1  0.065327  0.505005  0.173955  1
  Bi  Bi26  1  0.434552  0.495174  0.674248  1
  Bi  Bi27  1  0.934516  0.005054  0.825907  1
  Bi  Bi28  1  0.434581  0.005027  0.674169  1
  Bi  Bi29  1  0.934423  0.495133  0.825917  1
  Bi  Bi30  1  0.565756  0.504974  0.325769  1
  Bi  Bi31  1  0.065423  0.995141  0.174027  1
