# generated using pymatgen
data_CePr7Zn8(Ir3Rh)2
_symmetry_space_group_name_H-M   'P 1'
_cell_length_a   4.05132200
_cell_length_b   7.35410928
_cell_length_c   16.66109013
_cell_angle_alpha   89.60301285
_cell_angle_beta   90.00000000
_cell_angle_gamma   90.00000000
_symmetry_Int_Tables_number   1
_chemical_formula_structural   CePr7Zn8(Ir3Rh)2
_chemical_formula_sum   'Ce1 Pr7 Zn8 Ir6 Rh2'
_cell_volume   496.38635002
_cell_formula_units_Z   1
loop_
 _symmetry_equiv_pos_site_id
 _symmetry_equiv_pos_as_xyz
  1  'x, y, z'
loop_
 _atom_site_type_symbol
 _atom_site_label
 _atom_site_symmetry_multiplicity
 _atom_site_fract_x
 _atom_site_fract_y
 _atom_site_fract_z
 _atom_site_occupancy
  Ce  Ce0  1  0.750000  0.449063  0.216029  1
  Pr  Pr1  1  0.750000  0.952155  0.281920  1
  Pr  Pr2  1  0.750000  0.828472  0.061144  1
  Pr  Pr3  1  0.250000  0.048227  0.717245  1
  Pr  Pr4  1  0.250000  0.167847  0.941007  1
  Pr  Pr5  1  0.250000  0.546349  0.783524  1
  Pr  Pr6  1  0.750000  0.333377  0.438875  1
  Pr  Pr7  1  0.250000  0.668024  0.560338  1
  Zn  Zn8  1  0.250000  0.002397  0.438818  1
  Zn  Zn9  1  0.750000  0.501266  0.940270  1
  Zn  Zn10  1  0.750000  0.003881  0.560069  1
  Zn  Zn11  1  0.250000  0.625549  0.349636  1
  Zn  Zn12  1  0.750000  0.374457  0.650236  1
  Zn  Zn13  1  0.750000  0.877448  0.850479  1
  Zn  Zn14  1  0.250000  0.497831  0.059800  1
  Zn  Zn15  1  0.250000  0.124854  0.151317  1
  Ir  Ir16  1  0.250000  0.243740  0.564563  1
  Ir  Ir17  1  0.750000  0.262175  0.069979  1
  Ir  Ir18  1  0.250000  0.257341  0.305415  1
  Ir  Ir19  1  0.750000  0.254541  0.814122  1
  Ir  Ir20  1  0.250000  0.744215  0.934853  1
  Ir  Ir21  1  0.250000  0.720526  0.189697  1
  Rh  Rh22  1  0.750000  0.753731  0.685671  1
  Rh  Rh23  1  0.750000  0.762534  0.434993  1
