# generated using pymatgen
data_RbInGa4(HgSe3)4
_symmetry_space_group_name_H-M   'P 1'
_cell_length_a   9.10920037
_cell_length_b   9.16323822
_cell_length_c   9.36292560
_cell_angle_alpha   107.59807845
_cell_angle_beta   107.45530224
_cell_angle_gamma   107.53614496
_symmetry_Int_Tables_number   1
_chemical_formula_structural   RbInGa4(HgSe3)4
_chemical_formula_sum   'Rb1 In1 Ga4 Hg4 Se12'
_cell_volume   641.21789779
_cell_formula_units_Z   1
loop_
 _symmetry_equiv_pos_site_id
 _symmetry_equiv_pos_as_xyz
  1  'x, y, z'
loop_
 _atom_site_type_symbol
 _atom_site_label
 _atom_site_symmetry_multiplicity
 _atom_site_fract_x
 _atom_site_fract_y
 _atom_site_fract_z
 _atom_site_occupancy
  Rb  Rb0  1  0.998119  0.998283  0.997168  1
  In  In1  1  0.484625  0.334170  0.941077  1
  Ga  Ga2  1  0.943253  0.490783  0.346012  1
  Ga  Ga3  1  0.326670  0.929098  0.474912  1
  Ga  Ga4  1  0.014211  0.183732  0.550374  1
  Ga  Ga5  1  0.560300  0.024901  0.188943  1
  Hg  Hg6  1  0.632568  0.709007  0.398834  1
  Hg  Hg7  1  0.401184  0.640089  0.715806  1
  Hg  Hg8  1  0.710420  0.389787  0.629096  1
  Hg  Hg9  1  0.190495  0.564371  0.018623  1
  Se  Se10  1  0.783481  0.936510  0.291187  1
  Se  Se11  1  0.306610  0.813851  0.936954  1
  Se  Se12  1  0.925960  0.270777  0.766900  1
  Se  Se13  1  0.064451  0.694528  0.242855  1
  Se  Se14  1  0.218851  0.069615  0.670594  1
  Se  Se15  1  0.709737  0.231657  0.093365  1
  Se  Se16  1  0.367399  0.419713  0.158613  1
  Se  Se17  1  0.142822  0.370810  0.438868  1
  Se  Se18  1  0.426388  0.132976  0.362686  1
  Se  Se19  1  0.881035  0.638105  0.563556  1
  Se  Se20  1  0.555762  0.882523  0.633336  1
  Se  Se21  1  0.650300  0.569356  0.874878  1
