# generated using pymatgen
data_YbHo5Rh18
_symmetry_space_group_name_H-M   'P 1'
_cell_length_a   5.26221800
_cell_length_b   5.26221673
_cell_length_c   17.53032000
_cell_angle_alpha   90.00000000
_cell_angle_beta   90.00000000
_cell_angle_gamma   120.00000799
_symmetry_Int_Tables_number   1
_chemical_formula_structural   YbHo5Rh18
_chemical_formula_sum   'Yb1 Ho5 Rh18'
_cell_volume   420.39545026
_cell_formula_units_Z   1
loop_
 _symmetry_equiv_pos_site_id
 _symmetry_equiv_pos_as_xyz
  1  'x, y, z'
loop_
 _atom_site_type_symbol
 _atom_site_label
 _atom_site_symmetry_multiplicity
 _atom_site_fract_x
 _atom_site_fract_y
 _atom_site_fract_z
 _atom_site_occupancy
  Yb  Yb0  1  0.666667  0.333333  0.250000  1
  Ho  Ho1  1  0.333333  0.666667  0.541233  1
  Ho  Ho2  1  0.666667  0.333333  0.043634  1
  Ho  Ho3  1  0.666667  0.333333  0.456366  1
  Ho  Ho4  1  0.333333  0.666667  0.958767  1
  Ho  Ho5  1  0.333333  0.666667  0.750000  1
  Rh  Rh6  1  0.167170  0.334340  0.125548  1
  Rh  Rh7  1  0.832660  0.665322  0.625441  1
  Rh  Rh8  1  0.665660  0.832830  0.125548  1
  Rh  Rh9  1  0.167170  0.832830  0.125548  1
  Rh  Rh10  1  0.832660  0.167340  0.625441  1
  Rh  Rh11  1  0.334678  0.167340  0.625441  1
  Rh  Rh12  1  0.832660  0.665322  0.874559  1
  Rh  Rh13  1  0.832660  0.167340  0.874559  1
  Rh  Rh14  1  0.334678  0.167340  0.874559  1
  Rh  Rh15  1  0.665660  0.832830  0.374452  1
  Rh  Rh16  1  0.167170  0.832830  0.374452  1
  Rh  Rh17  1  0.167170  0.334340  0.374452  1
  Rh  Rh18  1  0.000000  0.000000  0.250000  1
  Rh  Rh19  1  0.000000  0.000000  0.750000  1
  Rh  Rh20  1  0.333333  0.666667  0.250000  1
  Rh  Rh21  1  0.666667  0.333333  0.750000  1
  Rh  Rh22  1  0.000000  0.000000  0.999746  1
  Rh  Rh23  1  0.000000  0.000000  0.500254  1
