# generated using pymatgen
data_Ba8NpU3N12
_symmetry_space_group_name_H-M   'P 1'
_cell_length_a   7.58602201
_cell_length_b   7.58602246
_cell_length_c   12.19674000
_cell_angle_alpha   89.99897399
_cell_angle_beta   90.00102503
_cell_angle_gamma   131.73557498
_symmetry_Int_Tables_number   1
_chemical_formula_structural   Ba8NpU3N12
_chemical_formula_sum   'Ba8 Np1 U3 N12'
_cell_volume   523.77140048
_cell_formula_units_Z   1
loop_
 _symmetry_equiv_pos_site_id
 _symmetry_equiv_pos_as_xyz
  1  'x, y, z'
loop_
 _atom_site_type_symbol
 _atom_site_label
 _atom_site_symmetry_multiplicity
 _atom_site_fract_x
 _atom_site_fract_y
 _atom_site_fract_z
 _atom_site_occupancy
  Ba  Ba0  1  0.902890  0.097110  0.371922  1
  Ba  Ba1  1  0.403085  0.596915  0.128979  1
  Ba  Ba2  1  0.597790  0.402210  0.868644  1
  Ba  Ba3  1  0.097200  0.902800  0.630256  1
  Ba  Ba4  1  0.401104  0.598896  0.630978  1
  Ba  Ba5  1  0.598849  0.401151  0.371236  1
  Ba  Ba6  1  0.098635  0.901365  0.129730  1
  Ba  Ba7  1  0.900471  0.099529  0.867929  1
  Np  Np8  1  0.748811  0.251189  0.625879  1
  U  U9  1  0.751159  0.248841  0.127076  1
  U  U10  1  0.251172  0.748828  0.373869  1
  U  U11  1  0.248828  0.751172  0.872468  1
  N  N12  1  0.997982  0.501542  0.749766  1
  N  N13  1  0.501320  0.997740  0.250834  1
  N  N14  1  0.002260  0.498680  0.250834  1
  N  N15  1  0.498458  0.002018  0.749766  1
  N  N16  1  0.392125  0.607875  0.883861  1
  N  N17  1  0.608068  0.391932  0.116005  1
  N  N18  1  0.107982  0.892018  0.384392  1
  N  N19  1  0.605861  0.394139  0.614547  1
  N  N20  1  0.105633  0.894367  0.885021  1
  N  N21  1  0.894173  0.105827  0.114843  1
  N  N22  1  0.394287  0.605713  0.385538  1
  N  N23  1  0.891857  0.108143  0.615628  1
