# generated using pymatgen
data_Ti6Tc5MoP6
_symmetry_space_group_name_H-M   'P 1'
_cell_length_a   7.38556559
_cell_length_b   7.37474208
_cell_length_c   7.37474160
_cell_angle_alpha   127.14783120
_cell_angle_beta   125.31072400
_cell_angle_gamma   79.48665950
_symmetry_Int_Tables_number   1
_chemical_formula_structural   Ti6Tc5MoP6
_chemical_formula_sum   'Ti6 Tc5 Mo1 P6'
_cell_volume   252.55387781
_cell_formula_units_Z   1
loop_
 _symmetry_equiv_pos_site_id
 _symmetry_equiv_pos_as_xyz
  1  'x, y, z'
loop_
 _atom_site_type_symbol
 _atom_site_label
 _atom_site_symmetry_multiplicity
 _atom_site_fract_x
 _atom_site_fract_y
 _atom_site_fract_z
 _atom_site_occupancy
  Ti  Ti0  1  0.461044  0.250331  0.291100  1
  Ti  Ti1  1  0.538956  0.830056  0.789287  1
  Ti  Ti2  1  0.744711  0.651326  0.404668  1
  Ti  Ti3  1  0.255289  0.659957  0.906614  1
  Ti  Ti4  1  0.055139  0.843925  0.290180  1
  Ti  Ti5  1  0.944861  0.235041  0.788786  1
  Tc  Tc6  1  0.658305  0.502549  0.904544  1
  Tc  Tc7  1  0.341695  0.246240  0.844246  1
  Tc  Tc8  1  0.901214  0.245265  0.401286  1
  Tc  Tc9  1  0.098786  0.500072  0.344052  1
  Tc  Tc10  1  0.000000  0.992101  0.992101  1
  Mo  Mo11  1  0.500000  0.992619  0.492619  1
  P  P12  1  0.834843  0.576130  0.746822  1
  P  P13  1  0.165157  0.911976  0.741286  1
  P  P14  1  0.671019  0.911681  0.245415  1
  P  P15  1  0.328981  0.574394  0.240662  1
  P  P16  1  0.272207  0.280496  0.508445  1
  P  P17  1  0.727793  0.236238  0.008290  1
