# generated using pymatgen
data_LuIO4
_symmetry_space_group_name_H-M   'P 1'
_cell_length_a   4.94925132
_cell_length_b   4.94925224
_cell_length_c   7.06851300
_cell_angle_alpha   90.00000000
_cell_angle_beta   90.00000000
_cell_angle_gamma   93.68424674
_symmetry_Int_Tables_number   1
_chemical_formula_structural   LuIO4
_chemical_formula_sum   'Lu2 I2 O8'
_cell_volume   172.78605207
_cell_formula_units_Z   2
loop_
 _symmetry_equiv_pos_site_id
 _symmetry_equiv_pos_as_xyz
  1  'x, y, z'
loop_
 _atom_site_type_symbol
 _atom_site_label
 _atom_site_symmetry_multiplicity
 _atom_site_fract_x
 _atom_site_fract_y
 _atom_site_fract_z
 _atom_site_occupancy
  Lu  Lu0  1  0.000000  0.000000  0.000000  1
  Lu  Lu1  1  0.000000  0.000000  0.500000  1
  I  I2  1  0.471801  0.528199  0.750000  1
  I  I3  1  0.528199  0.471801  0.250000  1
  O  O4  1  0.306243  0.693757  0.951742  1
  O  O5  1  0.306243  0.693757  0.548258  1
  O  O6  1  0.693757  0.306243  0.048258  1
  O  O7  1  0.693757  0.306243  0.451742  1
  O  O8  1  0.834068  0.767814  0.250000  1
  O  O9  1  0.232186  0.165932  0.250000  1
  O  O10  1  0.767814  0.834068  0.750000  1
  O  O11  1  0.165932  0.232186  0.750000  1
