# generated using pymatgen
data_La16Cd4Co2CuTc
_symmetry_space_group_name_H-M   'P 1'
_cell_length_a   10.13287253
_cell_length_b   10.01609936
_cell_length_c   10.01954604
_cell_angle_alpha   60.01137117
_cell_angle_beta   59.92049365
_cell_angle_gamma   60.38048936
_symmetry_Int_Tables_number   1
_chemical_formula_structural   La16Cd4Co2CuTc
_chemical_formula_sum   'La16 Cd4 Co2 Cu1 Tc1'
_cell_volume   720.72880583
_cell_formula_units_Z   1
loop_
 _symmetry_equiv_pos_site_id
 _symmetry_equiv_pos_as_xyz
  1  'x, y, z'
loop_
 _atom_site_type_symbol
 _atom_site_label
 _atom_site_symmetry_multiplicity
 _atom_site_fract_x
 _atom_site_fract_y
 _atom_site_fract_z
 _atom_site_occupancy
  La  La0  1  0.934660  0.945185  0.560504  1
  La  La1  1  0.560306  0.938451  0.562793  1
  La  La2  1  0.559487  0.937726  0.941401  1
  La  La3  1  0.682449  0.693283  0.312258  1
  La  La4  1  0.161654  0.152329  0.533685  1
  La  La5  1  0.303888  0.706699  0.680665  1
  La  La6  1  0.153049  0.146846  0.160527  1
  La  La7  1  0.545270  0.147390  0.159948  1
  La  La8  1  0.308281  0.690069  0.311580  1
  La  La9  1  0.303888  0.308748  0.680665  1
  La  La10  1  0.699081  0.310784  0.679351  1
  La  La11  1  0.934660  0.559651  0.560504  1
  La  La12  1  0.559487  0.561387  0.941401  1
  La  La13  1  0.153049  0.539576  0.160527  1
  La  La14  1  0.682449  0.312011  0.312258  1
  La  La15  1  0.935960  0.558677  0.946685  1
  Cd  Cd16  1  0.237750  0.920856  0.920536  1
  Cd  Cd17  1  0.922410  0.921354  0.920846  1
  Cd  Cd18  1  0.921480  0.920201  0.238118  1
  Cd  Cd19  1  0.922410  0.235390  0.920846  1
  Co  Co20  1  0.370945  0.919428  0.353732  1
  Co  Co21  1  0.370945  0.355893  0.353732  1
  Cu  Cu22  1  0.361743  0.357792  0.922672  1
  Tc  Tc23  1  0.914693  0.360272  0.364761  1
