# generated using pymatgen
data_Sc20Zn5Ni2Ag
_symmetry_space_group_name_H-M   'P 1'
_cell_length_a   8.87378000
_cell_length_b   8.85811459
_cell_length_c   8.79871200
_cell_angle_alpha   90.00000000
_cell_angle_beta   90.00000000
_cell_angle_gamma   119.94160897
_symmetry_Int_Tables_number   1
_chemical_formula_structural   Sc20Zn5Ni2Ag
_chemical_formula_sum   'Sc20 Zn5 Ni2 Ag1'
_cell_volume   599.31468343
_cell_formula_units_Z   1
loop_
 _symmetry_equiv_pos_site_id
 _symmetry_equiv_pos_as_xyz
  1  'x, y, z'
loop_
 _atom_site_type_symbol
 _atom_site_label
 _atom_site_symmetry_multiplicity
 _atom_site_fract_x
 _atom_site_fract_y
 _atom_site_fract_z
 _atom_site_occupancy
  Sc  Sc0  1  0.002012  0.001006  0.496358  1
  Sc  Sc1  1  0.002012  0.001006  0.003642  1
  Sc  Sc2  1  0.542530  0.457295  0.250000  1
  Sc  Sc3  1  0.542530  0.085233  0.250000  1
  Sc  Sc4  1  0.912649  0.456325  0.250000  1
  Sc  Sc5  1  0.455931  0.542691  0.750000  1
  Sc  Sc6  1  0.455931  0.913241  0.750000  1
  Sc  Sc7  1  0.084756  0.542378  0.750000  1
  Sc  Sc8  1  0.207681  0.792018  0.438506  1
  Sc  Sc9  1  0.207681  0.415663  0.438506  1
  Sc  Sc10  1  0.584912  0.792457  0.436841  1
  Sc  Sc11  1  0.791382  0.207166  0.560361  1
  Sc  Sc12  1  0.791382  0.584216  0.560361  1
  Sc  Sc13  1  0.416430  0.208214  0.561105  1
  Sc  Sc14  1  0.791382  0.207166  0.939639  1
  Sc  Sc15  1  0.791382  0.584216  0.939639  1
  Sc  Sc16  1  0.416430  0.208214  0.938895  1
  Sc  Sc17  1  0.207681  0.792018  0.061494  1
  Sc  Sc18  1  0.207681  0.415663  0.061494  1
  Sc  Sc19  1  0.584912  0.792457  0.063159  1
  Zn  Zn20  1  0.883881  0.115741  0.250000  1
  Zn  Zn21  1  0.883881  0.768141  0.250000  1
  Zn  Zn22  1  0.233587  0.116794  0.250000  1
  Zn  Zn23  1  0.114522  0.885823  0.750000  1
  Zn  Zn24  1  0.114522  0.228697  0.750000  1
  Ni  Ni25  1  0.333467  0.666734  0.250000  1
  Ni  Ni26  1  0.666980  0.333490  0.750000  1
  Ag  Ag27  1  0.771873  0.885936  0.750000  1
