# generated using pymatgen
data_Ba6Fe2(WO6)3
_symmetry_space_group_name_H-M   'P 1'
_cell_length_a   5.80248529
_cell_length_b   5.80248426
_cell_length_c   14.62283913
_cell_angle_alpha   89.99999975
_cell_angle_beta   78.55630962
_cell_angle_gamma   120.00002144
_symmetry_Int_Tables_number   1
_chemical_formula_structural   Ba6Fe2(WO6)3
_chemical_formula_sum   'Ba6 Fe2 W3 O18'
_cell_volume   415.03343581
_cell_formula_units_Z   1
loop_
 _symmetry_equiv_pos_site_id
 _symmetry_equiv_pos_as_xyz
  1  'x, y, z'
loop_
 _atom_site_type_symbol
 _atom_site_label
 _atom_site_symmetry_multiplicity
 _atom_site_fract_x
 _atom_site_fract_y
 _atom_site_fract_z
 _atom_site_occupancy
  Ba  Ba0  1  0.276484  0.638242  0.085275  1
  Ba  Ba1  1  0.830234  0.915116  0.254650  1
  Ba  Ba2  1  0.376331  0.188166  0.435503  1
  Ba  Ba3  1  0.623668  0.811833  0.564498  1
  Ba  Ba4  1  0.169766  0.084884  0.745350  1
  Ba  Ba5  1  0.723516  0.361758  0.914725  1
  Fe  Fe6  1  0.549950  0.274974  0.175075  1
  Fe  Fe7  1  0.450050  0.725026  0.824924  1
  W  W8  1  0.000000  0.000000  0.000000  1
  W  W9  1  0.107555  0.553778  0.338667  1
  W  W10  1  0.892445  0.446222  0.661333  1
  O  O11  1  0.268318  0.134159  0.079326  1
  O  O12  1  0.786514  0.134160  0.079326  1
  O  O13  1  0.786515  0.652356  0.079326  1
  O  O14  1  0.331116  0.421723  0.247162  1
  O  O15  1  0.843447  0.421724  0.247162  1
  O  O16  1  0.331114  0.909391  0.247162  1
  O  O17  1  0.902900  0.211325  0.405525  1
  O  O18  1  0.902900  0.691574  0.405525  1
  O  O19  1  0.383149  0.691575  0.405525  1
  O  O20  1  0.097101  0.308424  0.594475  1
  O  O21  1  0.616851  0.308425  0.594475  1
  O  O22  1  0.097101  0.788674  0.594475  1
  O  O23  1  0.668884  0.090609  0.752838  1
  O  O24  1  0.156554  0.578275  0.752838  1
  O  O25  1  0.668885  0.578276  0.752838  1
  O  O26  1  0.213484  0.347643  0.920674  1
  O  O27  1  0.213484  0.865841  0.920674  1
  O  O28  1  0.731682  0.865841  0.920674  1
