# generated using pymatgen
data_Rb(SnO2)6
_symmetry_space_group_name_H-M   'P 1'
_cell_length_a   9.78506886
_cell_length_b   11.23021420
_cell_length_c   9.15148695
_cell_angle_alpha   67.03308302
_cell_angle_beta   57.68367107
_cell_angle_gamma   43.45299552
_symmetry_Int_Tables_number   1
_chemical_formula_structural   Rb(SnO2)6
_chemical_formula_sum   'Rb2 Sn12 O24'
_cell_volume   584.50757598
_cell_formula_units_Z   2
loop_
 _symmetry_equiv_pos_site_id
 _symmetry_equiv_pos_as_xyz
  1  'x, y, z'
loop_
 _atom_site_type_symbol
 _atom_site_label
 _atom_site_symmetry_multiplicity
 _atom_site_fract_x
 _atom_site_fract_y
 _atom_site_fract_z
 _atom_site_occupancy
  Rb  Rb0  1  0.220696  0.998536  0.999313  1
  Rb  Rb1  1  0.781936  0.001520  0.000831  1
  Sn  Sn2  1  0.006446  0.484085  0.183692  1
  Sn  Sn3  1  0.257193  0.184981  0.513984  1
  Sn  Sn4  1  0.336292  0.488112  0.184828  1
  Sn  Sn5  1  0.078398  0.815530  0.486818  1
  Sn  Sn6  1  0.589135  0.184239  0.517473  1
  Sn  Sn7  1  0.333242  0.513403  0.815323  1
  Sn  Sn8  1  0.670120  0.486656  0.184842  1
  Sn  Sn9  1  0.413976  0.815773  0.482570  1
  Sn  Sn10  1  0.924660  0.184446  0.513443  1
  Sn  Sn11  1  0.667481  0.511815  0.815065  1
  Sn  Sn12  1  0.746212  0.814993  0.485674  1
  Sn  Sn13  1  0.996996  0.515895  0.816270  1
  O  O14  1  0.003967  0.364870  0.051867  1
  O  O15  1  0.142432  0.050265  0.634965  1
  O  O16  1  0.063014  0.298253  0.380612  1
  O  O17  1  0.001051  0.624926  0.291952  1
  O  O18  1  0.339855  0.364409  0.052640  1
  O  O19  1  0.473481  0.050642  0.636241  1
  O  O20  1  0.399463  0.296015  0.378007  1
  O  O21  1  0.332960  0.379552  0.704551  1
  O  O22  1  0.334330  0.625916  0.292423  1
  O  O23  1  0.672260  0.363336  0.052743  1
  O  O24  1  0.269938  0.705183  0.622355  1
  O  O25  1  0.194436  0.949081  0.363604  1
  O  O26  1  0.808503  0.050934  0.636655  1
  O  O27  1  0.732919  0.295064  0.378040  1
  O  O28  1  0.331491  0.636599  0.947220  1
  O  O29  1  0.669064  0.374091  0.707721  1
  O  O30  1  0.670382  0.620452  0.295553  1
  O  O31  1  0.604136  0.703820  0.621706  1
  O  O32  1  0.529769  0.949305  0.363541  1
  O  O33  1  0.663631  0.635619  0.947351  1
  O  O34  1  0.002548  0.375145  0.707701  1
  O  O35  1  0.940346  0.701608  0.619231  1
  O  O36  1  0.860830  0.949789  0.365036  1
  O  O37  1  0.999415  0.635138  0.948157  1
