# generated using pymatgen
data_Na2TcH9
_symmetry_space_group_name_H-M   'P 1'
_cell_length_a   8.70751558
_cell_length_b   8.70751442
_cell_length_c   5.12869800
_cell_angle_alpha   90.00000000
_cell_angle_beta   90.00000000
_cell_angle_gamma   120.19944579
_symmetry_Int_Tables_number   1
_chemical_formula_structural   Na2TcH9
_chemical_formula_sum   'Na6 Tc3 H27'
_cell_volume   336.08558493
_cell_formula_units_Z   3
loop_
 _symmetry_equiv_pos_site_id
 _symmetry_equiv_pos_as_xyz
  1  'x, y, z'
loop_
 _atom_site_type_symbol
 _atom_site_label
 _atom_site_symmetry_multiplicity
 _atom_site_fract_x
 _atom_site_fract_y
 _atom_site_fract_z
 _atom_site_occupancy
  Na  Na0  1  0.407919  0.407919  0.000000  1
  Na  Na1  1  0.262891  0.000041  0.500000  1
  Na  Na2  1  0.000041  0.262891  0.500000  1
  Na  Na3  1  0.735858  0.735858  0.500000  1
  Na  Na4  1  0.594582  0.000539  0.000000  1
  Na  Na5  1  0.000539  0.594582  0.000000  1
  Tc  Tc6  1  0.997229  0.997229  0.000000  1
  Tc  Tc7  1  0.333104  0.668938  0.500000  1
  Tc  Tc8  1  0.668938  0.333104  0.500000  1
  H  H9  1  0.857161  0.997328  0.227722  1
  H  H10  1  0.997328  0.857161  0.227722  1
  H  H11  1  0.857161  0.997328  0.772278  1
  H  H12  1  0.997328  0.857161  0.772278  1
  H  H13  1  0.134780  0.134780  0.232411  1
  H  H14  1  0.134780  0.134780  0.767589  1
  H  H15  1  0.190094  0.001001  0.000000  1
  H  H16  1  0.001001  0.190094  0.000000  1
  H  H17  1  0.805983  0.805983  0.000000  1
  H  H18  1  0.210725  0.521713  0.263748  1
  H  H19  1  0.480759  0.696773  0.263508  1
  H  H20  1  0.210725  0.521713  0.736252  1
  H  H21  1  0.521713  0.210725  0.736252  1
  H  H22  1  0.307631  0.789600  0.263534  1
  H  H23  1  0.480759  0.696773  0.736492  1
  H  H24  1  0.696773  0.480759  0.736492  1
  H  H25  1  0.521713  0.210725  0.263748  1
  H  H26  1  0.307631  0.789600  0.736466  1
  H  H27  1  0.696773  0.480759  0.263508  1
  H  H28  1  0.789600  0.307631  0.736466  1
  H  H29  1  0.789600  0.307631  0.263534  1
  H  H30  1  0.367893  0.498386  0.500000  1
  H  H31  1  0.502120  0.875478  0.500000  1
  H  H32  1  0.498386  0.367893  0.500000  1
  H  H33  1  0.128717  0.636289  0.500000  1
  H  H34  1  0.875478  0.502120  0.500000  1
  H  H35  1  0.636289  0.128717  0.500000  1
