# generated using pymatgen
data_Dy5Ho3Ti12Si15Ge
_symmetry_space_group_name_H-M   'P 1'
_cell_length_a   7.06490980
_cell_length_b   7.05616934
_cell_length_c   12.96531515
_cell_angle_alpha   90.00013024
_cell_angle_beta   89.91985107
_cell_angle_gamma   89.99824035
_symmetry_Int_Tables_number   1
_chemical_formula_structural   Dy5Ho3Ti12Si15Ge
_chemical_formula_sum   'Dy5 Ho3 Ti12 Si15 Ge1'
_cell_volume   646.33588447
_cell_formula_units_Z   1
loop_
 _symmetry_equiv_pos_site_id
 _symmetry_equiv_pos_as_xyz
  1  'x, y, z'
loop_
 _atom_site_type_symbol
 _atom_site_label
 _atom_site_symmetry_multiplicity
 _atom_site_fract_x
 _atom_site_fract_y
 _atom_site_fract_z
 _atom_site_occupancy
  Dy  Dy0  1  0.341333  0.001834  0.465624  1
  Dy  Dy1  1  0.498622  0.840108  0.717110  1
  Dy  Dy2  1  0.502636  0.159414  0.216709  1
  Dy  Dy3  1  0.840763  0.497168  0.283160  1
  Dy  Dy4  1  0.159339  0.503235  0.783773  1
  Ho  Ho5  1  0.660121  0.996925  0.967186  1
  Ho  Ho6  1  0.000233  0.342483  0.532195  1
  Ho  Ho7  1  0.997809  0.659222  0.033510  1
  Ti  Ti8  1  0.326214  0.326460  0.000197  1
  Ti  Ti9  1  0.173559  0.826317  0.249924  1
  Ti  Ti10  1  0.823274  0.174196  0.750555  1
  Ti  Ti11  1  0.673551  0.673453  0.499966  1
  Ti  Ti12  1  0.152028  0.008727  0.877568  1
  Ti  Ti13  1  0.491782  0.651528  0.126296  1
  Ti  Ti14  1  0.510238  0.349253  0.626599  1
  Ti  Ti15  1  0.652601  0.492416  0.874237  1
  Ti  Ti16  1  0.347817  0.508715  0.373469  1
  Ti  Ti17  1  0.848089  0.991924  0.376211  1
  Ti  Ti18  1  0.008536  0.151446  0.123685  1
  Ti  Ti19  1  0.988928  0.845305  0.622573  1
  Si  Si20  1  0.369562  0.703090  0.934554  1
  Si  Si21  1  0.630049  0.297322  0.434310  1
  Si  Si22  1  0.703211  0.369536  0.065868  1
  Si  Si23  1  0.297254  0.630074  0.565676  1
  Si  Si24  1  0.797507  0.869368  0.184075  1
  Si  Si25  1  0.130198  0.202534  0.315832  1
  Si  Si26  1  0.869950  0.798022  0.816032  1
  Si  Si27  1  0.291143  0.952127  0.065216  1
  Si  Si28  1  0.548078  0.790399  0.314541  1
  Si  Si29  1  0.455689  0.209659  0.816771  1
  Si  Si30  1  0.791357  0.547092  0.685381  1
  Si  Si31  1  0.209044  0.452660  0.185114  1
  Si  Si32  1  0.709061  0.048053  0.564833  1
  Si  Si33  1  0.952273  0.291025  0.935288  1
  Si  Si34  1  0.047751  0.709432  0.434751  1
  Ge  Ge35  1  0.200398  0.129475  0.681213  1
