# generated using pymatgen
data_SmZr4BiF22
_symmetry_space_group_name_H-M   'P 1'
_cell_length_a   8.45401830
_cell_length_b   8.45401878
_cell_length_c   8.45401790
_cell_angle_alpha   124.49027181
_cell_angle_beta   106.37929722
_cell_angle_gamma   98.72771212
_symmetry_Int_Tables_number   1
_chemical_formula_structural   SmZr4BiF22
_chemical_formula_sum   'Sm1 Zr4 Bi1 F22'
_cell_volume   439.18217274
_cell_formula_units_Z   1
loop_
 _symmetry_equiv_pos_site_id
 _symmetry_equiv_pos_as_xyz
  1  'x, y, z'
loop_
 _atom_site_type_symbol
 _atom_site_label
 _atom_site_symmetry_multiplicity
 _atom_site_fract_x
 _atom_site_fract_y
 _atom_site_fract_z
 _atom_site_occupancy
  Sm  Sm0  1  0.750000  0.250000  0.500000  1
  Zr  Zr1  1  0.181343  0.135190  0.316352  1
  Zr  Zr2  1  0.818839  0.864991  0.683648  1
  Zr  Zr3  1  0.681161  0.364810  0.046152  1
  Zr  Zr4  1  0.318657  0.635009  0.953848  1
  Bi  Bi5  1  0.250000  0.750000  0.500000  1
  F  F6  1  0.206872  0.397268  0.341786  1
  F  F7  1  0.792915  0.601276  0.656756  1
  F  F8  1  0.055482  0.865087  0.658214  1
  F  F9  1  0.444518  0.102732  0.809605  1
  F  F10  1  0.944520  0.136158  0.343244  1
  F  F11  1  0.555480  0.898724  0.191638  1
  F  F12  1  0.293128  0.634913  0.190395  1
  F  F13  1  0.707085  0.363842  0.808362  1
  F  F14  1  0.000023  0.000023  0.000000  1
  F  F15  1  0.499977  0.499977  0.000000  1
  F  F16  1  0.281295  0.370669  0.651974  1
  F  F17  1  0.718694  0.629321  0.348026  1
  F  F18  1  0.781306  0.129331  0.910628  1
  F  F19  1  0.218705  0.870679  0.089372  1
  F  F20  1  0.455725  0.238774  0.418730  1
  F  F21  1  0.545247  0.760363  0.581308  1
  F  F22  1  0.820044  0.036995  0.581270  1
  F  F23  1  0.679956  0.261226  0.216951  1
  F  F24  1  0.179055  0.963939  0.418692  1
  F  F25  1  0.320945  0.739637  0.784884  1
  F  F26  1  0.044275  0.463005  0.783049  1
  F  F27  1  0.954753  0.536061  0.215116  1
