# generated using pymatgen
data_Ta3Si4Ni8W9C2
_symmetry_space_group_name_H-M   'P 1'
_cell_length_a   7.78092053
_cell_length_b   7.78091978
_cell_length_c   7.78016202
_cell_angle_alpha   59.99678092
_cell_angle_beta   59.99678407
_cell_angle_gamma   59.99999340
_symmetry_Int_Tables_number   1
_chemical_formula_structural   Ta3Si4Ni8W9C2
_chemical_formula_sum   'Ta3 Si4 Ni8 W9 C2'
_cell_volume   333.05381812
_cell_formula_units_Z   1
loop_
 _symmetry_equiv_pos_site_id
 _symmetry_equiv_pos_as_xyz
  1  'x, y, z'
loop_
 _atom_site_type_symbol
 _atom_site_label
 _atom_site_symmetry_multiplicity
 _atom_site_fract_x
 _atom_site_fract_y
 _atom_site_fract_z
 _atom_site_occupancy
  Ta  Ta0  1  0.053327  0.053327  0.444269  1
  Ta  Ta1  1  0.449076  0.053327  0.444269  1
  Ta  Ta2  1  0.053327  0.449076  0.444269  1
  Si  Si3  1  0.624686  0.624686  0.125942  1
  Si  Si4  1  0.623409  0.126820  0.626363  1
  Si  Si5  1  0.126820  0.623409  0.626363  1
  Si  Si6  1  0.623409  0.623409  0.626363  1
  Ni  Ni7  1  0.418874  0.418874  0.743377  1
  Ni  Ni8  1  0.418191  0.744121  0.419495  1
  Ni  Ni9  1  0.744121  0.418191  0.419495  1
  Ni  Ni10  1  0.418191  0.418191  0.419495  1
  Ni  Ni11  1  0.831021  0.831021  0.506937  1
  Ni  Ni12  1  0.831227  0.508262  0.829285  1
  Ni  Ni13  1  0.508262  0.831227  0.829285  1
  Ni  Ni14  1  0.831227  0.831227  0.829285  1
  W  W15  1  0.446282  0.446282  0.051987  1
  W  W16  1  0.055448  0.446282  0.051987  1
  W  W17  1  0.446282  0.055448  0.051987  1
  W  W18  1  0.193351  0.193351  0.813401  1
  W  W19  1  0.799897  0.193351  0.813401  1
  W  W20  1  0.193351  0.799897  0.813401  1
  W  W21  1  0.806239  0.806239  0.191410  1
  W  W22  1  0.196111  0.806239  0.191410  1
  W  W23  1  0.806239  0.196111  0.191410  1
  C  C24  1  0.251920  0.251920  0.244239  1
  C  C25  1  0.999709  0.999709  0.000874  1
