# generated using pymatgen
data_Nd8Y2IrOs3
_symmetry_space_group_name_H-M   'P 1'
_cell_length_a   6.61559378
_cell_length_b   7.39840517
_cell_length_c   8.77308333
_cell_angle_alpha   96.35659663
_cell_angle_beta   111.69589530
_cell_angle_gamma   90.08247303
_symmetry_Int_Tables_number   1
_chemical_formula_structural   Nd8Y2IrOs3
_chemical_formula_sum   'Nd8 Y2 Ir1 Os3'
_cell_volume   396.10781628
_cell_formula_units_Z   1
loop_
 _symmetry_equiv_pos_site_id
 _symmetry_equiv_pos_as_xyz
  1  'x, y, z'
loop_
 _atom_site_type_symbol
 _atom_site_label
 _atom_site_symmetry_multiplicity
 _atom_site_fract_x
 _atom_site_fract_y
 _atom_site_fract_z
 _atom_site_occupancy
  Nd  Nd0  1  0.974395  0.916558  0.179488  1
  Nd  Nd1  1  0.794173  0.583122  0.818548  1
  Nd  Nd2  1  0.020595  0.081384  0.815213  1
  Nd  Nd3  1  0.203462  0.418041  0.179755  1
  Nd  Nd4  1  0.648008  0.816677  0.435296  1
  Nd  Nd5  1  0.214760  0.681731  0.566471  1
  Nd  Nd6  1  0.353737  0.182562  0.568939  1
  Nd  Nd7  1  0.789464  0.319571  0.434275  1
  Y  Y8  1  0.429625  0.749020  0.998988  1
  Y  Y9  1  0.569555  0.250588  0.999970  1
  Ir  Ir10  1  0.399916  0.073886  0.217592  1
  Os  Os11  1  0.818345  0.573870  0.214273  1
  Os  Os12  1  0.603673  0.927854  0.784996  1
  Os  Os13  1  0.180293  0.425135  0.786198  1
