# generated using pymatgen
data_Ta3MnB7
_symmetry_space_group_name_H-M   'P 1'
_cell_length_a   7.29744297
_cell_length_b   7.29744277
_cell_length_c   8.78404500
_cell_angle_alpha   90.00003374
_cell_angle_beta   89.99996648
_cell_angle_gamma   154.57408251
_symmetry_Int_Tables_number   1
_chemical_formula_structural   Ta3MnB7
_chemical_formula_sum   'Ta6 Mn2 B14'
_cell_volume   200.83576883
_cell_formula_units_Z   2
loop_
 _symmetry_equiv_pos_site_id
 _symmetry_equiv_pos_as_xyz
  1  'x, y, z'
loop_
 _atom_site_type_symbol
 _atom_site_label
 _atom_site_symmetry_multiplicity
 _atom_site_fract_x
 _atom_site_fract_y
 _atom_site_fract_z
 _atom_site_occupancy
  Ta  Ta0  1  0.750941  0.249059  0.250001  1
  Ta  Ta1  1  0.249059  0.750941  0.749999  1
  Ta  Ta2  1  0.893528  0.106472  0.554052  1
  Ta  Ta3  1  0.106472  0.893528  0.445948  1
  Ta  Ta4  1  0.106472  0.893528  0.054051  1
  Ta  Ta5  1  0.893528  0.106472  0.945949  1
  Mn  Mn6  1  0.951367  0.048633  0.250000  1
  Mn  Mn7  1  0.048633  0.951367  0.750000  1
  B  B8  1  0.567391  0.432609  0.250000  1
  B  B9  1  0.432609  0.567391  0.750000  1
  B  B10  1  0.514603  0.485397  0.905132  1
  B  B11  1  0.485397  0.514603  0.094868  1
  B  B12  1  0.485398  0.514602  0.405132  1
  B  B13  1  0.514602  0.485398  0.594868  1
  B  B14  1  0.632066  0.367934  0.848273  1
  B  B15  1  0.367934  0.632066  0.151727  1
  B  B16  1  0.727018  0.272982  0.967156  1
  B  B17  1  0.272982  0.727018  0.032844  1
  B  B18  1  0.272982  0.727018  0.467157  1
  B  B19  1  0.727018  0.272982  0.532843  1
  B  B20  1  0.632067  0.367933  0.651725  1
  B  B21  1  0.367933  0.632067  0.348275  1
