# generated using pymatgen
data_Nb(TcI3)2
_symmetry_space_group_name_H-M   'P 1'
_cell_length_a   10.69148324
_cell_length_b   10.69148358
_cell_length_c   13.08658100
_cell_angle_alpha   90.00000000
_cell_angle_beta   90.00000000
_cell_angle_gamma   104.57473745
_symmetry_Int_Tables_number   1
_chemical_formula_structural   Nb(TcI3)2
_chemical_formula_sum   'Nb4 Tc8 I24'
_cell_volume   1447.76082401
_cell_formula_units_Z   4
loop_
 _symmetry_equiv_pos_site_id
 _symmetry_equiv_pos_as_xyz
  1  'x, y, z'
loop_
 _atom_site_type_symbol
 _atom_site_label
 _atom_site_symmetry_multiplicity
 _atom_site_fract_x
 _atom_site_fract_y
 _atom_site_fract_z
 _atom_site_occupancy
  Nb  Nb0  1  0.612451  0.387549  0.500000  1
  Nb  Nb1  1  0.887549  0.112451  0.000000  1
  Nb  Nb2  1  0.387549  0.612451  0.500000  1
  Nb  Nb3  1  0.112451  0.887549  0.000000  1
  Tc  Tc4  1  0.630578  0.630578  0.431185  1
  Tc  Tc5  1  0.369422  0.369422  0.568815  1
  Tc  Tc6  1  0.869422  0.869422  0.931185  1
  Tc  Tc7  1  0.130578  0.130578  0.068815  1
  Tc  Tc8  1  0.568573  0.568573  0.630919  1
  Tc  Tc9  1  0.431427  0.431427  0.369081  1
  Tc  Tc10  1  0.931427  0.931427  0.130919  1
  Tc  Tc11  1  0.068573  0.068573  0.869081  1
  I  I12  1  0.819922  0.597832  0.563624  1
  I  I13  1  0.402168  0.180078  0.436376  1
  I  I14  1  0.680078  0.902168  0.063624  1
  I  I15  1  0.097832  0.319922  0.936376  1
  I  I16  1  0.180078  0.402168  0.436376  1
  I  I17  1  0.597832  0.819922  0.563624  1
  I  I18  1  0.319922  0.097832  0.936376  1
  I  I19  1  0.902168  0.680078  0.063624  1
  I  I20  1  0.675142  0.453183  0.291171  1
  I  I21  1  0.546817  0.324858  0.708829  1
  I  I22  1  0.824858  0.046817  0.791171  1
  I  I23  1  0.953183  0.175142  0.208829  1
  I  I24  1  0.324858  0.546817  0.708829  1
  I  I25  1  0.453183  0.675142  0.291171  1
  I  I26  1  0.175142  0.953183  0.208829  1
  I  I27  1  0.046817  0.824858  0.791171  1
  I  I28  1  0.665706  0.665706  0.832373  1
  I  I29  1  0.334294  0.334294  0.167627  1
  I  I30  1  0.834294  0.834294  0.332373  1
  I  I31  1  0.165706  0.165706  0.667627  1
  I  I32  1  0.781563  0.218437  0.500000  1
  I  I33  1  0.718437  0.281563  0.000000  1
  I  I34  1  0.218437  0.781563  0.500000  1
  I  I35  1  0.281563  0.718437  0.000000  1
