# generated using pymatgen
data_CeDy2YSi3Rh4
_symmetry_space_group_name_H-M   'P 1'
_cell_length_a   10.71610867
_cell_length_b   10.71610849
_cell_length_c   7.80330854
_cell_angle_alpha   71.40739506
_cell_angle_beta   71.40739536
_cell_angle_gamma   29.75882323
_symmetry_Int_Tables_number   1
_chemical_formula_structural   CeDy2YSi3Rh4
_chemical_formula_sum   'Ce2 Dy4 Y2 Si6 Rh8'
_cell_volume   419.87560992
_cell_formula_units_Z   2
loop_
 _symmetry_equiv_pos_site_id
 _symmetry_equiv_pos_as_xyz
  1  'x, y, z'
loop_
 _atom_site_type_symbol
 _atom_site_label
 _atom_site_symmetry_multiplicity
 _atom_site_fract_x
 _atom_site_fract_y
 _atom_site_fract_z
 _atom_site_occupancy
  Ce  Ce0  1  0.206640  0.922249  0.831419  1
  Ce  Ce1  1  0.077751  0.793360  0.668581  1
  Dy  Dy2  1  0.793351  0.546885  0.599308  1
  Dy  Dy3  1  0.453115  0.206649  0.900692  1
  Dy  Dy4  1  0.208061  0.451641  0.400241  1
  Dy  Dy5  1  0.548359  0.791939  0.099759  1
  Y  Y6  1  0.788669  0.074202  0.172698  1
  Y  Y7  1  0.925798  0.211331  0.327302  1
  Si  Si8  1  0.952121  0.704480  0.057919  1
  Si  Si9  1  0.295520  0.047879  0.442081  1
  Si  Si10  1  0.046016  0.300376  0.942878  1
  Si  Si11  1  0.699624  0.953984  0.557122  1
  Si  Si12  1  0.648578  0.351422  0.750000  1
  Si  Si13  1  0.363635  0.636365  0.250000  1
  Rh  Rh14  1  0.569794  0.300521  0.520765  1
  Rh  Rh15  1  0.699479  0.430206  0.979235  1
  Rh  Rh16  1  0.423660  0.700081  0.484168  1
  Rh  Rh17  1  0.299919  0.576340  0.015832  1
  Rh  Rh18  1  0.631996  0.924405  0.312344  1
  Rh  Rh19  1  0.075595  0.368004  0.187656  1
  Rh  Rh20  1  0.365447  0.073127  0.689803  1
  Rh  Rh21  1  0.926873  0.634553  0.810197  1
