# generated using pymatgen
data_K2BaH12Ir2Pb
_symmetry_space_group_name_H-M   'P 1'
_cell_length_a   7.96001500
_cell_length_b   7.96001500
_cell_length_c   8.05115900
_cell_angle_alpha   90.00000000
_cell_angle_beta   90.00000000
_cell_angle_gamma   90.00000000
_symmetry_Int_Tables_number   1
_chemical_formula_structural   K2BaH12Ir2Pb
_chemical_formula_sum   'K4 Ba2 H24 Ir4 Pb2'
_cell_volume   510.13623871
_cell_formula_units_Z   2
loop_
 _symmetry_equiv_pos_site_id
 _symmetry_equiv_pos_as_xyz
  1  'x, y, z'
loop_
 _atom_site_type_symbol
 _atom_site_label
 _atom_site_symmetry_multiplicity
 _atom_site_fract_x
 _atom_site_fract_y
 _atom_site_fract_z
 _atom_site_occupancy
  K  K0  1  0.000000  0.000000  0.500000  1
  K  K1  1  0.000000  0.500000  0.000000  1
  K  K2  1  0.500000  0.000000  0.000000  1
  K  K3  1  0.000000  0.000000  0.000000  1
  Ba  Ba4  1  0.500000  0.500000  0.500000  1
  Ba  Ba5  1  0.500000  0.500000  0.000000  1
  H  H6  1  0.747598  0.747598  0.478833  1
  H  H7  1  0.252402  0.252402  0.478833  1
  H  H8  1  0.047379  0.749675  0.740084  1
  H  H9  1  0.250325  0.952621  0.740084  1
  H  H10  1  0.749675  0.047379  0.740084  1
  H  H11  1  0.952621  0.250325  0.740084  1
  H  H12  1  0.745555  0.470396  0.744230  1
  H  H13  1  0.470396  0.745555  0.744230  1
  H  H14  1  0.529604  0.254445  0.744230  1
  H  H15  1  0.254445  0.529604  0.744230  1
  H  H16  1  0.253160  0.746840  0.941028  1
  H  H17  1  0.746840  0.253160  0.941028  1
  H  H18  1  0.746840  0.746840  0.058972  1
  H  H19  1  0.253160  0.253160  0.058972  1
  H  H20  1  0.254445  0.470396  0.255770  1
  H  H21  1  0.529604  0.745555  0.255770  1
  H  H22  1  0.470396  0.254445  0.255770  1
  H  H23  1  0.745555  0.529604  0.255770  1
  H  H24  1  0.952621  0.749675  0.259916  1
  H  H25  1  0.749675  0.952621  0.259916  1
  H  H26  1  0.250325  0.047379  0.259916  1
  H  H27  1  0.047379  0.250325  0.259916  1
  H  H28  1  0.252402  0.747598  0.521167  1
  H  H29  1  0.747598  0.252402  0.521167  1
  Ir  Ir30  1  0.257419  0.742581  0.731893  1
  Ir  Ir31  1  0.742581  0.257419  0.731893  1
  Ir  Ir32  1  0.742581  0.742581  0.268107  1
  Ir  Ir33  1  0.257419  0.257419  0.268107  1
  Pb  Pb34  1  0.000000  0.500000  0.500000  1
  Pb  Pb35  1  0.500000  0.000000  0.500000  1
