# generated using pymatgen
data_V20Si11P
_symmetry_space_group_name_H-M   'P 1'
_cell_length_a   7.03230775
_cell_length_b   7.03212316
_cell_length_c   13.26997300
_cell_angle_alpha   90.00000000
_cell_angle_beta   90.00000000
_cell_angle_gamma   140.60322507
_symmetry_Int_Tables_number   1
_chemical_formula_structural   V20Si11P
_chemical_formula_sum   'V20 Si11 P1'
_cell_volume   416.49902613
_cell_formula_units_Z   1
loop_
 _symmetry_equiv_pos_site_id
 _symmetry_equiv_pos_as_xyz
  1  'x, y, z'
loop_
 _atom_site_type_symbol
 _atom_site_label
 _atom_site_symmetry_multiplicity
 _atom_site_fract_x
 _atom_site_fract_y
 _atom_site_fract_z
 _atom_site_occupancy
  V  V0  1  0.498254  0.501799  0.000000  1
  V  V1  1  0.499049  0.499465  0.500000  1
  V  V2  1  0.000054  0.003586  0.000000  1
  V  V3  1  0.073987  0.424122  0.399842  1
  V  V4  1  0.575494  0.926157  0.900832  1
  V  V5  1  0.423554  0.074299  0.600328  1
  V  V6  1  0.929061  0.572855  0.098323  1
  V  V7  1  0.849755  0.649884  0.674817  1
  V  V8  1  0.350386  0.150206  0.174434  1
  V  V9  1  0.649905  0.849705  0.324850  1
  V  V10  1  0.149294  0.351320  0.827752  1
  V  V11  1  0.649905  0.849705  0.675150  1
  V  V12  1  0.149294  0.351320  0.172248  1
  V  V13  1  0.849755  0.649884  0.325183  1
  V  V14  1  0.350386  0.150206  0.825566  1
  V  V15  1  0.423554  0.074299  0.399672  1
  V  V16  1  0.929061  0.572855  0.901677  1
  V  V17  1  0.073987  0.424122  0.600158  1
  V  V18  1  0.575494  0.926157  0.099168  1
  V  V19  1  0.998687  0.999026  0.500000  1
  Si  Si20  1  0.250315  0.749982  0.750025  1
  Si  Si21  1  0.749868  0.249837  0.249978  1
  Si  Si22  1  0.749868  0.249837  0.750022  1
  Si  Si23  1  0.250315  0.749982  0.249975  1
  Si  Si24  1  0.249269  0.250466  0.666661  1
  Si  Si25  1  0.751883  0.749749  0.165384  1
  Si  Si26  1  0.249269  0.250466  0.333339  1
  Si  Si27  1  0.751883  0.749749  0.834616  1
  Si  Si28  1  0.581888  0.914329  0.500000  1
  Si  Si29  1  0.913906  0.581694  0.500000  1
  Si  Si30  1  0.415606  0.087127  0.000000  1
  P  P31  1  0.087005  0.415809  0.000000  1
