# generated using pymatgen
data_Er3Th7(Ir2Ru)2
_symmetry_space_group_name_H-M   'P 1'
_cell_length_a   11.22675200
_cell_length_b   11.15198200
_cell_length_c   6.38440600
_cell_angle_alpha   90.00000000
_cell_angle_beta   90.00033123
_cell_angle_gamma   90.00000000
_symmetry_Int_Tables_number   1
_chemical_formula_structural   Er3Th7(Ir2Ru)2
_chemical_formula_sum   'Er6 Th14 Ir8 Ru4'
_cell_volume   799.33105472
_cell_formula_units_Z   2
loop_
 _symmetry_equiv_pos_site_id
 _symmetry_equiv_pos_as_xyz
  1  'x, y, z'
loop_
 _atom_site_type_symbol
 _atom_site_label
 _atom_site_symmetry_multiplicity
 _atom_site_fract_x
 _atom_site_fract_y
 _atom_site_fract_z
 _atom_site_occupancy
  Er  Er0  1  0.088905  0.710613  0.618476  1
  Er  Er1  1  0.088905  0.289387  0.118476  1
  Er  Er2  1  0.000834  0.995298  0.501002  1
  Er  Er3  1  0.000834  0.004702  0.001002  1
  Er  Er4  1  0.500500  0.499530  0.005915  1
  Er  Er5  1  0.500500  0.500470  0.505915  1
  Th  Th6  1  0.287524  0.091080  0.377745  1
  Th  Th7  1  0.287524  0.908920  0.877745  1
  Th  Th8  1  0.711096  0.089683  0.880803  1
  Th  Th9  1  0.711096  0.910317  0.380803  1
  Th  Th10  1  0.588778  0.788241  0.881064  1
  Th  Th11  1  0.588778  0.211759  0.381064  1
  Th  Th12  1  0.408530  0.788149  0.380445  1
  Th  Th13  1  0.408530  0.211851  0.880445  1
  Th  Th14  1  0.207877  0.413010  0.617809  1
  Th  Th15  1  0.207877  0.586990  0.117809  1
  Th  Th16  1  0.793640  0.409015  0.118361  1
  Th  Th17  1  0.793640  0.590985  0.618361  1
  Th  Th18  1  0.915167  0.711299  0.117426  1
  Th  Th19  1  0.915167  0.288701  0.617426  1
  Ir  Ir20  1  0.845375  0.151680  0.253738  1
  Ir  Ir21  1  0.845375  0.848320  0.753738  1
  Ir  Ir22  1  0.153827  0.153634  0.744386  1
  Ir  Ir23  1  0.153827  0.846366  0.244386  1
  Ir  Ir24  1  0.653993  0.345053  0.753060  1
  Ir  Ir25  1  0.653993  0.654947  0.253060  1
  Ir  Ir26  1  0.346691  0.345189  0.255547  1
  Ir  Ir27  1  0.346691  0.654811  0.755547  1
  Ru  Ru28  1  0.499299  0.999870  0.111514  1
  Ru  Ru29  1  0.499299  0.000130  0.611514  1
  Ru  Ru30  1  0.997963  0.498636  0.882709  1
  Ru  Ru31  1  0.997963  0.501364  0.382709  1
