# generated using pymatgen
data_Mg3Cd2Pt5
_symmetry_space_group_name_H-M   'P 1'
_cell_length_a   4.20289700
_cell_length_b   3.77445700
_cell_length_c   20.97560700
_cell_angle_alpha   90.00000000
_cell_angle_beta   90.00000000
_cell_angle_gamma   90.00000000
_symmetry_Int_Tables_number   1
_chemical_formula_structural   Mg3Cd2Pt5
_chemical_formula_sum   'Mg6 Cd4 Pt10'
_cell_volume   332.74977193
_cell_formula_units_Z   2
loop_
 _symmetry_equiv_pos_site_id
 _symmetry_equiv_pos_as_xyz
  1  'x, y, z'
loop_
 _atom_site_type_symbol
 _atom_site_label
 _atom_site_symmetry_multiplicity
 _atom_site_fract_x
 _atom_site_fract_y
 _atom_site_fract_z
 _atom_site_occupancy
  Mg  Mg0  1  0.500000  0.000000  0.100061  1
  Mg  Mg1  1  0.500000  0.000000  0.300261  1
  Mg  Mg2  1  0.500000  0.000000  0.500000  1
  Mg  Mg3  1  0.500000  0.000000  0.699739  1
  Mg  Mg4  1  0.500000  0.000000  0.899939  1
  Mg  Mg5  1  0.000000  0.000000  0.000000  1
  Cd  Cd6  1  0.000000  0.000000  0.199352  1
  Cd  Cd7  1  0.000000  0.000000  0.400137  1
  Cd  Cd8  1  0.000000  0.000000  0.599863  1
  Cd  Cd9  1  0.000000  0.000000  0.800648  1
  Pt  Pt10  1  0.500000  0.500000  0.000000  1
  Pt  Pt11  1  0.500000  0.500000  0.199580  1
  Pt  Pt12  1  0.500000  0.500000  0.400161  1
  Pt  Pt13  1  0.500000  0.500000  0.599839  1
  Pt  Pt14  1  0.500000  0.500000  0.800420  1
  Pt  Pt15  1  0.000000  0.500000  0.096867  1
  Pt  Pt16  1  0.000000  0.500000  0.299968  1
  Pt  Pt17  1  0.000000  0.500000  0.500000  1
  Pt  Pt18  1  0.000000  0.500000  0.700032  1
  Pt  Pt19  1  0.000000  0.500000  0.903133  1
