# generated using pymatgen
data_Ho4PdPt3F28
_symmetry_space_group_name_H-M   'P 1'
_cell_length_a   5.53714458
_cell_length_b   8.85086609
_cell_length_c   11.94592959
_cell_angle_alpha   62.51040620
_cell_angle_beta   89.98927755
_cell_angle_gamma   89.96502750
_symmetry_Int_Tables_number   1
_chemical_formula_structural   Ho4PdPt3F28
_chemical_formula_sum   'Ho4 Pd1 Pt3 F28'
_cell_volume   519.35160331
_cell_formula_units_Z   1
loop_
 _symmetry_equiv_pos_site_id
 _symmetry_equiv_pos_as_xyz
  1  'x, y, z'
loop_
 _atom_site_type_symbol
 _atom_site_label
 _atom_site_symmetry_multiplicity
 _atom_site_fract_x
 _atom_site_fract_y
 _atom_site_fract_z
 _atom_site_occupancy
  Ho  Ho0  1  0.761104  0.813713  0.764416  1
  Ho  Ho1  1  0.260617  0.185808  0.735666  1
  Ho  Ho2  1  0.238100  0.185381  0.235732  1
  Ho  Ho3  1  0.739228  0.814515  0.264632  1
  Pd  Pd4  1  0.758556  0.272171  0.957083  1
  Pt  Pt5  1  0.259219  0.727642  0.543187  1
  Pt  Pt6  1  0.241218  0.727620  0.043031  1
  Pt  Pt7  1  0.740818  0.272644  0.456625  1
  F  F8  1  0.437436  0.702631  0.915538  1
  F  F9  1  0.935823  0.297301  0.584833  1
  F  F10  1  0.556255  0.295719  0.081363  1
  F  F11  1  0.063058  0.702658  0.415599  1
  F  F12  1  0.438917  0.278516  0.542362  1
  F  F13  1  0.940081  0.722272  0.956678  1
  F  F14  1  0.560599  0.721880  0.457096  1
  F  F15  1  0.053124  0.279160  0.044562  1
  F  F16  1  0.773931  0.520027  0.858919  1
  F  F17  1  0.274320  0.477855  0.642001  1
  F  F18  1  0.225667  0.477627  0.142206  1
  F  F19  1  0.725677  0.522520  0.357641  1
  F  F20  1  0.755280  0.025179  0.050989  1
  F  F21  1  0.255333  0.977478  0.449667  1
  F  F22  1  0.245806  0.977031  0.949139  1
  F  F23  1  0.745494  0.022894  0.550302  1
  F  F24  1  0.966024  0.725159  0.636850  1
  F  F25  1  0.473537  0.273534  0.861262  1
  F  F26  1  0.034852  0.274933  0.363553  1
  F  F27  1  0.534632  0.726253  0.136232  1
  F  F28  1  0.050349  0.746902  0.175224  1
  F  F29  1  0.551889  0.254428  0.323365  1
  F  F30  1  0.954010  0.254365  0.827390  1
  F  F31  1  0.449922  0.745976  0.675632  1
  F  F32  1  0.415775  0.969560  0.233370  1
  F  F33  1  0.916487  0.028671  0.269086  1
  F  F34  1  0.583237  0.029507  0.766695  1
  F  F35  1  0.083624  0.970469  0.732080  1
