# generated using pymatgen
data_Lu2Rh6S
_symmetry_space_group_name_H-M   'P 1'
_cell_length_a   5.91176690
_cell_length_b   5.91176595
_cell_length_c   5.91176600
_cell_angle_alpha   59.99998854
_cell_angle_beta   59.99999385
_cell_angle_gamma   59.99999059
_symmetry_Int_Tables_number   1
_chemical_formula_structural   Lu2Rh6S
_chemical_formula_sum   'Lu2 Rh6 S1'
_cell_volume   146.09544729
_cell_formula_units_Z   1
loop_
 _symmetry_equiv_pos_site_id
 _symmetry_equiv_pos_as_xyz
  1  'x, y, z'
loop_
 _atom_site_type_symbol
 _atom_site_label
 _atom_site_symmetry_multiplicity
 _atom_site_fract_x
 _atom_site_fract_y
 _atom_site_fract_z
 _atom_site_occupancy
  Lu  Lu0  1  0.250000  0.250000  0.250000  1
  Lu  Lu1  1  0.750000  0.750000  0.750000  1
  Rh  Rh2  1  0.735295  0.264706  0.264706  1
  Rh  Rh3  1  0.264706  0.735295  0.264706  1
  Rh  Rh4  1  0.735294  0.735294  0.264707  1
  Rh  Rh5  1  0.264707  0.735294  0.735294  1
  Rh  Rh6  1  0.264706  0.264706  0.735295  1
  Rh  Rh7  1  0.735294  0.264707  0.735294  1
  S  S8  1  0.000000  0.000000  0.000000  1
