# generated using pymatgen
data_La2S4O15
_symmetry_space_group_name_H-M   'P 1'
_cell_length_a   5.67046794
_cell_length_b   6.62182781
_cell_length_c   9.42780290
_cell_angle_alpha   89.91116527
_cell_angle_beta   110.88483481
_cell_angle_gamma   104.02319368
_symmetry_Int_Tables_number   1
_chemical_formula_structural   La2S4O15
_chemical_formula_sum   'La2 S4 O15'
_cell_volume   319.47955676
_cell_formula_units_Z   1
loop_
 _symmetry_equiv_pos_site_id
 _symmetry_equiv_pos_as_xyz
  1  'x, y, z'
loop_
 _atom_site_type_symbol
 _atom_site_label
 _atom_site_symmetry_multiplicity
 _atom_site_fract_x
 _atom_site_fract_y
 _atom_site_fract_z
 _atom_site_occupancy
  La  La0  1  0.991707  0.227876  0.560005  1
  La  La1  1  0.892715  0.930525  0.953407  1
  S  S2  1  0.688962  0.344967  0.851621  1
  S  S3  1  0.533079  0.787448  0.209891  1
  S  S4  1  0.368182  0.352360  0.299202  1
  S  S5  1  0.186777  0.817172  0.663446  1
  O  O6  1  0.035356  0.921631  0.733466  1
  O  O7  1  0.035495  0.600879  0.605703  1
  O  O8  1  0.846046  0.562733  0.898372  1
  O  O9  1  0.294374  0.399996  0.426400  1
  O  O10  1  0.810230  0.235493  0.763737  1
  O  O11  1  0.174959  0.183371  0.191668  1
  O  O12  1  0.344063  0.547132  0.193672  1
  O  O13  1  0.740949  0.764388  0.158267  1
  O  O14  1  0.443307  0.820003  0.780540  1
  O  O15  1  0.636953  0.335943  0.346372  1
  O  O16  1  0.213285  0.947911  0.539161  1
  O  O17  1  0.417448  0.340673  0.755136  1
  O  O18  1  0.625322  0.875341  0.366748  1
  O  O19  1  0.696312  0.223660  0.984278  1
  O  O20  1  0.342094  0.875694  0.098229  1
