# generated using pymatgen
data_PmNd(NiP)2
_symmetry_space_group_name_H-M   'P 1'
_cell_length_a   5.64404182
_cell_length_b   5.64404181
_cell_length_c   5.64404163
_cell_angle_alpha   138.90583506
_cell_angle_beta   104.71012922
_cell_angle_gamma   89.56687282
_symmetry_Int_Tables_number   1
_chemical_formula_structural   PmNd(NiP)2
_chemical_formula_sum   'Pm1 Nd1 Ni2 P2'
_cell_volume   109.42201224
_cell_formula_units_Z   1
loop_
 _symmetry_equiv_pos_site_id
 _symmetry_equiv_pos_as_xyz
  1  'x, y, z'
loop_
 _atom_site_type_symbol
 _atom_site_label
 _atom_site_symmetry_multiplicity
 _atom_site_fract_x
 _atom_site_fract_y
 _atom_site_fract_z
 _atom_site_occupancy
  Pm  Pm0  1  0.000127  0.000000  0.000127  1
  Nd  Nd1  1  0.500133  0.500000  0.000133  1
  Ni  Ni2  1  0.916618  0.250593  0.666024  1
  Ni  Ni3  1  0.415430  0.749406  0.666023  1
  P  P4  1  0.584532  0.250687  0.333846  1
  P  P5  1  0.083158  0.749312  0.333846  1
