# generated using pymatgen
data_La2Al9Ir2Pd
_symmetry_space_group_name_H-M   'P 1'
_cell_length_a   7.68732800
_cell_length_b   7.68732857
_cell_length_c   9.65527600
_cell_angle_alpha   90.00000000
_cell_angle_beta   90.00000000
_cell_angle_gamma   119.41934951
_symmetry_Int_Tables_number   1
_chemical_formula_structural   La2Al9Ir2Pd
_chemical_formula_sum   'La4 Al18 Ir4 Pd2'
_cell_volume   497.00141479
_cell_formula_units_Z   2
loop_
 _symmetry_equiv_pos_site_id
 _symmetry_equiv_pos_as_xyz
  1  'x, y, z'
loop_
 _atom_site_type_symbol
 _atom_site_label
 _atom_site_symmetry_multiplicity
 _atom_site_fract_x
 _atom_site_fract_y
 _atom_site_fract_z
 _atom_site_occupancy
  La  La0  1  0.996053  0.670151  0.250000  1
  La  La1  1  0.003947  0.329849  0.750000  1
  La  La2  1  0.670151  0.996053  0.250000  1
  La  La3  1  0.329849  0.003947  0.750000  1
  Al  Al4  1  0.134803  0.134803  0.250000  1
  Al  Al5  1  0.865197  0.865197  0.750000  1
  Al  Al6  1  0.003744  0.338740  0.073930  1
  Al  Al7  1  0.996256  0.661260  0.926070  1
  Al  Al8  1  0.996256  0.661260  0.573930  1
  Al  Al9  1  0.338740  0.003744  0.426070  1
  Al  Al10  1  0.003744  0.338740  0.426070  1
  Al  Al11  1  0.661260  0.996256  0.573930  1
  Al  Al12  1  0.661260  0.996256  0.926070  1
  Al  Al13  1  0.338740  0.003744  0.073930  1
  Al  Al14  1  0.338837  0.338837  0.548220  1
  Al  Al15  1  0.661163  0.661163  0.451780  1
  Al  Al16  1  0.661163  0.661163  0.048220  1
  Al  Al17  1  0.338837  0.338837  0.951780  1
  Al  Al18  1  0.339742  0.545113  0.250000  1
  Al  Al19  1  0.660258  0.454887  0.750000  1
  Al  Al20  1  0.545113  0.339742  0.250000  1
  Al  Al21  1  0.454887  0.660258  0.750000  1
  Ir  Ir22  1  0.670837  0.329163  0.000000  1
  Ir  Ir23  1  0.329163  0.670837  0.000000  1
  Ir  Ir24  1  0.329163  0.670837  0.500000  1
  Ir  Ir25  1  0.670837  0.329163  0.500000  1
  Pd  Pd26  1  0.000000  0.000000  0.000000  1
  Pd  Pd27  1  0.000000  0.000000  0.500000  1
