# generated using pymatgen
data_Ho2Lu3Mo2C7
_symmetry_space_group_name_H-M   'P 1'
_cell_length_a   8.26920693
_cell_length_b   8.32302507
_cell_length_c   3.38707000
_cell_angle_alpha   90.00000000
_cell_angle_beta   90.00000000
_cell_angle_gamma   122.03369252
_symmetry_Int_Tables_number   1
_chemical_formula_structural   Ho2Lu3Mo2C7
_chemical_formula_sum   'Ho2 Lu3 Mo2 C7'
_cell_volume   197.61960718
_cell_formula_units_Z   1
loop_
 _symmetry_equiv_pos_site_id
 _symmetry_equiv_pos_as_xyz
  1  'x, y, z'
loop_
 _atom_site_type_symbol
 _atom_site_label
 _atom_site_symmetry_multiplicity
 _atom_site_fract_x
 _atom_site_fract_y
 _atom_site_fract_z
 _atom_site_occupancy
  Ho  Ho0  1  0.329865  0.075457  0.500000  1
  Ho  Ho1  1  0.670135  0.924543  0.500000  1
  Lu  Lu2  1  0.077309  0.338497  0.500000  1
  Lu  Lu3  1  0.922691  0.661503  0.500000  1
  Lu  Lu4  1  0.500000  0.500000  0.000000  1
  Mo  Mo5  1  0.288310  0.711952  0.000000  1
  Mo  Mo6  1  0.711690  0.288048  0.000000  1
  C  C7  1  0.163692  0.172702  0.000000  1
  C  C8  1  0.836308  0.827298  0.000000  1
  C  C9  1  0.000000  0.000000  0.000000  1
  C  C10  1  0.378777  0.620892  0.500000  1
  C  C11  1  0.621223  0.379108  0.500000  1
  C  C12  1  0.500000  0.000000  0.000000  1
  C  C13  1  0.000000  0.500000  0.000000  1
