# generated using pymatgen
data_Dy2Ho2Al17SiIr6
_symmetry_space_group_name_H-M   'P 1'
_cell_length_a   7.55081506
_cell_length_b   7.55080720
_cell_length_c   9.41098800
_cell_angle_alpha   90.00000000
_cell_angle_beta   90.00000000
_cell_angle_gamma   119.69152488
_symmetry_Int_Tables_number   1
_chemical_formula_structural   Dy2Ho2Al17SiIr6
_chemical_formula_sum   'Dy2 Ho2 Al17 Si1 Ir6'
_cell_volume   466.11668769
_cell_formula_units_Z   1
loop_
 _symmetry_equiv_pos_site_id
 _symmetry_equiv_pos_as_xyz
  1  'x, y, z'
loop_
 _atom_site_type_symbol
 _atom_site_label
 _atom_site_symmetry_multiplicity
 _atom_site_fract_x
 _atom_site_fract_y
 _atom_site_fract_z
 _atom_site_occupancy
  Dy  Dy0  1  0.994419  0.675810  0.250000  1
  Dy  Dy1  1  0.675810  0.994419  0.250000  1
  Ho  Ho2  1  0.003902  0.330560  0.750000  1
  Ho  Ho3  1  0.330560  0.003901  0.750000  1
  Al  Al4  1  0.874969  0.874969  0.750000  1
  Al  Al5  1  0.000842  0.336987  0.076923  1
  Al  Al6  1  0.998884  0.665722  0.924884  1
  Al  Al7  1  0.998884  0.665722  0.575116  1
  Al  Al8  1  0.336986  0.000842  0.423077  1
  Al  Al9  1  0.000842  0.336987  0.423077  1
  Al  Al10  1  0.665723  0.998885  0.575116  1
  Al  Al11  1  0.665723  0.998885  0.924884  1
  Al  Al12  1  0.336986  0.000842  0.076923  1
  Al  Al13  1  0.332188  0.332188  0.557103  1
  Al  Al14  1  0.663333  0.663333  0.448129  1
  Al  Al15  1  0.663333  0.663333  0.051871  1
  Al  Al16  1  0.332188  0.332188  0.942897  1
  Al  Al17  1  0.336470  0.549171  0.250000  1
  Al  Al18  1  0.661061  0.451917  0.750000  1
  Al  Al19  1  0.549172  0.336471  0.250000  1
  Al  Al20  1  0.451918  0.661061  0.750000  1
  Si  Si21  1  0.131160  0.131160  0.250000  1
  Ir  Ir22  1  0.670267  0.326625  0.999964  1
  Ir  Ir23  1  0.326625  0.670266  0.999963  1
  Ir  Ir24  1  0.326625  0.670266  0.500037  1
  Ir  Ir25  1  0.670267  0.326625  0.500036  1
  Ir  Ir26  1  0.000431  0.000431  0.006930  1
  Ir  Ir27  1  0.000431  0.000431  0.493070  1
