# generated using pymatgen
data_Hf18CrFe2Re7
_symmetry_space_group_name_H-M   'P 1'
_cell_length_a   8.42323600
_cell_length_b   8.55135446
_cell_length_c   8.55115505
_cell_angle_alpha   119.99911766
_cell_angle_beta   89.99962189
_cell_angle_gamma   89.99948051
_symmetry_Int_Tables_number   1
_chemical_formula_structural   Hf18CrFe2Re7
_chemical_formula_sum   'Hf18 Cr1 Fe2 Re7'
_cell_volume   533.42473649
_cell_formula_units_Z   1
loop_
 _symmetry_equiv_pos_site_id
 _symmetry_equiv_pos_as_xyz
  1  'x, y, z'
loop_
 _atom_site_type_symbol
 _atom_site_label
 _atom_site_symmetry_multiplicity
 _atom_site_fract_x
 _atom_site_fract_y
 _atom_site_fract_z
 _atom_site_occupancy
  Hf  Hf0  1  0.557651  0.800932  0.601875  1
  Hf  Hf1  1  0.557661  0.800915  0.199090  1
  Hf  Hf2  1  0.557644  0.398127  0.199067  1
  Hf  Hf3  1  0.442349  0.199068  0.398125  1
  Hf  Hf4  1  0.442339  0.199085  0.800910  1
  Hf  Hf5  1  0.442356  0.601873  0.800933  1
  Hf  Hf6  1  0.058491  0.200287  0.400567  1
  Hf  Hf7  1  0.058497  0.200298  0.799699  1
  Hf  Hf8  1  0.058482  0.599449  0.799716  1
  Hf  Hf9  1  0.941509  0.799713  0.599433  1
  Hf  Hf10  1  0.941503  0.799702  0.200301  1
  Hf  Hf11  1  0.941518  0.400551  0.200284  1
  Hf  Hf12  1  0.750058  0.459762  0.919573  1
  Hf  Hf13  1  0.750058  0.459766  0.540223  1
  Hf  Hf14  1  0.750051  0.080433  0.540246  1
  Hf  Hf15  1  0.249942  0.540237  0.080427  1
  Hf  Hf16  1  0.249942  0.540234  0.459777  1
  Hf  Hf17  1  0.249949  0.919567  0.459753  1
  Cr  Cr18  1  0.500000  0.000000  0.000000  1
  Fe  Fe19  1  0.749811  0.666640  0.333369  1
  Fe  Fe20  1  0.250189  0.333360  0.666631  1
  Re  Re21  1  0.745799  0.109816  0.219663  1
  Re  Re22  1  0.745805  0.109819  0.890163  1
  Re  Re23  1  0.745797  0.780335  0.890174  1
  Re  Re24  1  0.254201  0.890184  0.780337  1
  Re  Re25  1  0.254195  0.890181  0.109837  1
  Re  Re26  1  0.254203  0.219665  0.109826  1
  Re  Re27  1  0.000000  0.000000  0.000000  1
