# generated using pymatgen
data_YHo2Sn3HgRh2
_symmetry_space_group_name_H-M   'P 1'
_cell_length_a   7.71791446
_cell_length_b   7.71519005
_cell_length_c   3.90213400
_cell_angle_alpha   90.00000000
_cell_angle_beta   90.00000000
_cell_angle_gamma   119.87537006
_symmetry_Int_Tables_number   1
_chemical_formula_structural   YHo2Sn3HgRh2
_chemical_formula_sum   'Y1 Ho2 Sn3 Hg1 Rh2'
_cell_volume   201.47605646
_cell_formula_units_Z   1
loop_
 _symmetry_equiv_pos_site_id
 _symmetry_equiv_pos_as_xyz
  1  'x, y, z'
loop_
 _atom_site_type_symbol
 _atom_site_label
 _atom_site_symmetry_multiplicity
 _atom_site_fract_x
 _atom_site_fract_y
 _atom_site_fract_z
 _atom_site_occupancy
  Y  Y0  1  0.019906  0.410064  0.000000  1
  Ho  Ho1  1  0.589469  0.610774  0.000000  1
  Ho  Ho2  1  0.389331  0.978667  0.000000  1
  Sn  Sn3  1  0.250768  0.257784  0.500000  1
  Sn  Sn4  1  0.007371  0.749628  0.500000  1
  Sn  Sn5  1  0.741686  0.992034  0.500000  1
  Hg  Hg6  1  0.665720  0.333268  0.500000  1
  Rh  Rh7  1  0.335641  0.668508  0.500000  1
  Rh  Rh8  1  0.000108  0.999273  0.000000  1
