# generated using pymatgen
data_HfZrTiSi2W
_symmetry_space_group_name_H-M   'P 1'
_cell_length_a   3.60002600
_cell_length_b   6.88480100
_cell_length_c   8.28407600
_cell_angle_alpha   90.00000000
_cell_angle_beta   90.00000000
_cell_angle_gamma   90.00000000
_symmetry_Int_Tables_number   1
_chemical_formula_structural   HfZrTiSi2W
_chemical_formula_sum   'Hf2 Zr2 Ti2 Si4 W2'
_cell_volume   205.32465591
_cell_formula_units_Z   2
loop_
 _symmetry_equiv_pos_site_id
 _symmetry_equiv_pos_as_xyz
  1  'x, y, z'
loop_
 _atom_site_type_symbol
 _atom_site_label
 _atom_site_symmetry_multiplicity
 _atom_site_fract_x
 _atom_site_fract_y
 _atom_site_fract_z
 _atom_site_occupancy
  Hf  Hf0  1  0.250000  0.549076  0.166996  1
  Hf  Hf1  1  0.250000  0.049076  0.333004  1
  Zr  Zr2  1  0.750000  0.457142  0.834570  1
  Zr  Zr3  1  0.750000  0.957142  0.665430  1
  Ti  Ti4  1  0.250000  0.626182  0.557781  1
  Ti  Ti5  1  0.250000  0.126182  0.942219  1
  Si  Si6  1  0.250000  0.755271  0.862358  1
  Si  Si7  1  0.250000  0.255271  0.637642  1
  Si  Si8  1  0.750000  0.245240  0.139674  1
  Si  Si9  1  0.750000  0.745240  0.360326  1
  W  W10  1  0.750000  0.367090  0.439317  1
  W  W11  1  0.750000  0.867090  0.060683  1
