# generated using pymatgen
data_DyY2Zn11
_symmetry_space_group_name_H-M   'P 1'
_cell_length_a   8.14137866
_cell_length_b   8.14137919
_cell_length_c   8.14137876
_cell_angle_alpha   148.48648964
_cell_angle_beta   114.85001473
_cell_angle_gamma   74.17135559
_symmetry_Int_Tables_number   1
_chemical_formula_structural   DyY2Zn11
_chemical_formula_sum   'Dy1 Y2 Zn11'
_cell_volume   251.75374739
_cell_formula_units_Z   1
loop_
 _symmetry_equiv_pos_site_id
 _symmetry_equiv_pos_as_xyz
  1  'x, y, z'
loop_
 _atom_site_type_symbol
 _atom_site_label
 _atom_site_symmetry_multiplicity
 _atom_site_fract_x
 _atom_site_fract_y
 _atom_site_fract_z
 _atom_site_occupancy
  Dy  Dy0  1  0.293344  0.293344  0.000000  1
  Y  Y1  1  0.000084  0.000084  0.000000  1
  Y  Y2  1  0.706734  0.706734  0.000000  1
  Zn  Zn3  1  0.499993  0.999993  0.500000  1
  Zn  Zn4  1  0.682810  0.499858  0.182953  1
  Zn  Zn5  1  0.316905  0.499858  0.817047  1
  Zn  Zn6  1  0.700824  0.341469  0.359356  1
  Zn  Zn7  1  0.299095  0.658636  0.640458  1
  Zn  Zn8  1  0.982113  0.341469  0.640644  1
  Zn  Zn9  1  0.018178  0.658636  0.359542  1
  Zn  Zn10  1  0.419319  0.138539  0.280781  1
  Zn  Zn11  1  0.580162  0.861421  0.718741  1
  Zn  Zn12  1  0.857758  0.138539  0.719219  1
  Zn  Zn13  1  0.142680  0.861421  0.281259  1
