# generated using pymatgen
data_Th3Ga24Tc2Pd7
_symmetry_space_group_name_H-M   'P 1'
_cell_length_a   8.50779395
_cell_length_b   8.50779395
_cell_length_c   8.58078033
_cell_angle_alpha   89.76190723
_cell_angle_beta   89.76191316
_cell_angle_gamma   90.80476277
_symmetry_Int_Tables_number   1
_chemical_formula_structural   Th3Ga24Tc2Pd7
_chemical_formula_sum   'Th3 Ga24 Tc2 Pd7'
_cell_volume   621.02668704
_cell_formula_units_Z   1
loop_
 _symmetry_equiv_pos_site_id
 _symmetry_equiv_pos_as_xyz
  1  'x, y, z'
loop_
 _atom_site_type_symbol
 _atom_site_label
 _atom_site_symmetry_multiplicity
 _atom_site_fract_x
 _atom_site_fract_y
 _atom_site_fract_z
 _atom_site_occupancy
  Th  Th0  1  0.993563  0.492956  0.999991  1
  Th  Th1  1  0.507044  0.006437  0.000009  1
  Th  Th2  1  0.999276  0.000724  0.500000  1
  Ga  Ga3  1  0.988793  0.643761  0.643707  1
  Ga  Ga4  1  0.633901  0.637113  0.990658  1
  Ga  Ga5  1  0.645099  0.988926  0.638233  1
  Ga  Ga6  1  0.011074  0.354901  0.361767  1
  Ga  Ga7  1  0.362887  0.366099  0.009342  1
  Ga  Ga8  1  0.356239  0.011207  0.356293  1
  Ga  Ga9  1  0.733001  0.496595  0.263714  1
  Ga  Ga10  1  0.265317  0.501241  0.732944  1
  Ga  Ga11  1  0.503405  0.266999  0.736286  1
  Ga  Ga12  1  0.498759  0.734683  0.267056  1
  Ga  Ga13  1  0.265733  0.734267  0.500000  1
  Ga  Ga14  1  0.733509  0.266491  0.500000  1
  Ga  Ga15  1  0.836765  0.141854  0.837082  1
  Ga  Ga16  1  0.141016  0.840306  0.837315  1
  Ga  Ga17  1  0.839925  0.837430  0.142533  1
  Ga  Ga18  1  0.159694  0.858984  0.162685  1
  Ga  Ga19  1  0.858146  0.163235  0.162918  1
  Ga  Ga20  1  0.162570  0.160075  0.857467  1
  Ga  Ga21  1  0.725191  0.487448  0.731495  1
  Ga  Ga22  1  0.489635  0.729233  0.726314  1
  Ga  Ga23  1  0.728831  0.723677  0.489477  1
  Ga  Ga24  1  0.270767  0.510365  0.273686  1
  Ga  Ga25  1  0.512552  0.274809  0.268505  1
  Ga  Ga26  1  0.276323  0.271169  0.510523  1
  Tc  Tc27  1  0.669160  0.330840  0.000000  1
  Tc  Tc28  1  0.499331  0.500669  0.500000  1
  Pd  Pd29  1  0.834200  0.834462  0.837555  1
  Pd  Pd30  1  0.165538  0.165800  0.162445  1
  Pd  Pd31  1  0.003035  0.336418  0.666485  1
  Pd  Pd32  1  0.339384  0.002405  0.664218  1
  Pd  Pd33  1  0.329159  0.670841  0.000000  1
  Pd  Pd34  1  0.997595  0.660616  0.335782  1
  Pd  Pd35  1  0.663582  0.996965  0.333515  1
