# generated using pymatgen
data_Li22AgAu3
_symmetry_space_group_name_H-M   'P 1'
_cell_length_a   8.43279424
_cell_length_b   8.38352818
_cell_length_c   8.43279517
_cell_angle_alpha   109.35292261
_cell_angle_beta   109.58926270
_cell_angle_gamma   109.35290925
_symmetry_Int_Tables_number   1
_chemical_formula_structural   Li22AgAu3
_chemical_formula_sum   'Li22 Ag1 Au3'
_cell_volume   459.59999412
_cell_formula_units_Z   1
loop_
 _symmetry_equiv_pos_site_id
 _symmetry_equiv_pos_as_xyz
  1  'x, y, z'
loop_
 _atom_site_type_symbol
 _atom_site_label
 _atom_site_symmetry_multiplicity
 _atom_site_fract_x
 _atom_site_fract_y
 _atom_site_fract_z
 _atom_site_occupancy
  Li  Li0  1  0.000000  0.790494  0.000000  1
  Li  Li1  1  0.798163  0.996007  0.000000  1
  Li  Li2  1  0.000000  0.996007  0.798163  1
  Li  Li3  1  0.201837  0.197842  0.201837  1
  Li  Li4  1  0.356184  0.605384  0.356184  1
  Li  Li5  1  0.254459  0.004992  0.648333  1
  Li  Li6  1  0.648333  0.004992  0.254459  1
  Li  Li7  1  0.266338  0.653746  0.000000  1
  Li  Li8  1  0.745541  0.750534  0.393874  1
  Li  Li9  1  0.393874  0.750534  0.745541  1
  Li  Li10  1  0.000000  0.653746  0.266338  1
  Li  Li11  1  0.000000  0.249201  0.643816  1
  Li  Li12  1  0.643816  0.249201  0.000000  1
  Li  Li13  1  0.351667  0.356659  0.606126  1
  Li  Li14  1  0.606126  0.356659  0.351667  1
  Li  Li15  1  0.733662  0.387407  0.733662  1
  Li  Li16  1  0.350761  0.346313  0.000000  1
  Li  Li17  1  0.000000  0.649963  0.653464  1
  Li  Li18  1  0.000000  0.346313  0.350761  1
  Li  Li19  1  0.346536  0.996499  0.346536  1
  Li  Li20  1  0.649239  0.995551  0.649239  1
  Li  Li21  1  0.653464  0.649963  0.000000  1
  Ag  Ag22  1  0.000000  0.343716  0.000000  1
  Au  Au23  1  0.332790  0.000357  0.000000  1
  Au  Au24  1  0.000000  0.000357  0.332790  1
  Au  Au25  1  0.667210  0.667567  0.667210  1
