# generated using pymatgen
data_Sm6OsBr10
_symmetry_space_group_name_H-M   'P 1'
_cell_length_a   7.57335087
_cell_length_b   9.29967448
_cell_length_c   9.58188052
_cell_angle_alpha   108.24307553
_cell_angle_beta   97.15032328
_cell_angle_gamma   105.40872500
_symmetry_Int_Tables_number   1
_chemical_formula_structural   Sm6OsBr10
_chemical_formula_sum   'Sm6 Os1 Br10'
_cell_volume   601.79043111
_cell_formula_units_Z   1
loop_
 _symmetry_equiv_pos_site_id
 _symmetry_equiv_pos_as_xyz
  1  'x, y, z'
loop_
 _atom_site_type_symbol
 _atom_site_label
 _atom_site_symmetry_multiplicity
 _atom_site_fract_x
 _atom_site_fract_y
 _atom_site_fract_z
 _atom_site_occupancy
  Sm  Sm0  1  0.531772  0.212723  0.413744  1
  Sm  Sm1  1  0.468228  0.787277  0.586256  1
  Sm  Sm2  1  0.130267  0.356891  0.314946  1
  Sm  Sm3  1  0.869733  0.643109  0.685054  1
  Sm  Sm4  1  0.627132  0.549861  0.250186  1
  Sm  Sm5  1  0.372868  0.450139  0.749814  1
  Os  Os6  1  0.500000  0.500000  0.500000  1
  Br  Br7  1  0.151584  0.043291  0.228333  1
  Br  Br8  1  0.848416  0.956709  0.771667  1
  Br  Br9  1  0.248113  0.414932  0.046229  1
  Br  Br10  1  0.751887  0.585068  0.953771  1
  Br  Br11  1  0.703659  0.243288  0.154273  1
  Br  Br12  1  0.296341  0.756712  0.845727  1
  Br  Br13  1  0.048918  0.676693  0.418411  1
  Br  Br14  1  0.951082  0.323307  0.581589  1
  Br  Br15  1  0.414631  0.130951  0.671932  1
  Br  Br16  1  0.585369  0.869049  0.328068  1
