# generated using pymatgen
data_Y5ReWC7
_symmetry_space_group_name_H-M   'P 1'
_cell_length_a   8.39687038
_cell_length_b   8.39687016
_cell_length_c   3.43389400
_cell_angle_alpha   90.00000000
_cell_angle_beta   90.00000000
_cell_angle_gamma   122.57415801
_symmetry_Int_Tables_number   1
_chemical_formula_structural   Y5ReWC7
_chemical_formula_sum   'Y5 Re1 W1 C7'
_cell_volume   204.02921087
_cell_formula_units_Z   1
loop_
 _symmetry_equiv_pos_site_id
 _symmetry_equiv_pos_as_xyz
  1  'x, y, z'
loop_
 _atom_site_type_symbol
 _atom_site_label
 _atom_site_symmetry_multiplicity
 _atom_site_fract_x
 _atom_site_fract_y
 _atom_site_fract_z
 _atom_site_occupancy
  Y  Y0  1  0.498801  0.501199  0.000000  1
  Y  Y1  1  0.075662  0.334325  0.500000  1
  Y  Y2  1  0.926645  0.667709  0.500000  1
  Y  Y3  1  0.665675  0.924338  0.500000  1
  Y  Y4  1  0.332291  0.073355  0.500000  1
  Re  Re5  1  0.286918  0.713082  0.000000  1
  W  W6  1  0.713950  0.286050  0.000000  1
  C  C7  1  0.625671  0.374329  0.500000  1
  C  C8  1  0.372317  0.627683  0.500000  1
  C  C9  1  0.999969  0.000031  0.000000  1
  C  C10  1  0.168458  0.167474  0.000000  1
  C  C11  1  0.832526  0.831542  0.000000  1
  C  C12  1  0.001074  0.499957  0.000000  1
  C  C13  1  0.500043  0.998926  0.000000  1
