# generated using pymatgen
data_Hf6Ga6Pd5Ru
_symmetry_space_group_name_H-M   'P 1'
_cell_length_a   7.30777600
_cell_length_b   7.30777493
_cell_length_c   6.74355800
_cell_angle_alpha   90.00000000
_cell_angle_beta   90.00000000
_cell_angle_gamma   119.99999580
_symmetry_Int_Tables_number   1
_chemical_formula_structural   Hf6Ga6Pd5Ru
_chemical_formula_sum   'Hf6 Ga6 Pd5 Ru1'
_cell_volume   311.88187537
_cell_formula_units_Z   1
loop_
 _symmetry_equiv_pos_site_id
 _symmetry_equiv_pos_as_xyz
  1  'x, y, z'
loop_
 _atom_site_type_symbol
 _atom_site_label
 _atom_site_symmetry_multiplicity
 _atom_site_fract_x
 _atom_site_fract_y
 _atom_site_fract_z
 _atom_site_occupancy
  Hf  Hf0  1  0.606569  0.603000  0.255504  1
  Hf  Hf1  1  0.020618  0.403858  0.743940  1
  Hf  Hf2  1  0.397000  0.003568  0.255504  1
  Hf  Hf3  1  0.996432  0.393431  0.255504  1
  Hf  Hf4  1  0.383241  0.979382  0.743940  1
  Hf  Hf5  1  0.596142  0.616759  0.743940  1
  Ga  Ga6  1  0.273686  0.271276  0.498642  1
  Ga  Ga7  1  0.728724  0.002410  0.498642  1
  Ga  Ga8  1  0.997590  0.726314  0.498642  1
  Ga  Ga9  1  0.728847  0.004952  0.000376  1
  Ga  Ga10  1  0.276104  0.271153  0.000376  1
  Ga  Ga11  1  0.995048  0.723896  0.000376  1
  Pd  Pd12  1  0.000000  0.000000  0.749967  1
  Pd  Pd13  1  0.000000  0.000000  0.248303  1
  Pd  Pd14  1  0.333333  0.666667  0.018720  1
  Pd  Pd15  1  0.666667  0.333333  0.520136  1
  Pd  Pd16  1  0.666667  0.333333  0.977132  1
  Ru  Ru17  1  0.333333  0.666667  0.490358  1
