# generated using pymatgen
data_Tb3Er(Sc4Bi3)4
_symmetry_space_group_name_H-M   'P 1'
_cell_length_a   7.89266607
_cell_length_b   9.05952500
_cell_length_c   11.56763311
_cell_angle_alpha   90.00000000
_cell_angle_beta   90.01544587
_cell_angle_gamma   90.00000000
_symmetry_Int_Tables_number   1
_chemical_formula_structural   Tb3Er(Sc4Bi3)4
_chemical_formula_sum   'Tb3 Er1 Sc16 Bi12'
_cell_volume   827.12975866
_cell_formula_units_Z   1
loop_
 _symmetry_equiv_pos_site_id
 _symmetry_equiv_pos_as_xyz
  1  'x, y, z'
loop_
 _atom_site_type_symbol
 _atom_site_label
 _atom_site_symmetry_multiplicity
 _atom_site_fract_x
 _atom_site_fract_y
 _atom_site_fract_z
 _atom_site_occupancy
  Tb  Tb0  1  0.815792  0.250000  0.280962  1
  Tb  Tb1  1  0.684162  0.750000  0.780978  1
  Tb  Tb2  1  0.184152  0.750000  0.719022  1
  Er  Er3  1  0.315527  0.250000  0.218561  1
  Sc  Sc4  1  0.348430  0.750000  0.220588  1
  Sc  Sc5  1  0.848512  0.750000  0.279376  1
  Sc  Sc6  1  0.651507  0.250000  0.779393  1
  Sc  Sc7  1  0.151582  0.250000  0.720580  1
  Sc  Sc8  1  0.693238  0.567261  0.062349  1
  Sc  Sc9  1  0.193157  0.932796  0.437574  1
  Sc  Sc10  1  0.306834  0.067234  0.937773  1
  Sc  Sc11  1  0.806890  0.432776  0.562363  1
  Sc  Sc12  1  0.306834  0.432766  0.937773  1
  Sc  Sc13  1  0.806890  0.067224  0.562363  1
  Sc  Sc14  1  0.693238  0.932739  0.062349  1
  Sc  Sc15  1  0.193157  0.567204  0.437574  1
  Sc  Sc16  1  0.481379  0.250000  0.488446  1
  Sc  Sc17  1  0.981792  0.250000  0.011594  1
  Sc  Sc18  1  0.518340  0.750000  0.511388  1
  Sc  Sc19  1  0.018520  0.750000  0.988641  1
  Bi  Bi20  1  0.402438  0.750000  0.967499  1
  Bi  Bi21  1  0.902355  0.750000  0.532512  1
  Bi  Bi22  1  0.596884  0.250000  0.033123  1
  Bi  Bi23  1  0.097953  0.250000  0.467190  1
  Bi  Bi24  1  0.563436  0.989754  0.328509  1
  Bi  Bi25  1  0.064553  0.510077  0.171457  1
  Bi  Bi26  1  0.436144  0.489300  0.671327  1
  Bi  Bi27  1  0.936085  0.010722  0.828721  1
  Bi  Bi28  1  0.436144  0.010700  0.671327  1
  Bi  Bi29  1  0.936085  0.489278  0.828721  1
  Bi  Bi30  1  0.563436  0.510246  0.328509  1
  Bi  Bi31  1  0.064553  0.989923  0.171457  1
