# generated using pymatgen
data_Pr6Er10Cd4Ir3Pt
_symmetry_space_group_name_H-M   'P 1'
_cell_length_a   9.72355563
_cell_length_b   9.72355491
_cell_length_c   9.72355521
_cell_angle_alpha   60.04254899
_cell_angle_beta   60.04254899
_cell_angle_gamma   60.04255333
_symmetry_Int_Tables_number   1
_chemical_formula_structural   Pr6Er10Cd4Ir3Pt
_chemical_formula_sum   'Pr6 Er10 Cd4 Ir3 Pt1'
_cell_volume   650.69717480
_cell_formula_units_Z   1
loop_
 _symmetry_equiv_pos_site_id
 _symmetry_equiv_pos_as_xyz
  1  'x, y, z'
loop_
 _atom_site_type_symbol
 _atom_site_label
 _atom_site_symmetry_multiplicity
 _atom_site_fract_x
 _atom_site_fract_y
 _atom_site_fract_z
 _atom_site_occupancy
  Pr  Pr0  1  0.941227  0.558565  0.558565  1
  Pr  Pr1  1  0.558509  0.942150  0.942150  1
  Pr  Pr2  1  0.558565  0.941227  0.558565  1
  Pr  Pr3  1  0.942150  0.558509  0.942150  1
  Pr  Pr4  1  0.558565  0.558565  0.941227  1
  Pr  Pr5  1  0.942150  0.942150  0.558509  1
  Er  Er6  1  0.346566  0.346566  0.346566  1
  Er  Er7  1  0.349602  0.349602  0.957578  1
  Er  Er8  1  0.349602  0.957578  0.349602  1
  Er  Er9  1  0.957578  0.349602  0.349602  1
  Er  Er10  1  0.808733  0.187337  0.187337  1
  Er  Er11  1  0.183157  0.813389  0.813389  1
  Er  Er12  1  0.187337  0.808733  0.187337  1
  Er  Er13  1  0.813389  0.183157  0.813389  1
  Er  Er14  1  0.187337  0.187337  0.808733  1
  Er  Er15  1  0.813389  0.813389  0.183157  1
  Cd  Cd16  1  0.578707  0.578707  0.578707  1
  Cd  Cd17  1  0.579777  0.579777  0.261814  1
  Cd  Cd18  1  0.579777  0.261814  0.579777  1
  Cd  Cd19  1  0.261814  0.579777  0.579777  1
  Ir  Ir20  1  0.141846  0.141846  0.576210  1
  Ir  Ir21  1  0.141846  0.576210  0.141846  1
  Ir  Ir22  1  0.576210  0.141846  0.141846  1
  Pt  Pt23  1  0.142167  0.142167  0.142167  1
