# generated using pymatgen
data_Tm3ThAgRh
_symmetry_space_group_name_H-M   'P 1'
_cell_length_a   9.53215988
_cell_length_b   9.53215977
_cell_length_c   9.53215900
_cell_angle_alpha   59.99999225
_cell_angle_beta   59.99999265
_cell_angle_gamma   59.99999069
_symmetry_Int_Tables_number   1
_chemical_formula_structural   Tm3ThAgRh
_chemical_formula_sum   'Tm12 Th4 Ag4 Rh4'
_cell_volume   612.43334847
_cell_formula_units_Z   4
loop_
 _symmetry_equiv_pos_site_id
 _symmetry_equiv_pos_as_xyz
  1  'x, y, z'
loop_
 _atom_site_type_symbol
 _atom_site_label
 _atom_site_symmetry_multiplicity
 _atom_site_fract_x
 _atom_site_fract_y
 _atom_site_fract_z
 _atom_site_occupancy
  Tm  Tm0  1  0.063591  0.436409  0.436409  1
  Tm  Tm1  1  0.436409  0.063591  0.063591  1
  Tm  Tm2  1  0.436409  0.063591  0.436409  1
  Tm  Tm3  1  0.063591  0.436409  0.063591  1
  Tm  Tm4  1  0.436409  0.436409  0.063591  1
  Tm  Tm5  1  0.063591  0.063591  0.436409  1
  Tm  Tm6  1  0.182668  0.817332  0.817332  1
  Tm  Tm7  1  0.817332  0.182668  0.182668  1
  Tm  Tm8  1  0.817332  0.182668  0.817332  1
  Tm  Tm9  1  0.182668  0.817332  0.182668  1
  Tm  Tm10  1  0.817332  0.817332  0.182668  1
  Tm  Tm11  1  0.182668  0.182668  0.817332  1
  Th  Th12  1  0.603563  0.603563  0.603563  1
  Th  Th13  1  0.603563  0.603563  0.189309  1
  Th  Th14  1  0.603563  0.189309  0.603563  1
  Th  Th15  1  0.189309  0.603563  0.603563  1
  Ag  Ag16  1  0.834334  0.834334  0.834334  1
  Ag  Ag17  1  0.834334  0.834334  0.496997  1
  Ag  Ag18  1  0.834334  0.496997  0.834334  1
  Ag  Ag19  1  0.496997  0.834334  0.834334  1
  Rh  Rh20  1  0.393758  0.393758  0.393758  1
  Rh  Rh21  1  0.393758  0.393758  0.818727  1
  Rh  Rh22  1  0.393758  0.818727  0.393758  1
  Rh  Rh23  1  0.818727  0.393758  0.393758  1
