# generated using pymatgen
data_Y3Lu(SiIr2)4
_symmetry_space_group_name_H-M   'P 1'
_cell_length_a   17.76600970
_cell_length_b   4.08066625
_cell_length_c   4.07658100
_cell_angle_alpha   90.00000000
_cell_angle_beta   96.58804142
_cell_angle_gamma   96.59466717
_symmetry_Int_Tables_number   1
_chemical_formula_structural   Y3Lu(SiIr2)4
_chemical_formula_sum   'Y3 Lu1 Si4 Ir8'
_cell_volume   291.62045474
_cell_formula_units_Z   1
loop_
 _symmetry_equiv_pos_site_id
 _symmetry_equiv_pos_as_xyz
  1  'x, y, z'
loop_
 _atom_site_type_symbol
 _atom_site_label
 _atom_site_symmetry_multiplicity
 _atom_site_fract_x
 _atom_site_fract_y
 _atom_site_fract_z
 _atom_site_occupancy
  Y  Y0  1  0.899440  0.449720  0.199721  1
  Y  Y1  1  0.398521  0.199260  0.449260  1
  Y  Y2  1  0.601128  0.800566  0.550564  1
  Lu  Lu3  1  0.099641  0.549821  0.799820  1
  Si  Si4  1  0.675592  0.337796  0.087797  1
  Si  Si5  1  0.175286  0.087643  0.337643  1
  Si  Si6  1  0.825136  0.912568  0.662566  1
  Si  Si7  1  0.324158  0.662080  0.912079  1
  Ir  Ir8  1  0.541979  0.270990  0.020990  1
  Ir  Ir9  1  0.750238  0.875120  0.125120  1
  Ir  Ir10  1  0.043052  0.021527  0.271526  1
  Ir  Ir11  1  0.249358  0.624681  0.374679  1
  Ir  Ir12  1  0.750241  0.375121  0.625120  1
  Ir  Ir13  1  0.959050  0.979527  0.729525  1
  Ir  Ir14  1  0.249310  0.124655  0.874656  1
  Ir  Ir15  1  0.457871  0.728937  0.978936  1
