# generated using pymatgen
data_Tm4AlTcRu6
_symmetry_space_group_name_H-M   'P 1'
_cell_length_a   5.16620832
_cell_length_b   5.36059724
_cell_length_c   8.83039600
_cell_angle_alpha   90.00000000
_cell_angle_beta   90.00000000
_cell_angle_gamma   119.16878604
_symmetry_Int_Tables_number   1
_chemical_formula_structural   Tm4AlTcRu6
_chemical_formula_sum   'Tm4 Al1 Tc1 Ru6'
_cell_volume   213.53688135
_cell_formula_units_Z   1
loop_
 _symmetry_equiv_pos_site_id
 _symmetry_equiv_pos_as_xyz
  1  'x, y, z'
loop_
 _atom_site_type_symbol
 _atom_site_label
 _atom_site_symmetry_multiplicity
 _atom_site_fract_x
 _atom_site_fract_y
 _atom_site_fract_z
 _atom_site_occupancy
  Tm  Tm0  1  0.334736  0.671468  0.438583  1
  Tm  Tm1  1  0.661796  0.328864  0.566551  1
  Tm  Tm2  1  0.661796  0.328864  0.933449  1
  Tm  Tm3  1  0.334736  0.671468  0.061417  1
  Al  Al4  1  0.837801  0.167135  0.250000  1
  Tc  Tc5  1  0.655890  0.830391  0.750000  1
  Ru  Ru6  1  0.995227  0.990424  0.499392  1
  Ru  Ru7  1  0.995227  0.990424  0.000608  1
  Ru  Ru8  1  0.825535  0.654947  0.250000  1
  Ru  Ru9  1  0.351871  0.181762  0.250000  1
  Ru  Ru10  1  0.167963  0.835187  0.750000  1
  Ru  Ru11  1  0.177422  0.349065  0.750000  1
