# generated using pymatgen
data_Dy2Si3Sn(AsRh4)3
_symmetry_space_group_name_H-M   'P 1'
_cell_length_a   9.98491800
_cell_length_b   9.98491881
_cell_length_c   3.89783400
_cell_angle_alpha   90.00000000
_cell_angle_beta   90.00000000
_cell_angle_gamma   120.00000394
_symmetry_Int_Tables_number   1
_chemical_formula_structural   Dy2Si3Sn(AsRh4)3
_chemical_formula_sum   'Dy2 Si3 Sn1 As3 Rh12'
_cell_volume   336.54488512
_cell_formula_units_Z   1
loop_
 _symmetry_equiv_pos_site_id
 _symmetry_equiv_pos_as_xyz
  1  'x, y, z'
loop_
 _atom_site_type_symbol
 _atom_site_label
 _atom_site_symmetry_multiplicity
 _atom_site_fract_x
 _atom_site_fract_y
 _atom_site_fract_z
 _atom_site_occupancy
  Dy  Dy0  1  0.333333  0.666667  0.754951  1
  Dy  Dy1  1  0.666667  0.333333  0.246719  1
  Si  Si2  1  0.885427  0.594409  0.748037  1
  Si  Si3  1  0.405591  0.291018  0.748037  1
  Si  Si4  1  0.708982  0.114573  0.748037  1
  Sn  Sn5  1  0.000000  0.000000  0.591614  1
  As  As6  1  0.115161  0.405536  0.252788  1
  As  As7  1  0.594464  0.709625  0.252788  1
  As  As8  1  0.290375  0.884839  0.252788  1
  Rh  Rh9  1  0.622349  0.548134  0.750380  1
  Rh  Rh10  1  0.451866  0.074216  0.750380  1
  Rh  Rh11  1  0.925784  0.377651  0.750380  1
  Rh  Rh12  1  0.390015  0.442795  0.250688  1
  Rh  Rh13  1  0.557205  0.947220  0.250688  1
  Rh  Rh14  1  0.052780  0.609985  0.250688  1
  Rh  Rh15  1  0.124094  0.836929  0.755399  1
  Rh  Rh16  1  0.163071  0.287165  0.755399  1
  Rh  Rh17  1  0.712835  0.875906  0.755399  1
  Rh  Rh18  1  0.874334  0.148580  0.246375  1
  Rh  Rh19  1  0.851420  0.725754  0.246375  1
  Rh  Rh20  1  0.274246  0.125666  0.246375  1
