# generated using pymatgen
data_Er2Sc5Zn(Co3Sn11)2
_symmetry_space_group_name_H-M   'P 1'
_cell_length_a   9.54435515
_cell_length_b   9.54291231
_cell_length_c   9.80670972
_cell_angle_alpha   89.99999904
_cell_angle_beta   90.10682525
_cell_angle_gamma   119.99500300
_symmetry_Int_Tables_number   1
_chemical_formula_structural   Er2Sc5Zn(Co3Sn11)2
_chemical_formula_sum   'Er2 Sc5 Zn1 Co6 Sn22'
_cell_volume   773.57484003
_cell_formula_units_Z   1
loop_
 _symmetry_equiv_pos_site_id
 _symmetry_equiv_pos_as_xyz
  1  'x, y, z'
loop_
 _atom_site_type_symbol
 _atom_site_label
 _atom_site_symmetry_multiplicity
 _atom_site_fract_x
 _atom_site_fract_y
 _atom_site_fract_z
 _atom_site_occupancy
  Er  Er0  1  0.962126  0.481062  0.692243  1
  Er  Er1  1  0.000960  0.000480  0.000574  1
  Sc  Sc2  1  0.481808  0.517647  0.306999  1
  Sc  Sc3  1  0.518986  0.482335  0.692401  1
  Sc  Sc4  1  0.481808  0.964161  0.306999  1
  Sc  Sc5  1  0.518986  0.036650  0.692401  1
  Sc  Sc6  1  0.035756  0.517878  0.308476  1
  Zn  Zn7  1  0.000450  0.000225  0.499557  1
  Co  Co8  1  0.831126  0.168327  0.199000  1
  Co  Co9  1  0.169023  0.831840  0.800687  1
  Co  Co10  1  0.831126  0.662801  0.199000  1
  Co  Co11  1  0.169023  0.337181  0.800687  1
  Co  Co12  1  0.338133  0.169068  0.199409  1
  Co  Co13  1  0.660235  0.830116  0.801617  1
  Sn  Sn14  1  0.117020  0.883991  0.278813  1
  Sn  Sn15  1  0.882819  0.113175  0.721072  1
  Sn  Sn16  1  0.117020  0.233028  0.278813  1
  Sn  Sn17  1  0.882819  0.769644  0.721072  1
  Sn  Sn18  1  0.765514  0.882757  0.278769  1
  Sn  Sn19  1  0.234559  0.117279  0.721404  1
  Sn  Sn20  1  0.779519  0.216748  0.453134  1
  Sn  Sn21  1  0.223320  0.785646  0.542833  1
  Sn  Sn22  1  0.779519  0.562771  0.453134  1
  Sn  Sn23  1  0.223320  0.437674  0.542833  1
  Sn  Sn24  1  0.438310  0.219155  0.455083  1
  Sn  Sn25  1  0.562246  0.781123  0.544829  1
  Sn  Sn26  1  0.346918  0.000199  0.000082  1
  Sn  Sn27  1  0.653251  0.999900  0.000148  1
  Sn  Sn28  1  0.000462  0.346720  0.001066  1
  Sn  Sn29  1  0.000462  0.653742  0.001066  1
  Sn  Sn30  1  0.653251  0.653351  0.000148  1
  Sn  Sn31  1  0.346918  0.346719  0.000082  1
  Sn  Sn32  1  0.332720  0.666360  0.135940  1
  Sn  Sn33  1  0.658948  0.329474  0.868602  1
  Sn  Sn34  1  0.334924  0.667463  0.820427  1
  Sn  Sn35  1  0.666616  0.333307  0.180599  1
