# generated using pymatgen
data_HoUBiN2
_symmetry_space_group_name_H-M   'P 1'
_cell_length_a   6.87020988
_cell_length_b   6.87020887
_cell_length_c   6.87021002
_cell_angle_alpha   146.64256548
_cell_angle_beta   146.64255229
_cell_angle_gamma   47.89332796
_symmetry_Int_Tables_number   1
_chemical_formula_structural   HoUBiN2
_chemical_formula_sum   'Ho1 U1 Bi1 N2'
_cell_volume   97.64682095
_cell_formula_units_Z   1
loop_
 _symmetry_equiv_pos_site_id
 _symmetry_equiv_pos_as_xyz
  1  'x, y, z'
loop_
 _atom_site_type_symbol
 _atom_site_label
 _atom_site_symmetry_multiplicity
 _atom_site_fract_x
 _atom_site_fract_y
 _atom_site_fract_z
 _atom_site_occupancy
  Ho  Ho0  1  0.337285  0.337285  0.000000  1
  U  U1  1  0.671327  0.671327  0.000000  1
  Bi  Bi2  1  0.006481  0.006481  0.000000  1
  N  N3  1  0.742453  0.242453  0.500000  1
  N  N4  1  0.242453  0.742453  0.500000  1
