# generated using pymatgen
data_Ho2Th(SnIr)3
_symmetry_space_group_name_H-M   'P 1'
_cell_length_a   7.44973323
_cell_length_b   7.44973274
_cell_length_c   4.05213600
_cell_angle_alpha   90.00000000
_cell_angle_beta   90.00000000
_cell_angle_gamma   119.29189625
_symmetry_Int_Tables_number   1
_chemical_formula_structural   Ho2Th(SnIr)3
_chemical_formula_sum   'Ho2 Th1 Sn3 Ir3'
_cell_volume   196.13309247
_cell_formula_units_Z   1
loop_
 _symmetry_equiv_pos_site_id
 _symmetry_equiv_pos_as_xyz
  1  'x, y, z'
loop_
 _atom_site_type_symbol
 _atom_site_label
 _atom_site_symmetry_multiplicity
 _atom_site_fract_x
 _atom_site_fract_y
 _atom_site_fract_z
 _atom_site_occupancy
  Ho  Ho0  1  0.594380  0.000059  0.500000  1
  Ho  Ho1  1  0.000059  0.594380  0.500000  1
  Th  Th2  1  0.413157  0.413157  0.500000  1
  Sn  Sn3  1  0.754255  0.754255  0.000000  1
  Sn  Sn4  1  0.254920  0.989021  0.000000  1
  Sn  Sn5  1  0.989021  0.254920  0.000000  1
  Ir  Ir6  1  0.655889  0.333612  0.000000  1
  Ir  Ir7  1  0.333612  0.655889  0.000000  1
  Ir  Ir8  1  0.004707  0.004707  0.500000  1
