# generated using pymatgen
data_Dy4Lu4Tc(B8Ru)3
_symmetry_space_group_name_H-M   'P 1'
_cell_length_a   3.63097600
_cell_length_b   9.07438275
_cell_length_c   11.46667103
_cell_angle_alpha   89.92018086
_cell_angle_beta   90.00000000
_cell_angle_gamma   90.00000000
_symmetry_Int_Tables_number   1
_chemical_formula_structural   Dy4Lu4Tc(B8Ru)3
_chemical_formula_sum   'Dy4 Lu4 Tc1 B24 Ru3'
_cell_volume   377.81344025
_cell_formula_units_Z   1
loop_
 _symmetry_equiv_pos_site_id
 _symmetry_equiv_pos_as_xyz
  1  'x, y, z'
loop_
 _atom_site_type_symbol
 _atom_site_label
 _atom_site_symmetry_multiplicity
 _atom_site_fract_x
 _atom_site_fract_y
 _atom_site_fract_z
 _atom_site_occupancy
  Dy  Dy0  1  0.000000  0.323466  0.413420  1
  Dy  Dy1  1  0.000000  0.678022  0.583223  1
  Dy  Dy2  1  0.000000  0.819887  0.087538  1
  Dy  Dy3  1  0.000000  0.177753  0.915289  1
  Lu  Lu4  1  0.000000  0.943394  0.372235  1
  Lu  Lu5  1  0.000000  0.057164  0.628231  1
  Lu  Lu6  1  0.000000  0.444359  0.128265  1
  Lu  Lu7  1  0.000000  0.556532  0.871413  1
  Tc  Tc8  1  0.000000  0.638615  0.320286  1
  B  B9  1  0.500000  0.553541  0.432810  1
  B  B10  1  0.500000  0.445804  0.567659  1
  B  B11  1  0.500000  0.054242  0.067456  1
  B  B12  1  0.500000  0.945343  0.932951  1
  B  B13  1  0.500000  0.750137  0.418751  1
  B  B14  1  0.500000  0.250348  0.581230  1
  B  B15  1  0.500000  0.249775  0.080921  1
  B  B16  1  0.500000  0.749878  0.918926  1
  B  B17  1  0.500000  0.792252  0.265471  1
  B  B18  1  0.500000  0.208339  0.734605  1
  B  B19  1  0.500000  0.291552  0.233810  1
  B  B20  1  0.500000  0.708690  0.765337  1
  B  B21  1  0.500000  0.630311  0.184574  1
  B  B22  1  0.500000  0.369357  0.815806  1
  B  B23  1  0.500000  0.130504  0.315305  1
  B  B24  1  0.500000  0.869995  0.684302  1
  B  B25  1  0.500000  0.982789  0.213278  1
  B  B26  1  0.500000  0.017146  0.787260  1
  B  B27  1  0.500000  0.481824  0.286703  1
  B  B28  1  0.500000  0.517127  0.713208  1
  B  B29  1  0.500000  0.602896  0.027625  1
  B  B30  1  0.500000  0.396433  0.971329  1
  B  B31  1  0.500000  0.103987  0.471874  1
  B  B32  1  0.500000  0.897761  0.528718  1
  Ru  Ru33  1  0.000000  0.360969  0.680528  1
  Ru  Ru34  1  0.000000  0.138535  0.179586  1
  Ru  Ru35  1  0.000000  0.861271  0.820076  1
