# generated using pymatgen
data_CsRbCe3HfBr18
_symmetry_space_group_name_H-M   'P 1'
_cell_length_a   7.23415810
_cell_length_b   10.85217681
_cell_length_c   13.76324682
_cell_angle_alpha   67.10258391
_cell_angle_beta   90.04314232
_cell_angle_gamma   90.49325157
_symmetry_Int_Tables_number   1
_chemical_formula_structural   CsRbCe3HfBr18
_chemical_formula_sum   'Cs1 Rb1 Ce3 Hf1 Br18'
_cell_volume   995.32120781
_cell_formula_units_Z   1
loop_
 _symmetry_equiv_pos_site_id
 _symmetry_equiv_pos_as_xyz
  1  'x, y, z'
loop_
 _atom_site_type_symbol
 _atom_site_label
 _atom_site_symmetry_multiplicity
 _atom_site_fract_x
 _atom_site_fract_y
 _atom_site_fract_z
 _atom_site_occupancy
  Cs  Cs0  1  0.597587  0.500410  0.750741  1
  Rb  Rb1  1  0.417888  0.503089  0.245660  1
  Ce  Ce2  1  0.257588  0.820854  0.868271  1
  Ce  Ce3  1  0.739359  0.170787  0.138764  1
  Ce  Ce4  1  0.260244  0.180916  0.630170  1
  Hf  Hf5  1  0.735589  0.821621  0.365190  1
  Br  Br6  1  0.120566  0.770674  0.062482  1
  Br  Br7  1  0.884195  0.218174  0.945622  1
  Br  Br8  1  0.122252  0.230339  0.436405  1
  Br  Br9  1  0.882487  0.789840  0.539000  1
  Br  Br10  1  0.112094  0.607219  0.837953  1
  Br  Br11  1  0.878013  0.389850  0.166361  1
  Br  Br12  1  0.118639  0.396595  0.656534  1
  Br  Br13  1  0.876342  0.624247  0.339948  1
  Br  Br14  1  0.964465  0.999970  0.749070  1
  Br  Br15  1  0.023409  0.985759  0.257928  1
  Br  Br16  1  0.407466  0.082292  0.845312  1
  Br  Br17  1  0.592140  0.910264  0.162201  1
  Br  Br18  1  0.408246  0.920534  0.653480  1
  Br  Br19  1  0.592752  0.064128  0.352202  1
  Br  Br20  1  0.582200  0.694649  0.943999  1
  Br  Br21  1  0.413310  0.298205  0.063928  1
  Br  Br22  1  0.586023  0.309390  0.553873  1
  Br  Br23  1  0.427144  0.710196  0.434907  1
