# generated using pymatgen
data_Hf2Zr8Zn2(BiPb)3
_symmetry_space_group_name_H-M   'P 1'
_cell_length_a   8.84560400
_cell_length_b   8.84266985
_cell_length_c   5.91839529
_cell_angle_alpha   89.93464206
_cell_angle_beta   89.99993847
_cell_angle_gamma   120.01066444
_symmetry_Int_Tables_number   1
_chemical_formula_structural   Hf2Zr8Zn2(BiPb)3
_chemical_formula_sum   'Hf2 Zr8 Zn2 Bi3 Pb3'
_cell_volume   400.86528353
_cell_formula_units_Z   1
loop_
 _symmetry_equiv_pos_site_id
 _symmetry_equiv_pos_as_xyz
  1  'x, y, z'
loop_
 _atom_site_type_symbol
 _atom_site_label
 _atom_site_symmetry_multiplicity
 _atom_site_fract_x
 _atom_site_fract_y
 _atom_site_fract_z
 _atom_site_occupancy
  Hf  Hf0  1  0.333046  0.666719  0.000513  1
  Hf  Hf1  1  0.666330  0.333282  0.499486  1
  Zr  Zr2  1  0.666639  0.333216  0.000231  1
  Zr  Zr3  1  0.333422  0.666785  0.499769  1
  Zr  Zr4  1  0.265316  0.999999  0.249999  1
  Zr  Zr5  1  0.265945  0.264907  0.749948  1
  Zr  Zr6  1  0.001041  0.735093  0.750055  1
  Zr  Zr7  1  0.000751  0.266226  0.249998  1
  Zr  Zr8  1  0.734523  0.733774  0.250003  1
  Zr  Zr9  1  0.733669  0.999998  0.749999  1
  Zn  Zn10  1  0.000620  0.000000  0.000164  1
  Zn  Zn11  1  0.000620  0.999999  0.499836  1
  Bi  Bi12  1  0.613636  0.000000  0.249999  1
  Bi  Bi13  1  0.614184  0.613751  0.750051  1
  Bi  Bi14  1  0.000432  0.386250  0.749950  1
  Pb  Pb15  1  0.000156  0.615133  0.250051  1
  Pb  Pb16  1  0.385024  0.384866  0.249949  1
  Pb  Pb17  1  0.384645  0.000001  0.750000  1
