# generated using pymatgen
data_Dy3Ho9Fe2I17
_symmetry_space_group_name_H-M   'P 1'
_cell_length_a   9.71229465
_cell_length_b   11.65342366
_cell_length_c   11.69657230
_cell_angle_alpha   93.63340795
_cell_angle_beta   104.73463164
_cell_angle_gamma   114.09222787
_symmetry_Int_Tables_number   1
_chemical_formula_structural   Dy3Ho9Fe2I17
_chemical_formula_sum   'Dy3 Ho9 Fe2 I17'
_cell_volume   1147.62248864
_cell_formula_units_Z   1
loop_
 _symmetry_equiv_pos_site_id
 _symmetry_equiv_pos_as_xyz
  1  'x, y, z'
loop_
 _atom_site_type_symbol
 _atom_site_label
 _atom_site_symmetry_multiplicity
 _atom_site_fract_x
 _atom_site_fract_y
 _atom_site_fract_z
 _atom_site_occupancy
  Dy  Dy0  1  0.052351  0.503176  0.319924  1
  Dy  Dy1  1  0.992202  0.807525  0.590209  1
  Dy  Dy2  1  0.658320  0.241832  0.279520  1
  Ho  Ho3  1  0.008580  0.191380  0.411742  1
  Ho  Ho4  1  0.217642  0.672358  0.980397  1
  Ho  Ho5  1  0.252474  0.975292  0.887876  1
  Ho  Ho6  1  0.344807  0.757887  0.719415  1
  Ho  Ho7  1  0.950471  0.499902  0.681684  1
  Ho  Ho8  1  0.746724  0.022945  0.111203  1
  Ho  Ho9  1  0.135971  0.285664  0.153803  1
  Ho  Ho10  1  0.780449  0.328158  0.016815  1
  Ho  Ho11  1  0.859253  0.713915  0.847111  1
  Fe  Fe12  1  0.102693  0.738271  0.785730  1
  Fe  Fe13  1  0.895813  0.261910  0.214254  1
  I  I14  1  0.784959  0.527670  0.417843  1
  I  I15  1  0.646360  0.419904  0.763238  1
  I  I16  1  0.844249  0.897370  0.327297  1
  I  I17  1  0.325475  0.214087  0.367290  1
  I  I18  1  0.155867  0.103064  0.672692  1
  I  I19  1  0.585460  0.053096  0.843727  1
  I  I20  1  0.761337  0.190590  0.538631  1
  I  I21  1  0.552303  0.712702  0.954845  1
  I  I22  1  0.352881  0.578412  0.235494  1
  I  I23  1  0.215684  0.470992  0.582466  1
  I  I24  1  0.055842  0.368115  0.898128  1
  I  I25  1  0.448749  0.287197  0.045149  1
  I  I26  1  0.001123  0.001471  0.000832  1
  I  I27  1  0.241457  0.810753  0.461572  1
  I  I28  1  0.415843  0.947290  0.155880  1
  I  I29  1  0.671455  0.785725  0.632619  1
  I  I30  1  0.943203  0.631348  0.102615  1
