# generated using pymatgen
data_ZrInNi3Ir
_symmetry_space_group_name_H-M   'P 1'
_cell_length_a   4.89284900
_cell_length_b   4.89284971
_cell_length_c   5.11317715
_cell_angle_alpha   118.58455659
_cell_angle_beta   89.99998830
_cell_angle_gamma   120.00000874
_symmetry_Int_Tables_number   1
_chemical_formula_structural   ZrInNi3Ir
_chemical_formula_sum   'Zr1 In1 Ni3 Ir1'
_cell_volume   88.36229343
_cell_formula_units_Z   1
loop_
 _symmetry_equiv_pos_site_id
 _symmetry_equiv_pos_as_xyz
  1  'x, y, z'
loop_
 _atom_site_type_symbol
 _atom_site_label
 _atom_site_symmetry_multiplicity
 _atom_site_fract_x
 _atom_site_fract_y
 _atom_site_fract_z
 _atom_site_occupancy
  Zr  Zr0  1  0.000170  0.000340  0.000510  1
  In  In1  1  0.755277  0.510554  0.265832  1
  Ni  Ni2  1  0.373832  0.246693  0.620525  1
  Ni  Ni3  1  0.373832  0.747663  0.620525  1
  Ni  Ni4  1  0.872860  0.246693  0.620525  1
  Ir  Ir5  1  0.374029  0.748057  0.122084  1
