# generated using pymatgen
data_Hf4InTeRh10
_symmetry_space_group_name_H-M   'P 1'
_cell_length_a   4.13948200
_cell_length_b   5.65917343
_cell_length_c   11.10629841
_cell_angle_alpha   89.50727427
_cell_angle_beta   90.00000000
_cell_angle_gamma   90.00000000
_symmetry_Int_Tables_number   1
_chemical_formula_structural   Hf4InTeRh10
_chemical_formula_sum   'Hf4 In1 Te1 Rh10'
_cell_volume   260.16704310
_cell_formula_units_Z   1
loop_
 _symmetry_equiv_pos_site_id
 _symmetry_equiv_pos_as_xyz
  1  'x, y, z'
loop_
 _atom_site_type_symbol
 _atom_site_label
 _atom_site_symmetry_multiplicity
 _atom_site_fract_x
 _atom_site_fract_y
 _atom_site_fract_z
 _atom_site_occupancy
  Hf  Hf0  1  0.500000  0.183420  0.638897  1
  Hf  Hf1  1  0.500000  0.816580  0.361103  1
  Hf  Hf2  1  0.500000  0.672905  0.853413  1
  Hf  Hf3  1  0.500000  0.327095  0.146587  1
  In  In4  1  0.000000  0.500000  0.500000  1
  Te  Te5  1  0.000000  0.000000  0.000000  1
  Rh  Rh6  1  0.500000  0.198542  0.888906  1
  Rh  Rh7  1  0.500000  0.801458  0.111094  1
  Rh  Rh8  1  0.500000  0.708649  0.616720  1
  Rh  Rh9  1  0.500000  0.291351  0.383280  1
  Rh  Rh10  1  0.000000  0.437700  0.749069  1
  Rh  Rh11  1  0.000000  0.562300  0.250931  1
  Rh  Rh12  1  0.000000  0.000000  0.500000  1
  Rh  Rh13  1  0.000000  0.500000  0.000000  1
  Rh  Rh14  1  0.000000  0.061416  0.245369  1
  Rh  Rh15  1  0.000000  0.938584  0.754631  1
