# generated using pymatgen
data_DyY2Cd3IrAu2
_symmetry_space_group_name_H-M   'P 1'
_cell_length_a   7.88847719
_cell_length_b   7.87844939
_cell_length_c   3.79705200
_cell_angle_alpha   90.00000000
_cell_angle_beta   90.00000000
_cell_angle_gamma   119.93898008
_symmetry_Int_Tables_number   1
_chemical_formula_structural   DyY2Cd3IrAu2
_chemical_formula_sum   'Dy1 Y2 Cd3 Ir1 Au2'
_cell_volume   204.49270028
_cell_formula_units_Z   1
loop_
 _symmetry_equiv_pos_site_id
 _symmetry_equiv_pos_as_xyz
  1  'x, y, z'
loop_
 _atom_site_type_symbol
 _atom_site_label
 _atom_site_symmetry_multiplicity
 _atom_site_fract_x
 _atom_site_fract_y
 _atom_site_fract_z
 _atom_site_occupancy
  Dy  Dy0  1  0.390397  0.419004  0.000000  1
  Y  Y1  1  0.581726  0.972253  0.000000  1
  Y  Y2  1  0.027802  0.609632  0.000000  1
  Cd  Cd3  1  0.269829  0.004374  0.500000  1
  Cd  Cd4  1  0.995628  0.265541  0.500000  1
  Cd  Cd5  1  0.734461  0.730129  0.500000  1
  Ir  Ir6  1  0.333587  0.665212  0.500000  1
  Au  Au7  1  0.666219  0.333454  0.500000  1
  Au  Au8  1  0.000351  0.000400  0.000000  1
