# generated using pymatgen
data_Tb3DyTcOs7
_symmetry_space_group_name_H-M   'P 1'
_cell_length_a   5.31927904
_cell_length_b   5.31927965
_cell_length_c   8.85146201
_cell_angle_alpha   89.99436695
_cell_angle_beta   90.00563120
_cell_angle_gamma   118.78562769
_symmetry_Int_Tables_number   1
_chemical_formula_structural   Tb3DyTcOs7
_chemical_formula_sum   'Tb3 Dy1 Tc1 Os7'
_cell_volume   219.50104809
_cell_formula_units_Z   1
loop_
 _symmetry_equiv_pos_site_id
 _symmetry_equiv_pos_as_xyz
  1  'x, y, z'
loop_
 _atom_site_type_symbol
 _atom_site_label
 _atom_site_symmetry_multiplicity
 _atom_site_fract_x
 _atom_site_fract_y
 _atom_site_fract_z
 _atom_site_occupancy
  Tb  Tb0  1  0.330963  0.669037  0.435953  1
  Tb  Tb1  1  0.665621  0.334379  0.565848  1
  Tb  Tb2  1  0.665621  0.334379  0.934255  1
  Dy  Dy3  1  0.330912  0.669088  0.063950  1
  Tc  Tc4  1  0.831272  0.168728  0.249792  1
  Os  Os5  1  0.994742  0.005258  0.499900  1
  Os  Os6  1  0.994791  0.005209  0.000203  1
  Os  Os7  1  0.826384  0.652409  0.249740  1
  Os  Os8  1  0.347591  0.173616  0.249740  1
  Os  Os9  1  0.178932  0.821068  0.750217  1
  Os  Os10  1  0.170432  0.337260  0.750201  1
  Os  Os11  1  0.662740  0.829568  0.750201  1
