# generated using pymatgen
data_Ti6Co2Tc3Ru
_symmetry_space_group_name_H-M   'P 1'
_cell_length_a   4.32491700
_cell_length_b   6.11910900
_cell_length_c   12.97927700
_cell_angle_alpha   90.00020451
_cell_angle_beta   89.99913020
_cell_angle_gamma   89.99593186
_symmetry_Int_Tables_number   1
_chemical_formula_structural   Ti6Co2Tc3Ru
_chemical_formula_sum   'Ti12 Co4 Tc6 Ru2'
_cell_volume   343.49187385
_cell_formula_units_Z   2
loop_
 _symmetry_equiv_pos_site_id
 _symmetry_equiv_pos_as_xyz
  1  'x, y, z'
loop_
 _atom_site_type_symbol
 _atom_site_label
 _atom_site_symmetry_multiplicity
 _atom_site_fract_x
 _atom_site_fract_y
 _atom_site_fract_z
 _atom_site_occupancy
  Ti  Ti0  1  0.499997  0.250305  0.999330  1
  Ti  Ti1  1  0.500000  0.749695  0.999330  1
  Ti  Ti2  1  0.999945  0.249702  0.167376  1
  Ti  Ti3  1  0.999941  0.750299  0.167376  1
  Ti  Ti4  1  0.499934  0.248565  0.334540  1
  Ti  Ti5  1  0.499944  0.751439  0.334540  1
  Ti  Ti6  1  0.000005  0.250516  0.500442  1
  Ti  Ti7  1  0.999993  0.749484  0.500442  1
  Ti  Ti8  1  0.500053  0.249399  0.666216  1
  Ti  Ti9  1  0.500063  0.750599  0.666216  1
  Ti  Ti10  1  0.000063  0.251361  0.832111  1
  Ti  Ti11  1  0.000054  0.748635  0.832111  1
  Co  Co12  1  0.999941  0.000000  0.336028  1
  Co  Co13  1  0.499999  0.500004  0.501348  1
  Co  Co14  1  0.000066  0.999997  0.665306  1
  Co  Co15  1  0.500054  0.500000  0.830640  1
  Tc  Tc16  1  0.999998  0.499999  0.996831  1
  Tc  Tc17  1  0.499940  0.000002  0.169891  1
  Tc  Tc18  1  0.999938  0.500001  0.337500  1
  Tc  Tc19  1  0.500000  0.000000  0.501103  1
  Tc  Tc20  1  0.000057  0.499999  0.665540  1
  Tc  Tc21  1  0.500054  0.999998  0.829145  1
  Ru  Ru22  1  0.999997  0.999999  0.998799  1
  Ru  Ru23  1  0.499964  0.500009  0.167839  1
