# generated using pymatgen
data_Ti12V7Si16Rh
_symmetry_space_group_name_H-M   'P 1'
_cell_length_a   6.54343495
_cell_length_b   6.55551508
_cell_length_c   12.01011176
_cell_angle_alpha   89.77695256
_cell_angle_beta   90.18582431
_cell_angle_gamma   89.81374223
_symmetry_Int_Tables_number   1
_chemical_formula_structural   Ti12V7Si16Rh
_chemical_formula_sum   'Ti12 V7 Si16 Rh1'
_cell_volume   515.17143137
_cell_formula_units_Z   1
loop_
 _symmetry_equiv_pos_site_id
 _symmetry_equiv_pos_as_xyz
  1  'x, y, z'
loop_
 _atom_site_type_symbol
 _atom_site_label
 _atom_site_symmetry_multiplicity
 _atom_site_fract_x
 _atom_site_fract_y
 _atom_site_fract_z
 _atom_site_occupancy
  Ti  Ti0  1  0.842879  0.002286  0.880855  1
  Ti  Ti1  1  0.001808  0.343985  0.221425  1
  Ti  Ti2  1  0.159330  0.502009  0.468883  1
  Ti  Ti3  1  0.835484  0.498491  0.968971  1
  Ti  Ti4  1  0.501131  0.159598  0.529714  1
  Ti  Ti5  1  0.496974  0.836408  0.031098  1
  Ti  Ti6  1  0.997826  0.660771  0.720208  1
  Ti  Ti7  1  0.344207  0.002645  0.779225  1
  Ti  Ti8  1  0.657882  0.997847  0.280221  1
  Ti  Ti9  1  0.331675  0.668291  0.247863  1
  Ti  Ti10  1  0.667557  0.331055  0.751508  1
  Ti  Ti11  1  0.833072  0.833414  0.499379  1
  V  V12  1  0.994509  0.154270  0.623073  1
  V  V13  1  0.349007  0.497435  0.869419  1
  V  V14  1  0.653360  0.506149  0.371335  1
  V  V15  1  0.500336  0.350174  0.131903  1
  V  V16  1  0.503679  0.652453  0.627445  1
  V  V17  1  0.004763  0.836438  0.120142  1
  V  V18  1  0.153331  0.995865  0.376960  1
  Si  Si19  1  0.046995  0.299929  0.815406  1
  Si  Si20  1  0.206144  0.536730  0.059924  1
  Si  Si21  1  0.797938  0.457416  0.562947  1
  Si  Si22  1  0.537487  0.206708  0.941824  1
  Si  Si23  1  0.456099  0.798005  0.436473  1
  Si  Si24  1  0.957356  0.703595  0.312657  1
  Si  Si25  1  0.294107  0.046164  0.183510  1
  Si  Si26  1  0.701020  0.956712  0.685513  1
  Si  Si27  1  0.291326  0.364263  0.672724  1
  Si  Si28  1  0.138280  0.787731  0.923682  1
  Si  Si29  1  0.865684  0.209002  0.422917  1
  Si  Si30  1  0.791185  0.131818  0.080825  1
  Si  Si31  1  0.208009  0.866854  0.576753  1
  Si  Si32  1  0.709545  0.635390  0.173005  1
  Si  Si33  1  0.365250  0.291047  0.326512  1
  Si  Si34  1  0.633478  0.705661  0.825131  1
  Rh  Rh35  1  0.171288  0.173392  0.000571  1
