# generated using pymatgen
data_SrNd3Pt2(RhO7)2
_symmetry_space_group_name_H-M   'P 1'
_cell_length_a   7.38565056
_cell_length_b   7.45233697
_cell_length_c   7.45233559
_cell_angle_alpha   60.17475850
_cell_angle_beta   59.93643969
_cell_angle_gamma   59.93643773
_symmetry_Int_Tables_number   1
_chemical_formula_structural   SrNd3Pt2(RhO7)2
_chemical_formula_sum   'Sr1 Nd3 Pt2 Rh2 O14'
_cell_volume   290.14155683
_cell_formula_units_Z   1
loop_
 _symmetry_equiv_pos_site_id
 _symmetry_equiv_pos_as_xyz
  1  'x, y, z'
loop_
 _atom_site_type_symbol
 _atom_site_label
 _atom_site_symmetry_multiplicity
 _atom_site_fract_x
 _atom_site_fract_y
 _atom_site_fract_z
 _atom_site_occupancy
  Sr  Sr0  1  0.125000  0.625000  0.625000  1
  Nd  Nd1  1  0.625000  0.625000  0.125000  1
  Nd  Nd2  1  0.625000  0.125000  0.625000  1
  Nd  Nd3  1  0.625000  0.625000  0.625000  1
  Pt  Pt4  1  0.625000  0.125000  0.125000  1
  Pt  Pt5  1  0.125000  0.125000  0.125000  1
  Rh  Rh6  1  0.125000  0.125000  0.625000  1
  Rh  Rh7  1  0.125000  0.625000  0.125000  1
  O  O8  1  0.512457  0.495664  0.495664  1
  O  O9  1  0.737543  0.754336  0.754336  1
  O  O10  1  0.457889  0.042464  0.455762  1
  O  O11  1  0.208825  0.796046  0.197307  1
  O  O12  1  0.457889  0.455762  0.042464  1
  O  O13  1  0.042782  0.450651  0.450651  1
  O  O14  1  0.460327  0.040624  0.040624  1
  O  O15  1  0.041175  0.052693  0.453954  1
  O  O16  1  0.041175  0.453954  0.052693  1
  O  O17  1  0.789673  0.209376  0.209376  1
  O  O18  1  0.207218  0.799349  0.799349  1
  O  O19  1  0.792111  0.207536  0.794238  1
  O  O20  1  0.208825  0.197307  0.796046  1
  O  O21  1  0.792111  0.794238  0.207536  1
