# generated using pymatgen
data_Dy8HoTm11Sn16
_symmetry_space_group_name_H-M   'P 1'
_cell_length_a   7.97840702
_cell_length_b   8.10992219
_cell_length_c   15.32555100
_cell_angle_alpha   89.99589529
_cell_angle_beta   89.99579173
_cell_angle_gamma   89.98813773
_symmetry_Int_Tables_number   1
_chemical_formula_structural   Dy8HoTm11Sn16
_chemical_formula_sum   'Dy8 Ho1 Tm11 Sn16'
_cell_volume   991.62841286
_cell_formula_units_Z   1
loop_
 _symmetry_equiv_pos_site_id
 _symmetry_equiv_pos_as_xyz
  1  'x, y, z'
loop_
 _atom_site_type_symbol
 _atom_site_label
 _atom_site_symmetry_multiplicity
 _atom_site_fract_x
 _atom_site_fract_y
 _atom_site_fract_z
 _atom_site_occupancy
  Dy  Dy0  1  0.521340  0.320830  0.902985  1
  Dy  Dy1  1  0.021309  0.179310  0.596945  1
  Dy  Dy2  1  0.478633  0.679247  0.402822  1
  Dy  Dy3  1  0.978773  0.820795  0.097149  1
  Dy  Dy4  1  0.478711  0.679169  0.097364  1
  Dy  Dy5  1  0.978650  0.820719  0.402853  1
  Dy  Dy6  1  0.521384  0.320720  0.596940  1
  Dy  Dy7  1  0.021274  0.179326  0.903038  1
  Ho  Ho8  1  0.367423  0.836729  0.877498  1
  Tm  Tm9  1  0.867473  0.663175  0.622522  1
  Tm  Tm10  1  0.632583  0.163227  0.377191  1
  Tm  Tm11  1  0.132479  0.336740  0.122997  1
  Tm  Tm12  1  0.632553  0.163207  0.122840  1
  Tm  Tm13  1  0.132575  0.336731  0.377209  1
  Tm  Tm14  1  0.367383  0.836824  0.622566  1
  Tm  Tm15  1  0.867332  0.663281  0.877317  1
  Tm  Tm16  1  0.198094  0.503901  0.749830  1
  Tm  Tm17  1  0.698336  0.996018  0.749863  1
  Tm  Tm18  1  0.801843  0.495830  0.250035  1
  Tm  Tm19  1  0.301837  0.004164  0.250104  1
  Sn  Sn20  1  0.293947  0.037971  0.042218  1
  Sn  Sn21  1  0.794102  0.462443  0.458208  1
  Sn  Sn22  1  0.705871  0.962572  0.541501  1
  Sn  Sn23  1  0.205248  0.536469  0.958714  1
  Sn  Sn24  1  0.706899  0.962880  0.958666  1
  Sn  Sn25  1  0.205939  0.537462  0.541504  1
  Sn  Sn26  1  0.294123  0.037500  0.458251  1
  Sn  Sn27  1  0.794127  0.462517  0.041764  1
  Sn  Sn28  1  0.564969  0.619436  0.749671  1
  Sn  Sn29  1  0.064140  0.880242  0.749672  1
  Sn  Sn30  1  0.435417  0.380143  0.250041  1
  Sn  Sn31  1  0.935440  0.119862  0.250067  1
  Sn  Sn32  1  0.330475  0.148625  0.749702  1
  Sn  Sn33  1  0.830642  0.351756  0.749938  1
  Sn  Sn34  1  0.669353  0.851847  0.250023  1
  Sn  Sn35  1  0.169323  0.648329  0.249993  1
