# generated using pymatgen
data_Sc10Bi(SbTe2)3
_symmetry_space_group_name_H-M   'P 1'
_cell_length_a   8.03868676
_cell_length_b   8.03553935
_cell_length_c   10.85662131
_cell_angle_alpha   70.49746435
_cell_angle_beta   70.48192387
_cell_angle_gamma   53.94824984
_symmetry_Int_Tables_number   1
_chemical_formula_structural   Sc10Bi(SbTe2)3
_chemical_formula_sum   'Sc10 Bi1 Sb3 Te6'
_cell_volume   525.66248468
_cell_formula_units_Z   1
loop_
 _symmetry_equiv_pos_site_id
 _symmetry_equiv_pos_as_xyz
  1  'x, y, z'
loop_
 _atom_site_type_symbol
 _atom_site_label
 _atom_site_symmetry_multiplicity
 _atom_site_fract_x
 _atom_site_fract_y
 _atom_site_fract_z
 _atom_site_occupancy
  Sc  Sc0  1  0.005461  0.796489  0.950214  1
  Sc  Sc1  1  0.397866  0.206033  0.150686  1
  Sc  Sc2  1  0.802392  0.598333  0.353856  1
  Sc  Sc3  1  0.203826  0.994399  0.049600  1
  Sc  Sc4  1  0.205603  0.000502  0.548687  1
  Sc  Sc5  1  0.592993  0.403042  0.249477  1
  Sc  Sc6  1  0.597026  0.406853  0.750737  1
  Sc  Sc7  1  0.999585  0.794298  0.451467  1
  Sc  Sc8  1  0.401641  0.197422  0.646284  1
  Sc  Sc9  1  0.793618  0.602800  0.848959  1
  Bi  Bi10  1  0.965532  0.432869  0.100157  1
  Sb  Sb11  1  0.433431  0.566486  0.999858  1
  Sb  Sb12  1  0.233179  0.366327  0.400382  1
  Sb  Sb13  1  0.633508  0.766848  0.599861  1
  Te  Te14  1  0.834102  0.966522  0.199841  1
  Te  Te15  1  0.366547  0.834118  0.300043  1
  Te  Te16  1  0.767319  0.232447  0.500255  1
  Te  Te17  1  0.165980  0.633602  0.699930  1
  Te  Te18  1  0.033473  0.166106  0.800074  1
  Te  Te19  1  0.566921  0.034502  0.899631  1
