# generated using pymatgen
data_V12Si2PtRh
_symmetry_space_group_name_H-M   'P 1'
_cell_length_a   4.74606500
_cell_length_b   4.74479000
_cell_length_c   9.50194600
_cell_angle_alpha   90.00000000
_cell_angle_beta   90.00000000
_cell_angle_gamma   90.00000000
_symmetry_Int_Tables_number   1
_chemical_formula_structural   V12Si2PtRh
_chemical_formula_sum   'V12 Si2 Pt1 Rh1'
_cell_volume   213.97509877
_cell_formula_units_Z   1
loop_
 _symmetry_equiv_pos_site_id
 _symmetry_equiv_pos_as_xyz
  1  'x, y, z'
loop_
 _atom_site_type_symbol
 _atom_site_label
 _atom_site_symmetry_multiplicity
 _atom_site_fract_x
 _atom_site_fract_y
 _atom_site_fract_z
 _atom_site_occupancy
  V  V0  1  0.000000  0.500000  0.121559  1
  V  V1  1  0.000000  0.500000  0.629881  1
  V  V2  1  0.500000  0.249191  0.744151  1
  V  V3  1  0.500000  0.247786  0.254251  1
  V  V4  1  0.751120  0.000000  0.004303  1
  V  V5  1  0.748741  0.000000  0.496860  1
  V  V6  1  0.000000  0.500000  0.873534  1
  V  V7  1  0.000000  0.500000  0.375495  1
  V  V8  1  0.500000  0.750809  0.744151  1
  V  V9  1  0.500000  0.752214  0.254251  1
  V  V10  1  0.248880  0.000000  0.004303  1
  V  V11  1  0.251259  0.000000  0.496860  1
  Si  Si12  1  0.500000  0.500000  0.498522  1
  Si  Si13  1  0.000000  0.000000  0.251254  1
  Pt  Pt14  1  0.500000  0.500000  0.999102  1
  Rh  Rh15  1  0.000000  0.000000  0.751524  1
