# generated using pymatgen
data_Y5MoRhO12
_symmetry_space_group_name_H-M   'P 1'
_cell_length_a   6.87022006
_cell_length_b   6.87022003
_cell_length_c   7.49667444
_cell_angle_alpha   73.92289251
_cell_angle_beta   73.92289260
_cell_angle_gamma   49.84666857
_symmetry_Int_Tables_number   1
_chemical_formula_structural   Y5MoRhO12
_chemical_formula_sum   'Y5 Mo1 Rh1 O12'
_cell_volume   257.53114308
_cell_formula_units_Z   1
loop_
 _symmetry_equiv_pos_site_id
 _symmetry_equiv_pos_as_xyz
  1  'x, y, z'
loop_
 _atom_site_type_symbol
 _atom_site_label
 _atom_site_symmetry_multiplicity
 _atom_site_fract_x
 _atom_site_fract_y
 _atom_site_fract_z
 _atom_site_occupancy
  Y  Y0  1  0.492424  0.507576  0.500000  1
  Y  Y1  1  0.182107  0.194166  0.172208  1
  Y  Y2  1  0.805834  0.817893  0.827792  1
  Y  Y3  1  0.787550  0.817775  0.358798  1
  Y  Y4  1  0.182225  0.212450  0.641202  1
  Mo  Mo5  1  0.295778  0.704222  0.000000  1
  Rh  Rh6  1  0.745426  0.254574  0.000000  1
  O  O7  1  0.011379  0.987941  0.178236  1
  O  O8  1  0.012059  0.988621  0.821764  1
  O  O9  1  0.497902  0.498944  0.801564  1
  O  O10  1  0.501056  0.502098  0.198436  1
  O  O11  1  0.587668  0.101181  0.576973  1
  O  O12  1  0.898819  0.412332  0.423027  1
  O  O13  1  0.391277  0.908696  0.431053  1
  O  O14  1  0.404178  0.912594  0.916174  1
  O  O15  1  0.087406  0.595822  0.083826  1
  O  O16  1  0.589211  0.063602  0.085770  1
  O  O17  1  0.936398  0.410789  0.914230  1
  O  O18  1  0.091304  0.608723  0.568947  1
