# generated using pymatgen
data_Pr3Mg(Co4P3)2
_symmetry_space_group_name_H-M   'P 1'
_cell_length_a   3.81764500
_cell_length_b   10.80861200
_cell_length_c   12.57961600
_cell_angle_alpha   90.00000000
_cell_angle_beta   90.00000000
_cell_angle_gamma   90.00000000
_symmetry_Int_Tables_number   1
_chemical_formula_structural   Pr3Mg(Co4P3)2
_chemical_formula_sum   'Pr6 Mg2 Co16 P12'
_cell_volume   519.07827481
_cell_formula_units_Z   2
loop_
 _symmetry_equiv_pos_site_id
 _symmetry_equiv_pos_as_xyz
  1  'x, y, z'
loop_
 _atom_site_type_symbol
 _atom_site_label
 _atom_site_symmetry_multiplicity
 _atom_site_fract_x
 _atom_site_fract_y
 _atom_site_fract_z
 _atom_site_occupancy
  Pr  Pr0  1  0.000000  0.500000  0.524815  1
  Pr  Pr1  1  0.500000  0.000000  0.475185  1
  Pr  Pr2  1  0.500000  0.820249  0.206768  1
  Pr  Pr3  1  0.500000  0.179751  0.206768  1
  Pr  Pr4  1  0.000000  0.679751  0.793232  1
  Pr  Pr5  1  0.000000  0.320249  0.793232  1
  Mg  Mg6  1  0.500000  0.500000  0.152677  1
  Mg  Mg7  1  0.000000  0.000000  0.847323  1
  Co  Co8  1  0.500000  0.500000  0.706156  1
  Co  Co9  1  0.000000  0.000000  0.293844  1
  Co  Co10  1  0.000000  0.500000  0.988175  1
  Co  Co11  1  0.500000  0.000000  0.011825  1
  Co  Co12  1  0.500000  0.332971  0.996625  1
  Co  Co13  1  0.500000  0.667029  0.996625  1
  Co  Co14  1  0.000000  0.167029  0.003375  1
  Co  Co15  1  0.000000  0.832971  0.003375  1
  Co  Co16  1  0.500000  0.297018  0.431552  1
  Co  Co17  1  0.500000  0.702982  0.431552  1
  Co  Co18  1  0.000000  0.202982  0.568448  1
  Co  Co19  1  0.000000  0.797018  0.568448  1
  Co  Co20  1  0.500000  0.880563  0.705294  1
  Co  Co21  1  0.500000  0.119437  0.705294  1
  Co  Co22  1  0.000000  0.619437  0.294706  1
  Co  Co23  1  0.000000  0.380563  0.294706  1
  P  P24  1  0.500000  0.500000  0.887760  1
  P  P25  1  0.000000  0.000000  0.112240  1
  P  P26  1  0.500000  0.500000  0.349226  1
  P  P27  1  0.000000  0.000000  0.650774  1
  P  P28  1  0.500000  0.303050  0.612745  1
  P  P29  1  0.500000  0.696950  0.612745  1
  P  P30  1  0.000000  0.196950  0.387255  1
  P  P31  1  0.000000  0.803050  0.387255  1
  P  P32  1  0.500000  0.841323  0.898346  1
  P  P33  1  0.500000  0.158677  0.898346  1
  P  P34  1  0.000000  0.658677  0.101654  1
  P  P35  1  0.000000  0.341323  0.101654  1
