# generated using pymatgen
data_DyLu2Cd3Ga2Ag
_symmetry_space_group_name_H-M   'P 1'
_cell_length_a   7.30797805
_cell_length_b   7.30646809
_cell_length_c   4.30683900
_cell_angle_alpha   90.00000000
_cell_angle_beta   90.00000000
_cell_angle_gamma   119.99317082
_symmetry_Int_Tables_number   1
_chemical_formula_structural   DyLu2Cd3Ga2Ag
_chemical_formula_sum   'Dy1 Lu2 Cd3 Ga2 Ag1'
_cell_volume   199.16997868
_cell_formula_units_Z   1
loop_
 _symmetry_equiv_pos_site_id
 _symmetry_equiv_pos_as_xyz
  1  'x, y, z'
loop_
 _atom_site_type_symbol
 _atom_site_label
 _atom_site_symmetry_multiplicity
 _atom_site_fract_x
 _atom_site_fract_y
 _atom_site_fract_z
 _atom_site_occupancy
  Dy  Dy0  1  0.000000  0.578315  0.500000  1
  Lu  Lu1  1  0.421144  0.420899  0.500000  1
  Lu  Lu2  1  0.578856  0.999756  0.500000  1
  Cd  Cd3  1  0.747688  0.747861  0.000000  1
  Cd  Cd4  1  0.252312  0.000174  0.000000  1
  Cd  Cd5  1  0.000000  0.251406  0.000000  1
  Ga  Ga6  1  0.665093  0.332460  0.000000  1
  Ga  Ga7  1  0.334907  0.667368  0.000000  1
  Ag  Ag8  1  0.000000  0.001760  0.500000  1
