# generated using pymatgen
data_Dy2Sc2CrB12Ru
_symmetry_space_group_name_H-M   'P 1'
_cell_length_a   3.51071000
_cell_length_b   8.98546026
_cell_length_c   11.36615514
_cell_angle_alpha   89.97874567
_cell_angle_beta   90.00000000
_cell_angle_gamma   90.00000000
_symmetry_Int_Tables_number   1
_chemical_formula_structural   Dy2Sc2CrB12Ru
_chemical_formula_sum   'Dy4 Sc4 Cr2 B24 Ru2'
_cell_volume   358.54926275
_cell_formula_units_Z   2
loop_
 _symmetry_equiv_pos_site_id
 _symmetry_equiv_pos_as_xyz
  1  'x, y, z'
loop_
 _atom_site_type_symbol
 _atom_site_label
 _atom_site_symmetry_multiplicity
 _atom_site_fract_x
 _atom_site_fract_y
 _atom_site_fract_z
 _atom_site_occupancy
  Dy  Dy0  1  0.000000  0.819819  0.086505  1
  Dy  Dy1  1  0.000000  0.180181  0.913495  1
  Dy  Dy2  1  0.000000  0.322584  0.414766  1
  Dy  Dy3  1  0.000000  0.677416  0.585234  1
  Sc  Sc4  1  0.000000  0.445582  0.129408  1
  Sc  Sc5  1  0.000000  0.554418  0.870592  1
  Sc  Sc6  1  0.000000  0.942445  0.371954  1
  Sc  Sc7  1  0.000000  0.057555  0.628046  1
  Cr  Cr8  1  0.000000  0.640963  0.317771  1
  Cr  Cr9  1  0.000000  0.359037  0.682229  1
  B  B10  1  0.500000  0.054689  0.067524  1
  B  B11  1  0.500000  0.945311  0.932476  1
  B  B12  1  0.500000  0.554548  0.432171  1
  B  B13  1  0.500000  0.445452  0.567829  1
  B  B14  1  0.500000  0.253558  0.081877  1
  B  B15  1  0.500000  0.746442  0.918123  1
  B  B16  1  0.500000  0.752165  0.418020  1
  B  B17  1  0.500000  0.247835  0.581980  1
  B  B18  1  0.500000  0.294501  0.235121  1
  B  B19  1  0.500000  0.705499  0.764879  1
  B  B20  1  0.500000  0.793978  0.265448  1
  B  B21  1  0.500000  0.206022  0.734552  1
  B  B22  1  0.500000  0.128945  0.316704  1
  B  B23  1  0.500000  0.871055  0.683296  1
  B  B24  1  0.500000  0.629122  0.184012  1
  B  B25  1  0.500000  0.370878  0.815988  1
  B  B26  1  0.500000  0.482066  0.286442  1
  B  B27  1  0.500000  0.517934  0.713558  1
  B  B28  1  0.500000  0.981393  0.214198  1
  B  B29  1  0.500000  0.018607  0.785802  1
  B  B30  1  0.500000  0.097547  0.473304  1
  B  B31  1  0.500000  0.902453  0.526696  1
  B  B32  1  0.500000  0.597540  0.026537  1
  B  B33  1  0.500000  0.402460  0.973463  1
  Ru  Ru34  1  0.000000  0.140635  0.181276  1
  Ru  Ru35  1  0.000000  0.859365  0.818724  1
