# generated using pymatgen
data_Ho6Tm2Ti5Si16Mo7
_symmetry_space_group_name_H-M   'P 1'
_cell_length_a   6.91799800
_cell_length_b   6.90985230
_cell_length_c   12.78860923
_cell_angle_alpha   89.90634479
_cell_angle_beta   90.03338723
_cell_angle_gamma   90.03250627
_symmetry_Int_Tables_number   1
_chemical_formula_structural   Ho6Tm2Ti5Si16Mo7
_chemical_formula_sum   'Ho6 Tm2 Ti5 Si16 Mo7'
_cell_volume   611.32448392
_cell_formula_units_Z   1
loop_
 _symmetry_equiv_pos_site_id
 _symmetry_equiv_pos_as_xyz
  1  'x, y, z'
loop_
 _atom_site_type_symbol
 _atom_site_label
 _atom_site_symmetry_multiplicity
 _atom_site_fract_x
 _atom_site_fract_y
 _atom_site_fract_z
 _atom_site_occupancy
  Ho  Ho0  1  0.502374  0.159195  0.218551  1
  Ho  Ho1  1  0.840813  0.496349  0.280993  1
  Ho  Ho2  1  0.159072  0.502336  0.782785  1
  Ho  Ho3  1  0.658643  0.997110  0.968129  1
  Ho  Ho4  1  0.003064  0.340581  0.531918  1
  Ho  Ho5  1  0.996243  0.660026  0.031181  1
  Tm  Tm6  1  0.342045  0.003106  0.467436  1
  Tm  Tm7  1  0.497477  0.841843  0.718645  1
  Ti  Ti8  1  0.329036  0.329370  0.999436  1
  Ti  Ti9  1  0.170395  0.828728  0.250219  1
  Ti  Ti10  1  0.827208  0.171901  0.750305  1
  Ti  Ti11  1  0.670276  0.668729  0.499459  1
  Ti  Ti12  1  0.994465  0.842205  0.625692  1
  Si  Si13  1  0.202423  0.129739  0.683489  1
  Si  Si14  1  0.370674  0.701094  0.933581  1
  Si  Si15  1  0.630755  0.299414  0.433865  1
  Si  Si16  1  0.699282  0.369721  0.066274  1
  Si  Si17  1  0.301029  0.631581  0.565779  1
  Si  Si18  1  0.799393  0.870275  0.183619  1
  Si  Si19  1  0.129216  0.199966  0.316865  1
  Si  Si20  1  0.870414  0.799942  0.815893  1
  Si  Si21  1  0.289100  0.957990  0.062941  1
  Si  Si22  1  0.541542  0.789313  0.313091  1
  Si  Si23  1  0.457499  0.210053  0.812657  1
  Si  Si24  1  0.789090  0.543937  0.687479  1
  Si  Si25  1  0.210932  0.457624  0.186708  1
  Si  Si26  1  0.709529  0.043052  0.563687  1
  Si  Si27  1  0.957493  0.289396  0.937193  1
  Si  Si28  1  0.044734  0.711118  0.437141  1
  Mo  Mo29  1  0.159573  0.007865  0.875072  1
  Mo  Mo30  1  0.492890  0.658049  0.124348  1
  Mo  Mo31  1  0.506503  0.341780  0.623568  1
  Mo  Mo32  1  0.656623  0.492110  0.877183  1
  Mo  Mo33  1  0.343136  0.504500  0.374743  1
  Mo  Mo34  1  0.840677  0.991738  0.373654  1
  Mo  Mo35  1  0.006383  0.158262  0.126420  1
