# generated using pymatgen
data_La11Pr3IrRh5
_symmetry_space_group_name_H-M   'P 1'
_cell_length_a   6.57440607
_cell_length_b   10.20371148
_cell_length_c   10.21509248
_cell_angle_alpha   119.93176962
_cell_angle_beta   89.82864164
_cell_angle_gamma   90.16425251
_symmetry_Int_Tables_number   1
_chemical_formula_structural   La11Pr3IrRh5
_chemical_formula_sum   'La11 Pr3 Ir1 Rh5'
_cell_volume   593.85897356
_cell_formula_units_Z   1
loop_
 _symmetry_equiv_pos_site_id
 _symmetry_equiv_pos_as_xyz
  1  'x, y, z'
loop_
 _atom_site_type_symbol
 _atom_site_label
 _atom_site_symmetry_multiplicity
 _atom_site_fract_x
 _atom_site_fract_y
 _atom_site_fract_z
 _atom_site_occupancy
  La  La0  1  0.242925  0.751812  0.874183  1
  La  La1  1  0.243269  0.126464  0.249789  1
  La  La2  1  0.737238  0.873177  0.128520  1
  La  La3  1  0.742385  0.248627  0.124760  1
  La  La4  1  0.742817  0.875693  0.749919  1
  La  La5  1  0.437785  0.536043  0.462443  1
  La  La6  1  0.429291  0.921543  0.462241  1
  La  La7  1  0.430335  0.537231  0.077557  1
  La  La8  1  0.934889  0.463518  0.536465  1
  La  La9  1  0.930955  0.077737  0.537578  1
  La  La10  1  0.931887  0.462837  0.922805  1
  Pr  Pr11  1  0.469511  0.331025  0.667671  1
  Pr  Pr12  1  0.968463  0.667532  0.332011  1
  Pr  Pr13  1  0.239473  0.129450  0.871246  1
  Ir  Ir14  1  0.697069  0.188423  0.372743  1
  Rh  Rh15  1  0.205330  0.813563  0.184197  1
  Rh  Rh16  1  0.203452  0.375926  0.194383  1
  Rh  Rh17  1  0.203185  0.805145  0.624827  1
  Rh  Rh18  1  0.708138  0.185334  0.815229  1
  Rh  Rh19  1  0.703602  0.628921  0.811431  1
