# generated using pymatgen
data_Tb11Tl8InNi3Rh
_symmetry_space_group_name_H-M   'P 1'
_cell_length_a   3.72587900
_cell_length_b   13.07502977
_cell_length_c   13.08368505
_cell_angle_alpha   110.90210025
_cell_angle_beta   90.00000000
_cell_angle_gamma   90.00000000
_symmetry_Int_Tables_number   1
_chemical_formula_structural   Tb11Tl8InNi3Rh
_chemical_formula_sum   'Tb11 Tl8 In1 Ni3 Rh1'
_cell_volume   595.43913889
_cell_formula_units_Z   1
loop_
 _symmetry_equiv_pos_site_id
 _symmetry_equiv_pos_as_xyz
  1  'x, y, z'
loop_
 _atom_site_type_symbol
 _atom_site_label
 _atom_site_symmetry_multiplicity
 _atom_site_fract_x
 _atom_site_fract_y
 _atom_site_fract_z
 _atom_site_occupancy
  Tb  Tb0  1  0.000000  0.917894  0.579407  1
  Tb  Tb1  1  0.000000  0.086128  0.421029  1
  Tb  Tb2  1  0.000000  0.576099  0.913468  1
  Tb  Tb3  1  0.000000  0.422135  0.083381  1
  Tb  Tb4  1  0.000000  0.159818  0.841267  1
  Tb  Tb5  1  0.000000  0.840754  0.160528  1
  Tb  Tb6  1  0.000000  0.374145  0.626486  1
  Tb  Tb7  1  0.000000  0.627161  0.375673  1
  Tb  Tb8  1  0.000000  0.685428  0.687199  1
  Tb  Tb9  1  0.000000  0.314315  0.312270  1
  Tb  Tb10  1  0.000000  0.000462  0.001293  1
  Tl  Tl11  1  0.500000  0.154383  0.630764  1
  Tl  Tl12  1  0.500000  0.844771  0.367424  1
  Tl  Tl13  1  0.500000  0.631086  0.154908  1
  Tl  Tl14  1  0.500000  0.366857  0.843292  1
  Tl  Tl15  1  0.500000  0.927072  0.782816  1
  Tl  Tl16  1  0.500000  0.074892  0.220240  1
  Tl  Tl17  1  0.500000  0.781198  0.929835  1
  Tl  Tl18  1  0.500000  0.220080  0.072488  1
  In  In19  1  0.500000  0.497746  0.499240  1
  Ni  Ni20  1  0.500000  0.251745  0.450687  1
  Ni  Ni21  1  0.500000  0.545809  0.747463  1
  Ni  Ni22  1  0.500000  0.450814  0.249346  1
  Rh  Rh23  1  0.500000  0.749207  0.549500  1
