# generated using pymatgen
data_Zr3TiI12
_symmetry_space_group_name_H-M   'P 1'
_cell_length_a   6.58210459
_cell_length_b   8.02052095
_cell_length_c   13.97292500
_cell_angle_alpha   90.00000000
_cell_angle_beta   90.00000000
_cell_angle_gamma   89.92018169
_symmetry_Int_Tables_number   1
_chemical_formula_structural   Zr3TiI12
_chemical_formula_sum   'Zr3 Ti1 I12'
_cell_volume   737.65665230
_cell_formula_units_Z   1
loop_
 _symmetry_equiv_pos_site_id
 _symmetry_equiv_pos_as_xyz
  1  'x, y, z'
loop_
 _atom_site_type_symbol
 _atom_site_label
 _atom_site_symmetry_multiplicity
 _atom_site_fract_x
 _atom_site_fract_y
 _atom_site_fract_z
 _atom_site_occupancy
  Zr  Zr0  1  0.759827  0.752252  0.500000  1
  Zr  Zr1  1  0.252962  0.247841  0.000000  1
  Zr  Zr2  1  0.746982  0.247831  0.000000  1
  Ti  Ti3  1  0.238006  0.752193  0.500000  1
  I  I4  1  0.008242  0.604554  0.647120  1
  I  I5  1  0.008902  0.047168  0.500000  1
  I  I6  1  0.999973  0.097926  0.850309  1
  I  I7  1  0.999973  0.097926  0.149691  1
  I  I8  1  0.492630  0.896310  0.356024  1
  I  I9  1  0.500032  0.398883  0.150604  1
  I  I10  1  0.491634  0.463344  0.500000  1
  I  I11  1  0.492630  0.896310  0.643976  1
  I  I12  1  0.500032  0.398883  0.849396  1
  I  I13  1  0.500018  0.945676  0.000000  1
  I  I14  1  0.999917  0.548349  0.000000  1
  I  I15  1  0.008242  0.604554  0.352880  1
