# generated using pymatgen
data_Tb4Zr3PtF28
_symmetry_space_group_name_H-M   'P 1'
_cell_length_a   5.72119675
_cell_length_b   9.09138228
_cell_length_c   12.24575139
_cell_angle_alpha   62.37067443
_cell_angle_beta   90.05181222
_cell_angle_gamma   90.04921874
_symmetry_Int_Tables_number   1
_chemical_formula_structural   Tb4Zr3PtF28
_chemical_formula_sum   'Tb4 Zr3 Pt1 F28'
_cell_volume   564.31192751
_cell_formula_units_Z   1
loop_
 _symmetry_equiv_pos_site_id
 _symmetry_equiv_pos_as_xyz
  1  'x, y, z'
loop_
 _atom_site_type_symbol
 _atom_site_label
 _atom_site_symmetry_multiplicity
 _atom_site_fract_x
 _atom_site_fract_y
 _atom_site_fract_z
 _atom_site_occupancy
  Tb  Tb0  1  0.257578  0.815311  0.268445  1
  Tb  Tb1  1  0.743954  0.187125  0.732472  1
  Tb  Tb2  1  0.757778  0.183057  0.235304  1
  Tb  Tb3  1  0.241138  0.816050  0.760796  1
  Zr  Zr4  1  0.756001  0.726648  0.043411  1
  Zr  Zr5  1  0.244682  0.275066  0.955085  1
  Zr  Zr6  1  0.256076  0.274901  0.455848  1
  Pt  Pt7  1  0.739909  0.727071  0.544352  1
  F  F8  1  0.937974  0.705288  0.420867  1
  F  F9  1  0.040058  0.289789  0.581661  1
  F  F10  1  0.462164  0.291232  0.080732  1
  F  F11  1  0.536754  0.710384  0.918337  1
  F  F12  1  0.482670  0.733120  0.148269  1
  F  F13  1  0.519795  0.267985  0.852198  1
  F  F14  1  0.978806  0.266608  0.354096  1
  F  F15  1  0.020626  0.728330  0.637474  1
  F  F16  1  0.966373  0.747793  0.172276  1
  F  F17  1  0.039041  0.251262  0.826915  1
  F  F18  1  0.464743  0.253924  0.327040  1
  F  F19  1  0.546095  0.742163  0.672748  1
  F  F20  1  0.776513  0.474579  0.140410  1
  F  F21  1  0.221513  0.526869  0.857382  1
  F  F22  1  0.268775  0.527314  0.360261  1
  F  F23  1  0.729435  0.482676  0.641536  1
  F  F24  1  0.947800  0.275059  0.049765  1
  F  F25  1  0.051157  0.726062  0.947919  1
  F  F26  1  0.452077  0.719158  0.457385  1
  F  F27  1  0.553381  0.280547  0.547438  1
  F  F28  1  0.742113  0.971478  0.450867  1
  F  F29  1  0.261063  0.023173  0.556699  1
  F  F30  1  0.241967  0.023725  0.060871  1
  F  F31  1  0.758423  0.978226  0.940318  1
  F  F32  1  0.575611  0.970623  0.235709  1
  F  F33  1  0.426031  0.027146  0.763708  1
  F  F34  1  0.077103  0.027277  0.269980  1
  F  F35  1  0.924824  0.972982  0.731424  1
