# generated using pymatgen
data_Ta16Cu7RhN4
_symmetry_space_group_name_H-M   'P 1'
_cell_length_a   8.26019262
_cell_length_b   8.29866907
_cell_length_c   8.29908400
_cell_angle_alpha   59.99834600
_cell_angle_beta   59.84412844
_cell_angle_gamma   59.84319049
_symmetry_Int_Tables_number   1
_chemical_formula_structural   Ta16Cu7RhN4
_chemical_formula_sum   'Ta16 Cu7 Rh1 N4'
_cell_volume   401.30821757
_cell_formula_units_Z   1
loop_
 _symmetry_equiv_pos_site_id
 _symmetry_equiv_pos_as_xyz
  1  'x, y, z'
loop_
 _atom_site_type_symbol
 _atom_site_label
 _atom_site_symmetry_multiplicity
 _atom_site_fract_x
 _atom_site_fract_y
 _atom_site_fract_z
 _atom_site_occupancy
  Ta  Ta0  1  0.129318  0.623545  0.623569  1
  Ta  Ta1  1  0.626259  0.121356  0.626193  1
  Ta  Ta2  1  0.626244  0.626210  0.121339  1
  Ta  Ta3  1  0.626244  0.626210  0.626208  1
  Ta  Ta4  1  0.814627  0.817231  0.184071  1
  Ta  Ta5  1  0.186657  0.186348  0.813497  1
  Ta  Ta6  1  0.814620  0.184077  0.817215  1
  Ta  Ta7  1  0.186646  0.813498  0.186360  1
  Ta  Ta8  1  0.186646  0.813498  0.813496  1
  Ta  Ta9  1  0.814620  0.184077  0.184088  1
  Ta  Ta10  1  0.436566  0.437099  0.063168  1
  Ta  Ta11  1  0.065660  0.065764  0.434288  1
  Ta  Ta12  1  0.436579  0.063148  0.437118  1
  Ta  Ta13  1  0.065680  0.434288  0.065747  1
  Ta  Ta14  1  0.065680  0.434288  0.434285  1
  Ta  Ta15  1  0.436579  0.063148  0.063155  1
  Cu  Cu16  1  0.415931  0.755952  0.414058  1
  Cu  Cu17  1  0.416022  0.414031  0.755923  1
  Cu  Cu18  1  0.416022  0.414031  0.414024  1
  Cu  Cu19  1  0.491651  0.836114  0.836117  1
  Cu  Cu20  1  0.837920  0.495368  0.833356  1
  Cu  Cu21  1  0.837862  0.833371  0.495365  1
  Cu  Cu22  1  0.837862  0.833371  0.833403  1
  Rh  Rh23  1  0.730570  0.423157  0.423137  1
  N  N24  1  0.623314  0.125558  0.125564  1
  N  N25  1  0.124742  0.626563  0.124347  1
  N  N26  1  0.124739  0.124351  0.626561  1
  N  N27  1  0.124739  0.124351  0.124349  1
