# generated using pymatgen
data_Ba7Y2Mn3(CoO10)2
_symmetry_space_group_name_H-M   'P 1'
_cell_length_a   5.91704711
_cell_length_b   5.91704604
_cell_length_c   17.66835303
_cell_angle_alpha   80.36055660
_cell_angle_beta   99.63944092
_cell_angle_gamma   119.99999522
_symmetry_Int_Tables_number   1
_chemical_formula_structural   Ba7Y2Mn3(CoO10)2
_chemical_formula_sum   'Ba7 Y2 Mn3 Co2 O20'
_cell_volume   525.60929565
_cell_formula_units_Z   1
loop_
 _symmetry_equiv_pos_site_id
 _symmetry_equiv_pos_as_xyz
  1  'x, y, z'
loop_
 _atom_site_type_symbol
 _atom_site_label
 _atom_site_symmetry_multiplicity
 _atom_site_fract_x
 _atom_site_fract_y
 _atom_site_fract_z
 _atom_site_occupancy
  Ba  Ba0  1  0.000000  0.000000  0.000000  1
  Ba  Ba1  1  0.384680  0.615322  0.154041  1
  Ba  Ba2  1  0.771480  0.228519  0.314444  1
  Ba  Ba3  1  0.145743  0.854257  0.437231  1
  Ba  Ba4  1  0.854256  0.145743  0.562769  1
  Ba  Ba5  1  0.228519  0.771481  0.685556  1
  Ba  Ba6  1  0.615321  0.384681  0.845959  1
  Y  Y7  1  0.073462  0.926538  0.220387  1
  Y  Y8  1  0.926537  0.073462  0.779613  1
  Mn  Mn9  1  0.450487  0.549515  0.351463  1
  Mn  Mn10  1  0.500000  0.500001  0.500000  1
  Mn  Mn11  1  0.549514  0.450488  0.648537  1
  Co  Co12  1  0.698682  0.301316  0.096049  1
  Co  Co13  1  0.301317  0.698684  0.903951  1
  O  O14  1  0.334855  0.665147  0.004561  1
  O  O15  1  0.875837  0.123712  0.134402  1
  O  O16  1  0.382278  0.124163  0.134402  1
  O  O17  1  0.876288  0.617722  0.134402  1
  O  O18  1  0.274793  0.257488  0.292466  1
  O  O19  1  0.742513  0.724840  0.292466  1
  O  O20  1  0.275161  0.725208  0.292466  1
  O  O21  1  0.622119  0.377596  0.429088  1
  O  O22  1  0.184562  0.377880  0.429088  1
  O  O23  1  0.622403  0.815435  0.429088  1
  O  O24  1  0.377596  0.184563  0.570911  1
  O  O25  1  0.815437  0.622119  0.570911  1
  O  O26  1  0.377879  0.622404  0.570911  1
  O  O27  1  0.724840  0.274793  0.707534  1
  O  O28  1  0.257486  0.275160  0.707534  1
  O  O29  1  0.725208  0.742513  0.707534  1
  O  O30  1  0.123712  0.382278  0.865599  1
  O  O31  1  0.617723  0.875837  0.865599  1
  O  O32  1  0.124162  0.876288  0.865599  1
  O  O33  1  0.665146  0.334855  0.995439  1
