# generated using pymatgen
data_Yb3Sm3(MnC3)4
_symmetry_space_group_name_H-M   'P 1'
_cell_length_a   8.11172864
_cell_length_b   8.11826404
_cell_length_c   5.03689800
_cell_angle_alpha   90.00000000
_cell_angle_beta   90.00000000
_cell_angle_gamma   120.09438774
_symmetry_Int_Tables_number   1
_chemical_formula_structural   Yb3Sm3(MnC3)4
_chemical_formula_sum   'Yb3 Sm3 Mn4 C12'
_cell_volume   286.98323343
_cell_formula_units_Z   1
loop_
 _symmetry_equiv_pos_site_id
 _symmetry_equiv_pos_as_xyz
  1  'x, y, z'
loop_
 _atom_site_type_symbol
 _atom_site_label
 _atom_site_symmetry_multiplicity
 _atom_site_fract_x
 _atom_site_fract_y
 _atom_site_fract_z
 _atom_site_occupancy
  Yb  Yb0  1  0.614456  0.687657  0.750000  1
  Yb  Yb1  1  0.925144  0.614685  0.250000  1
  Yb  Yb2  1  0.686123  0.072895  0.250000  1
  Sm  Sm3  1  0.316348  0.929230  0.750000  1
  Sm  Sm4  1  0.070686  0.388789  0.750000  1
  Sm  Sm5  1  0.389786  0.317901  0.250000  1
  Mn  Mn6  1  0.995836  0.996869  0.501800  1
  Mn  Mn7  1  0.995836  0.996869  0.998200  1
  Mn  Mn8  1  0.667632  0.331180  0.750000  1
  Mn  Mn9  1  0.332428  0.663777  0.250000  1
  C  C10  1  0.954569  0.771846  0.750000  1
  C  C11  1  0.189903  0.959232  0.250000  1
  C  C12  1  0.773984  0.819707  0.250000  1
  C  C13  1  0.229176  0.189702  0.750000  1
  C  C14  1  0.819999  0.043659  0.750000  1
  C  C15  1  0.040746  0.224045  0.250000  1
  C  C16  1  0.856228  0.578974  0.750000  1
  C  C17  1  0.275588  0.852287  0.250000  1
  C  C18  1  0.581852  0.724447  0.250000  1
  C  C19  1  0.423680  0.281121  0.750000  1
  C  C20  1  0.139464  0.417465  0.250000  1
  C  C21  1  0.720536  0.137662  0.750000  1
