# generated using pymatgen
data_Lu2PaRu3
_symmetry_space_group_name_H-M   'P 1'
_cell_length_a   14.05013400
_cell_length_b   3.40972500
_cell_length_c   4.82993400
_cell_angle_alpha   90.00000000
_cell_angle_beta   90.00000000
_cell_angle_gamma   90.00000000
_symmetry_Int_Tables_number   1
_chemical_formula_structural   Lu2PaRu3
_chemical_formula_sum   'Lu4 Pa2 Ru6'
_cell_volume   231.38809806
_cell_formula_units_Z   2
loop_
 _symmetry_equiv_pos_site_id
 _symmetry_equiv_pos_as_xyz
  1  'x, y, z'
loop_
 _atom_site_type_symbol
 _atom_site_label
 _atom_site_symmetry_multiplicity
 _atom_site_fract_x
 _atom_site_fract_y
 _atom_site_fract_z
 _atom_site_occupancy
  Lu  Lu0  1  0.078279  0.000000  0.254619  1
  Lu  Lu1  1  0.421722  0.000000  0.254619  1
  Lu  Lu2  1  0.578278  0.000000  0.745382  1
  Lu  Lu3  1  0.921721  0.000000  0.745382  1
  Pa  Pa4  1  0.750000  0.000000  0.240873  1
  Pa  Pa5  1  0.250000  0.000000  0.759128  1
  Ru  Ru6  1  0.594870  0.500001  0.243016  1
  Ru  Ru7  1  0.905131  0.500001  0.243016  1
  Ru  Ru8  1  0.250000  0.500001  0.261144  1
  Ru  Ru9  1  0.750000  0.500001  0.738856  1
  Ru  Ru10  1  0.094869  0.500001  0.756984  1
  Ru  Ru11  1  0.405130  0.500001  0.756984  1
