# generated using pymatgen
data_HfTh8Sc11Si16
_symmetry_space_group_name_H-M   'P 1'
_cell_length_a   7.49170816
_cell_length_b   7.48840539
_cell_length_c   13.69771752
_cell_angle_alpha   90.03000799
_cell_angle_beta   90.00966199
_cell_angle_gamma   90.02144052
_symmetry_Int_Tables_number   1
_chemical_formula_structural   HfTh8Sc11Si16
_chemical_formula_sum   'Hf1 Th8 Sc11 Si16'
_cell_volume   768.45476442
_cell_formula_units_Z   1
loop_
 _symmetry_equiv_pos_site_id
 _symmetry_equiv_pos_as_xyz
  1  'x, y, z'
loop_
 _atom_site_type_symbol
 _atom_site_label
 _atom_site_symmetry_multiplicity
 _atom_site_fract_x
 _atom_site_fract_y
 _atom_site_fract_z
 _atom_site_occupancy
  Hf  Hf0  1  0.998676  0.153795  0.623738  1
  Th  Th1  1  0.499552  0.153511  0.534974  1
  Th  Th2  1  0.500770  0.846207  0.035470  1
  Th  Th3  1  0.653633  0.001044  0.285030  1
  Th  Th4  1  0.346154  0.999174  0.784362  1
  Th  Th5  1  0.847320  0.500351  0.964459  1
  Th  Th6  1  0.153991  0.499073  0.465868  1
  Th  Th7  1  0.000809  0.653794  0.714889  1
  Th  Th8  1  0.999465  0.346712  0.215000  1
  Sc  Sc9  1  0.674056  0.326085  0.749869  1
  Sc  Sc10  1  0.326613  0.672804  0.249783  1
  Sc  Sc11  1  0.827284  0.826453  0.500439  1
  Sc  Sc12  1  0.173681  0.173320  0.999497  1
  Sc  Sc13  1  0.499360  0.346436  0.126324  1
  Sc  Sc14  1  0.500824  0.654276  0.626393  1
  Sc  Sc15  1  0.846072  0.000711  0.875564  1
  Sc  Sc16  1  0.154139  0.999606  0.376954  1
  Sc  Sc17  1  0.653959  0.500466  0.373966  1
  Sc  Sc18  1  0.345968  0.499257  0.873043  1
  Sc  Sc19  1  0.001148  0.846221  0.123944  1
  Si  Si20  1  0.793320  0.133797  0.068085  1
  Si  Si21  1  0.203545  0.868950  0.570259  1
  Si  Si22  1  0.633512  0.706247  0.818716  1
  Si  Si23  1  0.366157  0.293354  0.318309  1
  Si  Si24  1  0.867284  0.205969  0.433618  1
  Si  Si25  1  0.133863  0.793766  0.931702  1
  Si  Si26  1  0.706884  0.633677  0.181692  1
  Si  Si27  1  0.289343  0.366095  0.679905  1
  Si  Si28  1  0.549327  0.210552  0.935128  1
  Si  Si29  1  0.451734  0.789452  0.435103  1
  Si  Si30  1  0.712872  0.953700  0.684316  1
  Si  Si31  1  0.288950  0.049416  0.185347  1
  Si  Si32  1  0.789227  0.448104  0.565538  1
  Si  Si33  1  0.210879  0.548517  0.064629  1
  Si  Si34  1  0.951346  0.711015  0.315015  1
  Si  Si35  1  0.048284  0.288096  0.813075  1
