# generated using pymatgen
data_LiNd4Mg3Ir4
_symmetry_space_group_name_H-M   'P 1'
_cell_length_a   7.22487900
_cell_length_b   4.15175100
_cell_length_c   8.66435748
_cell_angle_alpha   90.00000000
_cell_angle_beta   90.26467421
_cell_angle_gamma   90.00000000
_symmetry_Int_Tables_number   1
_chemical_formula_structural   LiNd4Mg3Ir4
_chemical_formula_sum   'Li1 Nd4 Mg3 Ir4'
_cell_volume   259.89241549
_cell_formula_units_Z   1
loop_
 _symmetry_equiv_pos_site_id
 _symmetry_equiv_pos_as_xyz
  1  'x, y, z'
loop_
 _atom_site_type_symbol
 _atom_site_label
 _atom_site_symmetry_multiplicity
 _atom_site_fract_x
 _atom_site_fract_y
 _atom_site_fract_z
 _atom_site_occupancy
  Li  Li0  1  0.631627  0.750000  0.054663  1
  Nd  Nd1  1  0.954876  0.250000  0.174085  1
  Nd  Nd2  1  0.464031  0.250000  0.318787  1
  Nd  Nd3  1  0.038956  0.750000  0.826250  1
  Nd  Nd4  1  0.538563  0.750000  0.678376  1
  Mg  Mg5  1  0.866895  0.250000  0.559444  1
  Mg  Mg6  1  0.372561  0.250000  0.943902  1
  Mg  Mg7  1  0.134318  0.750000  0.440382  1
  Ir  Ir8  1  0.747701  0.250000  0.869705  1
  Ir  Ir9  1  0.246426  0.250000  0.627839  1
  Ir  Ir10  1  0.249793  0.750000  0.128876  1
  Ir  Ir11  1  0.754254  0.750000  0.377688  1
