# generated using pymatgen
data_Dy3GaCo2Sn3
_symmetry_space_group_name_H-M   'P 1'
_cell_length_a   7.34061600
_cell_length_b   7.34061556
_cell_length_c   3.99716800
_cell_angle_alpha   90.00000000
_cell_angle_beta   90.00000000
_cell_angle_gamma   119.99999299
_symmetry_Int_Tables_number   1
_chemical_formula_structural   Dy3GaCo2Sn3
_chemical_formula_sum   'Dy3 Ga1 Co2 Sn3'
_cell_volume   186.52972503
_cell_formula_units_Z   1
loop_
 _symmetry_equiv_pos_site_id
 _symmetry_equiv_pos_as_xyz
  1  'x, y, z'
loop_
 _atom_site_type_symbol
 _atom_site_label
 _atom_site_symmetry_multiplicity
 _atom_site_fract_x
 _atom_site_fract_y
 _atom_site_fract_z
 _atom_site_occupancy
  Dy  Dy0  1  0.590225  0.985444  0.500000  1
  Dy  Dy1  1  0.395219  0.409775  0.500000  1
  Dy  Dy2  1  0.014556  0.604781  0.500000  1
  Ga  Ga3  1  0.666667  0.333333  0.000000  1
  Co  Co4  1  0.333334  0.666667  0.000000  1
  Co  Co5  1  0.000000  0.000000  0.500000  1
  Sn  Sn6  1  0.246409  0.989792  0.000000  1
  Sn  Sn7  1  0.010208  0.256618  0.000000  1
  Sn  Sn8  1  0.743383  0.753590  0.000000  1
