# generated using pymatgen
data_Li2Tb3MgHg3
_symmetry_space_group_name_H-M   'P 1'
_cell_length_a   7.21422490
_cell_length_b   7.21422382
_cell_length_c   4.68554200
_cell_angle_alpha   90.00000000
_cell_angle_beta   90.00000000
_cell_angle_gamma   118.15168603
_symmetry_Int_Tables_number   1
_chemical_formula_structural   Li2Tb3MgHg3
_chemical_formula_sum   'Li2 Tb3 Mg1 Hg3'
_cell_volume   215.01103935
_cell_formula_units_Z   1
loop_
 _symmetry_equiv_pos_site_id
 _symmetry_equiv_pos_as_xyz
  1  'x, y, z'
loop_
 _atom_site_type_symbol
 _atom_site_label
 _atom_site_symmetry_multiplicity
 _atom_site_fract_x
 _atom_site_fract_y
 _atom_site_fract_z
 _atom_site_occupancy
  Li  Li0  1  0.239680  0.004752  0.500000  1
  Li  Li1  1  0.004752  0.239680  0.500000  1
  Tb  Tb2  1  0.572920  0.996316  0.000000  1
  Tb  Tb3  1  0.996316  0.572920  0.000000  1
  Tb  Tb4  1  0.421570  0.421570  0.000000  1
  Mg  Mg5  1  0.768443  0.768443  0.500000  1
  Hg  Hg6  1  0.324439  0.662042  0.500000  1
  Hg  Hg7  1  0.662042  0.324439  0.500000  1
  Hg  Hg8  1  0.009837  0.009837  0.000000  1
