# generated using pymatgen
data_AcZrZn4
_symmetry_space_group_name_H-M   'P 1'
_cell_length_a   4.43367000
_cell_length_b   4.43366963
_cell_length_c   7.58867300
_cell_angle_alpha   90.00000000
_cell_angle_beta   90.00000000
_cell_angle_gamma   119.99998785
_symmetry_Int_Tables_number   1
_chemical_formula_structural   AcZrZn4
_chemical_formula_sum   'Ac1 Zr1 Zn4'
_cell_volume   129.18831036
_cell_formula_units_Z   1
loop_
 _symmetry_equiv_pos_site_id
 _symmetry_equiv_pos_as_xyz
  1  'x, y, z'
loop_
 _atom_site_type_symbol
 _atom_site_label
 _atom_site_symmetry_multiplicity
 _atom_site_fract_x
 _atom_site_fract_y
 _atom_site_fract_z
 _atom_site_occupancy
  Ac  Ac0  1  0.000000  0.000000  0.000000  1
  Zr  Zr1  1  0.000000  0.000000  0.500000  1
  Zn  Zn2  1  0.666666  0.333332  0.309702  1
  Zn  Zn3  1  0.333334  0.666668  0.309702  1
  Zn  Zn4  1  0.666666  0.333332  0.690299  1
  Zn  Zn5  1  0.333334  0.666668  0.690299  1
