# generated using pymatgen
data_Dy12Tc3Ag2
_symmetry_space_group_name_H-M   'P 1'
_cell_length_a   8.36738397
_cell_length_b   8.36738518
_cell_length_c   8.36738505
_cell_angle_alpha   110.14740829
_cell_angle_beta   110.14742474
_cell_angle_gamma   108.12713121
_symmetry_Int_Tables_number   1
_chemical_formula_structural   Dy12Tc3Ag2
_chemical_formula_sum   'Dy12 Tc3 Ag2'
_cell_volume   450.78406565
_cell_formula_units_Z   1
loop_
 _symmetry_equiv_pos_site_id
 _symmetry_equiv_pos_as_xyz
  1  'x, y, z'
loop_
 _atom_site_type_symbol
 _atom_site_label
 _atom_site_symmetry_multiplicity
 _atom_site_fract_x
 _atom_site_fract_y
 _atom_site_fract_z
 _atom_site_occupancy
  Dy  Dy0  1  0.319644  0.319644  0.639289  1
  Dy  Dy1  1  0.680356  0.680356  0.360711  1
  Dy  Dy2  1  0.680356  0.319644  0.000000  1
  Dy  Dy3  1  0.319644  0.680356  0.000000  1
  Dy  Dy4  1  0.184527  0.432571  0.248044  1
  Dy  Dy5  1  0.815473  0.567429  0.751956  1
  Dy  Dy6  1  0.184527  0.936483  0.751956  1
  Dy  Dy7  1  0.936483  0.184527  0.751956  1
  Dy  Dy8  1  0.815473  0.063517  0.248044  1
  Dy  Dy9  1  0.063517  0.815473  0.248044  1
  Dy  Dy10  1  0.432571  0.184527  0.248044  1
  Dy  Dy11  1  0.567429  0.815473  0.751956  1
  Tc  Tc12  1  0.338546  0.338546  0.000000  1
  Tc  Tc13  1  0.661454  0.661454  0.000000  1
  Tc  Tc14  1  0.000000  0.000000  0.000000  1
  Ag  Ag15  1  0.000000  0.500000  0.500000  1
  Ag  Ag16  1  0.500000  0.000000  0.500000  1
