# generated using pymatgen
data_Gd5Tc2C7
_symmetry_space_group_name_H-M   'P 1'
_cell_length_a   8.34047600
_cell_length_b   8.34047390
_cell_length_c   3.48027200
_cell_angle_alpha   90.00000000
_cell_angle_beta   90.00000000
_cell_angle_gamma   122.72572425
_symmetry_Int_Tables_number   1
_chemical_formula_structural   Gd5Tc2C7
_chemical_formula_sum   'Gd5 Tc2 C7'
_cell_volume   203.67100022
_cell_formula_units_Z   1
loop_
 _symmetry_equiv_pos_site_id
 _symmetry_equiv_pos_as_xyz
  1  'x, y, z'
loop_
 _atom_site_type_symbol
 _atom_site_label
 _atom_site_symmetry_multiplicity
 _atom_site_fract_x
 _atom_site_fract_y
 _atom_site_fract_z
 _atom_site_occupancy
  Gd  Gd0  1  0.500000  0.500000  0.000000  1
  Gd  Gd1  1  0.072649  0.333596  0.500000  1
  Gd  Gd2  1  0.927351  0.666404  0.500000  1
  Gd  Gd3  1  0.666404  0.927351  0.500000  1
  Gd  Gd4  1  0.333596  0.072649  0.500000  1
  Tc  Tc5  1  0.712454  0.287546  0.000000  1
  Tc  Tc6  1  0.287546  0.712454  0.000000  1
  C  C7  1  0.629023  0.370977  0.500000  1
  C  C8  1  0.370977  0.629023  0.500000  1
  C  C9  1  0.000000  0.000000  0.000000  1
  C  C10  1  0.169415  0.169415  0.000000  1
  C  C11  1  0.830585  0.830585  0.000000  1
  C  C12  1  0.000000  0.500000  0.000000  1
  C  C13  1  0.500000  0.000000  0.000000  1
