# generated using pymatgen
data_Yb8Ho2Ir3Ru
_symmetry_space_group_name_H-M   'P 1'
_cell_length_a   6.49974002
_cell_length_b   7.31864908
_cell_length_c   8.49225477
_cell_angle_alpha   96.98830359
_cell_angle_beta   112.44467233
_cell_angle_gamma   90.05362207
_symmetry_Int_Tables_number   1
_chemical_formula_structural   Yb8Ho2Ir3Ru
_chemical_formula_sum   'Yb8 Ho2 Ir3 Ru1'
_cell_volume   370.10091713
_cell_formula_units_Z   1
loop_
 _symmetry_equiv_pos_site_id
 _symmetry_equiv_pos_as_xyz
  1  'x, y, z'
loop_
 _atom_site_type_symbol
 _atom_site_label
 _atom_site_symmetry_multiplicity
 _atom_site_fract_x
 _atom_site_fract_y
 _atom_site_fract_z
 _atom_site_occupancy
  Yb  Yb0  1  0.971342  0.920003  0.171963  1
  Yb  Yb1  1  0.800702  0.578377  0.828453  1
  Yb  Yb2  1  0.027985  0.078949  0.829281  1
  Yb  Yb3  1  0.197417  0.421523  0.171821  1
  Yb  Yb4  1  0.641589  0.819488  0.436711  1
  Yb  Yb5  1  0.204375  0.680721  0.563500  1
  Yb  Yb6  1  0.357788  0.179722  0.562245  1
  Yb  Yb7  1  0.795308  0.321631  0.435455  1
  Ho  Ho8  1  0.439059  0.748716  0.001324  1
  Ho  Ho9  1  0.563180  0.251205  0.000576  1
  Ir  Ir10  1  0.602523  0.926845  0.788430  1
  Ir  Ir11  1  0.187493  0.425618  0.788433  1
  Ir  Ir12  1  0.396866  0.074058  0.211289  1
  Ru  Ru13  1  0.814372  0.573144  0.210520  1
