# generated using pymatgen
data_Ho4B8MoRu9
_symmetry_space_group_name_H-M   'P 1'
_cell_length_a   3.08040800
_cell_length_b   8.79496328
_cell_length_c   10.20549126
_cell_angle_alpha   90.27740966
_cell_angle_beta   90.00000000
_cell_angle_gamma   90.00000000
_symmetry_Int_Tables_number   1
_chemical_formula_structural   Ho4B8MoRu9
_chemical_formula_sum   'Ho4 B8 Mo1 Ru9'
_cell_volume   276.48469643
_cell_formula_units_Z   1
loop_
 _symmetry_equiv_pos_site_id
 _symmetry_equiv_pos_as_xyz
  1  'x, y, z'
loop_
 _atom_site_type_symbol
 _atom_site_label
 _atom_site_symmetry_multiplicity
 _atom_site_fract_x
 _atom_site_fract_y
 _atom_site_fract_z
 _atom_site_occupancy
  Ho  Ho0  1  0.500000  0.840601  0.180454  1
  Ho  Ho1  1  0.500000  0.160243  0.818705  1
  Ho  Ho2  1  0.500000  0.661334  0.682803  1
  Ho  Ho3  1  0.500000  0.340643  0.316567  1
  B  B4  1  0.500000  0.967313  0.587990  1
  B  B5  1  0.500000  0.033684  0.410813  1
  B  B6  1  0.500000  0.850239  0.901609  1
  B  B7  1  0.500000  0.148536  0.098150  1
  B  B8  1  0.500000  0.645371  0.399638  1
  B  B9  1  0.500000  0.351972  0.600843  1
  B  B10  1  0.500000  0.465734  0.914458  1
  B  B11  1  0.500000  0.533903  0.086874  1
  Mo  Mo12  1  0.000000  0.657937  0.954690  1
  Ru  Ru13  1  0.000000  0.336700  0.048578  1
  Ru  Ru14  1  0.000000  0.843073  0.453480  1
  Ru  Ru15  1  0.000000  0.158030  0.544560  1
  Ru  Ru16  1  0.000000  0.001643  0.999959  1
  Ru  Ru17  1  0.000000  0.407073  0.760911  1
  Ru  Ru18  1  0.000000  0.593746  0.240189  1
  Ru  Ru19  1  0.000000  0.499599  0.500850  1
  Ru  Ru20  1  0.000000  0.909837  0.737138  1
  Ru  Ru21  1  0.000000  0.092787  0.260741  1
