# generated using pymatgen
data_YHo7Sc11Si16Au
_symmetry_space_group_name_H-M   'P 1'
_cell_length_a   6.99900102
_cell_length_b   7.37741919
_cell_length_c   13.99420903
_cell_angle_alpha   90.00677252
_cell_angle_beta   90.00335254
_cell_angle_gamma   89.84786640
_symmetry_Int_Tables_number   1
_chemical_formula_structural   YHo7Sc11Si16Au
_chemical_formula_sum   'Y1 Ho7 Sc11 Si16 Au1'
_cell_volume   722.58233344
_cell_formula_units_Z   1
loop_
 _symmetry_equiv_pos_site_id
 _symmetry_equiv_pos_as_xyz
  1  'x, y, z'
loop_
 _atom_site_type_symbol
 _atom_site_label
 _atom_site_symmetry_multiplicity
 _atom_site_fract_x
 _atom_site_fract_y
 _atom_site_fract_z
 _atom_site_occupancy
  Y  Y0  1  0.010788  0.175380  0.095967  1
  Ho  Ho1  1  0.991217  0.814827  0.900957  1
  Ho  Ho2  1  0.485201  0.673422  0.901366  1
  Ho  Ho3  1  0.991246  0.814905  0.598935  1
  Ho  Ho4  1  0.510297  0.323451  0.096136  1
  Ho  Ho5  1  0.010980  0.175631  0.403846  1
  Ho  Ho6  1  0.510308  0.323385  0.403900  1
  Ho  Ho7  1  0.485129  0.673443  0.598580  1
  Sc  Sc8  1  0.838452  0.497365  0.250093  1
  Sc  Sc9  1  0.340107  0.003307  0.250080  1
  Sc  Sc10  1  0.657246  0.997431  0.749980  1
  Sc  Sc11  1  0.325198  0.182755  0.626828  1
  Sc  Sc12  1  0.671004  0.823571  0.375104  1
  Sc  Sc13  1  0.170721  0.678341  0.374226  1
  Sc  Sc14  1  0.670922  0.823475  0.124986  1
  Sc  Sc15  1  0.835725  0.327674  0.626859  1
  Sc  Sc16  1  0.325219  0.182785  0.873122  1
  Sc  Sc17  1  0.835623  0.327786  0.873051  1
  Sc  Sc18  1  0.170710  0.678264  0.125827  1
  Si  Si19  1  0.027336  0.096790  0.749994  1
  Si  Si20  1  0.968876  0.887824  0.250164  1
  Si  Si21  1  0.467356  0.616465  0.250022  1
  Si  Si22  1  0.535217  0.385960  0.749996  1
  Si  Si23  1  0.288853  0.882275  0.749997  1
  Si  Si24  1  0.713415  0.128518  0.250183  1
  Si  Si25  1  0.213258  0.371982  0.250251  1
  Si  Si26  1  0.778667  0.629497  0.749984  1
  Si  Si27  1  0.161887  0.459911  0.531356  1
  Si  Si28  1  0.842289  0.535599  0.462404  1
  Si  Si29  1  0.344097  0.965481  0.462842  1
  Si  Si30  1  0.842114  0.536085  0.037491  1
  Si  Si31  1  0.658290  0.033621  0.540198  1
  Si  Si32  1  0.162050  0.460339  0.968481  1
  Si  Si33  1  0.658130  0.033520  0.959726  1
  Si  Si34  1  0.344730  0.965116  0.037080  1
  Au  Au35  1  0.157344  0.513817  0.749988  1
