# generated using pymatgen
data_Ac7Er13Si15Ag
_symmetry_space_group_name_H-M   'P 1'
_cell_length_a   7.91254021
_cell_length_b   7.93384737
_cell_length_c   14.62624700
_cell_angle_alpha   89.67974531
_cell_angle_beta   89.77279428
_cell_angle_gamma   90.13799214
_symmetry_Int_Tables_number   1
_chemical_formula_structural   Ac7Er13Si15Ag
_chemical_formula_sum   'Ac7 Er13 Si15 Ag1'
_cell_volume   918.16597132
_cell_formula_units_Z   1
loop_
 _symmetry_equiv_pos_site_id
 _symmetry_equiv_pos_as_xyz
  1  'x, y, z'
loop_
 _atom_site_type_symbol
 _atom_site_label
 _atom_site_symmetry_multiplicity
 _atom_site_fract_x
 _atom_site_fract_y
 _atom_site_fract_z
 _atom_site_occupancy
  Ac  Ac0  1  0.355955  0.008435  0.960323  1
  Ac  Ac1  1  0.985862  0.644255  0.536502  1
  Ac  Ac2  1  0.490075  0.852051  0.212222  1
  Ac  Ac3  1  0.514563  0.151270  0.711349  1
  Ac  Ac4  1  0.855149  0.494118  0.791343  1
  Ac  Ac5  1  0.143721  0.506238  0.291134  1
  Ac  Ac6  1  0.009459  0.353562  0.041605  1
  Er  Er7  1  0.493803  0.356172  0.126204  1
  Er  Er8  1  0.985070  0.146727  0.627705  1
  Er  Er9  1  0.857632  0.005097  0.875446  1
  Er  Er10  1  0.138450  0.991295  0.374243  1
  Er  Er11  1  0.510287  0.636864  0.622240  1
  Er  Er12  1  0.360253  0.495358  0.875864  1
  Er  Er13  1  0.643913  0.503818  0.372957  1
  Er  Er14  1  0.002427  0.859454  0.126297  1
  Er  Er15  1  0.645062  0.000342  0.454693  1
  Er  Er16  1  0.317818  0.318316  0.499935  1
  Er  Er17  1  0.185171  0.823524  0.750143  1
  Er  Er18  1  0.816296  0.177732  0.252613  1
  Er  Er19  1  0.680423  0.680146  0.000425  1
  Si  Si20  1  0.713539  0.062002  0.063571  1
  Si  Si21  1  0.930905  0.279639  0.436306  1
  Si  Si22  1  0.442538  0.209828  0.316061  1
  Si  Si23  1  0.562275  0.786130  0.812135  1
  Si  Si24  1  0.214131  0.439585  0.688152  1
  Si  Si25  1  0.784181  0.564246  0.186051  1
  Si  Si26  1  0.064143  0.713895  0.937405  1
  Si  Si27  1  0.795416  0.852104  0.690871  1
  Si  Si28  1  0.203901  0.145241  0.192666  1
  Si  Si29  1  0.846463  0.802937  0.314388  1
  Si  Si30  1  0.368125  0.707554  0.436176  1
  Si  Si31  1  0.648184  0.295615  0.943700  1
  Si  Si32  1  0.699229  0.342255  0.551959  1
  Si  Si33  1  0.295247  0.647550  0.058177  1
  Si  Si34  1  0.146844  0.207526  0.808301  1
  Ag  Ag35  1  0.293489  0.939121  0.560838  1
