# generated using pymatgen
data_Nd8Ho5Er7Pb16
_symmetry_space_group_name_H-M   'P 1'
_cell_length_a   8.28642529
_cell_length_b   8.34180517
_cell_length_c   15.81143800
_cell_angle_alpha   90.00127754
_cell_angle_beta   90.05106987
_cell_angle_gamma   89.89074830
_symmetry_Int_Tables_number   1
_chemical_formula_structural   Nd8Ho5Er7Pb16
_chemical_formula_sum   'Nd8 Ho5 Er7 Pb16'
_cell_volume   1092.94339202
_cell_formula_units_Z   1
loop_
 _symmetry_equiv_pos_site_id
 _symmetry_equiv_pos_as_xyz
  1  'x, y, z'
loop_
 _atom_site_type_symbol
 _atom_site_label
 _atom_site_symmetry_multiplicity
 _atom_site_fract_x
 _atom_site_fract_y
 _atom_site_fract_z
 _atom_site_occupancy
  Nd  Nd0  1  0.472591  0.676968  0.598508  1
  Nd  Nd1  1  0.973097  0.822606  0.901949  1
  Nd  Nd2  1  0.526990  0.322650  0.097757  1
  Nd  Nd3  1  0.027166  0.177727  0.401973  1
  Nd  Nd4  1  0.528370  0.323180  0.401688  1
  Nd  Nd5  1  0.027838  0.177148  0.098067  1
  Nd  Nd6  1  0.472002  0.676911  0.901808  1
  Nd  Nd7  1  0.972243  0.823309  0.598340  1
  Ho  Ho8  1  0.630738  0.158845  0.622076  1
  Ho  Ho9  1  0.130846  0.341128  0.877807  1
  Ho  Ho10  1  0.369131  0.841266  0.122055  1
  Ho  Ho11  1  0.869488  0.659182  0.377617  1
  Ho  Ho12  1  0.368327  0.841187  0.378073  1
  Er  Er13  1  0.868277  0.658380  0.122226  1
  Er  Er14  1  0.631835  0.158497  0.877543  1
  Er  Er15  1  0.131183  0.341477  0.622887  1
  Er  Er16  1  0.798186  0.494532  0.749994  1
  Er  Er17  1  0.298198  0.005575  0.750041  1
  Er  Er18  1  0.201537  0.505369  0.250059  1
  Er  Er19  1  0.701761  0.994532  0.249834  1
  Pb  Pb20  1  0.708317  0.962173  0.456197  1
  Pb  Pb21  1  0.206788  0.538710  0.043813  1
  Pb  Pb22  1  0.293198  0.038481  0.956130  1
  Pb  Pb23  1  0.792805  0.461834  0.543739  1
  Pb  Pb24  1  0.290684  0.039238  0.543794  1
  Pb  Pb25  1  0.791117  0.461251  0.956691  1
  Pb  Pb26  1  0.708897  0.961171  0.043132  1
  Pb  Pb27  1  0.208634  0.537268  0.456984  1
  Pb  Pb28  1  0.436111  0.371337  0.750337  1
  Pb  Pb29  1  0.935653  0.128228  0.749830  1
  Pb  Pb30  1  0.564224  0.628132  0.249836  1
  Pb  Pb31  1  0.063833  0.871500  0.249365  1
  Pb  Pb32  1  0.661125  0.848978  0.750350  1
  Pb  Pb33  1  0.161295  0.650666  0.749854  1
  Pb  Pb34  1  0.338840  0.151190  0.250071  1
  Pb  Pb35  1  0.838670  0.349375  0.249574  1
