# generated using pymatgen
data_Na4PrNpS6
_symmetry_space_group_name_H-M   'P 1'
_cell_length_a   6.99307547
_cell_length_b   6.99307556
_cell_length_c   7.00365300
_cell_angle_alpha   80.31081349
_cell_angle_beta   80.31081336
_cell_angle_gamma   119.98962746
_symmetry_Int_Tables_number   1
_chemical_formula_structural   Na4PrNpS6
_chemical_formula_sum   'Na4 Pr1 Np1 S6'
_cell_volume   279.34000000
_cell_formula_units_Z   1
loop_
 _symmetry_equiv_pos_site_id
 _symmetry_equiv_pos_as_xyz
  1  'x, y, z'
loop_
 _atom_site_type_symbol
 _atom_site_label
 _atom_site_symmetry_multiplicity
 _atom_site_fract_x
 _atom_site_fract_y
 _atom_site_fract_z
 _atom_site_occupancy
  Na  Na0  1  0.000235  0.999765  0.000000  1
  Na  Na1  1  0.499687  0.500313  0.500000  1
  Na  Na2  1  0.839126  0.160874  0.500000  1
  Na  Na3  1  0.160560  0.839440  0.500000  1
  Pr  Pr4  1  0.665787  0.334213  0.000000  1
  Np  Np5  1  0.332458  0.667542  0.000000  1
  S  S6  1  0.264663  0.285135  0.233025  1
  S  S7  1  0.420161  0.055843  0.766833  1
  S  S8  1  0.101995  0.443691  0.772430  1
  S  S9  1  0.714865  0.735337  0.766975  1
  S  S10  1  0.556309  0.898005  0.227570  1
  S  S11  1  0.944157  0.579839  0.233167  1
