# generated using pymatgen
data_Ho8Ta8Ti3Si16Mo
_symmetry_space_group_name_H-M   'P 1'
_cell_length_a   7.03174697
_cell_length_b   7.02788254
_cell_length_c   12.92497417
_cell_angle_alpha   89.96187651
_cell_angle_beta   90.09119616
_cell_angle_gamma   89.94607656
_symmetry_Int_Tables_number   1
_chemical_formula_structural   Ho8Ta8Ti3Si16Mo
_chemical_formula_sum   'Ho8 Ta8 Ti3 Si16 Mo1'
_cell_volume   638.72890965
_cell_formula_units_Z   1
loop_
 _symmetry_equiv_pos_site_id
 _symmetry_equiv_pos_as_xyz
  1  'x, y, z'
loop_
 _atom_site_type_symbol
 _atom_site_label
 _atom_site_symmetry_multiplicity
 _atom_site_fract_x
 _atom_site_fract_y
 _atom_site_fract_z
 _atom_site_occupancy
  Ho  Ho0  1  0.341791  0.000724  0.468413  1
  Ho  Ho1  1  0.499541  0.841351  0.717071  1
  Ho  Ho2  1  0.501546  0.157599  0.218447  1
  Ho  Ho3  1  0.841883  0.499902  0.283454  1
  Ho  Ho4  1  0.157906  0.501738  0.781499  1
  Ho  Ho5  1  0.658753  0.998147  0.968216  1
  Ho  Ho6  1  0.000447  0.341533  0.531244  1
  Ho  Ho7  1  0.997314  0.660098  0.031747  1
  Ta  Ta8  1  0.329389  0.329475  0.999825  1
  Ta  Ta9  1  0.174162  0.825579  0.250824  1
  Ta  Ta10  1  0.826214  0.173744  0.749233  1
  Ta  Ta11  1  0.152344  0.008407  0.873649  1
  Ta  Ta12  1  0.492192  0.652317  0.124911  1
  Ta  Ta13  1  0.507464  0.347706  0.623413  1
  Ta  Ta14  1  0.652046  0.492182  0.874772  1
  Ta  Ta15  1  0.347914  0.507733  0.377130  1
  Ti  Ti16  1  0.848258  0.992903  0.373944  1
  Ti  Ti17  1  0.007614  0.152137  0.126393  1
  Ti  Ti18  1  0.992018  0.847287  0.625976  1
  Si  Si19  1  0.202458  0.131731  0.680759  1
  Si  Si20  1  0.366346  0.705618  0.931375  1
  Si  Si21  1  0.634384  0.293275  0.430983  1
  Si  Si22  1  0.706190  0.365326  0.069302  1
  Si  Si23  1  0.294105  0.634334  0.568944  1
  Si  Si24  1  0.798843  0.867956  0.183113  1
  Si  Si25  1  0.132135  0.201974  0.317825  1
  Si  Si26  1  0.865629  0.797477  0.817642  1
  Si  Si27  1  0.292670  0.954890  0.064824  1
  Si  Si28  1  0.549306  0.794344  0.315998  1
  Si  Si29  1  0.453361  0.205094  0.813427  1
  Si  Si30  1  0.794843  0.548916  0.683578  1
  Si  Si31  1  0.203958  0.451996  0.185838  1
  Si  Si32  1  0.709539  0.043057  0.562723  1
  Si  Si33  1  0.953858  0.294551  0.936928  1
  Si  Si34  1  0.043477  0.709447  0.436887  1
  Mo  Mo35  1  0.670103  0.669458  0.499694  1
