# generated using pymatgen
data_ZrU(NbS2)8
_symmetry_space_group_name_H-M   'P 1'
_cell_length_a   6.67940880
_cell_length_b   6.67317980
_cell_length_c   13.22796400
_cell_angle_alpha   90.00000000
_cell_angle_beta   90.08756397
_cell_angle_gamma   119.96921323
_symmetry_Int_Tables_number   1
_chemical_formula_structural   ZrU(NbS2)8
_chemical_formula_sum   'Zr1 U1 Nb8 S16'
_cell_volume   510.77361820
_cell_formula_units_Z   1
loop_
 _symmetry_equiv_pos_site_id
 _symmetry_equiv_pos_as_xyz
  1  'x, y, z'
loop_
 _atom_site_type_symbol
 _atom_site_label
 _atom_site_symmetry_multiplicity
 _atom_site_fract_x
 _atom_site_fract_y
 _atom_site_fract_z
 _atom_site_occupancy
  Zr  Zr0  1  0.000000  0.000000  0.500000  1
  U  U1  1  0.000000  0.000000  0.000000  1
  Nb  Nb2  1  0.988771  0.494386  0.257523  1
  Nb  Nb3  1  0.011229  0.505614  0.742477  1
  Nb  Nb4  1  0.494481  0.505534  0.742691  1
  Nb  Nb5  1  0.505519  0.011052  0.257309  1
  Nb  Nb6  1  0.000242  0.000122  0.742262  1
  Nb  Nb7  1  0.999758  0.999878  0.257738  1
  Nb  Nb8  1  0.505519  0.494466  0.257309  1
  Nb  Nb9  1  0.494481  0.988948  0.742691  1
  S  S10  1  0.333040  0.666521  0.620789  1
  S  S11  1  0.666442  0.333220  0.134094  1
  S  S12  1  0.666960  0.333479  0.379211  1
  S  S13  1  0.333558  0.666780  0.865906  1
  S  S14  1  0.170086  0.339245  0.376989  1
  S  S15  1  0.831706  0.170173  0.860518  1
  S  S16  1  0.338977  0.169487  0.860712  1
  S  S17  1  0.661134  0.830568  0.376903  1
  S  S18  1  0.170086  0.830841  0.376989  1
  S  S19  1  0.831706  0.661534  0.860518  1
  S  S20  1  0.168294  0.338466  0.139482  1
  S  S21  1  0.829914  0.169159  0.623011  1
  S  S22  1  0.338866  0.169432  0.623097  1
  S  S23  1  0.661023  0.830513  0.139288  1
  S  S24  1  0.168294  0.829827  0.139482  1
  S  S25  1  0.829914  0.660755  0.623011  1
