# generated using pymatgen
data_Th10ZnSn4Sb3
_symmetry_space_group_name_H-M   'P 1'
_cell_length_a   9.60067020
_cell_length_b   9.60140373
_cell_length_c   6.56623782
_cell_angle_alpha   90.02859850
_cell_angle_beta   89.94279863
_cell_angle_gamma   119.99747622
_symmetry_Int_Tables_number   1
_chemical_formula_structural   Th10ZnSn4Sb3
_chemical_formula_sum   'Th10 Zn1 Sn4 Sb3'
_cell_volume   524.19678182
_cell_formula_units_Z   1
loop_
 _symmetry_equiv_pos_site_id
 _symmetry_equiv_pos_as_xyz
  1  'x, y, z'
loop_
 _atom_site_type_symbol
 _atom_site_label
 _atom_site_symmetry_multiplicity
 _atom_site_fract_x
 _atom_site_fract_y
 _atom_site_fract_z
 _atom_site_occupancy
  Th  Th0  1  0.999703  0.722975  0.755607  1
  Th  Th1  1  0.276727  0.277025  0.755607  1
  Th  Th2  1  0.332956  0.666574  0.499355  1
  Th  Th3  1  0.666383  0.333426  0.499355  1
  Th  Th4  1  0.723384  0.723277  0.243786  1
  Th  Th5  1  0.724775  0.000000  0.756130  1
  Th  Th6  1  0.000106  0.276723  0.243786  1
  Th  Th7  1  0.276834  0.000000  0.244422  1
  Th  Th8  1  0.333331  0.666510  0.000559  1
  Th  Th9  1  0.666822  0.333490  0.000559  1
  Zn  Zn10  1  0.000356  0.000000  0.000974  1
  Sn  Sn11  1  0.379038  0.000000  0.749218  1
  Sn  Sn12  1  0.620364  0.000000  0.250630  1
  Sn  Sn13  1  0.379182  0.378827  0.250478  1
  Sn  Sn14  1  0.000355  0.621173  0.250478  1
  Sb  Sb15  1  0.619704  0.619773  0.749499  1
  Sb  Sb16  1  0.999931  0.380227  0.749499  1
  Sb  Sb17  1  0.000051  0.000000  0.500059  1
