# generated using pymatgen
data_K2Lu4Cu4S9
_symmetry_space_group_name_H-M   'P 1'
_cell_length_a   3.90614359
_cell_length_b   7.07528348
_cell_length_c   14.92097453
_cell_angle_alpha   93.59497518
_cell_angle_beta   97.52128086
_cell_angle_gamma   106.02409731
_symmetry_Int_Tables_number   1
_chemical_formula_structural   K2Lu4Cu4S9
_chemical_formula_sum   'K2 Lu4 Cu4 S9'
_cell_volume   390.82013004
_cell_formula_units_Z   1
loop_
 _symmetry_equiv_pos_site_id
 _symmetry_equiv_pos_as_xyz
  1  'x, y, z'
loop_
 _atom_site_type_symbol
 _atom_site_label
 _atom_site_symmetry_multiplicity
 _atom_site_fract_x
 _atom_site_fract_y
 _atom_site_fract_z
 _atom_site_occupancy
  K  K0  1  0.258932  0.288588  0.229275  1
  K  K1  1  0.741068  0.711411  0.770725  1
  Lu  Lu2  1  0.400776  0.746472  0.055082  1
  Lu  Lu3  1  0.628816  0.862069  0.395565  1
  Lu  Lu4  1  0.371184  0.137930  0.604436  1
  Lu  Lu5  1  0.599224  0.253528  0.944919  1
  Cu  Cu6  1  0.982038  0.735192  0.228886  1
  Cu  Cu7  1  0.890389  0.320963  0.459815  1
  Cu  Cu8  1  0.109612  0.679038  0.540185  1
  Cu  Cu9  1  0.017961  0.264807  0.771114  1
  S  S10  1  0.000000  0.000000  0.000000  1
  S  S11  1  0.803638  0.506821  0.100455  1
  S  S12  1  0.572257  0.922707  0.221807  1
  S  S13  1  0.984511  0.595268  0.373754  1
  S  S14  1  0.283450  0.142572  0.424327  1
  S  S15  1  0.716551  0.857429  0.575673  1
  S  S16  1  0.015490  0.404732  0.626246  1
  S  S17  1  0.427744  0.077294  0.778193  1
  S  S18  1  0.196362  0.493178  0.899546  1
