# generated using pymatgen
data_Pm2YUO8
_symmetry_space_group_name_H-M   'P 1'
_cell_length_a   6.66895976
_cell_length_b   6.66895979
_cell_length_c   6.66895959
_cell_angle_alpha   131.62441508
_cell_angle_beta   131.62441740
_cell_angle_gamma   70.82286877
_symmetry_Int_Tables_number   1
_chemical_formula_structural   Pm2YUO8
_chemical_formula_sum   'Pm2 Y1 U1 O8'
_cell_volume   162.32712335
_cell_formula_units_Z   1
loop_
 _symmetry_equiv_pos_site_id
 _symmetry_equiv_pos_as_xyz
  1  'x, y, z'
loop_
 _atom_site_type_symbol
 _atom_site_label
 _atom_site_symmetry_multiplicity
 _atom_site_fract_x
 _atom_site_fract_y
 _atom_site_fract_z
 _atom_site_occupancy
  Pm  Pm0  1  0.000000  0.000000  0.000000  1
  Pm  Pm1  1  0.750000  0.250000  0.500000  1
  Y  Y2  1  0.500000  0.500000  0.000000  1
  U  U3  1  0.250000  0.750000  0.500000  1
  O  O4  1  0.368799  0.398272  0.506212  1
  O  O5  1  0.892060  0.862587  0.493788  1
  O  O6  1  0.137413  0.107940  0.506212  1
  O  O7  1  0.601728  0.107940  0.970527  1
  O  O8  1  0.892060  0.398272  0.029473  1
  O  O9  1  0.601728  0.631201  0.493788  1
  O  O10  1  0.137413  0.631201  0.029473  1
  O  O11  1  0.368799  0.862587  0.970527  1
