# generated using pymatgen
data_Hf4Nb4Ge3Sb
_symmetry_space_group_name_H-M   'P 1'
_cell_length_a   7.14667110
_cell_length_b   3.68493300
_cell_length_c   8.65083600
_cell_angle_alpha   90.00000000
_cell_angle_beta   90.66066610
_cell_angle_gamma   90.00000000
_symmetry_Int_Tables_number   1
_chemical_formula_structural   Hf4Nb4Ge3Sb
_chemical_formula_sum   'Hf4 Nb4 Ge3 Sb1'
_cell_volume   227.80465707
_cell_formula_units_Z   1
loop_
 _symmetry_equiv_pos_site_id
 _symmetry_equiv_pos_as_xyz
  1  'x, y, z'
loop_
 _atom_site_type_symbol
 _atom_site_label
 _atom_site_symmetry_multiplicity
 _atom_site_fract_x
 _atom_site_fract_y
 _atom_site_fract_z
 _atom_site_occupancy
  Hf  Hf0  1  0.954078  0.250000  0.174862  1
  Hf  Hf1  1  0.452203  0.250000  0.334127  1
  Hf  Hf2  1  0.539485  0.750000  0.653335  1
  Hf  Hf3  1  0.065987  0.750000  0.831131  1
  Nb  Nb4  1  0.622228  0.750000  0.067276  1
  Nb  Nb5  1  0.131379  0.750000  0.440264  1
  Nb  Nb6  1  0.872145  0.250000  0.554270  1
  Nb  Nb7  1  0.362985  0.250000  0.943391  1
  Ge  Ge8  1  0.246554  0.750000  0.143345  1
  Ge  Ge9  1  0.749069  0.750000  0.359256  1
  Ge  Ge10  1  0.250610  0.250000  0.639503  1
  Sb  Sb11  1  0.753276  0.250000  0.859240  1
