# generated using pymatgen
data_Yb3Er(B4Ru)4
_symmetry_space_group_name_H-M   'P 1'
_cell_length_a   3.53592900
_cell_length_b   5.94089346
_cell_length_c   11.50033090
_cell_angle_alpha   89.95474641
_cell_angle_beta   90.00000000
_cell_angle_gamma   90.00000000
_symmetry_Int_Tables_number   1
_chemical_formula_structural   Yb3Er(B4Ru)4
_chemical_formula_sum   'Yb3 Er1 B16 Ru4'
_cell_volume   241.58251671
_cell_formula_units_Z   1
loop_
 _symmetry_equiv_pos_site_id
 _symmetry_equiv_pos_as_xyz
  1  'x, y, z'
loop_
 _atom_site_type_symbol
 _atom_site_label
 _atom_site_symmetry_multiplicity
 _atom_site_fract_x
 _atom_site_fract_y
 _atom_site_fract_z
 _atom_site_occupancy
  Yb  Yb0  1  0.000000  0.630062  0.349338  1
  Yb  Yb1  1  0.000000  0.370618  0.649572  1
  Yb  Yb2  1  0.000000  0.130991  0.150738  1
  Er  Er3  1  0.000000  0.870517  0.849779  1
  B  B4  1  0.500000  0.786843  0.185543  1
  B  B5  1  0.500000  0.211347  0.814808  1
  B  B6  1  0.500000  0.287496  0.315309  1
  B  B7  1  0.500000  0.711532  0.684980  1
  B  B8  1  0.500000  0.864550  0.030795  1
  B  B9  1  0.500000  0.135594  0.969035  1
  B  B10  1  0.500000  0.364770  0.468935  1
  B  B11  1  0.500000  0.635148  0.531447  1
  B  B12  1  0.500000  0.887368  0.453371  1
  B  B13  1  0.500000  0.112915  0.547344  1
  B  B14  1  0.500000  0.387026  0.047405  1
  B  B15  1  0.500000  0.611622  0.952645  1
  B  B16  1  0.500000  0.977032  0.308168  1
  B  B17  1  0.500000  0.022411  0.692231  1
  B  B18  1  0.500000  0.476505  0.192017  1
  B  B19  1  0.500000  0.523823  0.807475  1
  Ru  Ru20  1  0.000000  0.638542  0.088523  1
  Ru  Ru21  1  0.000000  0.362568  0.909582  1
  Ru  Ru22  1  0.000000  0.135950  0.412046  1
  Ru  Ru23  1  0.000000  0.864770  0.588915  1
