# generated using pymatgen
data_Ti3Mn4NbP4
_symmetry_space_group_name_H-M   'P 1'
_cell_length_a   3.48968100
_cell_length_b   6.17169815
_cell_length_c   7.22722657
_cell_angle_alpha   89.83621504
_cell_angle_beta   90.00000000
_cell_angle_gamma   90.00000000
_symmetry_Int_Tables_number   1
_chemical_formula_structural   Ti3Mn4NbP4
_chemical_formula_sum   'Ti3 Mn4 Nb1 P4'
_cell_volume   155.65400554
_cell_formula_units_Z   1
loop_
 _symmetry_equiv_pos_site_id
 _symmetry_equiv_pos_as_xyz
  1  'x, y, z'
loop_
 _atom_site_type_symbol
 _atom_site_label
 _atom_site_symmetry_multiplicity
 _atom_site_fract_x
 _atom_site_fract_y
 _atom_site_fract_z
 _atom_site_occupancy
  Ti  Ti0  1  0.250000  0.531831  0.672604  1
  Ti  Ti1  1  0.750000  0.465723  0.328118  1
  Ti  Ti2  1  0.250000  0.033225  0.826249  1
  Mn  Mn3  1  0.750000  0.862967  0.560312  1
  Mn  Mn4  1  0.250000  0.139421  0.441975  1
  Mn  Mn5  1  0.750000  0.361993  0.939339  1
  Mn  Mn6  1  0.250000  0.637572  0.058519  1
  Nb  Nb7  1  0.750000  0.966680  0.171061  1
  P  P8  1  0.250000  0.268243  0.132219  1
  P  P9  1  0.750000  0.735421  0.864152  1
  P  P10  1  0.250000  0.759022  0.372382  1
  P  P11  1  0.750000  0.237901  0.633069  1
