# generated using pymatgen
data_SmDy2ZnGa7Ag3
_symmetry_space_group_name_H-M   'P 1'
_cell_length_a   4.35650653
_cell_length_b   8.36265210
_cell_length_c   8.35465772
_cell_angle_alpha   70.37590245
_cell_angle_beta   74.88700959
_cell_angle_gamma   74.90181408
_symmetry_Int_Tables_number   1
_chemical_formula_structural   SmDy2ZnGa7Ag3
_chemical_formula_sum   'Sm1 Dy2 Zn1 Ga7 Ag3'
_cell_volume   271.73145551
_cell_formula_units_Z   1
loop_
 _symmetry_equiv_pos_site_id
 _symmetry_equiv_pos_as_xyz
  1  'x, y, z'
loop_
 _atom_site_type_symbol
 _atom_site_label
 _atom_site_symmetry_multiplicity
 _atom_site_fract_x
 _atom_site_fract_y
 _atom_site_fract_z
 _atom_site_occupancy
  Sm  Sm0  1  0.500664  0.499122  0.499549  1
  Dy  Dy1  1  0.799456  0.199466  0.201622  1
  Dy  Dy2  1  0.199722  0.802338  0.798220  1
  Zn  Zn3  1  0.643326  0.078155  0.635193  1
  Ga  Ga4  1  0.357157  0.925113  0.360572  1
  Ga  Ga5  1  0.643990  0.638342  0.073677  1
  Ga  Ga6  1  0.358073  0.359287  0.924568  1
  Ga  Ga7  1  0.836312  0.795676  0.531699  1
  Ga  Ga8  1  0.159183  0.207675  0.473959  1
  Ga  Ga9  1  0.840203  0.528797  0.790796  1
  Ga  Ga10  1  0.160285  0.469335  0.210096  1
  Ag  Ag11  1  0.501201  0.998967  0.998633  1
  Ag  Ag12  1  0.999689  0.804409  0.196212  1
  Ag  Ag13  1  0.000738  0.193319  0.805206  1
