# generated using pymatgen
data_Tb4Er8Ir3Os
_symmetry_space_group_name_H-M   'P 1'
_cell_length_a   6.38897300
_cell_length_b   7.26889200
_cell_length_c   9.03587500
_cell_angle_alpha   90.00000000
_cell_angle_beta   90.00000000
_cell_angle_gamma   89.99815554
_symmetry_Int_Tables_number   1
_chemical_formula_structural   Tb4Er8Ir3Os
_chemical_formula_sum   'Tb4 Er8 Ir3 Os1'
_cell_volume   419.63285463
_cell_formula_units_Z   1
loop_
 _symmetry_equiv_pos_site_id
 _symmetry_equiv_pos_as_xyz
  1  'x, y, z'
loop_
 _atom_site_type_symbol
 _atom_site_label
 _atom_site_symmetry_multiplicity
 _atom_site_fract_x
 _atom_site_fract_y
 _atom_site_fract_z
 _atom_site_occupancy
  Tb  Tb0  1  0.873363  0.533938  0.250000  1
  Tb  Tb1  1  0.625496  0.035163  0.250000  1
  Tb  Tb2  1  0.129646  0.465185  0.750000  1
  Tb  Tb3  1  0.373571  0.964204  0.750000  1
  Er  Er4  1  0.326382  0.678603  0.064172  1
  Er  Er5  1  0.171069  0.174844  0.436198  1
  Er  Er6  1  0.671677  0.323279  0.562497  1
  Er  Er7  1  0.831624  0.823830  0.939867  1
  Er  Er8  1  0.671677  0.323279  0.937503  1
  Er  Er9  1  0.831624  0.823830  0.560133  1
  Er  Er10  1  0.326382  0.678603  0.435828  1
  Er  Er11  1  0.171069  0.174844  0.063802  1
  Ir  Ir12  1  0.456055  0.385751  0.250000  1
  Ir  Ir13  1  0.956769  0.115593  0.750000  1
  Ir  Ir14  1  0.546401  0.614858  0.750000  1
  Os  Os15  1  0.037194  0.884195  0.250000  1
