# generated using pymatgen
data_Lu2CrFeC3
_symmetry_space_group_name_H-M   'P 1'
_cell_length_a   5.33223649
_cell_length_b   5.33223708
_cell_length_c   5.43177146
_cell_angle_alpha   74.47933516
_cell_angle_beta   74.47933441
_cell_angle_gamma   36.52246619
_symmetry_Int_Tables_number   1
_chemical_formula_structural   Lu2CrFeC3
_chemical_formula_sum   'Lu2 Cr1 Fe1 C3'
_cell_volume   88.18889330
_cell_formula_units_Z   1
loop_
 _symmetry_equiv_pos_site_id
 _symmetry_equiv_pos_as_xyz
  1  'x, y, z'
loop_
 _atom_site_type_symbol
 _atom_site_label
 _atom_site_symmetry_multiplicity
 _atom_site_fract_x
 _atom_site_fract_y
 _atom_site_fract_z
 _atom_site_occupancy
  Lu  Lu0  1  0.604162  0.604162  0.186009  1
  Lu  Lu1  1  0.389779  0.389779  0.813678  1
  Cr  Cr2  1  0.155995  0.155995  0.607761  1
  Fe  Fe3  1  0.843210  0.843210  0.386828  1
  C  C4  1  0.290264  0.290264  0.266622  1
  C  C5  1  0.716474  0.716474  0.739262  1
  C  C6  1  0.000116  0.000116  0.499840  1
