# generated using pymatgen
data_Tb3DyRh2Pb5
_symmetry_space_group_name_H-M   'P 1'
_cell_length_a   8.15690573
_cell_length_b   3.58655500
_cell_length_c   9.87585500
_cell_angle_alpha   90.00000000
_cell_angle_beta   93.66803735
_cell_angle_gamma   90.00000000
_symmetry_Int_Tables_number   1
_chemical_formula_structural   Tb3DyRh2Pb5
_chemical_formula_sum   'Tb3 Dy1 Rh2 Pb5'
_cell_volume   288.32816101
_cell_formula_units_Z   1
loop_
 _symmetry_equiv_pos_site_id
 _symmetry_equiv_pos_as_xyz
  1  'x, y, z'
loop_
 _atom_site_type_symbol
 _atom_site_label
 _atom_site_symmetry_multiplicity
 _atom_site_fract_x
 _atom_site_fract_y
 _atom_site_fract_z
 _atom_site_occupancy
  Tb  Tb0  1  0.304947  0.500000  0.158595  1
  Tb  Tb1  1  0.702339  0.500000  0.431446  1
  Tb  Tb2  1  0.297495  0.500000  0.569022  1
  Dy  Dy3  1  0.695408  0.500000  0.839527  1
  Rh  Rh4  1  0.417698  0.000000  0.365356  1
  Rh  Rh5  1  0.582968  0.000000  0.637081  1
  Pb  Pb6  1  0.998316  0.000000  0.999440  1
  Pb  Pb7  1  0.645346  0.000000  0.135760  1
  Pb  Pb8  1  0.041521  0.000000  0.335797  1
  Pb  Pb9  1  0.957876  0.000000  0.664124  1
  Pb  Pb10  1  0.356087  0.000000  0.863853  1
