# generated using pymatgen
data_Mn2V9Si4W
_symmetry_space_group_name_H-M   'P 1'
_cell_length_a   4.65391700
_cell_length_b   4.70665900
_cell_length_c   9.34124669
_cell_angle_alpha   90.03510432
_cell_angle_beta   90.00000000
_cell_angle_gamma   90.00000000
_symmetry_Int_Tables_number   1
_chemical_formula_structural   Mn2V9Si4W
_chemical_formula_sum   'Mn2 V9 Si4 W1'
_cell_volume   204.61436881
_cell_formula_units_Z   1
loop_
 _symmetry_equiv_pos_site_id
 _symmetry_equiv_pos_as_xyz
  1  'x, y, z'
loop_
 _atom_site_type_symbol
 _atom_site_label
 _atom_site_symmetry_multiplicity
 _atom_site_fract_x
 _atom_site_fract_y
 _atom_site_fract_z
 _atom_site_occupancy
  Mn  Mn0  1  0.000000  0.499962  0.375083  1
  Mn  Mn1  1  0.000000  0.498101  0.874291  1
  V  V2  1  0.500000  0.249910  0.500147  1
  V  V3  1  0.750425  0.000951  0.251251  1
  V  V4  1  0.749772  0.001080  0.748157  1
  V  V5  1  0.000000  0.497219  0.125588  1
  V  V6  1  0.000000  0.500259  0.624528  1
  V  V7  1  0.500000  0.750135  0.000089  1
  V  V8  1  0.500000  0.751803  0.500265  1
  V  V9  1  0.249575  0.000951  0.251251  1
  V  V10  1  0.250228  0.001080  0.748157  1
  Si  Si11  1  0.500000  0.504070  0.253156  1
  Si  Si12  1  0.500000  0.503356  0.746603  1
  Si  Si13  1  0.000000  0.990162  0.001025  1
  Si  Si14  1  0.000000  0.000084  0.500577  1
  W  W15  1  0.500000  0.250876  0.999830  1
