# generated using pymatgen
data_YCd3(Ir2O7)2
_symmetry_space_group_name_H-M   'P 1'
_cell_length_a   7.23013511
_cell_length_b   7.29261358
_cell_length_c   7.23013600
_cell_angle_alpha   60.28300874
_cell_angle_beta   60.00000508
_cell_angle_gamma   60.28300968
_symmetry_Int_Tables_number   1
_chemical_formula_structural   YCd3(Ir2O7)2
_chemical_formula_sum   'Y1 Cd3 Ir4 O14'
_cell_volume   270.71086687
_cell_formula_units_Z   1
loop_
 _symmetry_equiv_pos_site_id
 _symmetry_equiv_pos_as_xyz
  1  'x, y, z'
loop_
 _atom_site_type_symbol
 _atom_site_label
 _atom_site_symmetry_multiplicity
 _atom_site_fract_x
 _atom_site_fract_y
 _atom_site_fract_z
 _atom_site_occupancy
  Y  Y0  1  0.125000  0.625000  0.125000  1
  Cd  Cd1  1  0.625000  0.125000  0.125000  1
  Cd  Cd2  1  0.125000  0.125000  0.625000  1
  Cd  Cd3  1  0.125000  0.125000  0.125000  1
  Ir  Ir4  1  0.125000  0.625000  0.625000  1
  Ir  Ir5  1  0.625000  0.125000  0.625000  1
  Ir  Ir6  1  0.625000  0.625000  0.125000  1
  Ir  Ir7  1  0.625000  0.625000  0.625000  1
  O  O8  1  0.712205  0.696586  0.295604  1
  O  O9  1  0.300122  0.303908  0.697985  1
  O  O10  1  0.697985  0.303908  0.697985  1
  O  O11  1  0.295604  0.696586  0.295604  1
  O  O12  1  0.295604  0.696586  0.712205  1
  O  O13  1  0.697985  0.303908  0.300122  1
  O  O14  1  0.537795  0.553414  0.954396  1
  O  O15  1  0.949878  0.946092  0.552015  1
  O  O16  1  0.552015  0.946092  0.552015  1
  O  O17  1  0.954396  0.553414  0.954396  1
  O  O18  1  0.954396  0.553414  0.537795  1
  O  O19  1  0.552015  0.946092  0.949878  1
  O  O20  1  0.251055  0.246835  0.251055  1
  O  O21  1  0.998945  0.003165  0.998945  1
