# generated using pymatgen
data_Rb2Er4Cu4S9
_symmetry_space_group_name_H-M   'P 1'
_cell_length_a   3.94132504
_cell_length_b   7.19928483
_cell_length_c   15.23763438
_cell_angle_alpha   94.00605894
_cell_angle_beta   97.43079706
_cell_angle_gamma   105.88637276
_symmetry_Int_Tables_number   1
_chemical_formula_structural   Rb2Er4Cu4S9
_chemical_formula_sum   'Rb2 Er4 Cu4 S9'
_cell_volume   409.83845572
_cell_formula_units_Z   1
loop_
 _symmetry_equiv_pos_site_id
 _symmetry_equiv_pos_as_xyz
  1  'x, y, z'
loop_
 _atom_site_type_symbol
 _atom_site_label
 _atom_site_symmetry_multiplicity
 _atom_site_fract_x
 _atom_site_fract_y
 _atom_site_fract_z
 _atom_site_occupancy
  Rb  Rb0  1  0.257289  0.285060  0.229519  1
  Rb  Rb1  1  0.742711  0.714940  0.770481  1
  Er  Er2  1  0.400173  0.745724  0.054622  1
  Er  Er3  1  0.628251  0.860405  0.396096  1
  Er  Er4  1  0.371750  0.139596  0.603904  1
  Er  Er5  1  0.599827  0.254275  0.945378  1
  Cu  Cu6  1  0.980983  0.732794  0.229176  1
  Cu  Cu7  1  0.890955  0.321581  0.460333  1
  Cu  Cu8  1  0.109045  0.678419  0.539667  1
  Cu  Cu9  1  0.019018  0.267207  0.770824  1
  S  S10  1  0.000000  0.000000  0.000000  1
  S  S11  1  0.804272  0.508974  0.099571  1
  S  S12  1  0.565942  0.908989  0.222895  1
  S  S13  1  0.984913  0.594179  0.375650  1
  S  S14  1  0.285351  0.144888  0.425813  1
  S  S15  1  0.714649  0.855111  0.574187  1
  S  S16  1  0.015088  0.405822  0.624350  1
  S  S17  1  0.434058  0.091011  0.777105  1
  S  S18  1  0.195728  0.491025  0.900429  1
