# generated using pymatgen
data_Ba4ThU3F24
_symmetry_space_group_name_H-M   'P 1'
_cell_length_a   7.68617655
_cell_length_b   8.92744502
_cell_length_c   9.03152197
_cell_angle_alpha   101.79070708
_cell_angle_beta   96.50669901
_cell_angle_gamma   115.04540957
_symmetry_Int_Tables_number   1
_chemical_formula_structural   Ba4ThU3F24
_chemical_formula_sum   'Ba4 Th1 U3 F24'
_cell_volume   535.47410558
_cell_formula_units_Z   1
loop_
 _symmetry_equiv_pos_site_id
 _symmetry_equiv_pos_as_xyz
  1  'x, y, z'
loop_
 _atom_site_type_symbol
 _atom_site_label
 _atom_site_symmetry_multiplicity
 _atom_site_fract_x
 _atom_site_fract_y
 _atom_site_fract_z
 _atom_site_occupancy
  Ba  Ba0  1  0.294858  0.757162  0.543093  1
  Ba  Ba1  1  0.291700  0.314892  0.763742  1
  Ba  Ba2  1  0.705782  0.240798  0.456272  1
  Ba  Ba3  1  0.704856  0.685479  0.233442  1
  Th  Th4  1  0.759916  0.216719  0.932351  1
  U  U5  1  0.182698  0.262754  0.280437  1
  U  U6  1  0.237535  0.785672  0.068480  1
  U  U7  1  0.819600  0.735785  0.720710  1
  F  F8  1  0.080623  0.960243  0.704569  1
  F  F9  1  0.405008  0.638655  0.008974  1
  F  F10  1  0.918907  0.039405  0.295848  1
  F  F11  1  0.235785  0.040969  0.147637  1
  F  F12  1  0.761205  0.954686  0.849158  1
  F  F13  1  0.088883  0.758160  0.271216  1
  F  F14  1  0.890607  0.612837  0.501661  1
  F  F15  1  0.137047  0.717921  0.802700  1
  F  F16  1  0.487334  0.618880  0.702222  1
  F  F17  1  0.318791  0.195866  0.475402  1
  F  F18  1  0.096306  0.238868  0.021333  1
  F  F19  1  0.306690  0.545085  0.290708  1
  F  F20  1  0.697650  0.452957  0.710926  1
  F  F21  1  0.587209  0.367685  0.990476  1
  F  F22  1  0.870471  0.289815  0.203864  1
  F  F23  1  0.513720  0.095052  0.705170  1
  F  F24  1  0.502291  0.001183  0.003536  1
  F  F25  1  0.900237  0.756629  0.979968  1
  F  F26  1  0.912201  0.243957  0.726532  1
  F  F27  1  0.479831  0.904391  0.290994  1
  F  F28  1  0.514199  0.377432  0.296538  1
  F  F29  1  0.002576  0.501983  0.997999  1
  F  F30  1  0.113260  0.385953  0.500160  1
  F  F31  1  0.682225  0.802128  0.523883  1
