# generated using pymatgen
data_Sm12Si12RhAu11
_symmetry_space_group_name_H-M   'P 1'
_cell_length_a   4.36574800
_cell_length_b   7.53158419
_cell_length_c   23.59476787
_cell_angle_alpha   90.11477183
_cell_angle_beta   90.00000000
_cell_angle_gamma   90.00000000
_symmetry_Int_Tables_number   1
_chemical_formula_structural   Sm12Si12RhAu11
_chemical_formula_sum   'Sm12 Si12 Rh1 Au11'
_cell_volume   775.81797311
_cell_formula_units_Z   1
loop_
 _symmetry_equiv_pos_site_id
 _symmetry_equiv_pos_as_xyz
  1  'x, y, z'
loop_
 _atom_site_type_symbol
 _atom_site_label
 _atom_site_symmetry_multiplicity
 _atom_site_fract_x
 _atom_site_fract_y
 _atom_site_fract_z
 _atom_site_occupancy
  Sm  Sm0  1  0.250000  0.750958  0.335047  1
  Sm  Sm1  1  0.750000  0.241352  0.663525  1
  Sm  Sm2  1  0.750000  0.250293  0.166943  1
  Sm  Sm3  1  0.250000  0.748445  0.831950  1
  Sm  Sm4  1  0.250000  0.750163  0.167021  1
  Sm  Sm5  1  0.750000  0.250989  0.831986  1
  Sm  Sm6  1  0.750000  0.250163  0.335243  1
  Sm  Sm7  1  0.250000  0.760436  0.663130  1
  Sm  Sm8  1  0.250000  0.751477  0.999413  1
  Sm  Sm9  1  0.750000  0.248474  0.999324  1
  Sm  Sm10  1  0.750000  0.244468  0.503115  1
  Sm  Sm11  1  0.250000  0.758595  0.503442  1
  Si  Si12  1  0.250000  0.082887  0.079811  1
  Si  Si13  1  0.750000  0.916589  0.918026  1
  Si  Si14  1  0.750000  0.582685  0.419686  1
  Si  Si15  1  0.250000  0.404748  0.583148  1
  Si  Si16  1  0.250000  0.083721  0.250485  1
  Si  Si17  1  0.750000  0.914656  0.748696  1
  Si  Si18  1  0.750000  0.583521  0.251990  1
  Si  Si19  1  0.250000  0.418258  0.747518  1
  Si  Si20  1  0.250000  0.083919  0.417117  1
  Si  Si21  1  0.750000  0.928156  0.582749  1
  Si  Si22  1  0.750000  0.582661  0.079554  1
  Si  Si23  1  0.250000  0.416948  0.918322  1
  Rh  Rh24  1  0.250000  0.078170  0.583421  1
  Au  Au25  1  0.250000  0.417183  0.250315  1
  Au  Au26  1  0.750000  0.581879  0.748261  1
  Au  Au27  1  0.750000  0.917229  0.250195  1
  Au  Au28  1  0.250000  0.083209  0.750317  1
  Au  Au29  1  0.250000  0.418238  0.419633  1
  Au  Au30  1  0.750000  0.583926  0.583778  1
  Au  Au31  1  0.750000  0.916290  0.086172  1
  Au  Au32  1  0.250000  0.082924  0.913007  1
  Au  Au33  1  0.250000  0.416659  0.085258  1
  Au  Au34  1  0.750000  0.583147  0.914066  1
  Au  Au35  1  0.750000  0.916584  0.418339  1
