# generated using pymatgen
data_Dy3Ho4Th(CdPt)2
_symmetry_space_group_name_H-M   'P 1'
_cell_length_a   9.72824787
_cell_length_b   9.72824647
_cell_length_c   9.70826200
_cell_angle_alpha   60.06793155
_cell_angle_beta   60.06793631
_cell_angle_gamma   60.09336409
_symmetry_Int_Tables_number   1
_chemical_formula_structural   Dy3Ho4Th(CdPt)2
_chemical_formula_sum   'Dy6 Ho8 Th2 Cd4 Pt4'
_cell_volume   650.79917436
_cell_formula_units_Z   2
loop_
 _symmetry_equiv_pos_site_id
 _symmetry_equiv_pos_as_xyz
  1  'x, y, z'
loop_
 _atom_site_type_symbol
 _atom_site_label
 _atom_site_symmetry_multiplicity
 _atom_site_fract_x
 _atom_site_fract_y
 _atom_site_fract_z
 _atom_site_occupancy
  Dy  Dy0  1  0.935329  0.565606  0.566220  1
  Dy  Dy1  1  0.565606  0.935329  0.932846  1
  Dy  Dy2  1  0.565606  0.935329  0.566220  1
  Dy  Dy3  1  0.935329  0.565605  0.932846  1
  Dy  Dy4  1  0.566944  0.566944  0.933056  1
  Dy  Dy5  1  0.935524  0.935524  0.564475  1
  Ho  Ho6  1  0.352697  0.941616  0.352843  1
  Ho  Ho7  1  0.941616  0.352697  0.352843  1
  Ho  Ho8  1  0.811733  0.189820  0.189011  1
  Ho  Ho9  1  0.189820  0.811733  0.809436  1
  Ho  Ho10  1  0.189820  0.811733  0.189011  1
  Ho  Ho11  1  0.811733  0.189820  0.809436  1
  Ho  Ho12  1  0.187817  0.187817  0.812183  1
  Ho  Ho13  1  0.809845  0.809845  0.190155  1
  Th  Th14  1  0.350276  0.350276  0.353615  1
  Th  Th15  1  0.350276  0.350276  0.945836  1
  Cd  Cd16  1  0.583231  0.583231  0.580257  1
  Cd  Cd17  1  0.583231  0.583231  0.253282  1
  Cd  Cd18  1  0.584844  0.251805  0.581674  1
  Cd  Cd19  1  0.251805  0.584844  0.581674  1
  Pt  Pt20  1  0.141562  0.141562  0.146017  1
  Pt  Pt21  1  0.141562  0.141562  0.570859  1
  Pt  Pt22  1  0.142115  0.571679  0.143103  1
  Pt  Pt23  1  0.571679  0.142115  0.143103  1
