# generated using pymatgen
data_NaNdCr2O8
_symmetry_space_group_name_H-M   'P 1'
_cell_length_a   6.12874078
_cell_length_b   6.12873978
_cell_length_c   6.12874037
_cell_angle_alpha   105.69840702
_cell_angle_beta   105.69840809
_cell_angle_gamma   117.31310081
_symmetry_Int_Tables_number   1
_chemical_formula_structural   NaNdCr2O8
_chemical_formula_sum   'Na1 Nd1 Cr2 O8'
_cell_volume   174.68990876
_cell_formula_units_Z   1
loop_
 _symmetry_equiv_pos_site_id
 _symmetry_equiv_pos_as_xyz
  1  'x, y, z'
loop_
 _atom_site_type_symbol
 _atom_site_label
 _atom_site_symmetry_multiplicity
 _atom_site_fract_x
 _atom_site_fract_y
 _atom_site_fract_z
 _atom_site_occupancy
  Na  Na0  1  0.000000  0.000000  0.000000  1
  Nd  Nd1  1  0.250000  0.750000  0.500000  1
  Cr  Cr2  1  0.750000  0.250000  0.500000  1
  Cr  Cr3  1  0.500000  0.500000  0.000000  1
  O  O4  1  0.346217  0.527873  0.181657  1
  O  O5  1  0.410404  0.085806  0.324598  1
  O  O6  1  0.761208  0.085806  0.675402  1
  O  O7  1  0.346217  0.164560  0.818343  1
  O  O8  1  0.835440  0.653783  0.181657  1
  O  O9  1  0.914194  0.238792  0.324598  1
  O  O10  1  0.914194  0.589596  0.675402  1
  O  O11  1  0.472127  0.653783  0.818343  1
