# generated using pymatgen
data_KRb3Se24
_symmetry_space_group_name_H-M   'P 1'
_cell_length_a   11.46679270
_cell_length_b   11.46679282
_cell_length_c   11.45414557
_cell_angle_alpha   127.58220268
_cell_angle_beta   121.65411039
_cell_angle_gamma   82.33170756
_symmetry_Int_Tables_number   1
_chemical_formula_structural   KRb3Se24
_chemical_formula_sum   'K1 Rb3 Se24'
_cell_volume   976.31717472
_cell_formula_units_Z   1
loop_
 _symmetry_equiv_pos_site_id
 _symmetry_equiv_pos_as_xyz
  1  'x, y, z'
loop_
 _atom_site_type_symbol
 _atom_site_label
 _atom_site_symmetry_multiplicity
 _atom_site_fract_x
 _atom_site_fract_y
 _atom_site_fract_z
 _atom_site_occupancy
  K  K0  1  0.500000  0.500000  0.000000  1
  Rb  Rb1  1  0.000000  0.000000  0.000000  1
  Rb  Rb2  1  0.747210  0.247210  0.500000  1
  Rb  Rb3  1  0.252790  0.752790  0.500000  1
  Se  Se4  1  0.644536  0.749266  0.895663  1
  Se  Se5  1  0.853603  0.748873  0.104337  1
  Se  Se6  1  0.355464  0.250734  0.104337  1
  Se  Se7  1  0.146397  0.251127  0.895663  1
  Se  Se8  1  0.249405  0.151927  0.694373  1
  Se  Se9  1  0.257606  0.944246  0.900732  1
  Se  Se10  1  0.043514  0.356874  0.099268  1
  Se  Se11  1  0.457554  0.555032  0.305627  1
  Se  Se12  1  0.750595  0.848073  0.305627  1
  Se  Se13  1  0.742394  0.055754  0.099268  1
  Se  Se14  1  0.956486  0.643126  0.900732  1
  Se  Se15  1  0.542446  0.444968  0.694373  1
  Se  Se16  1  0.918002  0.818855  0.516689  1
  Se  Se17  1  0.579286  0.100289  0.902055  1
  Se  Se18  1  0.198235  0.677232  0.097945  1
  Se  Se19  1  0.302165  0.401312  0.483311  1
  Se  Se20  1  0.081998  0.181145  0.483311  1
  Se  Se21  1  0.420714  0.899711  0.097945  1
  Se  Se22  1  0.801766  0.322768  0.902055  1
  Se  Se23  1  0.697835  0.598688  0.516689  1
  Se  Se24  1  0.668328  0.072835  0.741161  1
  Se  Se25  1  0.831186  0.568476  0.399662  1
  Se  Se26  1  0.168814  0.431524  0.600338  1
  Se  Se27  1  0.331672  0.927165  0.258839  1
