# generated using pymatgen
data_DyHo3B16(OsRh)2
_symmetry_space_group_name_H-M   'P 1'
_cell_length_a   3.56822400
_cell_length_b   5.96200846
_cell_length_c   11.54812501
_cell_angle_alpha   90.05459537
_cell_angle_beta   90.00000000
_cell_angle_gamma   90.00000000
_symmetry_Int_Tables_number   1
_chemical_formula_structural   DyHo3B16(OsRh)2
_chemical_formula_sum   'Dy1 Ho3 B16 Os2 Rh2'
_cell_volume   245.67217854
_cell_formula_units_Z   1
loop_
 _symmetry_equiv_pos_site_id
 _symmetry_equiv_pos_as_xyz
  1  'x, y, z'
loop_
 _atom_site_type_symbol
 _atom_site_label
 _atom_site_symmetry_multiplicity
 _atom_site_fract_x
 _atom_site_fract_y
 _atom_site_fract_z
 _atom_site_occupancy
  Dy  Dy0  1  0.500000  0.370485  0.149281  1
  Ho  Ho1  1  0.500000  0.629511  0.850688  1
  Ho  Ho2  1  0.500000  0.129850  0.649176  1
  Ho  Ho3  1  0.500000  0.870161  0.350862  1
  B  B4  1  0.000000  0.112272  0.047422  1
  B  B5  1  0.000000  0.887478  0.952466  1
  B  B6  1  0.000000  0.387553  0.546669  1
  B  B7  1  0.000000  0.612461  0.453339  1
  B  B8  1  0.000000  0.136233  0.470083  1
  B  B9  1  0.000000  0.863764  0.529919  1
  B  B10  1  0.000000  0.363151  0.970450  1
  B  B11  1  0.000000  0.636959  0.029396  1
  B  B12  1  0.000000  0.021397  0.193540  1
  B  B13  1  0.000000  0.978449  0.806462  1
  B  B14  1  0.000000  0.474110  0.691936  1
  B  B15  1  0.000000  0.525951  0.308174  1
  B  B16  1  0.000000  0.210414  0.313392  1
  B  B17  1  0.000000  0.789566  0.686687  1
  B  B18  1  0.000000  0.288599  0.812523  1
  B  B19  1  0.000000  0.711615  0.187485  1
  Os  Os20  1  0.500000  0.357564  0.406946  1
  Os  Os21  1  0.500000  0.642417  0.593188  1
  Rh  Rh22  1  0.500000  0.141519  0.904854  1
  Rh  Rh23  1  0.500000  0.858519  0.095062  1
