# generated using pymatgen
data_TbYb3PtRh3O14
_symmetry_space_group_name_H-M   'P 1'
_cell_length_a   7.20505484
_cell_length_b   7.21583956
_cell_length_c   7.21583900
_cell_angle_alpha   59.99999798
_cell_angle_beta   59.95047097
_cell_angle_gamma   59.95048228
_symmetry_Int_Tables_number   1
_chemical_formula_structural   TbYb3PtRh3O14
_chemical_formula_sum   'Tb1 Yb3 Pt1 Rh3 O14'
_cell_volume   265.07605221
_cell_formula_units_Z   1
loop_
 _symmetry_equiv_pos_site_id
 _symmetry_equiv_pos_as_xyz
  1  'x, y, z'
loop_
 _atom_site_type_symbol
 _atom_site_label
 _atom_site_symmetry_multiplicity
 _atom_site_fract_x
 _atom_site_fract_y
 _atom_site_fract_z
 _atom_site_occupancy
  Tb  Tb0  1  0.125000  0.625000  0.625000  1
  Yb  Yb1  1  0.625000  0.625000  0.125000  1
  Yb  Yb2  1  0.625000  0.625000  0.625000  1
  Yb  Yb3  1  0.625000  0.125000  0.625000  1
  Pt  Pt4  1  0.625000  0.125000  0.125000  1
  Rh  Rh5  1  0.125000  0.125000  0.125000  1
  Rh  Rh6  1  0.125000  0.625000  0.125000  1
  Rh  Rh7  1  0.125000  0.125000  0.625000  1
  O  O8  1  0.051692  0.453817  0.453817  1
  O  O9  1  0.794334  0.791991  0.206837  1
  O  O10  1  0.794334  0.206837  0.206837  1
  O  O11  1  0.455666  0.043163  0.458009  1
  O  O12  1  0.051692  0.453817  0.040675  1
  O  O13  1  0.755586  0.748138  0.748138  1
  O  O14  1  0.051692  0.040675  0.453817  1
  O  O15  1  0.198308  0.796183  0.209325  1
  O  O16  1  0.198308  0.209325  0.796183  1
  O  O17  1  0.494414  0.501862  0.501862  1
  O  O18  1  0.794334  0.206837  0.791991  1
  O  O19  1  0.455666  0.043163  0.043163  1
  O  O20  1  0.455666  0.458009  0.043163  1
  O  O21  1  0.198308  0.796183  0.796183  1
