# generated using pymatgen
data_Pr16Sm3TmPb16
_symmetry_space_group_name_H-M   'P 1'
_cell_length_a   8.40827480
_cell_length_b   16.26630400
_cell_length_c   8.53043200
_cell_angle_alpha   90.00000000
_cell_angle_beta   89.97493732
_cell_angle_gamma   90.00000000
_symmetry_Int_Tables_number   1
_chemical_formula_structural   Pr16Sm3TmPb16
_chemical_formula_sum   'Pr16 Sm3 Tm1 Pb16'
_cell_volume   1166.72033003
_cell_formula_units_Z   1
loop_
 _symmetry_equiv_pos_site_id
 _symmetry_equiv_pos_as_xyz
  1  'x, y, z'
loop_
 _atom_site_type_symbol
 _atom_site_label
 _atom_site_symmetry_multiplicity
 _atom_site_fract_x
 _atom_site_fract_y
 _atom_site_fract_z
 _atom_site_occupancy
  Pr  Pr0  1  0.623419  0.618516  0.158688  1
  Pr  Pr1  1  0.122517  0.881133  0.342560  1
  Pr  Pr2  1  0.376347  0.118965  0.842173  1
  Pr  Pr3  1  0.876722  0.380572  0.658133  1
  Pr  Pr4  1  0.376347  0.381035  0.842173  1
  Pr  Pr5  1  0.876722  0.119428  0.658133  1
  Pr  Pr6  1  0.623419  0.881484  0.158688  1
  Pr  Pr7  1  0.122517  0.618867  0.342560  1
  Pr  Pr8  1  0.468433  0.600362  0.678285  1
  Pr  Pr9  1  0.967045  0.899531  0.821518  1
  Pr  Pr10  1  0.532974  0.101143  0.321866  1
  Pr  Pr11  1  0.032842  0.399427  0.177941  1
  Pr  Pr12  1  0.532974  0.398857  0.321866  1
  Pr  Pr13  1  0.032842  0.100573  0.177941  1
  Pr  Pr14  1  0.468433  0.899638  0.678285  1
  Pr  Pr15  1  0.967045  0.600469  0.821518  1
  Sm  Sm16  1  0.291958  0.750000  0.003578  1
  Sm  Sm17  1  0.207964  0.250000  0.503108  1
  Sm  Sm18  1  0.707972  0.250000  0.996434  1
  Tm  Tm19  1  0.790861  0.750000  0.496826  1
  Pb  Pb20  1  0.718544  0.454366  0.968725  1
  Pb  Pb21  1  0.218606  0.045699  0.530779  1
  Pb  Pb22  1  0.281131  0.954530  0.030602  1
  Pb  Pb23  1  0.781644  0.545222  0.468733  1
  Pb  Pb24  1  0.281131  0.545470  0.030602  1
  Pb  Pb25  1  0.781644  0.954778  0.468733  1
  Pb  Pb26  1  0.718544  0.045634  0.968725  1
  Pb  Pb27  1  0.218606  0.454301  0.530779  1
  Pb  Pb28  1  0.428694  0.750000  0.375291  1
  Pb  Pb29  1  0.927313  0.750000  0.125765  1
  Pb  Pb30  1  0.571963  0.250000  0.624644  1
  Pb  Pb31  1  0.072457  0.250000  0.875400  1
  Pb  Pb32  1  0.658242  0.750000  0.848247  1
  Pb  Pb33  1  0.159249  0.750000  0.651494  1
  Pb  Pb34  1  0.340973  0.250000  0.151053  1
  Pb  Pb35  1  0.841909  0.250000  0.348159  1
