# generated using pymatgen
data_Dy2Ir3W
_symmetry_space_group_name_H-M   'P 1'
_cell_length_a   5.58797672
_cell_length_b   5.58797665
_cell_length_c   5.23820496
_cell_angle_alpha   57.76544057
_cell_angle_beta   57.76543716
_cell_angle_gamma   60.00000245
_symmetry_Int_Tables_number   1
_chemical_formula_structural   Dy2Ir3W
_chemical_formula_sum   'Dy2 Ir3 W1'
_cell_volume   111.59658740
_cell_formula_units_Z   1
loop_
 _symmetry_equiv_pos_site_id
 _symmetry_equiv_pos_as_xyz
  1  'x, y, z'
loop_
 _atom_site_type_symbol
 _atom_site_label
 _atom_site_symmetry_multiplicity
 _atom_site_fract_x
 _atom_site_fract_y
 _atom_site_fract_z
 _atom_site_occupancy
  Dy  Dy0  1  0.751008  0.751008  0.746975  1
  Dy  Dy1  1  0.498992  0.498992  0.503025  1
  Ir  Ir2  1  0.125000  0.625000  0.125000  1
  Ir  Ir3  1  0.625000  0.125000  0.125000  1
  Ir  Ir4  1  0.125000  0.125000  0.125000  1
  W  W5  1  0.125000  0.125000  0.625000  1
