# generated using pymatgen
data_Sc3CoNiSn3Rh
_symmetry_space_group_name_H-M   'P 1'
_cell_length_a   7.44172700
_cell_length_b   7.44172757
_cell_length_c   3.40046300
_cell_angle_alpha   90.00000000
_cell_angle_beta   90.00000000
_cell_angle_gamma   120.00000191
_symmetry_Int_Tables_number   1
_chemical_formula_structural   Sc3CoNiSn3Rh
_chemical_formula_sum   'Sc3 Co1 Ni1 Sn3 Rh1'
_cell_volume   163.08581116
_cell_formula_units_Z   1
loop_
 _symmetry_equiv_pos_site_id
 _symmetry_equiv_pos_as_xyz
  1  'x, y, z'
loop_
 _atom_site_type_symbol
 _atom_site_label
 _atom_site_symmetry_multiplicity
 _atom_site_fract_x
 _atom_site_fract_y
 _atom_site_fract_z
 _atom_site_occupancy
  Sc  Sc0  1  0.605018  0.994876  0.000000  1
  Sc  Sc1  1  0.005124  0.610142  0.000000  1
  Sc  Sc2  1  0.389858  0.394982  0.000000  1
  Co  Co3  1  0.000000  0.000000  0.000000  1
  Ni  Ni4  1  0.666667  0.333333  0.500000  1
  Sn  Sn5  1  0.274375  0.008200  0.500000  1
  Sn  Sn6  1  0.991800  0.266175  0.500000  1
  Sn  Sn7  1  0.733825  0.725625  0.500000  1
  Rh  Rh8  1  0.333333  0.666667  0.500000  1
