# generated using pymatgen
data_ErTm15
_symmetry_space_group_name_H-M   'P 1'
_cell_length_a   7.14421700
_cell_length_b   7.14421639
_cell_length_c   11.00847500
_cell_angle_alpha   90.00000000
_cell_angle_beta   90.00000000
_cell_angle_gamma   119.99999818
_symmetry_Int_Tables_number   1
_chemical_formula_structural   ErTm15
_chemical_formula_sum   'Er1 Tm15'
_cell_volume   486.59432336
_cell_formula_units_Z   1
loop_
 _symmetry_equiv_pos_site_id
 _symmetry_equiv_pos_as_xyz
  1  'x, y, z'
loop_
 _atom_site_type_symbol
 _atom_site_label
 _atom_site_symmetry_multiplicity
 _atom_site_fract_x
 _atom_site_fract_y
 _atom_site_fract_z
 _atom_site_occupancy
  Er  Er0  1  0.000000  0.000000  0.500000  1
  Tm  Tm1  1  0.000000  0.000000  0.000000  1
  Tm  Tm2  1  0.001789  0.500894  0.500000  1
  Tm  Tm3  1  0.999298  0.499649  0.000000  1
  Tm  Tm4  1  0.499106  0.500894  0.500000  1
  Tm  Tm5  1  0.500351  0.499649  0.000000  1
  Tm  Tm6  1  0.499106  0.998211  0.500000  1
  Tm  Tm7  1  0.500351  0.000702  0.000000  1
  Tm  Tm8  1  0.166920  0.333839  0.248938  1
  Tm  Tm9  1  0.166920  0.333839  0.751062  1
  Tm  Tm10  1  0.166920  0.833080  0.248938  1
  Tm  Tm11  1  0.166920  0.833080  0.751062  1
  Tm  Tm12  1  0.666161  0.833080  0.248938  1
  Tm  Tm13  1  0.666161  0.833080  0.751062  1
  Tm  Tm14  1  0.666667  0.333333  0.251351  1
  Tm  Tm15  1  0.666667  0.333333  0.748649  1
