# generated using pymatgen
data_Ba6Tm3In(WO9)2
_symmetry_space_group_name_H-M   'P 1'
_cell_length_a   10.40111580
_cell_length_b   10.40111546
_cell_length_c   10.40111500
_cell_angle_alpha   146.44874759
_cell_angle_beta   131.86473864
_cell_angle_gamma   59.94929975
_symmetry_Int_Tables_number   1
_chemical_formula_structural   Ba6Tm3In(WO9)2
_chemical_formula_sum   'Ba6 Tm3 In1 W2 O18'
_cell_volume   458.92038128
_cell_formula_units_Z   1
loop_
 _symmetry_equiv_pos_site_id
 _symmetry_equiv_pos_as_xyz
  1  'x, y, z'
loop_
 _atom_site_type_symbol
 _atom_site_label
 _atom_site_symmetry_multiplicity
 _atom_site_fract_x
 _atom_site_fract_y
 _atom_site_fract_z
 _atom_site_occupancy
  Ba  Ba0  1  0.580102  0.840076  0.740025  1
  Ba  Ba1  1  0.268554  0.500000  0.768554  1
  Ba  Ba2  1  0.899948  0.159924  0.740025  1
  Ba  Ba3  1  0.100052  0.840076  0.259975  1
  Ba  Ba4  1  0.731446  0.500000  0.231446  1
  Ba  Ba5  1  0.419898  0.159924  0.259975  1
  Tm  Tm6  1  0.330279  0.330279  0.000000  1
  Tm  Tm7  1  0.000000  0.000000  0.000000  1
  Tm  Tm8  1  0.669721  0.669721  0.000000  1
  In  In9  1  0.500000  0.000000  0.500000  1
  W  W10  1  0.166110  0.666110  0.500000  1
  W  W11  1  0.833890  0.333890  0.500000  1
  O  O12  1  0.598707  0.330555  0.268152  1
  O  O13  1  0.248320  0.000000  0.248320  1
  O  O14  1  0.937596  0.669445  0.268152  1
  O  O15  1  0.910917  0.642270  0.731352  1
  O  O16  1  0.587499  0.338397  0.750900  1
  O  O17  1  0.241976  0.974545  0.732569  1
  O  O18  1  0.758024  0.490595  0.732569  1
  O  O19  1  0.412501  0.163401  0.750900  1
  O  O20  1  0.089083  0.820436  0.731352  1
  O  O21  1  0.062404  0.330555  0.731848  1
  O  O22  1  0.751680  0.000000  0.751680  1
  O  O23  1  0.401293  0.669445  0.731848  1
  O  O24  1  0.758024  0.025455  0.267431  1
  O  O25  1  0.412501  0.661603  0.249100  1
  O  O26  1  0.089083  0.357730  0.268648  1
  O  O27  1  0.910917  0.179564  0.268648  1
  O  O28  1  0.587499  0.836599  0.249100  1
  O  O29  1  0.241976  0.509405  0.267431  1
