# generated using pymatgen
data_Y3Mg3AlSiHg
_symmetry_space_group_name_H-M   'P 1'
_cell_length_a   7.32008600
_cell_length_b   7.32008612
_cell_length_c   4.46996200
_cell_angle_alpha   90.00000000
_cell_angle_beta   90.00000000
_cell_angle_gamma   120.00000848
_symmetry_Int_Tables_number   1
_chemical_formula_structural   Y3Mg3AlSiHg
_chemical_formula_sum   'Y3 Mg3 Al1 Si1 Hg1'
_cell_volume   207.42772295
_cell_formula_units_Z   1
loop_
 _symmetry_equiv_pos_site_id
 _symmetry_equiv_pos_as_xyz
  1  'x, y, z'
loop_
 _atom_site_type_symbol
 _atom_site_label
 _atom_site_symmetry_multiplicity
 _atom_site_fract_x
 _atom_site_fract_y
 _atom_site_fract_z
 _atom_site_occupancy
  Y  Y0  1  0.996633  0.570904  0.000000  1
  Y  Y1  1  0.429096  0.425729  0.000000  1
  Y  Y2  1  0.574271  0.003367  0.000000  1
  Mg  Mg3  1  0.753408  0.750527  0.500000  1
  Mg  Mg4  1  0.249473  0.002880  0.500000  1
  Mg  Mg5  1  0.997120  0.246592  0.500000  1
  Al  Al6  1  0.333333  0.666667  0.500000  1
  Si  Si7  1  0.666667  0.333333  0.500000  1
  Hg  Hg8  1  0.000000  0.000000  0.000000  1
