# generated using pymatgen
data_CeNd(ScSi)8
_symmetry_space_group_name_H-M   'P 1'
_cell_length_a   7.09372400
_cell_length_b   7.34489631
_cell_length_c   13.93124060
_cell_angle_alpha   89.96650832
_cell_angle_beta   90.00000000
_cell_angle_gamma   90.00000000
_symmetry_Int_Tables_number   1
_chemical_formula_structural   CeNd(ScSi)8
_chemical_formula_sum   'Ce2 Nd2 Sc16 Si16'
_cell_volume   725.85466921
_cell_formula_units_Z   2
loop_
 _symmetry_equiv_pos_site_id
 _symmetry_equiv_pos_as_xyz
  1  'x, y, z'
loop_
 _atom_site_type_symbol
 _atom_site_label
 _atom_site_symmetry_multiplicity
 _atom_site_fract_x
 _atom_site_fract_y
 _atom_site_fract_z
 _atom_site_occupancy
  Ce  Ce0  1  0.236065  0.674660  0.156806  1
  Ce  Ce1  1  0.736065  0.825340  0.843194  1
  Nd  Nd2  1  0.263343  0.324857  0.657275  1
  Nd  Nd3  1  0.763343  0.175143  0.342725  1
  Sc  Sc4  1  0.923941  0.674286  0.623089  1
  Sc  Sc5  1  0.423941  0.825714  0.376911  1
  Sc  Sc6  1  0.575456  0.326543  0.123335  1
  Sc  Sc7  1  0.075456  0.173457  0.876665  1
  Sc  Sc8  1  0.578905  0.320350  0.873130  1
  Sc  Sc9  1  0.078905  0.179650  0.126870  1
  Sc  Sc10  1  0.920927  0.678462  0.373601  1
  Sc  Sc11  1  0.420927  0.821538  0.626399  1
  Sc  Sc12  1  0.092204  0.003900  0.501424  1
  Sc  Sc13  1  0.592204  0.496100  0.498576  1
  Sc  Sc14  1  0.408193  0.995123  0.001189  1
  Sc  Sc15  1  0.908193  0.504877  0.998811  1
  Sc  Sc16  1  0.269905  0.319742  0.353810  1
  Sc  Sc17  1  0.769905  0.180258  0.646190  1
  Sc  Sc18  1  0.229748  0.681455  0.854106  1
  Sc  Sc19  1  0.729748  0.818545  0.145894  1
  Si  Si20  1  0.087484  0.960014  0.712325  1
  Si  Si21  1  0.587484  0.539986  0.287675  1
  Si  Si22  1  0.411241  0.037789  0.211535  1
  Si  Si23  1  0.911241  0.462211  0.788465  1
  Si  Si24  1  0.395044  0.022832  0.793477  1
  Si  Si25  1  0.895044  0.477168  0.206523  1
  Si  Si26  1  0.107663  0.974595  0.292389  1
  Si  Si27  1  0.607663  0.525405  0.707611  1
  Si  Si28  1  0.969053  0.372705  0.498185  1
  Si  Si29  1  0.469053  0.127295  0.501815  1
  Si  Si30  1  0.530895  0.628834  0.997953  1
  Si  Si31  1  0.030895  0.871166  0.002047  1
  Si  Si32  1  0.219929  0.614661  0.498502  1
  Si  Si33  1  0.719929  0.885339  0.501498  1
  Si  Si34  1  0.280006  0.387289  0.998558  1
  Si  Si35  1  0.780006  0.112711  0.001442  1
