# generated using pymatgen
data_Y5Bi2Sb
_symmetry_space_group_name_H-M   'P 1'
_cell_length_a   8.20236000
_cell_length_b   9.47761800
_cell_length_c   12.04744200
_cell_angle_alpha   90.00000000
_cell_angle_beta   90.00000000
_cell_angle_gamma   90.00000000
_symmetry_Int_Tables_number   1
_chemical_formula_structural   Y5Bi2Sb
_chemical_formula_sum   'Y20 Bi8 Sb4'
_cell_volume   936.55410314
_cell_formula_units_Z   4
loop_
 _symmetry_equiv_pos_site_id
 _symmetry_equiv_pos_as_xyz
  1  'x, y, z'
loop_
 _atom_site_type_symbol
 _atom_site_label
 _atom_site_symmetry_multiplicity
 _atom_site_fract_x
 _atom_site_fract_y
 _atom_site_fract_z
 _atom_site_occupancy
  Y  Y0  1  0.029881  0.750000  0.988471  1
  Y  Y1  1  0.529881  0.750000  0.511529  1
  Y  Y2  1  0.970119  0.250000  0.011529  1
  Y  Y3  1  0.470119  0.250000  0.488471  1
  Y  Y4  1  0.183822  0.750000  0.718420  1
  Y  Y5  1  0.683822  0.750000  0.781580  1
  Y  Y6  1  0.816178  0.250000  0.281580  1
  Y  Y7  1  0.316178  0.250000  0.218420  1
  Y  Y8  1  0.309797  0.439139  0.941084  1
  Y  Y9  1  0.809797  0.060861  0.558916  1
  Y  Y10  1  0.690203  0.939139  0.058916  1
  Y  Y11  1  0.190203  0.560861  0.441084  1
  Y  Y12  1  0.690203  0.560861  0.058916  1
  Y  Y13  1  0.190203  0.939139  0.441084  1
  Y  Y14  1  0.309797  0.060861  0.941084  1
  Y  Y15  1  0.809797  0.439139  0.558916  1
  Y  Y16  1  0.354239  0.750000  0.212586  1
  Y  Y17  1  0.854239  0.750000  0.287414  1
  Y  Y18  1  0.645761  0.250000  0.787414  1
  Y  Y19  1  0.145761  0.250000  0.712586  1
  Bi  Bi20  1  0.433539  0.003810  0.673868  1
  Bi  Bi21  1  0.933539  0.496190  0.826132  1
  Bi  Bi22  1  0.566461  0.503810  0.326132  1
  Bi  Bi23  1  0.066461  0.996190  0.173868  1
  Bi  Bi24  1  0.566461  0.996190  0.326132  1
  Bi  Bi25  1  0.066461  0.503810  0.173868  1
  Bi  Bi26  1  0.433539  0.496190  0.673868  1
  Bi  Bi27  1  0.933539  0.003810  0.826132  1
  Sb  Sb28  1  0.410328  0.750000  0.959288  1
  Sb  Sb29  1  0.910328  0.750000  0.540712  1
  Sb  Sb30  1  0.589672  0.250000  0.040712  1
  Sb  Sb31  1  0.089672  0.250000  0.459288  1
