# generated using pymatgen
data_PrSm5(RuBr3)2
_symmetry_space_group_name_H-M   'P 1'
_cell_length_a   4.19138100
_cell_length_b   8.90186730
_cell_length_c   12.09578614
_cell_angle_alpha   86.97724868
_cell_angle_beta   90.00000000
_cell_angle_gamma   90.00000000
_symmetry_Int_Tables_number   1
_chemical_formula_structural   PrSm5(RuBr3)2
_chemical_formula_sum   'Pr1 Sm5 Ru2 Br6'
_cell_volume   450.67938208
_cell_formula_units_Z   1
loop_
 _symmetry_equiv_pos_site_id
 _symmetry_equiv_pos_as_xyz
  1  'x, y, z'
loop_
 _atom_site_type_symbol
 _atom_site_label
 _atom_site_symmetry_multiplicity
 _atom_site_fract_x
 _atom_site_fract_y
 _atom_site_fract_z
 _atom_site_occupancy
  Pr  Pr0  1  0.750000  0.121337  0.161692  1
  Sm  Sm1  1  0.250000  0.313481  0.383560  1
  Sm  Sm2  1  0.750000  0.686661  0.618277  1
  Sm  Sm3  1  0.250000  0.893074  0.383109  1
  Sm  Sm4  1  0.750000  0.105537  0.617049  1
  Sm  Sm5  1  0.250000  0.878501  0.835027  1
  Ru  Ru6  1  0.250000  0.896261  0.616425  1
  Ru  Ru7  1  0.750000  0.103303  0.383571  1
  Br  Br8  1  0.250000  0.402348  0.627323  1
  Br  Br9  1  0.750000  0.597754  0.374536  1
  Br  Br10  1  0.250000  0.877892  0.114069  1
  Br  Br11  1  0.750000  0.114166  0.882580  1
  Br  Br12  1  0.250000  0.364346  0.132410  1
  Br  Br13  1  0.750000  0.645339  0.870374  1
