# generated using pymatgen
data_LaYTa5WO18
_symmetry_space_group_name_H-M   'P 1'
_cell_length_a   7.58833206
_cell_length_b   5.41375373
_cell_length_c   8.33128731
_cell_angle_alpha   87.65659709
_cell_angle_beta   90.16335272
_cell_angle_gamma   89.79695517
_symmetry_Int_Tables_number   1
_chemical_formula_structural   LaYTa5WO18
_chemical_formula_sum   'La1 Y1 Ta5 W1 O18'
_cell_volume   341.97070666
_cell_formula_units_Z   1
loop_
 _symmetry_equiv_pos_site_id
 _symmetry_equiv_pos_as_xyz
  1  'x, y, z'
loop_
 _atom_site_type_symbol
 _atom_site_label
 _atom_site_symmetry_multiplicity
 _atom_site_fract_x
 _atom_site_fract_y
 _atom_site_fract_z
 _atom_site_occupancy
  La  La0  1  0.247950  0.969831  0.437587  1
  Y  Y1  1  0.752722  0.040052  0.565332  1
  Ta  Ta2  1  0.499492  0.001992  0.998908  1
  Ta  Ta3  1  0.497565  0.526846  0.698021  1
  Ta  Ta4  1  0.004889  0.529774  0.698399  1
  Ta  Ta5  1  0.989520  0.472344  0.302493  1
  Ta  Ta6  1  0.508378  0.475631  0.303630  1
  W  W7  1  0.999368  0.001758  0.998300  1
  O  O8  1  0.246366  0.916203  0.979953  1
  O  O9  1  0.935919  0.852137  0.779401  1
  O  O10  1  0.559820  0.847558  0.785893  1
  O  O11  1  0.953208  0.736846  0.469624  1
  O  O12  1  0.546838  0.736912  0.469394  1
  O  O13  1  0.250991  0.641578  0.661372  1
  O  O14  1  0.950588  0.681271  0.125291  1
  O  O15  1  0.546800  0.684956  0.123676  1
  O  O16  1  0.250419  0.554283  0.317788  1
  O  O17  1  0.750128  0.421477  0.691057  1
  O  O18  1  0.049792  0.322967  0.876043  1
  O  O19  1  0.452517  0.318291  0.877538  1
  O  O20  1  0.749119  0.339519  0.340707  1
  O  O21  1  0.031747  0.265061  0.531792  1
  O  O22  1  0.468752  0.264487  0.532091  1
  O  O23  1  0.057988  0.156210  0.212701  1
  O  O24  1  0.446010  0.159971  0.206488  1
  O  O25  1  0.753115  0.082043  0.016522  1
