# generated using pymatgen
data_TbCeSn5Rh3
_symmetry_space_group_name_H-M   'P 1'
_cell_length_a   13.54134608
_cell_length_b   13.54134623
_cell_length_c   7.23647600
_cell_angle_alpha   90.00000000
_cell_angle_beta   90.00000000
_cell_angle_gamma   160.92675767
_symmetry_Int_Tables_number   1
_chemical_formula_structural   TbCeSn5Rh3
_chemical_formula_sum   'Tb2 Ce2 Sn10 Rh6'
_cell_volume   433.61241369
_cell_formula_units_Z   2
loop_
 _symmetry_equiv_pos_site_id
 _symmetry_equiv_pos_as_xyz
  1  'x, y, z'
loop_
 _atom_site_type_symbol
 _atom_site_label
 _atom_site_symmetry_multiplicity
 _atom_site_fract_x
 _atom_site_fract_y
 _atom_site_fract_z
 _atom_site_occupancy
  Tb  Tb0  1  0.476252  0.523748  0.736526  1
  Tb  Tb1  1  0.523748  0.476252  0.236526  1
  Ce  Ce2  1  0.171197  0.828803  0.757701  1
  Ce  Ce3  1  0.828803  0.171197  0.257701  1
  Sn  Sn4  1  0.879544  0.120456  0.732946  1
  Sn  Sn5  1  0.120456  0.879544  0.232946  1
  Sn  Sn6  1  0.705173  0.294827  0.049855  1
  Sn  Sn7  1  0.294827  0.705173  0.549855  1
  Sn  Sn8  1  0.595512  0.404488  0.608948  1
  Sn  Sn9  1  0.404488  0.595512  0.108948  1
  Sn  Sn10  1  0.952757  0.047243  0.400713  1
  Sn  Sn11  1  0.047243  0.952757  0.900713  1
  Sn  Sn12  1  0.290621  0.709379  0.977753  1
  Sn  Sn13  1  0.709379  0.290621  0.477753  1
  Rh  Rh14  1  0.050102  0.949898  0.515699  1
  Rh  Rh15  1  0.949898  0.050102  0.015699  1
  Rh  Rh16  1  0.777248  0.222752  0.765079  1
  Rh  Rh17  1  0.222752  0.777248  0.265079  1
  Rh  Rh18  1  0.394506  0.605494  0.482779  1
  Rh  Rh19  1  0.605494  0.394506  0.982779  1
