# generated using pymatgen
data_Lu16CdIn3Pd4
_symmetry_space_group_name_H-M   'P 1'
_cell_length_a   9.52652160
_cell_length_b   9.52585256
_cell_length_c   9.52585100
_cell_angle_alpha   60.00000196
_cell_angle_beta   60.00232507
_cell_angle_gamma   60.00232046
_symmetry_Int_Tables_number   1
_chemical_formula_structural   Lu16CdIn3Pd4
_chemical_formula_sum   'Lu16 Cd1 In3 Pd4'
_cell_volume   611.28290585
_cell_formula_units_Z   1
loop_
 _symmetry_equiv_pos_site_id
 _symmetry_equiv_pos_as_xyz
  1  'x, y, z'
loop_
 _atom_site_type_symbol
 _atom_site_label
 _atom_site_symmetry_multiplicity
 _atom_site_fract_x
 _atom_site_fract_y
 _atom_site_fract_z
 _atom_site_occupancy
  Lu  Lu0  1  0.352267  0.353005  0.353005  1
  Lu  Lu1  1  0.352267  0.353005  0.941725  1
  Lu  Lu2  1  0.352267  0.941725  0.353005  1
  Lu  Lu3  1  0.942426  0.352525  0.352525  1
  Lu  Lu4  1  0.810527  0.189249  0.189249  1
  Lu  Lu5  1  0.188408  0.811502  0.811502  1
  Lu  Lu6  1  0.188408  0.811502  0.188588  1
  Lu  Lu7  1  0.810527  0.189249  0.810975  1
  Lu  Lu8  1  0.188408  0.188588  0.811502  1
  Lu  Lu9  1  0.810527  0.810975  0.189249  1
  Lu  Lu10  1  0.937119  0.564896  0.564896  1
  Lu  Lu11  1  0.565479  0.935024  0.935024  1
  Lu  Lu12  1  0.565479  0.935024  0.564471  1
  Lu  Lu13  1  0.937119  0.564896  0.933091  1
  Lu  Lu14  1  0.565479  0.564471  0.935024  1
  Lu  Lu15  1  0.937119  0.933091  0.564896  1
  Cd  Cd16  1  0.248072  0.583976  0.583976  1
  In  In17  1  0.582618  0.584128  0.584128  1
  In  In18  1  0.582618  0.584128  0.249126  1
  In  In19  1  0.582618  0.249126  0.584128  1
  Pd  Pd20  1  0.144449  0.144116  0.144116  1
  Pd  Pd21  1  0.144449  0.144116  0.567319  1
  Pd  Pd22  1  0.144449  0.567319  0.144116  1
  Pd  Pd23  1  0.566903  0.144366  0.144366  1
