# generated using pymatgen
data_Hf6B4Ru9Pt
_symmetry_space_group_name_H-M   'P 1'
_cell_length_a   9.56053129
_cell_length_b   9.52289229
_cell_length_c   3.13242700
_cell_angle_alpha   90.00000000
_cell_angle_beta   90.00000000
_cell_angle_gamma   90.05960358
_symmetry_Int_Tables_number   1
_chemical_formula_structural   Hf6B4Ru9Pt
_chemical_formula_sum   'Hf6 B4 Ru9 Pt1'
_cell_volume   285.18824669
_cell_formula_units_Z   1
loop_
 _symmetry_equiv_pos_site_id
 _symmetry_equiv_pos_as_xyz
  1  'x, y, z'
loop_
 _atom_site_type_symbol
 _atom_site_label
 _atom_site_symmetry_multiplicity
 _atom_site_fract_x
 _atom_site_fract_y
 _atom_site_fract_z
 _atom_site_occupancy
  Hf  Hf0  1  0.834554  0.673216  0.000000  1
  Hf  Hf1  1  0.176388  0.323092  0.000000  1
  Hf  Hf2  1  0.313853  0.827624  0.000000  1
  Hf  Hf3  1  0.676297  0.179381  0.000000  1
  Hf  Hf4  1  0.497899  0.493398  0.000000  1
  Hf  Hf5  1  0.998844  0.002282  0.000000  1
  B  B6  1  0.627781  0.898528  0.000000  1
  B  B7  1  0.374308  0.120418  0.000000  1
  B  B8  1  0.122821  0.621163  0.000000  1
  B  B9  1  0.878269  0.378690  0.000000  1
  Ru  Ru10  1  0.430125  0.274913  0.500000  1
  Ru  Ru11  1  0.070406  0.778880  0.500000  1
  Ru  Ru12  1  0.926173  0.220969  0.500000  1
  Ru  Ru13  1  0.280161  0.572073  0.500000  1
  Ru  Ru14  1  0.721165  0.431132  0.500000  1
  Ru  Ru15  1  0.220376  0.069643  0.500000  1
  Ru  Ru16  1  0.778598  0.923385  0.500000  1
  Ru  Ru17  1  0.498930  0.995360  0.500000  1
  Ru  Ru18  1  0.002201  0.498303  0.500000  1
  Pt  Pt19  1  0.570850  0.717552  0.500000  1
