# generated using pymatgen
data_YEr5ReTcB14
_symmetry_space_group_name_H-M   'P 1'
_cell_length_a   8.02259641
_cell_length_b   8.02259598
_cell_length_c   9.31339500
_cell_angle_alpha   90.00000000
_cell_angle_beta   90.00000000
_cell_angle_gamma   154.65772456
_symmetry_Int_Tables_number   1
_chemical_formula_structural   YEr5ReTcB14
_chemical_formula_sum   'Y1 Er5 Re1 Tc1 B14'
_cell_volume   256.57057206
_cell_formula_units_Z   1
loop_
 _symmetry_equiv_pos_site_id
 _symmetry_equiv_pos_as_xyz
  1  'x, y, z'
loop_
 _atom_site_type_symbol
 _atom_site_label
 _atom_site_symmetry_multiplicity
 _atom_site_fract_x
 _atom_site_fract_y
 _atom_site_fract_z
 _atom_site_occupancy
  Y  Y0  1  0.756324  0.243676  0.750000  1
  Er  Er1  1  0.894810  0.105190  0.439550  1
  Er  Er2  1  0.105260  0.894740  0.558559  1
  Er  Er3  1  0.894810  0.105190  0.060450  1
  Er  Er4  1  0.105260  0.894740  0.941441  1
  Er  Er5  1  0.242051  0.757949  0.250000  1
  Re  Re6  1  0.948011  0.051989  0.750000  1
  Tc  Tc7  1  0.052229  0.947771  0.250000  1
  B  B8  1  0.727366  0.272634  0.465203  1
  B  B9  1  0.272851  0.727149  0.532104  1
  B  B10  1  0.727366  0.272634  0.034797  1
  B  B11  1  0.272851  0.727149  0.967896  1
  B  B12  1  0.631821  0.368179  0.151031  1
  B  B13  1  0.368118  0.631882  0.849789  1
  B  B14  1  0.631821  0.368179  0.348969  1
  B  B15  1  0.368118  0.631882  0.650211  1
  B  B16  1  0.520335  0.479665  0.095173  1
  B  B17  1  0.479889  0.520111  0.905275  1
  B  B18  1  0.520335  0.479665  0.404827  1
  B  B19  1  0.479889  0.520111  0.594725  1
  B  B20  1  0.455780  0.544220  0.250000  1
  B  B21  1  0.544704  0.455296  0.750000  1
