# generated using pymatgen
data_Sc3InRuRh
_symmetry_space_group_name_H-M   'P 1'
_cell_length_a   3.29211500
_cell_length_b   3.29211500
_cell_length_c   10.39564500
_cell_angle_alpha   90.00000000
_cell_angle_beta   90.00000000
_cell_angle_gamma   90.00000000
_symmetry_Int_Tables_number   1
_chemical_formula_structural   Sc3InRuRh
_chemical_formula_sum   'Sc3 In1 Ru1 Rh1'
_cell_volume   112.66822062
_cell_formula_units_Z   1
loop_
 _symmetry_equiv_pos_site_id
 _symmetry_equiv_pos_as_xyz
  1  'x, y, z'
loop_
 _atom_site_type_symbol
 _atom_site_label
 _atom_site_symmetry_multiplicity
 _atom_site_fract_x
 _atom_site_fract_y
 _atom_site_fract_z
 _atom_site_occupancy
  Sc  Sc0  1  0.000000  0.000000  0.006096  1
  Sc  Sc1  1  0.000000  0.000000  0.698677  1
  Sc  Sc2  1  0.000000  0.000000  0.298068  1
  In  In3  1  0.500000  0.500000  0.499590  1
  Ru  Ru4  1  0.500000  0.500000  0.156073  1
  Rh  Rh5  1  0.500000  0.500000  0.841495  1
