# generated using pymatgen
data_DyHo(GaNi)2
_symmetry_space_group_name_H-M   'P 1'
_cell_length_a   4.27521900
_cell_length_b   6.79729500
_cell_length_c   7.37931800
_cell_angle_alpha   90.00000000
_cell_angle_beta   90.00000000
_cell_angle_gamma   90.00000000
_symmetry_Int_Tables_number   1
_chemical_formula_structural   DyHo(GaNi)2
_chemical_formula_sum   'Dy2 Ho2 Ga4 Ni4'
_cell_volume   214.44242566
_cell_formula_units_Z   2
loop_
 _symmetry_equiv_pos_site_id
 _symmetry_equiv_pos_as_xyz
  1  'x, y, z'
loop_
 _atom_site_type_symbol
 _atom_site_label
 _atom_site_symmetry_multiplicity
 _atom_site_fract_x
 _atom_site_fract_y
 _atom_site_fract_z
 _atom_site_occupancy
  Dy  Dy0  1  0.250000  0.519488  0.694173  1
  Dy  Dy1  1  0.250000  0.019488  0.805827  1
  Ho  Ho2  1  0.750000  0.980421  0.194848  1
  Ho  Ho3  1  0.750000  0.480421  0.305152  1
  Ga  Ga4  1  0.750000  0.326568  0.925217  1
  Ga  Ga5  1  0.250000  0.173246  0.424273  1
  Ga  Ga6  1  0.750000  0.826568  0.574783  1
  Ga  Ga7  1  0.250000  0.673246  0.075727  1
  Ni  Ni8  1  0.250000  0.285744  0.098197  1
  Ni  Ni9  1  0.250000  0.785744  0.401803  1
  Ni  Ni10  1  0.750000  0.714533  0.902636  1
  Ni  Ni11  1  0.750000  0.214533  0.597364  1
