# generated using pymatgen
data_Tb11Nd5Cd4(IrPt)2
_symmetry_space_group_name_H-M   'P 1'
_cell_length_a   9.78427236
_cell_length_b   9.78591577
_cell_length_c   9.75976761
_cell_angle_alpha   60.14358811
_cell_angle_beta   59.83067569
_cell_angle_gamma   60.20697038
_symmetry_Int_Tables_number   1
_chemical_formula_structural   Tb11Nd5Cd4(IrPt)2
_chemical_formula_sum   'Tb11 Nd5 Cd4 Ir2 Pt2'
_cell_volume   661.66474963
_cell_formula_units_Z   1
loop_
 _symmetry_equiv_pos_site_id
 _symmetry_equiv_pos_as_xyz
  1  'x, y, z'
loop_
 _atom_site_type_symbol
 _atom_site_label
 _atom_site_symmetry_multiplicity
 _atom_site_fract_x
 _atom_site_fract_y
 _atom_site_fract_z
 _atom_site_occupancy
  Tb  Tb0  1  0.350453  0.348236  0.346422  1
  Tb  Tb1  1  0.349537  0.353042  0.953218  1
  Tb  Tb2  1  0.355293  0.946093  0.352489  1
  Tb  Tb3  1  0.945961  0.355582  0.350126  1
  Tb  Tb4  1  0.808265  0.189738  0.186772  1
  Tb  Tb5  1  0.186103  0.808899  0.815274  1
  Tb  Tb6  1  0.188642  0.807940  0.189296  1
  Tb  Tb7  1  0.808326  0.188045  0.814148  1
  Tb  Tb8  1  0.187426  0.191062  0.811149  1
  Tb  Tb9  1  0.812591  0.812615  0.184724  1
  Tb  Tb10  1  0.943409  0.559451  0.556228  1
  Nd  Nd11  1  0.559423  0.941733  0.940412  1
  Nd  Nd12  1  0.565442  0.939095  0.559622  1
  Nd  Nd13  1  0.940755  0.559735  0.937324  1
  Nd  Nd14  1  0.563672  0.560361  0.938429  1
  Nd  Nd15  1  0.939848  0.937952  0.558960  1
  Cd  Cd16  1  0.582147  0.579601  0.579092  1
  Cd  Cd17  1  0.579003  0.580249  0.259730  1
  Cd  Cd18  1  0.578869  0.260472  0.580026  1
  Cd  Cd19  1  0.258325  0.579368  0.579743  1
  Ir  Ir20  1  0.139404  0.573849  0.146620  1
  Ir  Ir21  1  0.573454  0.140755  0.142591  1
  Pt  Pt22  1  0.143042  0.142448  0.145216  1
  Pt  Pt23  1  0.140610  0.143678  0.572384  1
