# generated using pymatgen
data_Cs2NaTi6F21
_symmetry_space_group_name_H-M   'P 1'
_cell_length_a   7.69796410
_cell_length_b   7.69796355
_cell_length_c   11.05006536
_cell_angle_alpha   69.66532187
_cell_angle_beta   69.66532323
_cell_angle_gamma   60.18719061
_symmetry_Int_Tables_number   1
_chemical_formula_structural   Cs2NaTi6F21
_chemical_formula_sum   'Cs2 Na1 Ti6 F21'
_cell_volume   520.31041604
_cell_formula_units_Z   1
loop_
 _symmetry_equiv_pos_site_id
 _symmetry_equiv_pos_as_xyz
  1  'x, y, z'
loop_
 _atom_site_type_symbol
 _atom_site_label
 _atom_site_symmetry_multiplicity
 _atom_site_fract_x
 _atom_site_fract_y
 _atom_site_fract_z
 _atom_site_occupancy
  Cs  Cs0  1  0.131080  0.139339  0.596001  1
  Cs  Cs1  1  0.860661  0.868920  0.403999  1
  Na  Na2  1  0.518607  0.481393  0.500000  1
  Ti  Ti3  1  0.456325  0.912057  0.197102  1
  Ti  Ti4  1  0.087943  0.543675  0.802898  1
  Ti  Ti5  1  0.957176  0.414321  0.193554  1
  Ti  Ti6  1  0.458103  0.412652  0.194871  1
  Ti  Ti7  1  0.587348  0.541897  0.805129  1
  Ti  Ti8  1  0.585679  0.042824  0.806446  1
  F  F9  1  0.675047  0.566738  0.617034  1
  F  F10  1  0.433262  0.324953  0.382966  1
  F  F11  1  0.164460  0.482693  0.211950  1
  F  F12  1  0.517307  0.835540  0.788050  1
  F  F13  1  0.870193  0.464010  0.818092  1
  F  F14  1  0.515580  0.960910  0.001467  1
  F  F15  1  0.751544  0.345711  0.174208  1
  F  F16  1  0.151752  0.590897  0.613446  1
  F  F17  1  0.876506  0.832792  0.802554  1
  F  F18  1  0.747792  0.704054  0.191368  1
  F  F19  1  0.654289  0.248456  0.825792  1
  F  F20  1  0.496024  0.503976  0.000000  1
  F  F21  1  0.866930  0.351027  0.381129  1
  F  F22  1  0.304388  0.623805  0.790522  1
  F  F23  1  0.409103  0.848248  0.386554  1
  F  F24  1  0.295946  0.252208  0.808632  1
  F  F25  1  0.535990  0.129807  0.181908  1
  F  F26  1  0.376195  0.695612  0.209478  1
  F  F27  1  0.167208  0.123494  0.197446  1
  F  F28  1  0.039090  0.484420  0.998533  1
  F  F29  1  0.648973  0.133070  0.618871  1
