# generated using pymatgen
data_Nb7TcS12
_symmetry_space_group_name_H-M   'P 1'
_cell_length_a   5.82352600
_cell_length_b   5.82352524
_cell_length_c   12.42016600
_cell_angle_alpha   90.00000000
_cell_angle_beta   90.00000000
_cell_angle_gamma   120.00001568
_symmetry_Int_Tables_number   1
_chemical_formula_structural   Nb7TcS12
_chemical_formula_sum   'Nb7 Tc1 S12'
_cell_volume   364.77909732
_cell_formula_units_Z   1
loop_
 _symmetry_equiv_pos_site_id
 _symmetry_equiv_pos_as_xyz
  1  'x, y, z'
loop_
 _atom_site_type_symbol
 _atom_site_label
 _atom_site_symmetry_multiplicity
 _atom_site_fract_x
 _atom_site_fract_y
 _atom_site_fract_z
 _atom_site_occupancy
  Nb  Nb0  1  0.333333  0.666667  0.250000  1
  Nb  Nb1  1  0.333333  0.666667  0.509087  1
  Nb  Nb2  1  0.666667  0.333333  0.995935  1
  Nb  Nb3  1  0.666667  0.333333  0.504065  1
  Nb  Nb4  1  0.333333  0.666667  0.990913  1
  Nb  Nb5  1  0.000000  0.000000  0.507701  1
  Nb  Nb6  1  0.000000  0.000000  0.992299  1
  Tc  Tc7  1  0.666667  0.333333  0.750000  1
  S  S8  1  0.330735  0.332174  0.120866  1
  S  S9  1  0.667826  0.998560  0.120866  1
  S  S10  1  0.001440  0.669265  0.120866  1
  S  S11  1  0.995554  0.332260  0.632851  1
  S  S12  1  0.667740  0.004446  0.867149  1
  S  S13  1  0.667740  0.663294  0.632851  1
  S  S14  1  0.336706  0.004446  0.632851  1
  S  S15  1  0.667826  0.669265  0.379134  1
  S  S16  1  0.330735  0.998560  0.379134  1
  S  S17  1  0.336706  0.332260  0.867149  1
  S  S18  1  0.995554  0.663294  0.867149  1
  S  S19  1  0.001440  0.332174  0.379134  1
