# generated using pymatgen
data_Sc12In2Fe2Os
_symmetry_space_group_name_H-M   'P 1'
_cell_length_a   7.83021808
_cell_length_b   7.83021907
_cell_length_c   7.83021842
_cell_angle_alpha   108.57525417
_cell_angle_beta   108.57524916
_cell_angle_gamma   111.27841490
_symmetry_Int_Tables_number   1
_chemical_formula_structural   Sc12In2Fe2Os
_chemical_formula_sum   'Sc12 In2 Fe2 Os1'
_cell_volume   369.29585773
_cell_formula_units_Z   1
loop_
 _symmetry_equiv_pos_site_id
 _symmetry_equiv_pos_as_xyz
  1  'x, y, z'
loop_
 _atom_site_type_symbol
 _atom_site_label
 _atom_site_symmetry_multiplicity
 _atom_site_fract_x
 _atom_site_fract_y
 _atom_site_fract_z
 _atom_site_occupancy
  Sc  Sc0  1  0.194393  0.432078  0.237684  1
  Sc  Sc1  1  0.805607  0.567922  0.762316  1
  Sc  Sc2  1  0.194393  0.956710  0.762316  1
  Sc  Sc3  1  0.956710  0.194393  0.762316  1
  Sc  Sc4  1  0.805607  0.043290  0.237684  1
  Sc  Sc5  1  0.043290  0.805607  0.237684  1
  Sc  Sc6  1  0.432078  0.194393  0.237684  1
  Sc  Sc7  1  0.567922  0.805607  0.762316  1
  Sc  Sc8  1  0.306519  0.306519  0.613038  1
  Sc  Sc9  1  0.693481  0.693481  0.386962  1
  Sc  Sc10  1  0.693481  0.306519  0.000000  1
  Sc  Sc11  1  0.306519  0.693481  0.000000  1
  In  In12  1  0.000000  0.500000  0.500000  1
  In  In13  1  0.500000  0.000000  0.500000  1
  Fe  Fe14  1  0.379586  0.379586  0.000000  1
  Fe  Fe15  1  0.620414  0.620414  0.000000  1
  Os  Os16  1  0.000000  0.000000  0.000000  1
