# generated using pymatgen
data_Al13Pd12Ru
_symmetry_space_group_name_H-M   'P 1'
_cell_length_a   9.29303482
_cell_length_b   9.29303646
_cell_length_c   9.29303688
_cell_angle_alpha   116.48483066
_cell_angle_beta   116.48483197
_cell_angle_gamma   116.48484145
_symmetry_Int_Tables_number   1
_chemical_formula_structural   Al13Pd12Ru
_chemical_formula_sum   'Al13 Pd12 Ru1'
_cell_volume   381.50337507
_cell_formula_units_Z   1
loop_
 _symmetry_equiv_pos_site_id
 _symmetry_equiv_pos_as_xyz
  1  'x, y, z'
loop_
 _atom_site_type_symbol
 _atom_site_label
 _atom_site_symmetry_multiplicity
 _atom_site_fract_x
 _atom_site_fract_y
 _atom_site_fract_z
 _atom_site_occupancy
  Al  Al0  1  0.340753  0.096715  0.055483  1
  Al  Al1  1  0.055484  0.340753  0.096714  1
  Al  Al2  1  0.096714  0.055485  0.340752  1
  Al  Al3  1  0.659246  0.903284  0.944515  1
  Al  Al4  1  0.944515  0.659246  0.903284  1
  Al  Al5  1  0.903284  0.944514  0.659246  1
  Al  Al6  1  0.155339  0.597604  0.752889  1
  Al  Al7  1  0.752889  0.155339  0.597604  1
  Al  Al8  1  0.597604  0.752888  0.155339  1
  Al  Al9  1  0.844661  0.402396  0.247112  1
  Al  Al10  1  0.247112  0.844661  0.402396  1
  Al  Al11  1  0.402396  0.247112  0.844661  1
  Al  Al12  1  0.500001  0.500001  0.500001  1
  Pd  Pd13  1  0.653482  0.097910  0.250278  1
  Pd  Pd14  1  0.250278  0.653482  0.097910  1
  Pd  Pd15  1  0.097910  0.250278  0.653482  1
  Pd  Pd16  1  0.346520  0.902092  0.749724  1
  Pd  Pd17  1  0.749725  0.346520  0.902092  1
  Pd  Pd18  1  0.902092  0.749725  0.346520  1
  Pd  Pd19  1  0.844086  0.595713  0.554840  1
  Pd  Pd20  1  0.554839  0.844085  0.595714  1
  Pd  Pd21  1  0.595714  0.554840  0.844085  1
  Pd  Pd22  1  0.155916  0.404289  0.445162  1
  Pd  Pd23  1  0.445163  0.155917  0.404288  1
  Pd  Pd24  1  0.404289  0.445162  0.155917  1
  Ru  Ru25  1  0.000000  0.000000  0.000000  1
