# generated using pymatgen
data_Er16Cd3NiHgRu3
_symmetry_space_group_name_H-M   'P 1'
_cell_length_a   9.50779801
_cell_length_b   9.56587788
_cell_length_c   9.56587807
_cell_angle_alpha   59.59604760
_cell_angle_beta   59.40697406
_cell_angle_gamma   59.40697338
_symmetry_Int_Tables_number   1
_chemical_formula_structural   Er16Cd3NiHgRu3
_chemical_formula_sum   'Er16 Cd3 Ni1 Hg1 Ru3'
_cell_volume   607.77636411
_cell_formula_units_Z   1
loop_
 _symmetry_equiv_pos_site_id
 _symmetry_equiv_pos_as_xyz
  1  'x, y, z'
loop_
 _atom_site_type_symbol
 _atom_site_label
 _atom_site_symmetry_multiplicity
 _atom_site_fract_x
 _atom_site_fract_y
 _atom_site_fract_z
 _atom_site_occupancy
  Er  Er0  1  0.350856  0.346280  0.346280  1
  Er  Er1  1  0.351605  0.346738  0.958624  1
  Er  Er2  1  0.351605  0.958624  0.346738  1
  Er  Er3  1  0.958377  0.347181  0.347181  1
  Er  Er4  1  0.811084  0.187602  0.187602  1
  Er  Er5  1  0.184383  0.810647  0.810647  1
  Er  Er6  1  0.187607  0.810622  0.188622  1
  Er  Er7  1  0.808800  0.189240  0.809919  1
  Er  Er8  1  0.187607  0.188622  0.810622  1
  Er  Er9  1  0.808800  0.809919  0.189240  1
  Er  Er10  1  0.938459  0.559976  0.559976  1
  Er  Er11  1  0.558888  0.936606  0.936606  1
  Er  Er12  1  0.558240  0.937061  0.566569  1
  Er  Er13  1  0.939512  0.559171  0.939457  1
  Er  Er14  1  0.558240  0.566569  0.937061  1
  Er  Er15  1  0.939512  0.939457  0.559171  1
  Cd  Cd16  1  0.579669  0.580006  0.258299  1
  Cd  Cd17  1  0.579669  0.258299  0.580006  1
  Cd  Cd18  1  0.257550  0.580507  0.580507  1
  Ni  Ni19  1  0.578478  0.142307  0.142307  1
  Hg  Hg20  1  0.582495  0.585120  0.585120  1
  Ru  Ru21  1  0.142530  0.139458  0.139458  1
  Ru  Ru22  1  0.143016  0.142131  0.577858  1
  Ru  Ru23  1  0.143016  0.577858  0.142131  1
