# generated using pymatgen
data_Na4LuBiO6
_symmetry_space_group_name_H-M   'P 1'
_cell_length_a   5.78428406
_cell_length_b   5.78437826
_cell_length_c   5.92241090
_cell_angle_alpha   99.60787198
_cell_angle_beta   99.60786654
_cell_angle_gamma   119.85237791
_symmetry_Int_Tables_number   1
_chemical_formula_structural   Na4LuBiO6
_chemical_formula_sum   'Na4 Lu1 Bi1 O6'
_cell_volume   162.04921102
_cell_formula_units_Z   1
loop_
 _symmetry_equiv_pos_site_id
 _symmetry_equiv_pos_as_xyz
  1  'x, y, z'
loop_
 _atom_site_type_symbol
 _atom_site_label
 _atom_site_symmetry_multiplicity
 _atom_site_fract_x
 _atom_site_fract_y
 _atom_site_fract_z
 _atom_site_occupancy
  Na  Na0  1  0.499916  0.500079  0.999989  1
  Na  Na1  1  0.004389  0.995598  0.499999  1
  Na  Na2  1  0.657853  0.342114  0.500005  1
  Na  Na3  1  0.339042  0.660972  0.500011  1
  Lu  Lu4  1  0.833058  0.166950  0.000019  1
  Bi  Bi5  1  0.167194  0.832796  0.999984  1
  O  O6  1  0.942719  0.582310  0.215621  1
  O  O7  1  0.565132  0.934993  0.218849  1
  O  O8  1  0.212484  0.204425  0.219574  1
  O  O9  1  0.795572  0.787519  0.780422  1
  O  O10  1  0.065015  0.434866  0.781148  1
  O  O11  1  0.417710  0.057297  0.784383  1
