# generated using pymatgen
data_Zr10Hg2BiPb5
_symmetry_space_group_name_H-M   'P 1'
_cell_length_a   8.93565711
_cell_length_b   8.93565708
_cell_length_c   6.07013100
_cell_angle_alpha   90.00000000
_cell_angle_beta   90.00000000
_cell_angle_gamma   119.98232765
_symmetry_Int_Tables_number   1
_chemical_formula_structural   Zr10Hg2BiPb5
_chemical_formula_sum   'Zr10 Hg2 Bi1 Pb5'
_cell_volume   419.81600837
_cell_formula_units_Z   1
loop_
 _symmetry_equiv_pos_site_id
 _symmetry_equiv_pos_as_xyz
  1  'x, y, z'
loop_
 _atom_site_type_symbol
 _atom_site_label
 _atom_site_symmetry_multiplicity
 _atom_site_fract_x
 _atom_site_fract_y
 _atom_site_fract_z
 _atom_site_occupancy
  Zr  Zr0  1  0.667025  0.333393  0.000798  1
  Zr  Zr1  1  0.333393  0.667025  0.000798  1
  Zr  Zr2  1  0.333393  0.667025  0.499202  1
  Zr  Zr3  1  0.667025  0.333393  0.499202  1
  Zr  Zr4  1  0.721675  0.721675  0.750000  1
  Zr  Zr5  1  0.278212  0.999039  0.750000  1
  Zr  Zr6  1  0.999039  0.278212  0.750000  1
  Zr  Zr7  1  0.278507  0.278507  0.250000  1
  Zr  Zr8  1  0.721330  0.999994  0.250000  1
  Zr  Zr9  1  0.999994  0.721330  0.250000  1
  Hg  Hg10  1  0.999398  0.999398  0.000455  1
  Hg  Hg11  1  0.999398  0.999398  0.499545  1
  Bi  Bi12  1  0.382358  0.382358  0.750000  1
  Pb  Pb13  1  0.618789  0.000042  0.750000  1
  Pb  Pb14  1  0.000042  0.618789  0.750000  1
  Pb  Pb15  1  0.619139  0.619139  0.250000  1
  Pb  Pb16  1  0.381436  0.999845  0.250000  1
  Pb  Pb17  1  0.999845  0.381436  0.250000  1
