# generated using pymatgen
data_Dy3Ho3(Sc2Pb3)2
_symmetry_space_group_name_H-M   'P 1'
_cell_length_a   8.88855700
_cell_length_b   8.88850724
_cell_length_c   6.36342400
_cell_angle_alpha   90.00000000
_cell_angle_beta   90.00000000
_cell_angle_gamma   120.00018145
_symmetry_Int_Tables_number   1
_chemical_formula_structural   Dy3Ho3(Sc2Pb3)2
_chemical_formula_sum   'Dy3 Ho3 Sc4 Pb6'
_cell_volume   435.39234759
_cell_formula_units_Z   1
loop_
 _symmetry_equiv_pos_site_id
 _symmetry_equiv_pos_as_xyz
  1  'x, y, z'
loop_
 _atom_site_type_symbol
 _atom_site_label
 _atom_site_symmetry_multiplicity
 _atom_site_fract_x
 _atom_site_fract_y
 _atom_site_fract_z
 _atom_site_occupancy
  Dy  Dy0  1  0.238639  0.000000  0.250000  1
  Dy  Dy1  1  0.238578  0.238722  0.750000  1
  Dy  Dy2  1  0.999856  0.761278  0.750000  1
  Ho  Ho3  1  0.999870  0.238519  0.250000  1
  Ho  Ho4  1  0.761351  0.761481  0.250000  1
  Ho  Ho5  1  0.761409  0.000000  0.750000  1
  Sc  Sc6  1  0.333370  0.666665  0.000026  1
  Sc  Sc7  1  0.666706  0.333335  0.499974  1
  Sc  Sc8  1  0.666706  0.333335  0.000026  1
  Sc  Sc9  1  0.333370  0.666665  0.499974  1
  Pb  Pb10  1  0.601598  0.000000  0.250000  1
  Pb  Pb11  1  0.601324  0.601519  0.750000  1
  Pb  Pb12  1  0.999806  0.398481  0.750000  1
  Pb  Pb13  1  0.999807  0.601139  0.250000  1
  Pb  Pb14  1  0.398668  0.398861  0.250000  1
  Pb  Pb15  1  0.398942  0.000000  0.750000  1
