# generated using pymatgen
data_TbYb(AgO2)4
_symmetry_space_group_name_H-M   'P 1'
_cell_length_a   6.61678460
_cell_length_b   6.61678434
_cell_length_c   6.61678440
_cell_angle_alpha   126.20492877
_cell_angle_beta   126.20492915
_cell_angle_gamma   79.55158971
_symmetry_Int_Tables_number   1
_chemical_formula_structural   TbYb(AgO2)4
_chemical_formula_sum   'Tb1 Yb1 Ag4 O8'
_cell_volume   182.26926970
_cell_formula_units_Z   1
loop_
 _symmetry_equiv_pos_site_id
 _symmetry_equiv_pos_as_xyz
  1  'x, y, z'
loop_
 _atom_site_type_symbol
 _atom_site_label
 _atom_site_symmetry_multiplicity
 _atom_site_fract_x
 _atom_site_fract_y
 _atom_site_fract_z
 _atom_site_occupancy
  Tb  Tb0  1  0.750000  0.250000  0.500000  1
  Yb  Yb1  1  0.000000  0.000000  0.000000  1
  Ag  Ag2  1  0.371679  0.124930  0.745330  1
  Ag  Ag3  1  0.379601  0.626349  0.254670  1
  Ag  Ag4  1  0.875070  0.620399  0.246749  1
  Ag  Ag5  1  0.373651  0.628321  0.753251  1
  O  O6  1  0.036163  0.002553  0.646937  1
  O  O7  1  0.610774  0.963837  0.966390  1
  O  O8  1  0.997447  0.644384  0.033610  1
  O  O9  1  0.405167  0.867512  0.161608  1
  O  O10  1  0.756442  0.594833  0.462346  1
  O  O11  1  0.132488  0.294096  0.537654  1
  O  O12  1  0.355616  0.389226  0.353063  1
  O  O13  1  0.705904  0.243558  0.838392  1
