# generated using pymatgen
data_Nb2Pt3S8
_symmetry_space_group_name_H-M   'P 1'
_cell_length_a   3.50656400
_cell_length_b   10.43201000
_cell_length_c   14.63962400
_cell_angle_alpha   90.00000000
_cell_angle_beta   90.00000000
_cell_angle_gamma   90.00000000
_symmetry_Int_Tables_number   1
_chemical_formula_structural   Nb2Pt3S8
_chemical_formula_sum   'Nb4 Pt6 S16'
_cell_volume   535.52492258
_cell_formula_units_Z   2
loop_
 _symmetry_equiv_pos_site_id
 _symmetry_equiv_pos_as_xyz
  1  'x, y, z'
loop_
 _atom_site_type_symbol
 _atom_site_label
 _atom_site_symmetry_multiplicity
 _atom_site_fract_x
 _atom_site_fract_y
 _atom_site_fract_z
 _atom_site_occupancy
  Nb  Nb0  1  0.500000  0.789439  0.883212  1
  Nb  Nb1  1  0.500000  0.210561  0.116788  1
  Nb  Nb2  1  0.500000  0.289439  0.616788  1
  Nb  Nb3  1  0.500000  0.710561  0.383212  1
  Pt  Pt4  1  0.000000  0.000000  0.000000  1
  Pt  Pt5  1  0.000000  0.500000  0.500000  1
  Pt  Pt6  1  0.000000  0.621943  0.781453  1
  Pt  Pt7  1  0.000000  0.378057  0.218547  1
  Pt  Pt8  1  0.000000  0.121943  0.718547  1
  Pt  Pt9  1  0.000000  0.878057  0.281453  1
  S  S10  1  0.000000  0.773518  0.006339  1
  S  S11  1  0.000000  0.226482  0.993661  1
  S  S12  1  0.000000  0.273518  0.493661  1
  S  S13  1  0.000000  0.726482  0.506339  1
  S  S14  1  0.000000  0.956325  0.842910  1
  S  S15  1  0.000000  0.043675  0.157090  1
  S  S16  1  0.000000  0.456325  0.657090  1
  S  S17  1  0.000000  0.543675  0.342910  1
  S  S18  1  0.500000  0.746049  0.717764  1
  S  S19  1  0.500000  0.253951  0.282236  1
  S  S20  1  0.500000  0.246049  0.782236  1
  S  S21  1  0.500000  0.753951  0.217764  1
  S  S22  1  0.500000  0.551552  0.878654  1
  S  S23  1  0.500000  0.448448  0.121346  1
  S  S24  1  0.500000  0.051552  0.621346  1
  S  S25  1  0.500000  0.948448  0.378654  1
