# generated using pymatgen
data_YPa2(AlPt)3
_symmetry_space_group_name_H-M   'P 1'
_cell_length_a   7.11485898
_cell_length_b   7.09610616
_cell_length_c   4.11854300
_cell_angle_alpha   90.00000000
_cell_angle_beta   90.00000000
_cell_angle_gamma   119.91285177
_symmetry_Int_Tables_number   1
_chemical_formula_structural   YPa2(AlPt)3
_chemical_formula_sum   'Y1 Pa2 Al3 Pt3'
_cell_volume   180.23592065
_cell_formula_units_Z   1
loop_
 _symmetry_equiv_pos_site_id
 _symmetry_equiv_pos_as_xyz
  1  'x, y, z'
loop_
 _atom_site_type_symbol
 _atom_site_label
 _atom_site_symmetry_multiplicity
 _atom_site_fract_x
 _atom_site_fract_y
 _atom_site_fract_z
 _atom_site_occupancy
  Y  Y0  1  0.000000  0.583896  0.500000  1
  Pa  Pa1  1  0.422794  0.420795  0.500000  1
  Pa  Pa2  1  0.577206  0.998001  0.500000  1
  Al  Al3  1  0.766907  0.760653  0.000000  1
  Al  Al4  1  0.233093  0.993746  0.000000  1
  Al  Al5  1  0.000000  0.243494  0.000000  1
  Pt  Pt6  1  0.651121  0.320288  0.000000  1
  Pt  Pt7  1  0.348879  0.669169  0.000000  1
  Pt  Pt8  1  0.000000  0.009956  0.500000  1
