# generated using pymatgen
data_Tb4Cr3Co17As12
_symmetry_space_group_name_H-M   'P 1'
_cell_length_a   3.80239800
_cell_length_b   10.77148027
_cell_length_c   12.29041500
_cell_angle_alpha   89.85608882
_cell_angle_beta   90.00000000
_cell_angle_gamma   90.00000000
_symmetry_Int_Tables_number   1
_chemical_formula_structural   Tb4Cr3Co17As12
_chemical_formula_sum   'Tb4 Cr3 Co17 As12'
_cell_volume   503.38253194
_cell_formula_units_Z   1
loop_
 _symmetry_equiv_pos_site_id
 _symmetry_equiv_pos_as_xyz
  1  'x, y, z'
loop_
 _atom_site_type_symbol
 _atom_site_label
 _atom_site_symmetry_multiplicity
 _atom_site_fract_x
 _atom_site_fract_y
 _atom_site_fract_z
 _atom_site_occupancy
  Tb  Tb0  1  0.250000  0.918483  0.204471  1
  Tb  Tb1  1  0.750000  0.078586  0.796190  1
  Tb  Tb2  1  0.750000  0.418659  0.296824  1
  Tb  Tb3  1  0.250000  0.580865  0.704771  1
  Cr  Cr4  1  0.250000  0.795686  0.490730  1
  Cr  Cr5  1  0.750000  0.204696  0.509017  1
  Cr  Cr6  1  0.750000  0.295566  0.009220  1
  Co  Co7  1  0.250000  0.707409  0.989320  1
  Co  Co8  1  0.250000  0.094661  0.988620  1
  Co  Co9  1  0.750000  0.906071  0.011714  1
  Co  Co10  1  0.750000  0.594572  0.510838  1
  Co  Co11  1  0.250000  0.406010  0.488199  1
  Co  Co12  1  0.250000  0.283844  0.674947  1
  Co  Co13  1  0.750000  0.716854  0.323442  1
  Co  Co14  1  0.750000  0.782879  0.824973  1
  Co  Co15  1  0.250000  0.217260  0.175282  1
  Co  Co16  1  0.250000  0.616884  0.196657  1
  Co  Co17  1  0.750000  0.384282  0.802398  1
  Co  Co18  1  0.750000  0.116396  0.301524  1
  Co  Co19  1  0.250000  0.882449  0.699138  1
  Co  Co20  1  0.250000  0.034507  0.431713  1
  Co  Co21  1  0.750000  0.965711  0.567876  1
  Co  Co22  1  0.750000  0.533458  0.067678  1
  Co  Co23  1  0.250000  0.466756  0.933594  1
  As  As24  1  0.250000  0.081497  0.614745  1
  As  As25  1  0.750000  0.917950  0.385570  1
  As  As26  1  0.750000  0.583474  0.886816  1
  As  As27  1  0.250000  0.417972  0.115612  1
  As  As28  1  0.250000  0.231676  0.366071  1
  As  As29  1  0.750000  0.768043  0.634005  1
  As  As30  1  0.750000  0.731896  0.131191  1
  As  As31  1  0.250000  0.268549  0.865468  1
  As  As32  1  0.250000  0.898473  0.892802  1
  As  As33  1  0.750000  0.096247  0.109706  1
  As  As34  1  0.750000  0.403441  0.609501  1
  As  As35  1  0.250000  0.598240  0.389377  1
