# generated using pymatgen
data_TbPu(GaPd2)2
_symmetry_space_group_name_H-M   'P 1'
_cell_length_a   5.70818000
_cell_length_b   7.11044100
_cell_length_c   7.46933000
_cell_angle_alpha   90.00000000
_cell_angle_beta   90.00000000
_cell_angle_gamma   90.00000000
_symmetry_Int_Tables_number   1
_chemical_formula_structural   TbPu(GaPd2)2
_chemical_formula_sum   'Tb2 Pu2 Ga4 Pd8'
_cell_volume   303.16275425
_cell_formula_units_Z   2
loop_
 _symmetry_equiv_pos_site_id
 _symmetry_equiv_pos_as_xyz
  1  'x, y, z'
loop_
 _atom_site_type_symbol
 _atom_site_label
 _atom_site_symmetry_multiplicity
 _atom_site_fract_x
 _atom_site_fract_y
 _atom_site_fract_z
 _atom_site_occupancy
  Tb  Tb0  1  0.649422  0.250000  0.967818  1
  Tb  Tb1  1  0.850578  0.250000  0.467818  1
  Pu  Pu2  1  0.351830  0.750000  0.031898  1
  Pu  Pu3  1  0.148170  0.750000  0.531898  1
  Ga  Ga4  1  0.651553  0.750000  0.385263  1
  Ga  Ga5  1  0.848447  0.750000  0.885263  1
  Ga  Ga6  1  0.350658  0.250000  0.616605  1
  Ga  Ga7  1  0.149342  0.250000  0.116605  1
  Pd  Pd8  1  0.911035  0.550275  0.180703  1
  Pd  Pd9  1  0.588965  0.949725  0.680703  1
  Pd  Pd10  1  0.085275  0.051870  0.818505  1
  Pd  Pd11  1  0.414725  0.448130  0.318505  1
  Pd  Pd12  1  0.085275  0.448130  0.818505  1
  Pd  Pd13  1  0.414725  0.051870  0.318505  1
  Pd  Pd14  1  0.911035  0.949725  0.180703  1
  Pd  Pd15  1  0.588965  0.550275  0.680703  1
