# generated using pymatgen
data_Ho6Tc16O
_symmetry_space_group_name_H-M   'P 1'
_cell_length_a   8.05546605
_cell_length_b   8.05546582
_cell_length_c   8.05546600
_cell_angle_alpha   109.47122613
_cell_angle_beta   109.47122553
_cell_angle_gamma   109.47121634
_symmetry_Int_Tables_number   1
_chemical_formula_structural   Ho6Tc16O
_chemical_formula_sum   'Ho6 Tc16 O1'
_cell_volume   402.39268424
_cell_formula_units_Z   1
loop_
 _symmetry_equiv_pos_site_id
 _symmetry_equiv_pos_as_xyz
  1  'x, y, z'
loop_
 _atom_site_type_symbol
 _atom_site_label
 _atom_site_symmetry_multiplicity
 _atom_site_fract_x
 _atom_site_fract_y
 _atom_site_fract_z
 _atom_site_occupancy
  Ho  Ho0  1  0.736096  0.736096  0.000000  1
  Ho  Ho1  1  0.263903  0.000000  0.263904  1
  Ho  Ho2  1  0.736096  0.000000  0.736096  1
  Ho  Ho3  1  0.000000  0.736096  0.736097  1
  Ho  Ho4  1  0.000000  0.263903  0.263904  1
  Ho  Ho5  1  0.263903  0.263903  0.000000  1
  Tc  Tc6  1  0.000000  0.500000  0.000000  1
  Tc  Tc7  1  0.500000  0.000000  0.000000  1
  Tc  Tc8  1  0.000000  0.000000  0.500000  1
  Tc  Tc9  1  0.500000  0.500000  0.500000  1
  Tc  Tc10  1  0.339977  0.339977  0.679954  1
  Tc  Tc11  1  0.660023  0.660023  0.320046  1
  Tc  Tc12  1  0.000000  0.339977  0.660023  1
  Tc  Tc13  1  0.320046  0.660023  0.660023  1
  Tc  Tc14  1  0.660023  0.320046  0.660023  1
  Tc  Tc15  1  0.339977  0.000000  0.660023  1
  Tc  Tc16  1  0.660023  0.339977  0.000000  1
  Tc  Tc17  1  0.339977  0.660023  0.000000  1
  Tc  Tc18  1  0.339977  0.679954  0.339977  1
  Tc  Tc19  1  0.000000  0.660023  0.339977  1
  Tc  Tc20  1  0.660023  0.000000  0.339977  1
  Tc  Tc21  1  0.679954  0.339977  0.339977  1
  O  O22  1  0.000000  0.000000  0.000000  1
