# generated using pymatgen
data_Er(Co3Si2)2
_symmetry_space_group_name_H-M   'P 1'
_cell_length_a   6.58961000
_cell_length_b   6.58961079
_cell_length_c   3.59292500
_cell_angle_alpha   90.00000000
_cell_angle_beta   90.00000000
_cell_angle_gamma   120.00000606
_symmetry_Int_Tables_number   1
_chemical_formula_structural   Er(Co3Si2)2
_chemical_formula_sum   'Er1 Co6 Si4'
_cell_volume   135.11334105
_cell_formula_units_Z   1
loop_
 _symmetry_equiv_pos_site_id
 _symmetry_equiv_pos_as_xyz
  1  'x, y, z'
loop_
 _atom_site_type_symbol
 _atom_site_label
 _atom_site_symmetry_multiplicity
 _atom_site_fract_x
 _atom_site_fract_y
 _atom_site_fract_z
 _atom_site_occupancy
  Er  Er0  1  0.000000  0.000000  0.000000  1
  Co  Co1  1  0.534158  0.068315  0.000000  1
  Co  Co2  1  0.534157  0.465842  0.000000  1
  Co  Co3  1  0.931685  0.465842  0.000000  1
  Co  Co4  1  0.204099  0.408199  0.500001  1
  Co  Co5  1  0.204100  0.795902  0.500001  1
  Co  Co6  1  0.591801  0.795902  0.500001  1
  Si  Si7  1  0.333334  0.666667  0.000000  1
  Si  Si8  1  0.397491  0.198746  0.500001  1
  Si  Si9  1  0.801255  0.198746  0.500001  1
  Si  Si10  1  0.801254  0.602509  0.500001  1
