# generated using pymatgen
data_Li4Th4Si5Sn
_symmetry_space_group_name_H-M   'P 1'
_cell_length_a   9.59316273
_cell_length_b   9.59316362
_cell_length_c   6.78200800
_cell_angle_alpha   90.00000000
_cell_angle_beta   90.00000000
_cell_angle_gamma   152.87002560
_symmetry_Int_Tables_number   1
_chemical_formula_structural   Li4Th4Si5Sn
_chemical_formula_sum   'Li4 Th4 Si5 Sn1'
_cell_volume   284.61439561
_cell_formula_units_Z   1
loop_
 _symmetry_equiv_pos_site_id
 _symmetry_equiv_pos_as_xyz
  1  'x, y, z'
loop_
 _atom_site_type_symbol
 _atom_site_label
 _atom_site_symmetry_multiplicity
 _atom_site_fract_x
 _atom_site_fract_y
 _atom_site_fract_z
 _atom_site_occupancy
  Li  Li0  1  0.814089  0.185911  0.570740  1
  Li  Li1  1  0.186778  0.813222  0.442325  1
  Li  Li2  1  0.186778  0.813222  0.057675  1
  Li  Li3  1  0.814089  0.185911  0.929260  1
  Th  Th4  1  0.545082  0.454918  0.250000  1
  Th  Th5  1  0.450540  0.549460  0.750000  1
  Th  Th6  1  0.349394  0.650606  0.250000  1
  Th  Th7  1  0.654655  0.345345  0.750000  1
  Si  Si8  1  0.940035  0.059965  0.068979  1
  Si  Si9  1  0.059653  0.940347  0.929381  1
  Si  Si10  1  0.059653  0.940347  0.570619  1
  Si  Si11  1  0.940035  0.059965  0.431021  1
  Si  Si12  1  0.279536  0.720464  0.750000  1
  Sn  Sn13  1  0.719685  0.280315  0.250000  1
