# generated using pymatgen
data_PrTm2Fe(Co4P3)2
_symmetry_space_group_name_H-M   'P 1'
_cell_length_a   3.71451600
_cell_length_b   10.56942900
_cell_length_c   12.23199500
_cell_angle_alpha   90.00000000
_cell_angle_beta   90.00000000
_cell_angle_gamma   90.00000000
_symmetry_Int_Tables_number   1
_chemical_formula_structural   PrTm2Fe(Co4P3)2
_chemical_formula_sum   'Pr2 Tm4 Fe2 Co16 P12'
_cell_volume   480.23195392
_cell_formula_units_Z   2
loop_
 _symmetry_equiv_pos_site_id
 _symmetry_equiv_pos_as_xyz
  1  'x, y, z'
loop_
 _atom_site_type_symbol
 _atom_site_label
 _atom_site_symmetry_multiplicity
 _atom_site_fract_x
 _atom_site_fract_y
 _atom_site_fract_z
 _atom_site_occupancy
  Pr  Pr0  1  0.000000  0.500000  0.522859  1
  Pr  Pr1  1  0.500000  0.000000  0.477141  1
  Tm  Tm2  1  0.500000  0.818035  0.203631  1
  Tm  Tm3  1  0.500000  0.181965  0.203631  1
  Tm  Tm4  1  0.000000  0.681965  0.796369  1
  Tm  Tm5  1  0.000000  0.318035  0.796369  1
  Fe  Fe6  1  0.500000  0.500000  0.154796  1
  Fe  Fe7  1  0.000000  0.000000  0.845204  1
  Co  Co8  1  0.500000  0.500000  0.706991  1
  Co  Co9  1  0.000000  0.000000  0.293009  1
  Co  Co10  1  0.000000  0.500000  0.986645  1
  Co  Co11  1  0.500000  0.000000  0.013355  1
  Co  Co12  1  0.500000  0.332776  0.994759  1
  Co  Co13  1  0.500000  0.667224  0.994759  1
  Co  Co14  1  0.000000  0.167224  0.005241  1
  Co  Co15  1  0.000000  0.832776  0.005241  1
  Co  Co16  1  0.500000  0.295949  0.428480  1
  Co  Co17  1  0.500000  0.704051  0.428480  1
  Co  Co18  1  0.000000  0.204051  0.571520  1
  Co  Co19  1  0.000000  0.795949  0.571520  1
  Co  Co20  1  0.500000  0.878683  0.713212  1
  Co  Co21  1  0.500000  0.121317  0.713212  1
  Co  Co22  1  0.000000  0.621317  0.286788  1
  Co  Co23  1  0.000000  0.378683  0.286788  1
  P  P24  1  0.500000  0.500000  0.883637  1
  P  P25  1  0.000000  0.000000  0.116363  1
  P  P26  1  0.500000  0.500000  0.337681  1
  P  P27  1  0.000000  0.000000  0.662319  1
  P  P28  1  0.500000  0.306886  0.619166  1
  P  P29  1  0.500000  0.693114  0.619166  1
  P  P30  1  0.000000  0.193114  0.380834  1
  P  P31  1  0.000000  0.806886  0.380834  1
  P  P32  1  0.500000  0.846110  0.893617  1
  P  P33  1  0.500000  0.153890  0.893617  1
  P  P34  1  0.000000  0.653890  0.106383  1
  P  P35  1  0.000000  0.346110  0.106383  1
