# generated using pymatgen
data_Tb12GaCo4Sn
_symmetry_space_group_name_H-M   'P 1'
_cell_length_a   8.34517226
_cell_length_b   8.34517224
_cell_length_c   8.34517229
_cell_angle_alpha   112.22450545
_cell_angle_beta   109.15089337
_cell_angle_gamma   107.07996848
_symmetry_Int_Tables_number   1
_chemical_formula_structural   Tb12GaCo4Sn
_chemical_formula_sum   'Tb12 Ga1 Co4 Sn1'
_cell_volume   446.47004906
_cell_formula_units_Z   1
loop_
 _symmetry_equiv_pos_site_id
 _symmetry_equiv_pos_as_xyz
  1  'x, y, z'
loop_
 _atom_site_type_symbol
 _atom_site_label
 _atom_site_symmetry_multiplicity
 _atom_site_fract_x
 _atom_site_fract_y
 _atom_site_fract_z
 _atom_site_occupancy
  Tb  Tb0  1  0.031877  0.732603  0.299274  1
  Tb  Tb1  1  0.968123  0.267397  0.700726  1
  Tb  Tb2  1  0.566670  0.267397  0.299274  1
  Tb  Tb3  1  0.433330  0.732603  0.700726  1
  Tb  Tb4  1  0.675321  0.861143  0.185823  1
  Tb  Tb5  1  0.324679  0.510502  0.185823  1
  Tb  Tb6  1  0.324679  0.138857  0.814177  1
  Tb  Tb7  1  0.675321  0.489498  0.814177  1
  Tb  Tb8  1  0.179761  0.218927  0.398689  1
  Tb  Tb9  1  0.820239  0.218927  0.039166  1
  Tb  Tb10  1  0.179761  0.781073  0.960834  1
  Tb  Tb11  1  0.820239  0.781073  0.601311  1
  Ga  Ga12  1  0.000000  0.500000  0.500000  1
  Co  Co13  1  0.659833  0.500000  0.159833  1
  Co  Co14  1  0.340167  0.500000  0.840167  1
  Co  Co15  1  0.886458  0.886458  0.000000  1
  Co  Co16  1  0.113542  0.113542  0.000000  1
  Sn  Sn17  1  0.500000  0.000000  0.500000  1
