# generated using pymatgen
data_SmAl10RuRh
_symmetry_space_group_name_H-M   'P 1'
_cell_length_a   6.87828622
_cell_length_b   6.87433135
_cell_length_c   9.19833500
_cell_angle_alpha   90.00000000
_cell_angle_beta   90.00000000
_cell_angle_gamma   97.20810907
_symmetry_Int_Tables_number   1
_chemical_formula_structural   SmAl10RuRh
_chemical_formula_sum   'Sm2 Al20 Ru2 Rh2'
_cell_volume   431.49328751
_cell_formula_units_Z   2
loop_
 _symmetry_equiv_pos_site_id
 _symmetry_equiv_pos_as_xyz
  1  'x, y, z'
loop_
 _atom_site_type_symbol
 _atom_site_label
 _atom_site_symmetry_multiplicity
 _atom_site_fract_x
 _atom_site_fract_y
 _atom_site_fract_z
 _atom_site_occupancy
  Sm  Sm0  1  0.870621  0.124864  0.750000  1
  Sm  Sm1  1  0.129379  0.875136  0.250000  1
  Al  Al2  1  0.620724  0.375785  0.549185  1
  Al  Al3  1  0.379276  0.624215  0.450815  1
  Al  Al4  1  0.379276  0.624215  0.049185  1
  Al  Al5  1  0.620724  0.375785  0.950815  1
  Al  Al6  1  0.225901  0.223992  0.498960  1
  Al  Al7  1  0.774099  0.776008  0.501040  1
  Al  Al8  1  0.774099  0.776008  0.998960  1
  Al  Al9  1  0.225901  0.223992  0.001040  1
  Al  Al10  1  0.842779  0.156062  0.102189  1
  Al  Al11  1  0.157221  0.843938  0.897811  1
  Al  Al12  1  0.157221  0.843938  0.602189  1
  Al  Al13  1  0.842779  0.156062  0.397811  1
  Al  Al14  1  0.857166  0.589859  0.750000  1
  Al  Al15  1  0.142834  0.410141  0.250000  1
  Al  Al16  1  0.410808  0.140874  0.750000  1
  Al  Al17  1  0.589192  0.859126  0.250000  1
  Al  Al18  1  0.224405  0.481736  0.750000  1
  Al  Al19  1  0.775595  0.518264  0.250000  1
  Al  Al20  1  0.517392  0.777779  0.750000  1
  Al  Al21  1  0.482608  0.222221  0.250000  1
  Ru  Ru22  1  0.500000  0.000000  0.000000  1
  Ru  Ru23  1  0.500000  0.000000  0.500000  1
  Rh  Rh24  1  0.000000  0.500000  0.500000  1
  Rh  Rh25  1  0.000000  0.500000  0.000000  1
