# generated using pymatgen
data_K2RbAg3Bi2
_symmetry_space_group_name_H-M   'P 1'
_cell_length_a   8.60746022
_cell_length_b   8.60746085
_cell_length_c   8.60746049
_cell_angle_alpha   43.77748827
_cell_angle_beta   43.77748432
_cell_angle_gamma   43.77748491
_symmetry_Int_Tables_number   1
_chemical_formula_structural   K2RbAg3Bi2
_chemical_formula_sum   'K2 Rb1 Ag3 Bi2'
_cell_volume   277.12518968
_cell_formula_units_Z   1
loop_
 _symmetry_equiv_pos_site_id
 _symmetry_equiv_pos_as_xyz
  1  'x, y, z'
loop_
 _atom_site_type_symbol
 _atom_site_label
 _atom_site_symmetry_multiplicity
 _atom_site_fract_x
 _atom_site_fract_y
 _atom_site_fract_z
 _atom_site_occupancy
  K  K0  1  0.083587  0.083587  0.083587  1
  K  K1  1  0.916413  0.916413  0.916413  1
  Rb  Rb2  1  0.500000  0.500000  0.500000  1
  Ag  Ag3  1  0.500000  0.500000  0.000000  1
  Ag  Ag4  1  0.500001  0.000000  0.500000  1
  Ag  Ag5  1  0.000000  0.500001  0.500000  1
  Bi  Bi6  1  0.241201  0.241201  0.241201  1
  Bi  Bi7  1  0.758799  0.758799  0.758799  1
