# generated using pymatgen
data_Co2AgPS6
_symmetry_space_group_name_H-M   'P 1'
_cell_length_a   5.71841056
_cell_length_b   5.71841085
_cell_length_c   7.04739290
_cell_angle_alpha   82.56382152
_cell_angle_beta   82.56382456
_cell_angle_gamma   119.98485932
_symmetry_Int_Tables_number   1
_chemical_formula_structural   Co2AgPS6
_chemical_formula_sum   'Co2 Ag1 P1 S6'
_cell_volume   192.80754132
_cell_formula_units_Z   1
loop_
 _symmetry_equiv_pos_site_id
 _symmetry_equiv_pos_as_xyz
  1  'x, y, z'
loop_
 _atom_site_type_symbol
 _atom_site_label
 _atom_site_symmetry_multiplicity
 _atom_site_fract_x
 _atom_site_fract_y
 _atom_site_fract_z
 _atom_site_occupancy
  Co  Co0  1  0.679739  0.343801  0.456648  1
  Co  Co1  1  0.343801  0.679739  0.456648  1
  Ag  Ag2  1  0.871925  0.871925  0.922656  1
  P  P3  1  0.022561  0.022561  0.444544  1
  S  S4  1  0.957866  0.631240  0.629866  1
  S  S5  1  0.409419  0.069564  0.274402  1
  S  S6  1  0.729853  0.729853  0.278667  1
  S  S7  1  0.284033  0.284033  0.632302  1
  S  S8  1  0.631240  0.957866  0.629866  1
  S  S9  1  0.069564  0.409419  0.274402  1
