# generated using pymatgen
data_Y10Cd3Ir
_symmetry_space_group_name_H-M   'P 1'
_cell_length_a   9.66961100
_cell_length_b   9.66961145
_cell_length_c   9.87246100
_cell_angle_alpha   90.00000000
_cell_angle_beta   90.00000000
_cell_angle_gamma   120.00000189
_symmetry_Int_Tables_number   1
_chemical_formula_structural   Y10Cd3Ir
_chemical_formula_sum   'Y20 Cd6 Ir2'
_cell_volume   799.41828327
_cell_formula_units_Z   2
loop_
 _symmetry_equiv_pos_site_id
 _symmetry_equiv_pos_as_xyz
  1  'x, y, z'
loop_
 _atom_site_type_symbol
 _atom_site_label
 _atom_site_symmetry_multiplicity
 _atom_site_fract_x
 _atom_site_fract_y
 _atom_site_fract_z
 _atom_site_occupancy
  Y  Y0  1  0.000000  0.000000  0.500000  1
  Y  Y1  1  0.000000  0.000000  0.000000  1
  Y  Y2  1  0.209639  0.790361  0.440380  1
  Y  Y3  1  0.209639  0.419278  0.440380  1
  Y  Y4  1  0.580722  0.790361  0.440380  1
  Y  Y5  1  0.790361  0.209639  0.559620  1
  Y  Y6  1  0.790361  0.580722  0.559620  1
  Y  Y7  1  0.419278  0.209639  0.559620  1
  Y  Y8  1  0.790361  0.209639  0.940380  1
  Y  Y9  1  0.790361  0.580722  0.940380  1
  Y  Y10  1  0.419278  0.209639  0.940380  1
  Y  Y11  1  0.209639  0.790361  0.059620  1
  Y  Y12  1  0.209639  0.419278  0.059620  1
  Y  Y13  1  0.580722  0.790361  0.059620  1
  Y  Y14  1  0.541467  0.458533  0.250000  1
  Y  Y15  1  0.541467  0.082935  0.250000  1
  Y  Y16  1  0.917065  0.458533  0.250000  1
  Y  Y17  1  0.458533  0.541467  0.750000  1
  Y  Y18  1  0.458533  0.917065  0.750000  1
  Y  Y19  1  0.082935  0.541467  0.750000  1
  Cd  Cd20  1  0.885363  0.114637  0.250000  1
  Cd  Cd21  1  0.885363  0.770726  0.250000  1
  Cd  Cd22  1  0.229274  0.114637  0.250000  1
  Cd  Cd23  1  0.114637  0.885363  0.750000  1
  Cd  Cd24  1  0.114637  0.229274  0.750000  1
  Cd  Cd25  1  0.770726  0.885363  0.750000  1
  Ir  Ir26  1  0.333333  0.666667  0.250000  1
  Ir  Ir27  1  0.666667  0.333333  0.750000  1
