# generated using pymatgen
data_Ta9Al3GeIr
_symmetry_space_group_name_H-M   'P 1'
_cell_length_a   9.96014756
_cell_length_b   9.92752305
_cell_length_c   9.92749793
_cell_angle_alpha   93.64938615
_cell_angle_beta   93.79689992
_cell_angle_gamma   150.11893929
_symmetry_Int_Tables_number   1
_chemical_formula_structural   Ta9Al3GeIr
_chemical_formula_sum   'Ta18 Al6 Ge2 Ir2'
_cell_volume   473.28130449
_cell_formula_units_Z   2
loop_
 _symmetry_equiv_pos_site_id
 _symmetry_equiv_pos_as_xyz
  1  'x, y, z'
loop_
 _atom_site_type_symbol
 _atom_site_label
 _atom_site_symmetry_multiplicity
 _atom_site_fract_x
 _atom_site_fract_y
 _atom_site_fract_z
 _atom_site_occupancy
  Ta  Ta0  1  0.565997  0.794367  0.357203  1
  Ta  Ta1  1  0.082382  0.157112  0.242466  1
  Ta  Ta2  1  0.582385  0.339920  0.925270  1
  Ta  Ta3  1  0.653881  0.578736  0.242474  1
  Ta  Ta4  1  0.346119  0.421264  0.757526  1
  Ta  Ta5  1  0.794352  0.436814  0.227471  1
  Ta  Ta6  1  0.417615  0.660080  0.074730  1
  Ta  Ta7  1  0.153881  0.911408  0.075144  1
  Ta  Ta8  1  0.705649  0.933120  0.642462  1
  Ta  Ta9  1  0.434003  0.205633  0.642797  1
  Ta  Ta10  1  0.917618  0.842888  0.757534  1
  Ta  Ta11  1  0.065996  0.708793  0.771629  1
  Ta  Ta12  1  0.205648  0.563186  0.772529  1
  Ta  Ta13  1  0.250000  0.751363  0.501362  1
  Ta  Ta14  1  0.294351  0.066880  0.357538  1
  Ta  Ta15  1  0.750000  0.248637  0.498638  1
  Ta  Ta16  1  0.846119  0.088592  0.924856  1
  Ta  Ta17  1  0.934004  0.291207  0.228371  1
  Al  Al18  1  0.372819  0.872729  0.240862  1
  Al  Al19  1  0.872818  0.631955  0.500089  1
  Al  Al20  1  0.127182  0.368045  0.499911  1
  Al  Al21  1  0.627181  0.127271  0.759138  1
  Al  Al22  1  0.000000  0.500000  0.000000  1
  Al  Al23  1  0.500000  0.500000  0.500000  1
  Ge  Ge24  1  0.750000  0.750229  0.000229  1
  Ge  Ge25  1  0.250000  0.249771  0.999771  1
  Ir  Ir26  1  0.500000  0.000000  0.000000  1
  Ir  Ir27  1  0.000000  0.000000  0.500000  1
