# generated using pymatgen
data_CaAsOsF12
_symmetry_space_group_name_H-M   'P 1'
_cell_length_a   11.30482181
_cell_length_b   5.74241579
_cell_length_c   5.76172100
_cell_angle_alpha   57.32826867
_cell_angle_beta   56.44103216
_cell_angle_gamma   56.71739883
_symmetry_Int_Tables_number   1
_chemical_formula_structural   CaAsOsF12
_chemical_formula_sum   'Ca1 As1 Os1 F12'
_cell_volume   245.09286621
_cell_formula_units_Z   1
loop_
 _symmetry_equiv_pos_site_id
 _symmetry_equiv_pos_as_xyz
  1  'x, y, z'
loop_
 _atom_site_type_symbol
 _atom_site_label
 _atom_site_symmetry_multiplicity
 _atom_site_fract_x
 _atom_site_fract_y
 _atom_site_fract_z
 _atom_site_occupancy
  Ca  Ca0  1  0.739145  0.505741  0.509513  1
  As  As1  1  0.487083  0.014210  0.003230  1
  Os  Os2  1  0.011811  0.988758  0.994765  1
  F  F3  1  0.178192  0.110958  0.767359  1
  F  F4  1  0.660683  0.103525  0.792944  1
  F  F5  1  0.062877  0.772911  0.332769  1
  F  F6  1  0.552642  0.795393  0.311064  1
  F  F7  1  0.118106  0.656550  0.879270  1
  F  F8  1  0.607331  0.684659  0.894436  1
  F  F9  1  0.449306  0.205969  0.679235  1
  F  F10  1  0.939148  0.224924  0.664108  1
  F  F11  1  0.335857  0.893162  0.213918  1
  F  F12  1  0.828314  0.882456  0.228838  1
  F  F13  1  0.393285  0.323606  0.106241  1
  F  F14  1  0.886220  0.337180  0.122313  1
