# generated using pymatgen
data_La4Dy12Cd4Ni3Os
_symmetry_space_group_name_H-M   'P 1'
_cell_length_a   9.72085657
_cell_length_b   9.72085621
_cell_length_c   9.72107349
_cell_angle_alpha   59.34403270
_cell_angle_beta   59.34403418
_cell_angle_gamma   59.34265949
_symmetry_Int_Tables_number   1
_chemical_formula_structural   La4Dy12Cd4Ni3Os
_chemical_formula_sum   'La4 Dy12 Cd4 Ni3 Os1'
_cell_volume   639.83746850
_cell_formula_units_Z   1
loop_
 _symmetry_equiv_pos_site_id
 _symmetry_equiv_pos_as_xyz
  1  'x, y, z'
loop_
 _atom_site_type_symbol
 _atom_site_label
 _atom_site_symmetry_multiplicity
 _atom_site_fract_x
 _atom_site_fract_y
 _atom_site_fract_z
 _atom_site_occupancy
  La  La0  1  0.599555  0.599555  0.599450  1
  La  La1  1  0.601083  0.601083  0.200557  1
  La  La2  1  0.601123  0.200494  0.601075  1
  La  La3  1  0.200494  0.601123  0.601075  1
  Dy  Dy4  1  0.063361  0.435834  0.435844  1
  Dy  Dy5  1  0.434152  0.063485  0.063510  1
  Dy  Dy6  1  0.435834  0.063361  0.435844  1
  Dy  Dy7  1  0.063485  0.434152  0.063510  1
  Dy  Dy8  1  0.435836  0.435836  0.063372  1
  Dy  Dy9  1  0.063515  0.063515  0.434127  1
  Dy  Dy10  1  0.184000  0.817641  0.817643  1
  Dy  Dy11  1  0.809733  0.185864  0.185869  1
  Dy  Dy12  1  0.817641  0.184000  0.817643  1
  Dy  Dy13  1  0.185864  0.809733  0.185869  1
  Dy  Dy14  1  0.817650  0.817650  0.183970  1
  Dy  Dy15  1  0.185909  0.185909  0.809700  1
  Cd  Cd16  1  0.831549  0.831549  0.831578  1
  Cd  Cd17  1  0.830835  0.830835  0.502780  1
  Cd  Cd18  1  0.830850  0.502757  0.830852  1
  Cd  Cd19  1  0.502757  0.830850  0.830852  1
  Ni  Ni20  1  0.390893  0.390893  0.831096  1
  Ni  Ni21  1  0.390895  0.831049  0.390894  1
  Ni  Ni22  1  0.831049  0.390895  0.390894  1
  Os  Os23  1  0.391936  0.391936  0.391999  1
