# generated using pymatgen
data_GdTcF7
_symmetry_space_group_name_H-M   'P 1'
_cell_length_a   5.66623400
_cell_length_b   9.09057133
_cell_length_c   12.23445800
_cell_angle_alpha   62.11492107
_cell_angle_beta   90.00000000
_cell_angle_gamma   90.00000000
_symmetry_Int_Tables_number   1
_chemical_formula_structural   GdTcF7
_chemical_formula_sum   'Gd4 Tc4 F28'
_cell_volume   557.01564227
_cell_formula_units_Z   4
loop_
 _symmetry_equiv_pos_site_id
 _symmetry_equiv_pos_as_xyz
  1  'x, y, z'
loop_
 _atom_site_type_symbol
 _atom_site_label
 _atom_site_symmetry_multiplicity
 _atom_site_fract_x
 _atom_site_fract_y
 _atom_site_fract_z
 _atom_site_occupancy
  Gd  Gd0  1  0.759720  0.812579  0.764682  1
  Gd  Gd1  1  0.259720  0.187421  0.735318  1
  Gd  Gd2  1  0.240280  0.187421  0.235318  1
  Gd  Gd3  1  0.740280  0.812579  0.264682  1
  Tc  Tc4  1  0.757256  0.273743  0.956652  1
  Tc  Tc5  1  0.257256  0.726257  0.543348  1
  Tc  Tc6  1  0.242744  0.726257  0.043348  1
  Tc  Tc7  1  0.742744  0.273743  0.456652  1
  F  F8  1  0.445413  0.708227  0.920462  1
  F  F9  1  0.945413  0.291773  0.579538  1
  F  F10  1  0.554587  0.291773  0.079538  1
  F  F11  1  0.054587  0.708227  0.420462  1
  F  F12  1  0.455409  0.280365  0.545961  1
  F  F13  1  0.955409  0.719635  0.954039  1
  F  F14  1  0.544591  0.719635  0.454039  1
  F  F15  1  0.044591  0.280365  0.045961  1
  F  F16  1  0.767455  0.517313  0.860021  1
  F  F17  1  0.267455  0.482687  0.639979  1
  F  F18  1  0.232545  0.482687  0.139979  1
  F  F19  1  0.732545  0.517313  0.360021  1
  F  F20  1  0.758061  0.031283  0.052212  1
  F  F21  1  0.258061  0.968717  0.447788  1
  F  F22  1  0.241939  0.968717  0.947788  1
  F  F23  1  0.741939  0.031283  0.552212  1
  F  F24  1  0.979874  0.730860  0.638438  1
  F  F25  1  0.479874  0.269140  0.861562  1
  F  F26  1  0.020126  0.269140  0.361562  1
  F  F27  1  0.520126  0.730860  0.138438  1
  F  F28  1  0.043912  0.745338  0.168667  1
  F  F29  1  0.543912  0.254662  0.331333  1
  F  F30  1  0.956088  0.254662  0.831333  1
  F  F31  1  0.456088  0.745338  0.668667  1
  F  F32  1  0.417912  0.971982  0.231494  1
  F  F33  1  0.917912  0.028018  0.268506  1
  F  F34  1  0.582088  0.028018  0.768506  1
  F  F35  1  0.082088  0.971982  0.731494  1
