# generated using pymatgen
data_Ce2Y2HoGa2Ru3
_symmetry_space_group_name_H-M   'P 1'
_cell_length_a   8.41366945
_cell_length_b   8.39440215
_cell_length_c   8.41258149
_cell_angle_alpha   110.11466367
_cell_angle_beta   110.57989197
_cell_angle_gamma   109.78291593
_symmetry_Int_Tables_number   1
_chemical_formula_structural   Ce2Y2HoGa2Ru3
_chemical_formula_sum   'Ce4 Y4 Ho2 Ga4 Ru6'
_cell_volume   445.33933050
_cell_formula_units_Z   2
loop_
 _symmetry_equiv_pos_site_id
 _symmetry_equiv_pos_as_xyz
  1  'x, y, z'
loop_
 _atom_site_type_symbol
 _atom_site_label
 _atom_site_symmetry_multiplicity
 _atom_site_fract_x
 _atom_site_fract_y
 _atom_site_fract_z
 _atom_site_occupancy
  Ce  Ce0  1  0.497070  0.990075  0.702643  1
  Ce  Ce1  1  0.254706  0.203410  0.949050  1
  Ce  Ce2  1  0.939143  0.244692  0.189324  1
  Ce  Ce3  1  0.196524  0.943234  0.246959  1
  Y  Y4  1  0.767057  0.769636  0.768444  1
  Y  Y5  1  0.309705  0.562498  0.752125  1
  Y  Y6  1  0.757371  0.315488  0.563968  1
  Y  Y7  1  0.564479  0.748767  0.305175  1
  Ho  Ho8  1  0.728739  0.509191  0.998589  1
  Ho  Ho9  1  0.994865  0.727294  0.508750  1
  Ga  Ga10  1  0.402832  0.401290  0.404507  1
  Ga  Ga11  1  0.098774  0.500790  0.010696  1
  Ga  Ga12  1  0.002609  0.095249  0.502262  1
  Ga  Ga13  1  0.498780  0.003230  0.091704  1
  Ru  Ru14  1  0.892596  0.117943  0.755203  1
  Ru  Ru15  1  0.755618  0.899849  0.118914  1
  Ru  Ru16  1  0.118757  0.756129  0.905602  1
  Ru  Ru17  1  0.241407  0.619469  0.390945  1
  Ru  Ru18  1  0.374914  0.218834  0.609149  1
  Ru  Ru19  1  0.604055  0.372933  0.225995  1
