# generated using pymatgen
data_Eu4InGaRh4
_symmetry_space_group_name_H-M   'P 1'
_cell_length_a   5.88843452
_cell_length_b   5.88843490
_cell_length_c   7.95452312
_cell_angle_alpha   77.54151465
_cell_angle_beta   77.54151509
_cell_angle_gamma   58.66541651
_symmetry_Int_Tables_number   1
_chemical_formula_structural   Eu4InGaRh4
_chemical_formula_sum   'Eu4 In1 Ga1 Rh4'
_cell_volume   228.25681827
_cell_formula_units_Z   1
loop_
 _symmetry_equiv_pos_site_id
 _symmetry_equiv_pos_as_xyz
  1  'x, y, z'
loop_
 _atom_site_type_symbol
 _atom_site_label
 _atom_site_symmetry_multiplicity
 _atom_site_fract_x
 _atom_site_fract_y
 _atom_site_fract_z
 _atom_site_occupancy
  Eu  Eu0  1  0.788553  0.503123  0.350207  1
  Eu  Eu1  1  0.496877  0.211447  0.149793  1
  Eu  Eu2  1  0.207923  0.497680  0.643475  1
  Eu  Eu3  1  0.502320  0.792077  0.856525  1
  In  In4  1  0.868830  0.131170  0.750000  1
  Ga  Ga5  1  0.111388  0.888612  0.250000  1
  Rh  Rh6  1  0.016276  0.720100  0.018508  1
  Rh  Rh7  1  0.279900  0.983724  0.481492  1
  Rh  Rh8  1  0.004772  0.276839  0.002010  1
  Rh  Rh9  1  0.723161  0.995228  0.497990  1
