# generated using pymatgen
data_Sr4NpTeO10
_symmetry_space_group_name_H-M   'P 1'
_cell_length_a   5.70082100
_cell_length_b   7.97101877
_cell_length_c   11.86734600
_cell_angle_alpha   70.52264386
_cell_angle_beta   90.00000000
_cell_angle_gamma   90.00000000
_symmetry_Int_Tables_number   1
_chemical_formula_structural   Sr4NpTeO10
_chemical_formula_sum   'Sr8 Np2 Te2 O20'
_cell_volume   508.40771802
_cell_formula_units_Z   2
loop_
 _symmetry_equiv_pos_site_id
 _symmetry_equiv_pos_as_xyz
  1  'x, y, z'
loop_
 _atom_site_type_symbol
 _atom_site_label
 _atom_site_symmetry_multiplicity
 _atom_site_fract_x
 _atom_site_fract_y
 _atom_site_fract_z
 _atom_site_occupancy
  Sr  Sr0  1  0.929292  0.151525  0.683429  1
  Sr  Sr1  1  0.429292  0.848475  0.816571  1
  Sr  Sr2  1  0.070708  0.848475  0.316571  1
  Sr  Sr3  1  0.570708  0.151525  0.183429  1
  Sr  Sr4  1  0.495432  0.327604  0.865896  1
  Sr  Sr5  1  0.995432  0.672396  0.634104  1
  Sr  Sr6  1  0.504568  0.672396  0.134104  1
  Sr  Sr7  1  0.004568  0.327604  0.365896  1
  Np  Np8  1  0.000000  0.500000  0.000000  1
  Np  Np9  1  0.500000  0.500000  0.500000  1
  Te  Te10  1  0.000000  0.000000  0.000000  1
  Te  Te11  1  0.500000  0.000000  0.500000  1
  O  O12  1  0.624384  0.235712  0.499482  1
  O  O13  1  0.124384  0.764288  0.000518  1
  O  O14  1  0.375616  0.764288  0.500518  1
  O  O15  1  0.875616  0.235712  0.999482  1
  O  O16  1  0.758770  0.006786  0.390386  1
  O  O17  1  0.258770  0.993214  0.109614  1
  O  O18  1  0.241230  0.993214  0.609614  1
  O  O19  1  0.741230  0.006786  0.890386  1
  O  O20  1  0.798700  0.593302  0.423509  1
  O  O21  1  0.298700  0.406698  0.076491  1
  O  O22  1  0.201300  0.406698  0.576491  1
  O  O23  1  0.701300  0.593302  0.923509  1
  O  O24  1  0.670671  0.437903  0.663960  1
  O  O25  1  0.170671  0.562097  0.836040  1
  O  O26  1  0.329329  0.562097  0.336040  1
  O  O27  1  0.829329  0.437903  0.163960  1
  O  O28  1  0.696522  0.893292  0.639504  1
  O  O29  1  0.196522  0.106708  0.860496  1
  O  O30  1  0.303478  0.106708  0.360496  1
  O  O31  1  0.803478  0.893292  0.139504  1
