# generated using pymatgen
data_PmHPdO
_symmetry_space_group_name_H-M   'P 1'
_cell_length_a   4.00201900
_cell_length_b   4.00201900
_cell_length_c   7.34380500
_cell_angle_alpha   90.00000000
_cell_angle_beta   90.00000000
_cell_angle_gamma   90.00000000
_symmetry_Int_Tables_number   1
_chemical_formula_structural   PmHPdO
_chemical_formula_sum   'Pm2 H2 Pd2 O2'
_cell_volume   117.61952707
_cell_formula_units_Z   2
loop_
 _symmetry_equiv_pos_site_id
 _symmetry_equiv_pos_as_xyz
  1  'x, y, z'
loop_
 _atom_site_type_symbol
 _atom_site_label
 _atom_site_symmetry_multiplicity
 _atom_site_fract_x
 _atom_site_fract_y
 _atom_site_fract_z
 _atom_site_occupancy
  Pm  Pm0  1  0.250001  0.250001  0.159603  1
  Pm  Pm1  1  0.750001  0.750001  0.840399  1
  H  H2  1  0.250001  0.250001  0.535142  1
  H  H3  1  0.750001  0.750001  0.464857  1
  Pd  Pd4  1  0.750001  0.250001  0.499999  1
  Pd  Pd5  1  0.250001  0.750001  0.499999  1
  O  O6  1  0.750001  0.250001  0.000000  1
  O  O7  1  0.250001  0.750001  0.000000  1
