# generated using pymatgen
data_Ac20Si15Br
_symmetry_space_group_name_H-M   'P 1'
_cell_length_a   8.36776974
_cell_length_b   8.30492997
_cell_length_c   16.33663137
_cell_angle_alpha   89.54584889
_cell_angle_beta   89.04323502
_cell_angle_gamma   90.22677774
_symmetry_Int_Tables_number   1
_chemical_formula_structural   Ac20Si15Br
_chemical_formula_sum   'Ac20 Si15 Br1'
_cell_volume   1135.09019884
_cell_formula_units_Z   1
loop_
 _symmetry_equiv_pos_site_id
 _symmetry_equiv_pos_as_xyz
  1  'x, y, z'
loop_
 _atom_site_type_symbol
 _atom_site_label
 _atom_site_symmetry_multiplicity
 _atom_site_fract_x
 _atom_site_fract_y
 _atom_site_fract_z
 _atom_site_occupancy
  Ac  Ac0  1  0.311227  0.309646  0.999673  1
  Ac  Ac1  1  0.186801  0.808159  0.249306  1
  Ac  Ac2  1  0.791565  0.188399  0.754185  1
  Ac  Ac3  1  0.686778  0.690066  0.496527  1
  Ac  Ac4  1  0.379737  0.007938  0.443308  1
  Ac  Ac5  1  0.497321  0.867711  0.699329  1
  Ac  Ac6  1  0.512563  0.122425  0.197574  1
  Ac  Ac7  1  0.873273  0.484264  0.298599  1
  Ac  Ac8  1  0.122474  0.520954  0.803852  1
  Ac  Ac9  1  0.633676  0.984301  0.953684  1
  Ac  Ac10  1  0.000097  0.382049  0.543324  1
  Ac  Ac11  1  0.990337  0.623246  0.052312  1
  Ac  Ac12  1  0.140777  0.983557  0.875831  1
  Ac  Ac13  1  0.523335  0.628686  0.127393  1
  Ac  Ac14  1  0.478707  0.373403  0.630185  1
  Ac  Ac15  1  0.633337  0.526697  0.876979  1
  Ac  Ac16  1  0.369284  0.472182  0.374105  1
  Ac  Ac17  1  0.870055  0.025108  0.376596  1
  Ac  Ac18  1  0.979148  0.126932  0.124181  1
  Ac  Ac19  1  0.020190  0.859364  0.620383  1
  Si  Si20  1  0.331835  0.700146  0.956766  1
  Si  Si21  1  0.661941  0.303519  0.458502  1
  Si  Si22  1  0.704163  0.334766  0.046091  1
  Si  Si23  1  0.302861  0.665518  0.543814  1
  Si  Si24  1  0.801204  0.833166  0.207385  1
  Si  Si25  1  0.167153  0.196841  0.292696  1
  Si  Si26  1  0.843250  0.803097  0.793216  1
  Si  Si27  1  0.290221  0.920308  0.058361  1
  Si  Si28  1  0.578826  0.789672  0.308720  1
  Si  Si29  1  0.449960  0.207622  0.825231  1
  Si  Si30  1  0.795464  0.577249  0.689744  1
  Si  Si31  1  0.208420  0.420419  0.191142  1
  Si  Si32  1  0.703808  0.078835  0.560174  1
  Si  Si33  1  0.924682  0.292477  0.941043  1
  Si  Si34  1  0.077244  0.708287  0.439767  1
  Br  Br35  1  0.158285  0.182986  0.690020  1
