# generated using pymatgen
data_Dy9Sb5CO4
_symmetry_space_group_name_H-M   'P 1'
_cell_length_a   9.90912500
_cell_length_b   9.90912500
_cell_length_c   9.04417200
_cell_angle_alpha   90.00000000
_cell_angle_beta   90.00000000
_cell_angle_gamma   90.00000000
_symmetry_Int_Tables_number   1
_chemical_formula_structural   Dy9Sb5CO4
_chemical_formula_sum   'Dy18 Sb10 C2 O8'
_cell_volume   888.05410656
_cell_formula_units_Z   2
loop_
 _symmetry_equiv_pos_site_id
 _symmetry_equiv_pos_as_xyz
  1  'x, y, z'
loop_
 _atom_site_type_symbol
 _atom_site_label
 _atom_site_symmetry_multiplicity
 _atom_site_fract_x
 _atom_site_fract_y
 _atom_site_fract_z
 _atom_site_occupancy
  Dy  Dy0  1  0.170397  0.025957  0.003762  1
  Dy  Dy1  1  0.474043  0.170397  0.003762  1
  Dy  Dy2  1  0.025957  0.329603  0.003762  1
  Dy  Dy3  1  0.329603  0.474043  0.003762  1
  Dy  Dy4  1  0.750000  0.750000  0.311777  1
  Dy  Dy5  1  0.955080  0.144973  0.337397  1
  Dy  Dy6  1  0.544919  0.355027  0.337397  1
  Dy  Dy7  1  0.144973  0.544919  0.337397  1
  Dy  Dy8  1  0.355027  0.955080  0.337397  1
  Dy  Dy9  1  0.644973  0.044919  0.662603  1
  Dy  Dy10  1  0.855027  0.455081  0.662603  1
  Dy  Dy11  1  0.455081  0.644973  0.662603  1
  Dy  Dy12  1  0.044919  0.855027  0.662603  1
  Dy  Dy13  1  0.250000  0.250000  0.688223  1
  Dy  Dy14  1  0.670397  0.525958  0.996238  1
  Dy  Dy15  1  0.974042  0.670397  0.996238  1
  Dy  Dy16  1  0.525958  0.829604  0.996238  1
  Dy  Dy17  1  0.829604  0.974042  0.996238  1
  Sb  Sb18  1  0.653291  0.057678  0.306484  1
  Sb  Sb19  1  0.846710  0.442321  0.306484  1
  Sb  Sb20  1  0.442321  0.653291  0.306484  1
  Sb  Sb21  1  0.057678  0.846710  0.306484  1
  Sb  Sb22  1  0.250000  0.250000  0.330504  1
  Sb  Sb23  1  0.750000  0.750000  0.669496  1
  Sb  Sb24  1  0.942322  0.153291  0.693516  1
  Sb  Sb25  1  0.557678  0.346709  0.693516  1
  Sb  Sb26  1  0.153291  0.557678  0.693516  1
  Sb  Sb27  1  0.346709  0.942322  0.693516  1
  C  C28  1  0.750000  0.750000  0.060632  1
  C  C29  1  0.250000  0.250000  0.939368  1
  O  O30  1  0.976000  0.128344  0.094242  1
  O  O31  1  0.524000  0.371656  0.094242  1
  O  O32  1  0.128344  0.524000  0.094242  1
  O  O33  1  0.371656  0.976000  0.094242  1
  O  O34  1  0.628344  0.024000  0.905757  1
  O  O35  1  0.871656  0.476001  0.905757  1
  O  O36  1  0.476001  0.628344  0.905757  1
  O  O37  1  0.024000  0.871656  0.905757  1
