# generated using pymatgen
data_Tb(InPt)4
_symmetry_space_group_name_H-M   'P 1'
_cell_length_a   4.61528500
_cell_length_b   4.61528470
_cell_length_c   20.28450500
_cell_angle_alpha   90.00000000
_cell_angle_beta   90.00000000
_cell_angle_gamma   119.99999497
_symmetry_Int_Tables_number   1
_chemical_formula_structural   Tb(InPt)4
_chemical_formula_sum   'Tb2 In8 Pt8'
_cell_volume   374.18992386
_cell_formula_units_Z   2
loop_
 _symmetry_equiv_pos_site_id
 _symmetry_equiv_pos_as_xyz
  1  'x, y, z'
loop_
 _atom_site_type_symbol
 _atom_site_label
 _atom_site_symmetry_multiplicity
 _atom_site_fract_x
 _atom_site_fract_y
 _atom_site_fract_z
 _atom_site_occupancy
  Tb  Tb0  1  0.333333  0.666667  0.250000  1
  Tb  Tb1  1  0.666667  0.333333  0.750000  1
  In  In2  1  0.333333  0.666667  0.958461  1
  In  In3  1  0.666667  0.333333  0.041539  1
  In  In4  1  0.666667  0.333333  0.458461  1
  In  In5  1  0.333333  0.666667  0.541539  1
  In  In6  1  0.000000  0.000000  0.357582  1
  In  In7  1  0.000000  0.000000  0.642418  1
  In  In8  1  0.000000  0.000000  0.857582  1
  In  In9  1  0.000000  0.000000  0.142418  1
  Pt  Pt10  1  0.333333  0.666667  0.405723  1
  Pt  Pt11  1  0.666667  0.333333  0.594277  1
  Pt  Pt12  1  0.666667  0.333333  0.905723  1
  Pt  Pt13  1  0.333333  0.666667  0.094277  1
  Pt  Pt14  1  0.333333  0.666667  0.819406  1
  Pt  Pt15  1  0.666667  0.333333  0.180594  1
  Pt  Pt16  1  0.666667  0.333333  0.319406  1
  Pt  Pt17  1  0.333333  0.666667  0.680594  1
