# generated using pymatgen
data_Y3In3Pd2Pt
_symmetry_space_group_name_H-M   'P 1'
_cell_length_a   7.78606300
_cell_length_b   7.78606381
_cell_length_c   3.79127500
_cell_angle_alpha   90.00000000
_cell_angle_beta   90.00000000
_cell_angle_gamma   120.00000081
_symmetry_Int_Tables_number   1
_chemical_formula_structural   Y3In3Pd2Pt
_chemical_formula_sum   'Y3 In3 Pd2 Pt1'
_cell_volume   199.04523590
_cell_formula_units_Z   1
loop_
 _symmetry_equiv_pos_site_id
 _symmetry_equiv_pos_as_xyz
  1  'x, y, z'
loop_
 _atom_site_type_symbol
 _atom_site_label
 _atom_site_symmetry_multiplicity
 _atom_site_fract_x
 _atom_site_fract_y
 _atom_site_fract_z
 _atom_site_occupancy
  Y  Y0  1  0.412307  0.405298  0.500000  1
  Y  Y1  1  0.594702  0.007009  0.500000  1
  Y  Y2  1  0.992991  0.587693  0.500000  1
  In  In3  1  0.736990  0.741544  0.000000  1
  In  In4  1  0.258456  0.995446  0.000000  1
  In  In5  1  0.004554  0.263010  0.000000  1
  Pd  Pd6  1  0.333333  0.666667  0.000000  1
  Pd  Pd7  1  0.000000  0.000000  0.500000  1
  Pt  Pt8  1  0.666667  0.333333  0.000000  1
