# generated using pymatgen
data_Y3PaPd12
_symmetry_space_group_name_H-M   'P 1'
_cell_length_a   5.84976400
_cell_length_b   5.84976380
_cell_length_c   9.56635400
_cell_angle_alpha   90.00000000
_cell_angle_beta   90.00000000
_cell_angle_gamma   120.00000113
_symmetry_Int_Tables_number   1
_chemical_formula_structural   Y3PaPd12
_chemical_formula_sum   'Y3 Pa1 Pd12'
_cell_volume   283.50044876
_cell_formula_units_Z   1
loop_
 _symmetry_equiv_pos_site_id
 _symmetry_equiv_pos_as_xyz
  1  'x, y, z'
loop_
 _atom_site_type_symbol
 _atom_site_label
 _atom_site_symmetry_multiplicity
 _atom_site_fract_x
 _atom_site_fract_y
 _atom_site_fract_z
 _atom_site_occupancy
  Y  Y0  1  0.000000  0.000000  0.505807  1
  Y  Y1  1  0.000000  0.000000  0.994193  1
  Y  Y2  1  0.333333  0.666667  0.750000  1
  Pa  Pa3  1  0.666667  0.333333  0.250000  1
  Pd  Pd4  1  0.502357  0.497643  0.494975  1
  Pd  Pd5  1  0.502357  0.004713  0.494975  1
  Pd  Pd6  1  0.995287  0.497643  0.494975  1
  Pd  Pd7  1  0.502357  0.497643  0.005025  1
  Pd  Pd8  1  0.502357  0.004713  0.005025  1
  Pd  Pd9  1  0.995287  0.497643  0.005025  1
  Pd  Pd10  1  0.172705  0.827295  0.250000  1
  Pd  Pd11  1  0.172705  0.345411  0.250000  1
  Pd  Pd12  1  0.654589  0.827295  0.250000  1
  Pd  Pd13  1  0.824609  0.175391  0.750000  1
  Pd  Pd14  1  0.824609  0.649218  0.750000  1
  Pd  Pd15  1  0.350782  0.175391  0.750000  1
