# generated using pymatgen
data_Y2Lu(MgHg)3
_symmetry_space_group_name_H-M   'P 1'
_cell_length_a   7.74474100
_cell_length_b   7.69044312
_cell_length_c   4.27216600
_cell_angle_alpha   90.00000000
_cell_angle_beta   90.00000000
_cell_angle_gamma   120.23382915
_symmetry_Int_Tables_number   1
_chemical_formula_structural   Y2Lu(MgHg)3
_chemical_formula_sum   'Y2 Lu1 Mg3 Hg3'
_cell_volume   219.84110184
_cell_formula_units_Z   1
loop_
 _symmetry_equiv_pos_site_id
 _symmetry_equiv_pos_as_xyz
  1  'x, y, z'
loop_
 _atom_site_type_symbol
 _atom_site_label
 _atom_site_symmetry_multiplicity
 _atom_site_fract_x
 _atom_site_fract_y
 _atom_site_fract_z
 _atom_site_occupancy
  Y  Y0  1  0.999355  0.413425  0.000000  1
  Y  Y1  1  0.585928  0.586575  0.000000  1
  Lu  Lu2  1  0.412094  0.000000  0.000000  1
  Mg  Mg3  1  0.749791  0.000000  0.500000  1
  Mg  Mg4  1  0.250346  0.249634  0.500000  1
  Mg  Mg5  1  0.000713  0.750367  0.500000  1
  Hg  Hg6  1  0.002937  0.000000  0.000000  1
  Hg  Hg7  1  0.663824  0.328814  0.500000  1
  Hg  Hg8  1  0.335011  0.671186  0.500000  1
