# generated using pymatgen
data_Pr3Hg2Ir
_symmetry_space_group_name_H-M   'P 1'
_cell_length_a   13.57626304
_cell_length_b   13.57626243
_cell_length_c   3.86416200
_cell_angle_alpha   90.00000000
_cell_angle_beta   90.00000000
_cell_angle_gamma   112.47093989
_symmetry_Int_Tables_number   1
_chemical_formula_structural   Pr3Hg2Ir
_chemical_formula_sum   'Pr12 Hg8 Ir4'
_cell_volume   658.14610230
_cell_formula_units_Z   4
loop_
 _symmetry_equiv_pos_site_id
 _symmetry_equiv_pos_as_xyz
  1  'x, y, z'
loop_
 _atom_site_type_symbol
 _atom_site_label
 _atom_site_symmetry_multiplicity
 _atom_site_fract_x
 _atom_site_fract_y
 _atom_site_fract_z
 _atom_site_occupancy
  Pr  Pr0  1  0.500000  0.500000  0.500000  1
  Pr  Pr1  1  0.784185  0.784185  0.500000  1
  Pr  Pr2  1  0.215815  0.215815  0.500000  1
  Pr  Pr3  1  0.593210  0.923402  0.500000  1
  Pr  Pr4  1  0.406790  0.076598  0.500000  1
  Pr  Pr5  1  0.923402  0.593210  0.500000  1
  Pr  Pr6  1  0.076598  0.406790  0.500000  1
  Pr  Pr7  1  0.143866  0.856134  0.500000  1
  Pr  Pr8  1  0.856134  0.143866  0.500000  1
  Pr  Pr9  1  0.335715  0.664285  0.500000  1
  Pr  Pr10  1  0.664285  0.335715  0.500000  1
  Pr  Pr11  1  0.000000  0.000000  0.000000  1
  Hg  Hg12  1  0.356452  0.861311  0.000000  1
  Hg  Hg13  1  0.643548  0.138689  0.000000  1
  Hg  Hg14  1  0.861311  0.356452  0.000000  1
  Hg  Hg15  1  0.138689  0.643548  0.000000  1
  Hg  Hg16  1  0.548188  0.712249  0.000000  1
  Hg  Hg17  1  0.451812  0.287751  0.000000  1
  Hg  Hg18  1  0.712249  0.548188  0.000000  1
  Hg  Hg19  1  0.287751  0.451812  0.000000  1
  Ir  Ir20  1  0.765149  0.951464  0.000000  1
  Ir  Ir21  1  0.234851  0.048536  0.000000  1
  Ir  Ir22  1  0.951464  0.765149  0.000000  1
  Ir  Ir23  1  0.048536  0.234851  0.000000  1
