# generated using pymatgen
data_Lu4As6Ru7
_symmetry_space_group_name_H-M   'P 1'
_cell_length_a   7.17472760
_cell_length_b   7.17472671
_cell_length_c   7.17472800
_cell_angle_alpha   109.47122428
_cell_angle_beta   109.47122178
_cell_angle_gamma   109.47121401
_symmetry_Int_Tables_number   1
_chemical_formula_structural   Lu4As6Ru7
_chemical_formula_sum   'Lu4 As6 Ru7'
_cell_volume   284.31144335
_cell_formula_units_Z   1
loop_
 _symmetry_equiv_pos_site_id
 _symmetry_equiv_pos_as_xyz
  1  'x, y, z'
loop_
 _atom_site_type_symbol
 _atom_site_label
 _atom_site_symmetry_multiplicity
 _atom_site_fract_x
 _atom_site_fract_y
 _atom_site_fract_z
 _atom_site_occupancy
  Lu  Lu0  1  0.000000  0.000000  0.500000  1
  Lu  Lu1  1  0.000000  0.500000  0.000000  1
  Lu  Lu2  1  0.500000  0.000000  0.000000  1
  Lu  Lu3  1  0.500000  0.500000  0.500000  1
  As  As4  1  0.686151  0.686151  0.000000  1
  As  As5  1  0.313849  0.000000  0.313849  1
  As  As6  1  0.000000  0.313849  0.313849  1
  As  As7  1  0.313849  0.313849  0.000000  1
  As  As8  1  0.686151  0.000000  0.686151  1
  As  As9  1  0.000000  0.686151  0.686151  1
  Ru  Ru10  1  0.750000  0.250000  0.500000  1
  Ru  Ru11  1  0.750000  0.500000  0.250000  1
  Ru  Ru12  1  0.500000  0.250000  0.750000  1
  Ru  Ru13  1  0.250000  0.500000  0.750000  1
  Ru  Ru14  1  0.250000  0.750000  0.500000  1
  Ru  Ru15  1  0.500000  0.750000  0.250000  1
  Ru  Ru16  1  0.000000  0.000000  0.000000  1
