# generated using pymatgen
data_Ca3SmPd4
_symmetry_space_group_name_H-M   'P 1'
_cell_length_a   4.44362800
_cell_length_b   5.78880535
_cell_length_c   7.41098617
_cell_angle_alpha   90.03046975
_cell_angle_beta   90.00000000
_cell_angle_gamma   90.00000000
_symmetry_Int_Tables_number   1
_chemical_formula_structural   Ca3SmPd4
_chemical_formula_sum   'Ca3 Sm1 Pd4'
_cell_volume   190.63497539
_cell_formula_units_Z   1
loop_
 _symmetry_equiv_pos_site_id
 _symmetry_equiv_pos_as_xyz
  1  'x, y, z'
loop_
 _atom_site_type_symbol
 _atom_site_label
 _atom_site_symmetry_multiplicity
 _atom_site_fract_x
 _atom_site_fract_y
 _atom_site_fract_z
 _atom_site_occupancy
  Ca  Ca0  1  0.250000  0.362239  0.678756  1
  Ca  Ca1  1  0.250000  0.138988  0.186205  1
  Ca  Ca2  1  0.750000  0.638521  0.317392  1
  Sm  Sm3  1  0.750000  0.866925  0.818219  1
  Pd  Pd4  1  0.250000  0.857465  0.547200  1
  Pd  Pd5  1  0.250000  0.645121  0.024817  1
  Pd  Pd6  1  0.750000  0.138051  0.466621  1
  Pd  Pd7  1  0.750000  0.352691  0.960790  1
