# generated using pymatgen
data_Dy5Nb3(P3Ir4)4
_symmetry_space_group_name_H-M   'P 1'
_cell_length_a   12.76233300
_cell_length_b   12.76233361
_cell_length_c   3.99548000
_cell_angle_alpha   90.00000000
_cell_angle_beta   90.00000000
_cell_angle_gamma   120.00000102
_symmetry_Int_Tables_number   1
_chemical_formula_structural   Dy5Nb3(P3Ir4)4
_chemical_formula_sum   'Dy5 Nb3 P12 Ir16'
_cell_volume   563.58542519
_cell_formula_units_Z   1
loop_
 _symmetry_equiv_pos_site_id
 _symmetry_equiv_pos_as_xyz
  1  'x, y, z'
loop_
 _atom_site_type_symbol
 _atom_site_label
 _atom_site_symmetry_multiplicity
 _atom_site_fract_x
 _atom_site_fract_y
 _atom_site_fract_z
 _atom_site_occupancy
  Dy  Dy0  1  0.333333  0.666667  0.500000  1
  Dy  Dy1  1  0.666667  0.333333  0.500000  1
  Dy  Dy2  1  0.000000  0.813579  0.000000  1
  Dy  Dy3  1  0.186421  0.186421  0.000000  1
  Dy  Dy4  1  0.813579  0.000000  0.000000  1
  Nb  Nb5  1  0.000000  0.452086  0.500000  1
  Nb  Nb6  1  0.547914  0.547914  0.500000  1
  Nb  Nb7  1  0.452086  0.000000  0.500000  1
  P  P8  1  0.000000  0.642129  0.500000  1
  P  P9  1  0.357871  0.357871  0.500000  1
  P  P10  1  0.642129  0.000000  0.500000  1
  P  P11  1  0.517099  0.684406  0.000000  1
  P  P12  1  0.315594  0.832693  0.000000  1
  P  P13  1  0.167307  0.482901  0.000000  1
  P  P14  1  0.482901  0.167307  0.000000  1
  P  P15  1  0.684406  0.517099  0.000000  1
  P  P16  1  0.832693  0.315594  0.000000  1
  P  P17  1  0.000000  0.176817  0.500000  1
  P  P18  1  0.823183  0.823183  0.500000  1
  P  P19  1  0.176817  0.000000  0.500000  1
  Ir  Ir20  1  0.507830  0.863616  0.000000  1
  Ir  Ir21  1  0.136384  0.644214  0.000000  1
  Ir  Ir22  1  0.355786  0.492170  0.000000  1
  Ir  Ir23  1  0.492170  0.355786  0.000000  1
  Ir  Ir24  1  0.863616  0.507830  0.000000  1
  Ir  Ir25  1  0.644214  0.136384  0.000000  1
  Ir  Ir26  1  0.000000  0.282873  0.000000  1
  Ir  Ir27  1  0.717127  0.717127  0.000000  1
  Ir  Ir28  1  0.282873  0.000000  0.000000  1
  Ir  Ir29  1  0.627396  0.805624  0.500000  1
  Ir  Ir30  1  0.194376  0.821773  0.500000  1
  Ir  Ir31  1  0.178227  0.372604  0.500000  1
  Ir  Ir32  1  0.372604  0.178227  0.500000  1
  Ir  Ir33  1  0.805624  0.627396  0.500000  1
  Ir  Ir34  1  0.821773  0.194376  0.500000  1
  Ir  Ir35  1  0.000000  0.000000  0.500000  1
