# generated using pymatgen
data_Sm5Dy3Sc12Si15As
_symmetry_space_group_name_H-M   'P 1'
_cell_length_a   7.18523964
_cell_length_b   7.42212098
_cell_length_c   14.07064030
_cell_angle_alpha   90.06860581
_cell_angle_beta   88.97854825
_cell_angle_gamma   90.20426985
_symmetry_Int_Tables_number   1
_chemical_formula_structural   Sm5Dy3Sc12Si15As
_chemical_formula_sum   'Sm5 Dy3 Sc12 Si15 As1'
_cell_volume   750.25878347
_cell_formula_units_Z   1
loop_
 _symmetry_equiv_pos_site_id
 _symmetry_equiv_pos_as_xyz
  1  'x, y, z'
loop_
 _atom_site_type_symbol
 _atom_site_label
 _atom_site_symmetry_multiplicity
 _atom_site_fract_x
 _atom_site_fract_y
 _atom_site_fract_z
 _atom_site_occupancy
  Sm  Sm0  1  0.011836  0.174343  0.097984  1
  Sm  Sm1  1  0.988875  0.826181  0.901694  1
  Sm  Sm2  1  0.488580  0.673614  0.902772  1
  Sm  Sm3  1  0.992575  0.822452  0.594912  1
  Sm  Sm4  1  0.511988  0.326713  0.098059  1
  Dy  Dy5  1  0.006090  0.178850  0.403244  1
  Dy  Dy6  1  0.504031  0.321756  0.401696  1
  Dy  Dy7  1  0.500062  0.676382  0.597265  1
  Sc  Sc8  1  0.164683  0.499946  0.749238  1
  Sc  Sc9  1  0.835194  0.499499  0.253853  1
  Sc  Sc10  1  0.335265  0.999819  0.252220  1
  Sc  Sc11  1  0.665014  0.000315  0.748581  1
  Sc  Sc12  1  0.340028  0.171482  0.626276  1
  Sc  Sc13  1  0.660936  0.827023  0.374022  1
  Sc  Sc14  1  0.158332  0.671626  0.377787  1
  Sc  Sc15  1  0.668534  0.824681  0.126717  1
  Sc  Sc16  1  0.838744  0.329073  0.621515  1
  Sc  Sc17  1  0.331512  0.175000  0.873425  1
  Sc  Sc18  1  0.831854  0.323774  0.874065  1
  Sc  Sc19  1  0.168027  0.676489  0.126099  1
  Si  Si20  1  0.036561  0.121095  0.748166  1
  Si  Si21  1  0.963594  0.880948  0.251368  1
  Si  Si22  1  0.459392  0.619596  0.250182  1
  Si  Si23  1  0.539438  0.380665  0.749617  1
  Si  Si24  1  0.290916  0.873944  0.748822  1
  Si  Si25  1  0.711754  0.125124  0.251485  1
  Si  Si26  1  0.209938  0.376485  0.252026  1
  Si  Si27  1  0.790098  0.622651  0.748783  1
  Si  Si28  1  0.811266  0.538217  0.456161  1
  Si  Si29  1  0.335798  0.963662  0.460292  1
  Si  Si30  1  0.846185  0.536755  0.039509  1
  Si  Si31  1  0.662903  0.038307  0.539210  1
  Si  Si32  1  0.153304  0.464143  0.960314  1
  Si  Si33  1  0.653747  0.035898  0.959922  1
  Si  Si34  1  0.346567  0.964748  0.040264  1
  As  As35  1  0.186379  0.458741  0.542452  1
