# generated using pymatgen
data_Pa5Nb3(Co4P3)4
_symmetry_space_group_name_H-M   'P 1'
_cell_length_a   12.16873600
_cell_length_b   12.16873506
_cell_length_c   3.77111100
_cell_angle_alpha   90.00000000
_cell_angle_beta   90.00000000
_cell_angle_gamma   119.99999712
_symmetry_Int_Tables_number   1
_chemical_formula_structural   Pa5Nb3(Co4P3)4
_chemical_formula_sum   'Pa5 Nb3 Co16 P12'
_cell_volume   483.60509192
_cell_formula_units_Z   1
loop_
 _symmetry_equiv_pos_site_id
 _symmetry_equiv_pos_as_xyz
  1  'x, y, z'
loop_
 _atom_site_type_symbol
 _atom_site_label
 _atom_site_symmetry_multiplicity
 _atom_site_fract_x
 _atom_site_fract_y
 _atom_site_fract_z
 _atom_site_occupancy
  Pa  Pa0  1  0.816341  0.000000  0.500000  1
  Pa  Pa1  1  0.000000  0.816341  0.500000  1
  Pa  Pa2  1  0.183659  0.183659  0.500000  1
  Pa  Pa3  1  0.333333  0.666667  0.000000  1
  Pa  Pa4  1  0.666667  0.333333  0.000000  1
  Nb  Nb5  1  0.440498  0.000000  0.000000  1
  Nb  Nb6  1  0.000000  0.440498  0.000000  1
  Nb  Nb7  1  0.559502  0.559502  0.000000  1
  Co  Co8  1  0.276165  0.000000  0.500000  1
  Co  Co9  1  0.000000  0.276165  0.500000  1
  Co  Co10  1  0.723835  0.723835  0.500000  1
  Co  Co11  1  0.626647  0.808606  0.000000  1
  Co  Co12  1  0.191394  0.818041  0.000000  1
  Co  Co13  1  0.181959  0.373353  0.000000  1
  Co  Co14  1  0.373353  0.181959  0.000000  1
  Co  Co15  1  0.808606  0.626647  0.000000  1
  Co  Co16  1  0.818041  0.191394  0.000000  1
  Co  Co17  1  0.512379  0.872221  0.500000  1
  Co  Co18  1  0.127779  0.640158  0.500000  1
  Co  Co19  1  0.359842  0.487621  0.500000  1
  Co  Co20  1  0.487621  0.359842  0.500000  1
  Co  Co21  1  0.872221  0.512379  0.500000  1
  Co  Co22  1  0.640158  0.127779  0.500000  1
  Co  Co23  1  0.000000  0.000000  0.000000  1
  P  P24  1  0.180086  0.000000  0.000000  1
  P  P25  1  0.000000  0.180086  0.000000  1
  P  P26  1  0.819914  0.819914  0.000000  1
  P  P27  1  0.525598  0.692899  0.500000  1
  P  P28  1  0.307101  0.832699  0.500000  1
  P  P29  1  0.167301  0.474402  0.500000  1
  P  P30  1  0.474402  0.167301  0.500000  1
  P  P31  1  0.692899  0.525598  0.500000  1
  P  P32  1  0.832699  0.307101  0.500000  1
  P  P33  1  0.636618  0.000000  0.000000  1
  P  P34  1  0.000000  0.636618  0.000000  1
  P  P35  1  0.363382  0.363382  0.000000  1
