# generated using pymatgen
data_Yb6DyErBi6
_symmetry_space_group_name_H-M   'P 1'
_cell_length_a   8.17534855
_cell_length_b   8.36035659
_cell_length_c   8.36035616
_cell_angle_alpha   109.91515003
_cell_angle_beta   109.02355853
_cell_angle_gamma   109.02356424
_symmetry_Int_Tables_number   1
_chemical_formula_structural   Yb6DyErBi6
_chemical_formula_sum   'Yb6 Dy1 Er1 Bi6'
_cell_volume   442.28634334
_cell_formula_units_Z   1
loop_
 _symmetry_equiv_pos_site_id
 _symmetry_equiv_pos_as_xyz
  1  'x, y, z'
loop_
 _atom_site_type_symbol
 _atom_site_label
 _atom_site_symmetry_multiplicity
 _atom_site_fract_x
 _atom_site_fract_y
 _atom_site_fract_z
 _atom_site_occupancy
  Yb  Yb0  1  0.500807  0.999021  0.646811  1
  Yb  Yb1  1  0.354048  0.352204  0.353260  1
  Yb  Yb2  1  0.501844  0.001057  0.147796  1
  Yb  Yb3  1  0.001786  0.647790  0.500979  1
  Yb  Yb4  1  0.853996  0.853189  0.852210  1
  Yb  Yb5  1  0.000788  0.146740  0.498943  1
  Dy  Dy6  1  0.142072  0.500000  0.000000  1
  Er  Er7  1  0.641809  0.500000  0.000000  1
  Bi  Bi8  1  0.377135  0.622798  0.756595  1
  Bi  Bi9  1  0.876722  0.256434  0.122895  1
  Bi  Bi10  1  0.620540  0.743405  0.366203  1
  Bi  Bi11  1  0.120288  0.866461  0.243566  1
  Bi  Bi12  1  0.254337  0.133797  0.877202  1
  Bi  Bi13  1  0.753827  0.377105  0.633539  1
