# generated using pymatgen
data_Nd2Er2LuSn4
_symmetry_space_group_name_H-M   'P 1'
_cell_length_a   8.06373800
_cell_length_b   8.29120900
_cell_length_c   15.63459200
_cell_angle_alpha   90.00000000
_cell_angle_beta   90.00000000
_cell_angle_gamma   90.00000000
_symmetry_Int_Tables_number   1
_chemical_formula_structural   Nd2Er2LuSn4
_chemical_formula_sum   'Nd8 Er8 Lu4 Sn16'
_cell_volume   1045.29969511
_cell_formula_units_Z   4
loop_
 _symmetry_equiv_pos_site_id
 _symmetry_equiv_pos_as_xyz
  1  'x, y, z'
loop_
 _atom_site_type_symbol
 _atom_site_label
 _atom_site_symmetry_multiplicity
 _atom_site_fract_x
 _atom_site_fract_y
 _atom_site_fract_z
 _atom_site_occupancy
  Nd  Nd0  1  0.509041  0.324451  0.903897  1
  Nd  Nd1  1  0.009041  0.175549  0.596103  1
  Nd  Nd2  1  0.490959  0.675549  0.403897  1
  Nd  Nd3  1  0.990959  0.824451  0.096103  1
  Nd  Nd4  1  0.490959  0.675549  0.096103  1
  Nd  Nd5  1  0.990959  0.824451  0.403897  1
  Nd  Nd6  1  0.509041  0.324451  0.596103  1
  Nd  Nd7  1  0.009041  0.175549  0.903897  1
  Er  Er8  1  0.348966  0.835552  0.875389  1
  Er  Er9  1  0.848966  0.664448  0.624611  1
  Er  Er10  1  0.651034  0.164448  0.375389  1
  Er  Er11  1  0.151034  0.335552  0.124611  1
  Er  Er12  1  0.651034  0.164448  0.124611  1
  Er  Er13  1  0.151034  0.335552  0.375389  1
  Er  Er14  1  0.348966  0.835552  0.624611  1
  Er  Er15  1  0.848966  0.664448  0.875389  1
  Lu  Lu16  1  0.181883  0.501943  0.750000  1
  Lu  Lu17  1  0.681883  0.998057  0.750000  1
  Lu  Lu18  1  0.818117  0.498057  0.250000  1
  Lu  Lu19  1  0.318117  0.001943  0.250000  1
  Sn  Sn20  1  0.313194  0.041160  0.042196  1
  Sn  Sn21  1  0.813194  0.458840  0.457804  1
  Sn  Sn22  1  0.686806  0.958840  0.542196  1
  Sn  Sn23  1  0.186806  0.541160  0.957804  1
  Sn  Sn24  1  0.686806  0.958840  0.957804  1
  Sn  Sn25  1  0.186806  0.541160  0.542196  1
  Sn  Sn26  1  0.313194  0.041160  0.457804  1
  Sn  Sn27  1  0.813194  0.458840  0.042196  1
  Sn  Sn28  1  0.545074  0.624107  0.750000  1
  Sn  Sn29  1  0.045074  0.875893  0.750000  1
  Sn  Sn30  1  0.454926  0.375893  0.250000  1
  Sn  Sn31  1  0.954926  0.124107  0.250000  1
  Sn  Sn32  1  0.317020  0.145425  0.750000  1
  Sn  Sn33  1  0.817020  0.354575  0.750000  1
  Sn  Sn34  1  0.682980  0.854575  0.250000  1
  Sn  Sn35  1  0.182980  0.645425  0.250000  1
