# generated using pymatgen
data_Rb(ZrSe2)4
_symmetry_space_group_name_H-M   'P 1'
_cell_length_a   9.68122000
_cell_length_b   9.68122039
_cell_length_c   11.08810077
_cell_angle_alpha   42.11729385
_cell_angle_beta   42.11729342
_cell_angle_gamma   46.07390638
_symmetry_Int_Tables_number   1
_chemical_formula_structural   Rb(ZrSe2)4
_chemical_formula_sum   'Rb1 Zr4 Se8'
_cell_volume   442.99353241
_cell_formula_units_Z   1
loop_
 _symmetry_equiv_pos_site_id
 _symmetry_equiv_pos_as_xyz
  1  'x, y, z'
loop_
 _atom_site_type_symbol
 _atom_site_label
 _atom_site_symmetry_multiplicity
 _atom_site_fract_x
 _atom_site_fract_y
 _atom_site_fract_z
 _atom_site_occupancy
  Rb  Rb0  1  0.000000  0.000000  0.000000  1
  Zr  Zr1  1  0.251356  0.251356  0.001944  1
  Zr  Zr2  1  0.748644  0.748644  0.998056  1
  Zr  Zr3  1  0.248380  0.751620  0.500000  1
  Zr  Zr4  1  0.751620  0.248380  0.500000  1
  Se  Se5  1  0.326156  0.326156  0.669061  1
  Se  Se6  1  0.825291  0.825291  0.666012  1
  Se  Se7  1  0.323423  0.826562  0.168156  1
  Se  Se8  1  0.826562  0.323423  0.168156  1
  Se  Se9  1  0.173438  0.676577  0.831844  1
  Se  Se10  1  0.676577  0.173438  0.831844  1
  Se  Se11  1  0.174709  0.174709  0.333988  1
  Se  Se12  1  0.673844  0.673844  0.330939  1
