# generated using pymatgen
data_Zr5AlBi2
_symmetry_space_group_name_H-M   'P 1'
_cell_length_a   5.60633699
_cell_length_b   8.51656155
_cell_length_c   8.51656101
_cell_angle_alpha   83.78064094
_cell_angle_beta   70.78322058
_cell_angle_gamma   70.78322265
_symmetry_Int_Tables_number   1
_chemical_formula_structural   Zr5AlBi2
_chemical_formula_sum   'Zr10 Al2 Bi4'
_cell_volume   362.58460105
_cell_formula_units_Z   2
loop_
 _symmetry_equiv_pos_site_id
 _symmetry_equiv_pos_as_xyz
  1  'x, y, z'
loop_
 _atom_site_type_symbol
 _atom_site_label
 _atom_site_symmetry_multiplicity
 _atom_site_fract_x
 _atom_site_fract_y
 _atom_site_fract_z
 _atom_site_occupancy
  Zr  Zr0  1  0.075160  0.136567  0.713114  1
  Zr  Zr1  1  0.924840  0.863433  0.286886  1
  Zr  Zr2  1  0.788274  0.286886  0.136567  1
  Zr  Zr3  1  0.424840  0.286886  0.863433  1
  Zr  Zr4  1  0.211726  0.713114  0.863433  1
  Zr  Zr5  1  0.575160  0.713114  0.136567  1
  Zr  Zr6  1  0.711726  0.863433  0.713114  1
  Zr  Zr7  1  0.288274  0.136567  0.286886  1
  Zr  Zr8  1  0.250000  0.500000  0.500000  1
  Zr  Zr9  1  0.750000  0.500000  0.500000  1
  Al  Al10  1  0.250000  0.000000  0.000000  1
  Al  Al11  1  0.750000  0.000000  0.000000  1
  Bi  Bi12  1  0.164082  0.500000  0.171835  1
  Bi  Bi13  1  0.835918  0.500000  0.828165  1
  Bi  Bi14  1  0.335918  0.828165  0.500000  1
  Bi  Bi15  1  0.664082  0.171835  0.500000  1
