# generated using pymatgen
data_Cs3RbUTlBr12
_symmetry_space_group_name_H-M   'P 1'
_cell_length_a   8.04912063
_cell_length_b   8.02254863
_cell_length_c   11.52283600
_cell_angle_alpha   90.00000000
_cell_angle_beta   90.00000000
_cell_angle_gamma   90.82655330
_symmetry_Int_Tables_number   1
_chemical_formula_structural   Cs3RbUTlBr12
_chemical_formula_sum   'Cs3 Rb1 U1 Tl1 Br12'
_cell_volume   744.00350730
_cell_formula_units_Z   1
loop_
 _symmetry_equiv_pos_site_id
 _symmetry_equiv_pos_as_xyz
  1  'x, y, z'
loop_
 _atom_site_type_symbol
 _atom_site_label
 _atom_site_symmetry_multiplicity
 _atom_site_fract_x
 _atom_site_fract_y
 _atom_site_fract_z
 _atom_site_occupancy
  Cs  Cs0  1  0.500000  0.000000  0.783201  1
  Cs  Cs1  1  0.500000  0.000000  0.214734  1
  Cs  Cs2  1  0.000000  0.500000  0.215414  1
  Rb  Rb3  1  0.000000  0.500000  0.794486  1
  U  U4  1  0.500000  0.500000  0.502530  1
  Tl  Tl5  1  0.000000  0.000000  0.996502  1
  Br  Br6  1  0.770540  0.262258  0.993798  1
  Br  Br7  1  0.229460  0.737742  0.993798  1
  Br  Br8  1  0.500000  0.500000  0.266814  1
  Br  Br9  1  0.288740  0.236133  0.501566  1
  Br  Br10  1  0.260968  0.235577  0.998534  1
  Br  Br11  1  0.761034  0.292544  0.503485  1
  Br  Br12  1  0.000000  0.000000  0.240493  1
  Br  Br13  1  0.711260  0.763867  0.501566  1
  Br  Br14  1  0.238966  0.707456  0.503485  1
  Br  Br15  1  0.500000  0.500000  0.737452  1
  Br  Br16  1  0.739032  0.764423  0.998534  1
  Br  Br17  1  0.000000  0.000000  0.753609  1
