# generated using pymatgen
data_Na4Hf6SiBr18
_symmetry_space_group_name_H-M   'P 1'
_cell_length_a   10.33005080
_cell_length_b   10.28905655
_cell_length_c   10.32278243
_cell_angle_alpha   118.75219568
_cell_angle_beta   100.25183063
_cell_angle_gamma   102.47878259
_symmetry_Int_Tables_number   1
_chemical_formula_structural   Na4Hf6SiBr18
_chemical_formula_sum   'Na4 Hf6 Si1 Br18'
_cell_volume   886.78108457
_cell_formula_units_Z   1
loop_
 _symmetry_equiv_pos_site_id
 _symmetry_equiv_pos_as_xyz
  1  'x, y, z'
loop_
 _atom_site_type_symbol
 _atom_site_label
 _atom_site_symmetry_multiplicity
 _atom_site_fract_x
 _atom_site_fract_y
 _atom_site_fract_z
 _atom_site_occupancy
  Na  Na0  1  0.626684  0.528936  0.215887  1
  Na  Na1  1  0.373316  0.471064  0.784113  1
  Na  Na2  1  0.654799  0.216140  0.550682  1
  Na  Na3  1  0.345201  0.783860  0.449318  1
  Hf  Hf4  1  0.158356  0.055992  0.242566  1
  Hf  Hf5  1  0.841644  0.944008  0.757434  1
  Hf  Hf6  1  0.860740  0.142289  0.147842  1
  Hf  Hf7  1  0.139260  0.857711  0.852158  1
  Hf  Hf8  1  0.150391  0.247236  0.043570  1
  Hf  Hf9  1  0.849609  0.752764  0.956430  1
  Si  Si10  1  0.000000  0.000000  0.000000  1
  Br  Br11  1  0.012837  0.425888  0.206927  1
  Br  Br12  1  0.987163  0.574112  0.793073  1
  Br  Br13  1  0.334113  0.336579  0.317750  1
  Br  Br14  1  0.665887  0.663421  0.682250  1
  Br  Br15  1  0.333514  0.527331  0.096368  1
  Br  Br16  1  0.666486  0.472669  0.903632  1
  Br  Br17  1  0.008478  0.791217  0.218497  1
  Br  Br18  1  0.991522  0.208783  0.781503  1
  Br  Br19  1  0.705532  0.304407  0.314107  1
  Br  Br20  1  0.294468  0.695593  0.685893  1
  Br  Br21  1  0.316199  0.116691  0.887933  1
  Br  Br22  1  0.683801  0.883309  0.112067  1
  Br  Br23  1  0.021343  0.214516  0.427254  1
  Br  Br24  1  0.978657  0.785484  0.572746  1
  Br  Br25  1  0.325151  0.909835  0.105430  1
  Br  Br26  1  0.674849  0.090165  0.894570  1
  Br  Br27  1  0.347702  0.118715  0.516865  1
  Br  Br28  1  0.652298  0.881285  0.483135  1
