# generated using pymatgen
data_CaCeHoAs3
_symmetry_space_group_name_H-M   'P 1'
_cell_length_a   7.23613476
_cell_length_b   7.23613455
_cell_length_c   7.23613413
_cell_angle_alpha   146.20655775
_cell_angle_beta   131.97387771
_cell_angle_gamma   60.01059245
_symmetry_Int_Tables_number   1
_chemical_formula_structural   CaCeHoAs3
_chemical_formula_sum   'Ca1 Ce1 Ho1 As3'
_cell_volume   155.23492011
_cell_formula_units_Z   1
loop_
 _symmetry_equiv_pos_site_id
 _symmetry_equiv_pos_as_xyz
  1  'x, y, z'
loop_
 _atom_site_type_symbol
 _atom_site_label
 _atom_site_symmetry_multiplicity
 _atom_site_fract_x
 _atom_site_fract_y
 _atom_site_fract_z
 _atom_site_occupancy
  Ca  Ca0  1  0.667460  0.667460  0.000000  1
  Ce  Ce1  1  0.001752  0.001752  0.000000  1
  Ho  Ho2  1  0.332343  0.332343  0.000000  1
  As  As3  1  0.491398  0.991398  0.500000  1
  As  As4  1  0.165452  0.665452  0.500000  1
  As  As5  1  0.841595  0.341595  0.500000  1
