# generated using pymatgen
data_Nd2ThMg2AlIr3
_symmetry_space_group_name_H-M   'P 1'
_cell_length_a   7.42394331
_cell_length_b   7.42394244
_cell_length_c   4.08816100
_cell_angle_alpha   90.00000000
_cell_angle_beta   90.00000000
_cell_angle_gamma   119.34660707
_symmetry_Int_Tables_number   1
_chemical_formula_structural   Nd2ThMg2AlIr3
_chemical_formula_sum   'Nd2 Th1 Mg2 Al1 Ir3'
_cell_volume   196.40375212
_cell_formula_units_Z   1
loop_
 _symmetry_equiv_pos_site_id
 _symmetry_equiv_pos_as_xyz
  1  'x, y, z'
loop_
 _atom_site_type_symbol
 _atom_site_label
 _atom_site_symmetry_multiplicity
 _atom_site_fract_x
 _atom_site_fract_y
 _atom_site_fract_z
 _atom_site_occupancy
  Nd  Nd0  1  0.410940  0.006260  0.500000  1
  Nd  Nd1  1  0.006260  0.410940  0.500000  1
  Th  Th2  1  0.571357  0.571357  0.500000  1
  Mg  Mg3  1  0.757740  0.001810  0.000000  1
  Mg  Mg4  1  0.001810  0.757740  0.000000  1
  Al  Al5  1  0.231918  0.231918  0.000000  1
  Ir  Ir6  1  0.346856  0.652784  0.000000  1
  Ir  Ir7  1  0.652784  0.346856  0.000000  1
  Ir  Ir8  1  0.020337  0.020337  0.500000  1
