# generated using pymatgen
data_TbDy(Al3Ni)6
_symmetry_space_group_name_H-M   'P 1'
_cell_length_a   10.07491258
_cell_length_b   10.07491417
_cell_length_c   10.07491300
_cell_angle_alpha   42.38835298
_cell_angle_beta   42.38835995
_cell_angle_gamma   42.38835322
_symmetry_Int_Tables_number   1
_chemical_formula_structural   TbDy(Al3Ni)6
_chemical_formula_sum   'Tb1 Dy1 Al18 Ni6'
_cell_volume   420.74736568
_cell_formula_units_Z   1
loop_
 _symmetry_equiv_pos_site_id
 _symmetry_equiv_pos_as_xyz
  1  'x, y, z'
loop_
 _atom_site_type_symbol
 _atom_site_label
 _atom_site_symmetry_multiplicity
 _atom_site_fract_x
 _atom_site_fract_y
 _atom_site_fract_z
 _atom_site_occupancy
  Tb  Tb0  1  0.833102  0.833102  0.833102  1
  Dy  Dy1  1  0.166905  0.166905  0.166905  1
  Al  Al2  1  0.102722  0.431678  0.761532  1
  Al  Al3  1  0.431678  0.761532  0.102722  1
  Al  Al4  1  0.568318  0.897421  0.238394  1
  Al  Al5  1  0.948132  0.948132  0.948132  1
  Al  Al6  1  0.051858  0.051858  0.051858  1
  Al  Al7  1  0.292266  0.707941  0.499690  1
  Al  Al8  1  0.897421  0.238394  0.568318  1
  Al  Al9  1  0.386900  0.386900  0.386900  1
  Al  Al10  1  0.499690  0.292266  0.707941  1
  Al  Al11  1  0.238394  0.568318  0.897421  1
  Al  Al12  1  0.718167  0.718167  0.718167  1
  Al  Al13  1  0.613105  0.613105  0.613105  1
  Al  Al14  1  0.334397  0.999960  0.665531  1
  Al  Al15  1  0.707941  0.499690  0.292266  1
  Al  Al16  1  0.665531  0.334397  0.999960  1
  Al  Al17  1  0.281858  0.281858  0.281858  1
  Al  Al18  1  0.999960  0.665531  0.334397  1
  Al  Al19  1  0.761532  0.102722  0.431678  1
  Ni  Ni20  1  0.418090  0.078508  0.758116  1
  Ni  Ni21  1  0.581607  0.242145  0.921654  1
  Ni  Ni22  1  0.078508  0.758116  0.418090  1
  Ni  Ni23  1  0.758116  0.418090  0.078508  1
  Ni  Ni24  1  0.921654  0.581607  0.242145  1
  Ni  Ni25  1  0.242145  0.921654  0.581607  1
