# generated using pymatgen
data_Ho8Tm4InCo4Pt
_symmetry_space_group_name_H-M   'P 1'
_cell_length_a   8.25802366
_cell_length_b   8.25802324
_cell_length_c   8.25802322
_cell_angle_alpha   111.11651942
_cell_angle_beta   110.45701667
_cell_angle_gamma   106.87170329
_symmetry_Int_Tables_number   1
_chemical_formula_structural   Ho8Tm4InCo4Pt
_chemical_formula_sum   'Ho8 Tm4 In1 Co4 Pt1'
_cell_volume   432.83678957
_cell_formula_units_Z   1
loop_
 _symmetry_equiv_pos_site_id
 _symmetry_equiv_pos_as_xyz
  1  'x, y, z'
loop_
 _atom_site_type_symbol
 _atom_site_label
 _atom_site_symmetry_multiplicity
 _atom_site_fract_x
 _atom_site_fract_y
 _atom_site_fract_z
 _atom_site_occupancy
  Ho  Ho0  1  0.186288  0.291473  0.477761  1
  Ho  Ho1  1  0.813712  0.708527  0.522239  1
  Ho  Ho2  1  0.186288  0.708527  0.894817  1
  Ho  Ho3  1  0.813712  0.291473  0.105183  1
  Ho  Ho4  1  0.414343  0.215569  0.198774  1
  Ho  Ho5  1  0.585657  0.784431  0.801226  1
  Ho  Ho6  1  0.016795  0.215569  0.801226  1
  Ho  Ho7  1  0.983205  0.784431  0.198774  1
  Tm  Tm8  1  0.315739  0.621331  0.305592  1
  Tm  Tm9  1  0.684261  0.378669  0.694408  1
  Tm  Tm10  1  0.315739  0.010146  0.694408  1
  Tm  Tm11  1  0.684261  0.989854  0.305592  1
  In  In12  1  0.500000  0.500000  0.000000  1
  Co  Co13  1  0.112469  0.612469  0.500000  1
  Co  Co14  1  0.887531  0.387531  0.500000  1
  Co  Co15  1  0.380017  0.000000  0.380017  1
  Co  Co16  1  0.619983  0.000000  0.619983  1
  Pt  Pt17  1  0.000000  0.000000  0.000000  1
