# generated using pymatgen
data_Tb16Er4Ir11Au
_symmetry_space_group_name_H-M   'P 1'
_cell_length_a   10.97968904
_cell_length_b   10.97968904
_cell_length_c   6.36268632
_cell_angle_alpha   89.97504283
_cell_angle_beta   89.97504283
_cell_angle_gamma   89.66902884
_symmetry_Int_Tables_number   1
_chemical_formula_structural   Tb16Er4Ir11Au
_chemical_formula_sum   'Tb16 Er4 Ir11 Au1'
_cell_volume   767.03161746
_cell_formula_units_Z   1
loop_
 _symmetry_equiv_pos_site_id
 _symmetry_equiv_pos_as_xyz
  1  'x, y, z'
loop_
 _atom_site_type_symbol
 _atom_site_label
 _atom_site_symmetry_multiplicity
 _atom_site_fract_x
 _atom_site_fract_y
 _atom_site_fract_z
 _atom_site_occupancy
  Tb  Tb0  1  0.289854  0.087932  0.377380  1
  Tb  Tb1  1  0.291886  0.911473  0.876622  1
  Tb  Tb2  1  0.704885  0.084681  0.866605  1
  Tb  Tb3  1  0.706460  0.905386  0.380118  1
  Tb  Tb4  1  0.587642  0.790128  0.879068  1
  Tb  Tb5  1  0.580144  0.210796  0.379204  1
  Tb  Tb6  1  0.411360  0.790557  0.377813  1
  Tb  Tb7  1  0.410693  0.209433  0.878292  1
  Tb  Tb8  1  0.209872  0.412358  0.620932  1
  Tb  Tb9  1  0.209443  0.588640  0.122187  1
  Tb  Tb10  1  0.789204  0.419856  0.120796  1
  Tb  Tb11  1  0.790567  0.589307  0.621708  1
  Tb  Tb12  1  0.912068  0.710146  0.122620  1
  Tb  Tb13  1  0.915319  0.295115  0.633395  1
  Tb  Tb14  1  0.088527  0.708114  0.623378  1
  Tb  Tb15  1  0.094614  0.293540  0.119882  1
  Er  Er16  1  0.003661  0.995914  0.502173  1
  Er  Er17  1  0.004086  0.996339  0.997827  1
  Er  Er18  1  0.499255  0.499833  0.999257  1
  Er  Er19  1  0.500167  0.500745  0.500743  1
  Ir  Ir20  1  0.848183  0.849327  0.749645  1
  Ir  Ir21  1  0.150673  0.151817  0.750355  1
  Ir  Ir22  1  0.153089  0.846911  0.250000  1
  Ir  Ir23  1  0.653490  0.346510  0.750000  1
  Ir  Ir24  1  0.652198  0.651387  0.249107  1
  Ir  Ir25  1  0.348613  0.347802  0.250893  1
  Ir  Ir26  1  0.347757  0.652243  0.750000  1
  Ir  Ir27  1  0.500790  0.000184  0.123838  1
  Ir  Ir28  1  0.500001  0.000441  0.620935  1
  Ir  Ir29  1  0.999559  0.499999  0.879065  1
  Ir  Ir30  1  0.999816  0.499210  0.376162  1
  Au  Au31  1  0.846124  0.153876  0.250000  1
