# generated using pymatgen
data_Ac4LaAu6
_symmetry_space_group_name_H-M   'P 1'
_cell_length_a   17.41029900
_cell_length_b   17.41030053
_cell_length_c   4.38933400
_cell_angle_alpha   90.00000000
_cell_angle_beta   90.00000000
_cell_angle_gamma   166.04770182
_symmetry_Int_Tables_number   1
_chemical_formula_structural   Ac4LaAu6
_chemical_formula_sum   'Ac4 La1 Au6'
_cell_volume   320.79938983
_cell_formula_units_Z   1
loop_
 _symmetry_equiv_pos_site_id
 _symmetry_equiv_pos_as_xyz
  1  'x, y, z'
loop_
 _atom_site_type_symbol
 _atom_site_label
 _atom_site_symmetry_multiplicity
 _atom_site_fract_x
 _atom_site_fract_y
 _atom_site_fract_z
 _atom_site_occupancy
  Ac  Ac0  1  0.611842  0.388158  0.000000  1
  Ac  Ac1  1  0.388158  0.611842  0.000000  1
  Ac  Ac2  1  0.803241  0.196758  0.500000  1
  Ac  Ac3  1  0.196758  0.803241  0.500000  1
  La  La4  1  0.000000  0.000000  0.000000  1
  Au  Au5  1  0.719292  0.280708  0.000000  1
  Au  Au6  1  0.280708  0.719292  0.000000  1
  Au  Au7  1  0.901923  0.098077  0.500000  1
  Au  Au8  1  0.539983  0.460016  0.500000  1
  Au  Au9  1  0.460016  0.539983  0.500000  1
  Au  Au10  1  0.098077  0.901923  0.500000  1
