# generated using pymatgen
data_DyTaN2
_symmetry_space_group_name_H-M   'P 1'
_cell_length_a   3.25214100
_cell_length_b   5.67534300
_cell_length_c   10.99374800
_cell_angle_alpha   90.00000000
_cell_angle_beta   90.00000000
_cell_angle_gamma   90.00000000
_symmetry_Int_Tables_number   1
_chemical_formula_structural   DyTaN2
_chemical_formula_sum   'Dy4 Ta4 N8'
_cell_volume   202.91177899
_cell_formula_units_Z   4
loop_
 _symmetry_equiv_pos_site_id
 _symmetry_equiv_pos_as_xyz
  1  'x, y, z'
loop_
 _atom_site_type_symbol
 _atom_site_label
 _atom_site_symmetry_multiplicity
 _atom_site_fract_x
 _atom_site_fract_y
 _atom_site_fract_z
 _atom_site_occupancy
  Dy  Dy0  1  0.250000  0.588653  0.863739  1
  Dy  Dy1  1  0.750000  0.411347  0.136261  1
  Dy  Dy2  1  0.750000  0.911347  0.363739  1
  Dy  Dy3  1  0.250000  0.088653  0.636261  1
  Ta  Ta4  1  0.250000  0.917648  0.112993  1
  Ta  Ta5  1  0.750000  0.082352  0.887007  1
  Ta  Ta6  1  0.750000  0.582352  0.612993  1
  Ta  Ta7  1  0.250000  0.417648  0.387007  1
  N  N8  1  0.250000  0.661382  0.243769  1
  N  N9  1  0.750000  0.338618  0.756231  1
  N  N10  1  0.750000  0.838618  0.743769  1
  N  N11  1  0.250000  0.161382  0.256231  1
  N  N12  1  0.250000  0.743043  0.504588  1
  N  N13  1  0.750000  0.256957  0.495412  1
  N  N14  1  0.750000  0.756957  0.004588  1
  N  N15  1  0.250000  0.243043  0.995412  1
