# generated using pymatgen
data_Dy4Er4Mn(B8Os)3
_symmetry_space_group_name_H-M   'P 1'
_cell_length_a   3.62471900
_cell_length_b   9.11444800
_cell_length_c   11.50030900
_cell_angle_alpha   90.02554460
_cell_angle_beta   90.00000000
_cell_angle_gamma   90.00000000
_symmetry_Int_Tables_number   1
_chemical_formula_structural   Dy4Er4Mn(B8Os)3
_chemical_formula_sum   'Dy4 Er4 Mn1 B24 Os3'
_cell_volume   379.93926858
_cell_formula_units_Z   1
loop_
 _symmetry_equiv_pos_site_id
 _symmetry_equiv_pos_as_xyz
  1  'x, y, z'
loop_
 _atom_site_type_symbol
 _atom_site_label
 _atom_site_symmetry_multiplicity
 _atom_site_fract_x
 _atom_site_fract_y
 _atom_site_fract_z
 _atom_site_occupancy
  Dy  Dy0  1  0.000000  0.325005  0.412602  1
  Dy  Dy1  1  0.000000  0.676807  0.582135  1
  Dy  Dy2  1  0.000000  0.820134  0.088477  1
  Dy  Dy3  1  0.000000  0.178144  0.914897  1
  Er  Er4  1  0.000000  0.939378  0.371548  1
  Er  Er5  1  0.000000  0.056752  0.626920  1
  Er  Er6  1  0.000000  0.446124  0.130687  1
  Er  Er7  1  0.000000  0.556898  0.872437  1
  Mn  Mn8  1  0.000000  0.637752  0.320947  1
  B  B9  1  0.500000  0.554276  0.431198  1
  B  B10  1  0.500000  0.446683  0.566611  1
  B  B11  1  0.500000  0.053751  0.067551  1
  B  B12  1  0.500000  0.946620  0.933034  1
  B  B13  1  0.500000  0.746073  0.417308  1
  B  B14  1  0.500000  0.251757  0.580250  1
  B  B15  1  0.500000  0.249315  0.081349  1
  B  B16  1  0.500000  0.751709  0.919542  1
  B  B17  1  0.500000  0.789006  0.266732  1
  B  B18  1  0.500000  0.209056  0.733662  1
  B  B19  1  0.500000  0.291382  0.234192  1
  B  B20  1  0.500000  0.709199  0.766004  1
  B  B21  1  0.500000  0.631239  0.187119  1
  B  B22  1  0.500000  0.369122  0.814848  1
  B  B23  1  0.500000  0.130535  0.314548  1
  B  B24  1  0.500000  0.868812  0.684963  1
  B  B25  1  0.500000  0.982156  0.213161  1
  B  B26  1  0.500000  0.017385  0.787062  1
  B  B27  1  0.500000  0.485442  0.288059  1
  B  B28  1  0.500000  0.517362  0.712682  1
  B  B29  1  0.500000  0.605648  0.029698  1
  B  B30  1  0.500000  0.395142  0.971411  1
  B  B31  1  0.500000  0.105116  0.470254  1
  B  B32  1  0.500000  0.893924  0.528882  1
  Os  Os33  1  0.000000  0.361955  0.679464  1
  Os  Os34  1  0.000000  0.137791  0.178670  1
  Os  Os35  1  0.000000  0.862545  0.821099  1
