# generated using pymatgen
data_Dy5In2BiS
_symmetry_space_group_name_H-M   'P 1'
_cell_length_a   9.09949500
_cell_length_b   9.11598432
_cell_length_c   6.60493900
_cell_angle_alpha   90.00000000
_cell_angle_beta   90.00000000
_cell_angle_gamma   120.05995683
_symmetry_Int_Tables_number   1
_chemical_formula_structural   Dy5In2BiS
_chemical_formula_sum   'Dy10 In4 Bi2 S2'
_cell_volume   474.19568805
_cell_formula_units_Z   2
loop_
 _symmetry_equiv_pos_site_id
 _symmetry_equiv_pos_as_xyz
  1  'x, y, z'
loop_
 _atom_site_type_symbol
 _atom_site_label
 _atom_site_symmetry_multiplicity
 _atom_site_fract_x
 _atom_site_fract_y
 _atom_site_fract_z
 _atom_site_occupancy
  Dy  Dy0  1  0.669942  0.336638  0.005520  1
  Dy  Dy1  1  0.330058  0.666697  0.005520  1
  Dy  Dy2  1  0.330058  0.666697  0.494480  1
  Dy  Dy3  1  0.669942  0.336638  0.494480  1
  Dy  Dy4  1  0.760476  0.754926  0.750000  1
  Dy  Dy5  1  0.239524  0.994451  0.750000  1
  Dy  Dy6  1  0.000000  0.244235  0.750000  1
  Dy  Dy7  1  0.243974  0.242419  0.250000  1
  Dy  Dy8  1  0.756026  0.998445  0.250000  1
  Dy  Dy9  1  0.000000  0.754997  0.250000  1
  In  In10  1  0.000000  0.599999  0.750000  1
  In  In11  1  0.603138  0.604500  0.250000  1
  In  In12  1  0.396862  0.001363  0.250000  1
  In  In13  1  0.000000  0.398105  0.250000  1
  Bi  Bi14  1  0.397071  0.396991  0.750000  1
  Bi  Bi15  1  0.602929  0.999919  0.750000  1
  S  S16  1  0.000000  0.001489  0.998144  1
  S  S17  1  0.000000  0.001489  0.501856  1
