# generated using pymatgen
data_Ho2GaB2IrRu4
_symmetry_space_group_name_H-M   'P 1'
_cell_length_a   9.58788133
_cell_length_b   9.58151733
_cell_length_c   3.09785400
_cell_angle_alpha   90.00000000
_cell_angle_beta   90.00000000
_cell_angle_gamma   90.03027775
_symmetry_Int_Tables_number   1
_chemical_formula_structural   Ho2GaB2IrRu4
_chemical_formula_sum   'Ho4 Ga2 B4 Ir2 Ru8'
_cell_volume   284.58881361
_cell_formula_units_Z   2
loop_
 _symmetry_equiv_pos_site_id
 _symmetry_equiv_pos_as_xyz
  1  'x, y, z'
loop_
 _atom_site_type_symbol
 _atom_site_label
 _atom_site_symmetry_multiplicity
 _atom_site_fract_x
 _atom_site_fract_y
 _atom_site_fract_z
 _atom_site_occupancy
  Ho  Ho0  1  0.822266  0.323966  0.000000  1
  Ho  Ho1  1  0.177734  0.676034  0.000000  1
  Ho  Ho2  1  0.326398  0.174759  0.000000  1
  Ho  Ho3  1  0.673602  0.825241  0.000000  1
  Ga  Ga4  1  0.500000  0.500000  0.000000  1
  Ga  Ga5  1  0.000000  0.000000  0.000000  1
  B  B6  1  0.623062  0.122835  0.000000  1
  B  B7  1  0.376938  0.877165  0.000000  1
  B  B8  1  0.123611  0.379212  0.000000  1
  B  B9  1  0.876389  0.620788  0.000000  1
  Ir  Ir10  1  0.069201  0.217691  0.500000  1
  Ir  Ir11  1  0.930799  0.782309  0.500000  1
  Ru  Ru12  1  0.500000  0.000000  0.500000  1
  Ru  Ru13  1  0.000000  0.500000  0.500000  1
  Ru  Ru14  1  0.717983  0.569170  0.500000  1
  Ru  Ru15  1  0.282017  0.430830  0.500000  1
  Ru  Ru16  1  0.217041  0.931462  0.500000  1
  Ru  Ru17  1  0.782959  0.068538  0.500000  1
  Ru  Ru18  1  0.430678  0.717351  0.500000  1
  Ru  Ru19  1  0.569322  0.282649  0.500000  1
