# generated using pymatgen
data_Tb4B16Ru11Rh5
_symmetry_space_group_name_H-M   'P 1'
_cell_length_a   9.22348040
_cell_length_b   7.51312122
_cell_length_c   7.50413693
_cell_angle_alpha   89.95004209
_cell_angle_beta   113.93121709
_cell_angle_gamma   114.32774178
_symmetry_Int_Tables_number   1
_chemical_formula_structural   Tb4B16Ru11Rh5
_chemical_formula_sum   'Tb4 B16 Ru11 Rh5'
_cell_volume   424.39087351
_cell_formula_units_Z   1
loop_
 _symmetry_equiv_pos_site_id
 _symmetry_equiv_pos_as_xyz
  1  'x, y, z'
loop_
 _atom_site_type_symbol
 _atom_site_label
 _atom_site_symmetry_multiplicity
 _atom_site_fract_x
 _atom_site_fract_y
 _atom_site_fract_z
 _atom_site_occupancy
  Tb  Tb0  1  0.748803  0.874353  0.123271  1
  Tb  Tb1  1  0.252155  0.626302  0.373725  1
  Tb  Tb2  1  0.749744  0.376502  0.624829  1
  Tb  Tb3  1  0.247727  0.123985  0.875311  1
  B  B4  1  0.910711  0.284497  0.067146  1
  B  B5  1  0.413197  0.564149  0.123682  1
  B  B6  1  0.082718  0.211132  0.152311  1
  B  B7  1  0.588153  0.147950  0.211258  1
  B  B8  1  0.416499  0.059299  0.293083  1
  B  B9  1  0.918140  0.624728  0.360462  1
  B  B10  1  0.586599  0.654386  0.376064  1
  B  B11  1  0.086686  0.878649  0.442931  1
  B  B12  1  0.913824  0.125986  0.563841  1
  B  B13  1  0.410425  0.344667  0.626387  1
  B  B14  1  0.086990  0.375111  0.653485  1
  B  B15  1  0.588162  0.936245  0.711837  1
  B  B16  1  0.414328  0.846150  0.783394  1
  B  B17  1  0.912797  0.790209  0.843714  1
  B  B18  1  0.584645  0.431586  0.871193  1
  B  B19  1  0.083398  0.708469  0.929229  1
  Ru  Ru20  1  0.872883  0.324371  0.334379  1
  Ru  Ru21  1  0.626007  0.960589  0.448920  1
  Ru  Ru22  1  0.126817  0.179289  0.460413  1
  Ru  Ru23  1  0.874825  0.825411  0.539290  1
  Ru  Ru24  1  0.371472  0.037766  0.548639  1
  Ru  Ru25  1  0.128737  0.676850  0.667519  1
  Ru  Ru26  1  0.625865  0.665900  0.677417  1
  Ru  Ru27  1  0.373559  0.536635  0.822797  1
  Ru  Ru28  1  0.874136  0.052949  0.833403  1
  Ru  Ru29  1  0.627190  0.168417  0.948846  1
  Ru  Ru30  1  0.127593  0.450880  0.962492  1
  Rh  Rh31  1  0.875996  0.553624  0.040032  1
  Rh  Rh32  1  0.378145  0.839186  0.050795  1
  Rh  Rh33  1  0.121647  0.946999  0.161767  1
  Rh  Rh34  1  0.625444  0.462485  0.176223  1
  Rh  Rh35  1  0.373982  0.334294  0.319912  1
