# generated using pymatgen
data_Yb2SmHo(Pt2O7)2
_symmetry_space_group_name_H-M   'P 1'
_cell_length_a   7.29007064
_cell_length_b   7.28451295
_cell_length_c   7.27906011
_cell_angle_alpha   59.97522414
_cell_angle_beta   59.99447388
_cell_angle_gamma   60.02521041
_symmetry_Int_Tables_number   1
_chemical_formula_structural   Yb2SmHo(Pt2O7)2
_chemical_formula_sum   'Yb2 Sm1 Ho1 Pt4 O14'
_cell_volume   273.32268870
_cell_formula_units_Z   1
loop_
 _symmetry_equiv_pos_site_id
 _symmetry_equiv_pos_as_xyz
  1  'x, y, z'
loop_
 _atom_site_type_symbol
 _atom_site_label
 _atom_site_symmetry_multiplicity
 _atom_site_fract_x
 _atom_site_fract_y
 _atom_site_fract_z
 _atom_site_occupancy
  Yb  Yb0  1  0.625000  0.625000  0.625000  1
  Yb  Yb1  1  0.625000  0.125000  0.625000  1
  Sm  Sm2  1  0.125000  0.625000  0.625000  1
  Ho  Ho3  1  0.625000  0.625000  0.125000  1
  Pt  Pt4  1  0.125000  0.125000  0.125000  1
  Pt  Pt5  1  0.625000  0.125000  0.125000  1
  Pt  Pt6  1  0.125000  0.625000  0.125000  1
  Pt  Pt7  1  0.125000  0.125000  0.625000  1
  O  O8  1  0.040978  0.459639  0.458987  1
  O  O9  1  0.790129  0.789926  0.204242  1
  O  O10  1  0.790129  0.215703  0.204242  1
  O  O11  1  0.458251  0.042080  0.457591  1
  O  O12  1  0.746997  0.747341  0.758323  1
  O  O13  1  0.040978  0.040397  0.458987  1
  O  O14  1  0.034049  0.460962  0.044026  1
  O  O15  1  0.791749  0.207920  0.792409  1
  O  O16  1  0.215951  0.789038  0.205974  1
  O  O17  1  0.209022  0.209603  0.791013  1
  O  O18  1  0.503003  0.502659  0.491677  1
  O  O19  1  0.459871  0.034297  0.045758  1
  O  O20  1  0.459871  0.460074  0.045758  1
  O  O21  1  0.209022  0.790361  0.791013  1
