# generated using pymatgen
data_Ac12Ga3SiI12
_symmetry_space_group_name_H-M   'P 1'
_cell_length_a   11.51154539
_cell_length_b   11.48118869
_cell_length_c   11.48118902
_cell_angle_alpha   109.41759715
_cell_angle_beta   109.52479372
_cell_angle_gamma   109.52479296
_symmetry_Int_Tables_number   1
_chemical_formula_structural   Ac12Ga3SiI12
_chemical_formula_sum   'Ac12 Ga3 Si1 I12'
_cell_volume   1167.34138749
_cell_formula_units_Z   1
loop_
 _symmetry_equiv_pos_site_id
 _symmetry_equiv_pos_as_xyz
  1  'x, y, z'
loop_
 _atom_site_type_symbol
 _atom_site_label
 _atom_site_symmetry_multiplicity
 _atom_site_fract_x
 _atom_site_fract_y
 _atom_site_fract_z
 _atom_site_occupancy
  Ac  Ac0  1  0.470367  0.486564  0.233858  1
  Ac  Ac1  1  0.750000  0.236448  0.263552  1
  Ac  Ac2  1  0.750000  0.013494  0.486506  1
  Ac  Ac3  1  0.236506  0.473011  0.486506  1
  Ac  Ac4  1  0.263491  0.747294  0.233858  1
  Ac  Ac5  1  0.029633  0.266142  0.013436  1
  Ac  Ac6  1  0.013552  0.027103  0.263552  1
  Ac  Ac7  1  0.483803  0.747294  0.013436  1
  Ac  Ac8  1  0.486448  0.236448  0.472897  1
  Ac  Ac9  1  0.016197  0.486564  0.752706  1
  Ac  Ac10  1  0.263494  0.013494  0.026989  1
  Ac  Ac11  1  0.236509  0.266142  0.752706  1
  Ga  Ga12  1  0.250000  0.250322  0.249678  1
  Ga  Ga13  1  0.499678  0.999356  0.249678  1
  Ga  Ga14  1  0.000322  0.250322  0.500644  1
  Si  Si15  1  0.250000  0.500000  0.000000  1
  I  I16  1  0.250000  0.757716  0.742284  1
  I  I17  1  0.515755  0.508028  0.758443  1
  I  I18  1  0.984245  0.741557  0.991972  1
  I  I19  1  0.742689  0.250415  0.758443  1
  I  I20  1  0.992284  0.984567  0.742284  1
  I  I21  1  0.250000  0.991913  0.508087  1
  I  I22  1  0.758087  0.516174  0.508087  1
  I  I23  1  0.507727  0.250415  0.991972  1
  I  I24  1  0.757311  0.741557  0.249585  1
  I  I25  1  0.741913  0.991913  0.983826  1
  I  I26  1  0.992273  0.508028  0.249585  1
  I  I27  1  0.507716  0.757716  0.515433  1
