# generated using pymatgen
data_Y12TcIrOs2
_symmetry_space_group_name_H-M   'P 1'
_cell_length_a   6.36358940
_cell_length_b   7.42936477
_cell_length_c   9.17108500
_cell_angle_alpha   90.00000000
_cell_angle_beta   90.00000000
_cell_angle_gamma   90.10321326
_symmetry_Int_Tables_number   1
_chemical_formula_structural   Y12TcIrOs2
_chemical_formula_sum   'Y12 Tc1 Ir1 Os2'
_cell_volume   433.58459732
_cell_formula_units_Z   1
loop_
 _symmetry_equiv_pos_site_id
 _symmetry_equiv_pos_as_xyz
  1  'x, y, z'
loop_
 _atom_site_type_symbol
 _atom_site_label
 _atom_site_symmetry_multiplicity
 _atom_site_fract_x
 _atom_site_fract_y
 _atom_site_fract_z
 _atom_site_occupancy
  Y  Y0  1  0.332467  0.674065  0.063541  1
  Y  Y1  1  0.169941  0.175585  0.434094  1
  Y  Y2  1  0.667708  0.326307  0.562157  1
  Y  Y3  1  0.832009  0.824079  0.937875  1
  Y  Y4  1  0.667708  0.326307  0.937843  1
  Y  Y5  1  0.832009  0.824079  0.562125  1
  Y  Y6  1  0.332467  0.674065  0.436459  1
  Y  Y7  1  0.169941  0.175585  0.065906  1
  Y  Y8  1  0.869447  0.540026  0.250000  1
  Y  Y9  1  0.628500  0.040092  0.250000  1
  Y  Y10  1  0.133404  0.460539  0.750000  1
  Y  Y11  1  0.367203  0.958800  0.750000  1
  Tc  Tc12  1  0.036373  0.884301  0.250000  1
  Ir  Ir13  1  0.958801  0.117610  0.750000  1
  Os  Os14  1  0.461532  0.382096  0.250000  1
  Os  Os15  1  0.540489  0.616464  0.750000  1
