# generated using pymatgen
data_Lu2PaSn3IrRh2
_symmetry_space_group_name_H-M   'P 1'
_cell_length_a   7.53196153
_cell_length_b   7.51281110
_cell_length_c   3.82284400
_cell_angle_alpha   90.00000000
_cell_angle_beta   90.00000000
_cell_angle_gamma   119.40974979
_symmetry_Int_Tables_number   1
_chemical_formula_structural   Lu2PaSn3IrRh2
_chemical_formula_sum   'Lu2 Pa1 Sn3 Ir1 Rh2'
_cell_volume   188.44309987
_cell_formula_units_Z   1
loop_
 _symmetry_equiv_pos_site_id
 _symmetry_equiv_pos_as_xyz
  1  'x, y, z'
loop_
 _atom_site_type_symbol
 _atom_site_label
 _atom_site_symmetry_multiplicity
 _atom_site_fract_x
 _atom_site_fract_y
 _atom_site_fract_z
 _atom_site_occupancy
  Lu  Lu0  1  0.597801  0.002757  0.500000  1
  Lu  Lu1  1  0.994432  0.593456  0.500000  1
  Pa  Pa2  1  0.412551  0.411588  0.500000  1
  Sn  Sn3  1  0.752936  0.755832  0.000000  1
  Sn  Sn4  1  0.258733  0.981999  0.000000  1
  Sn  Sn5  1  0.987666  0.261033  0.000000  1
  Ir  Ir6  1  0.645074  0.335850  0.000000  1
  Rh  Rh7  1  0.337102  0.644755  0.000000  1
  Rh  Rh8  1  0.013706  0.012731  0.500000  1
