# generated using pymatgen
data_HfZr5Sn6Ir5Au
_symmetry_space_group_name_H-M   'P 1'
_cell_length_a   7.38047911
_cell_length_b   7.36104288
_cell_length_c   7.57709836
_cell_angle_alpha   89.94065014
_cell_angle_beta   89.99966220
_cell_angle_gamma   119.98207787
_symmetry_Int_Tables_number   1
_chemical_formula_structural   HfZr5Sn6Ir5Au
_chemical_formula_sum   'Hf1 Zr5 Sn6 Ir5 Au1'
_cell_volume   356.56240477
_cell_formula_units_Z   1
loop_
 _symmetry_equiv_pos_site_id
 _symmetry_equiv_pos_as_xyz
  1  'x, y, z'
loop_
 _atom_site_type_symbol
 _atom_site_label
 _atom_site_symmetry_multiplicity
 _atom_site_fract_x
 _atom_site_fract_y
 _atom_site_fract_z
 _atom_site_occupancy
  Hf  Hf0  1  0.397467  0.009852  0.241195  1
  Zr  Zr1  1  0.587149  0.622702  0.755885  1
  Zr  Zr2  1  0.613835  0.599830  0.242352  1
  Zr  Zr3  1  0.986820  0.386334  0.242578  1
  Zr  Zr4  1  0.035207  0.412817  0.755714  1
  Zr  Zr5  1  0.376858  0.964000  0.756480  1
  Sn  Sn6  1  0.265607  0.268225  0.495186  1
  Sn  Sn7  1  0.270055  0.266517  0.997322  1
  Sn  Sn8  1  0.735388  0.004354  0.998135  1
  Sn  Sn9  1  0.001691  0.734352  0.495728  1
  Sn  Sn10  1  0.733788  0.998384  0.494586  1
  Sn  Sn11  1  0.994394  0.728756  0.997160  1
  Ir  Ir12  1  0.664773  0.331434  0.972696  1
  Ir  Ir13  1  0.333787  0.669820  0.044636  1
  Ir  Ir14  1  0.334158  0.670247  0.463869  1
  Ir  Ir15  1  0.000390  0.000072  0.746869  1
  Ir  Ir16  1  0.002723  0.999668  0.245491  1
  Au  Au17  1  0.665914  0.332634  0.554122  1
