# generated using pymatgen
data_Cs5Fe3S7
_symmetry_space_group_name_H-M   'P 1'
_cell_length_a   10.62399767
_cell_length_b   10.62399723
_cell_length_c   9.04960148
_cell_angle_alpha   79.25535738
_cell_angle_beta   79.25535865
_cell_angle_gamma   74.62893686
_symmetry_Int_Tables_number   1
_chemical_formula_structural   Cs5Fe3S7
_chemical_formula_sum   'Cs10 Fe6 S14'
_cell_volume   957.44410886
_cell_formula_units_Z   2
loop_
 _symmetry_equiv_pos_site_id
 _symmetry_equiv_pos_as_xyz
  1  'x, y, z'
loop_
 _atom_site_type_symbol
 _atom_site_label
 _atom_site_symmetry_multiplicity
 _atom_site_fract_x
 _atom_site_fract_y
 _atom_site_fract_z
 _atom_site_occupancy
  Cs  Cs0  1  0.040023  0.429083  0.727727  1
  Cs  Cs1  1  0.429083  0.040023  0.727727  1
  Cs  Cs2  1  0.959977  0.570917  0.272273  1
  Cs  Cs3  1  0.570917  0.959977  0.272273  1
  Cs  Cs4  1  0.295102  0.704898  0.000000  1
  Cs  Cs5  1  0.704898  0.295102  0.000000  1
  Cs  Cs6  1  0.847650  0.152350  0.500000  1
  Cs  Cs7  1  0.152350  0.847650  0.500000  1
  Cs  Cs8  1  0.429678  0.429678  0.690753  1
  Cs  Cs9  1  0.570322  0.570322  0.309247  1
  Fe  Fe10  1  0.206133  0.206133  0.184624  1
  Fe  Fe11  1  0.793867  0.793867  0.815376  1
  Fe  Fe12  1  0.067459  0.067459  0.057192  1
  Fe  Fe13  1  0.932541  0.932541  0.942808  1
  Fe  Fe14  1  0.333286  0.333286  0.324839  1
  Fe  Fe15  1  0.666714  0.666714  0.675161  1
  S  S16  1  0.008089  0.266634  0.119241  1
  S  S17  1  0.266634  0.008089  0.119241  1
  S  S18  1  0.991911  0.733366  0.880759  1
  S  S19  1  0.733366  0.991911  0.880759  1
  S  S20  1  0.197342  0.197342  0.432145  1
  S  S21  1  0.802658  0.802658  0.567855  1
  S  S22  1  0.059638  0.059638  0.821642  1
  S  S23  1  0.940362  0.940362  0.178358  1
  S  S24  1  0.337900  0.337900  0.071667  1
  S  S25  1  0.662100  0.662100  0.928333  1
  S  S26  1  0.250927  0.536495  0.388634  1
  S  S27  1  0.536495  0.250927  0.388634  1
  S  S28  1  0.749073  0.463505  0.611366  1
  S  S29  1  0.463505  0.749073  0.611366  1
