# generated using pymatgen
data_ThCoP3Rh4
_symmetry_space_group_name_H-M   'P 1'
_cell_length_a   3.91322100
_cell_length_b   10.88112000
_cell_length_c   12.44742000
_cell_angle_alpha   90.00000000
_cell_angle_beta   90.00000000
_cell_angle_gamma   90.00000000
_symmetry_Int_Tables_number   1
_chemical_formula_structural   ThCoP3Rh4
_chemical_formula_sum   'Th4 Co4 P12 Rh16'
_cell_volume   530.01397274
_cell_formula_units_Z   4
loop_
 _symmetry_equiv_pos_site_id
 _symmetry_equiv_pos_as_xyz
  1  'x, y, z'
loop_
 _atom_site_type_symbol
 _atom_site_label
 _atom_site_symmetry_multiplicity
 _atom_site_fract_x
 _atom_site_fract_y
 _atom_site_fract_z
 _atom_site_occupancy
  Th  Th0  1  0.250000  0.584857  0.707501  1
  Th  Th1  1  0.250000  0.915143  0.207501  1
  Th  Th2  1  0.750000  0.415143  0.292499  1
  Th  Th3  1  0.750000  0.084857  0.792499  1
  Co  Co4  1  0.250000  0.466320  0.933793  1
  Co  Co5  1  0.250000  0.033680  0.433793  1
  Co  Co6  1  0.750000  0.533680  0.066207  1
  Co  Co7  1  0.750000  0.966320  0.566207  1
  P  P8  1  0.250000  0.423624  0.104188  1
  P  P9  1  0.250000  0.076376  0.604188  1
  P  P10  1  0.750000  0.576376  0.895812  1
  P  P11  1  0.750000  0.923624  0.395812  1
  P  P12  1  0.250000  0.276942  0.874794  1
  P  P13  1  0.250000  0.223058  0.374794  1
  P  P14  1  0.750000  0.723058  0.125206  1
  P  P15  1  0.750000  0.776942  0.625206  1
  P  P16  1  0.250000  0.603102  0.389184  1
  P  P17  1  0.250000  0.896898  0.889184  1
  P  P18  1  0.750000  0.396898  0.610816  1
  P  P19  1  0.750000  0.103102  0.110816  1
  Rh  Rh20  1  0.250000  0.714889  0.986620  1
  Rh  Rh21  1  0.250000  0.785111  0.486620  1
  Rh  Rh22  1  0.750000  0.285111  0.013380  1
  Rh  Rh23  1  0.750000  0.214889  0.513380  1
  Rh  Rh24  1  0.250000  0.408781  0.479662  1
  Rh  Rh25  1  0.250000  0.091219  0.979662  1
  Rh  Rh26  1  0.750000  0.591219  0.520338  1
  Rh  Rh27  1  0.750000  0.908781  0.020338  1
  Rh  Rh28  1  0.250000  0.227355  0.178360  1
  Rh  Rh29  1  0.250000  0.272645  0.678360  1
  Rh  Rh30  1  0.750000  0.772645  0.821640  1
  Rh  Rh31  1  0.750000  0.727355  0.321640  1
  Rh  Rh32  1  0.250000  0.886177  0.697173  1
  Rh  Rh33  1  0.250000  0.613823  0.197173  1
  Rh  Rh34  1  0.750000  0.113823  0.302827  1
  Rh  Rh35  1  0.750000  0.386177  0.802827  1
