# generated using pymatgen
data_Dy16InHg3Ir4
_symmetry_space_group_name_H-M   'P 1'
_cell_length_a   9.60738697
_cell_length_b   9.61600119
_cell_length_c   9.61600100
_cell_angle_alpha   59.99999721
_cell_angle_beta   59.97033266
_cell_angle_gamma   59.97033871
_symmetry_Int_Tables_number   1
_chemical_formula_structural   Dy16InHg3Ir4
_chemical_formula_sum   'Dy16 In1 Hg3 Ir4'
_cell_volume   627.89122257
_cell_formula_units_Z   1
loop_
 _symmetry_equiv_pos_site_id
 _symmetry_equiv_pos_as_xyz
  1  'x, y, z'
loop_
 _atom_site_type_symbol
 _atom_site_label
 _atom_site_symmetry_multiplicity
 _atom_site_fract_x
 _atom_site_fract_y
 _atom_site_fract_z
 _atom_site_occupancy
  Dy  Dy0  1  0.600105  0.599729  0.599729  1
  Dy  Dy1  1  0.600105  0.599729  0.200437  1
  Dy  Dy2  1  0.600105  0.200437  0.599729  1
  Dy  Dy3  1  0.199429  0.600190  0.600190  1
  Dy  Dy4  1  0.060619  0.439488  0.439488  1
  Dy  Dy5  1  0.439173  0.060037  0.060037  1
  Dy  Dy6  1  0.439173  0.060037  0.440754  1
  Dy  Dy7  1  0.060619  0.439488  0.060404  1
  Dy  Dy8  1  0.439173  0.440754  0.060037  1
  Dy  Dy9  1  0.060619  0.060404  0.439488  1
  Dy  Dy10  1  0.184667  0.812692  0.812692  1
  Dy  Dy11  1  0.811609  0.187782  0.187782  1
  Dy  Dy12  1  0.811609  0.187782  0.812827  1
  Dy  Dy13  1  0.184667  0.812692  0.189948  1
  Dy  Dy14  1  0.811609  0.812827  0.187782  1
  Dy  Dy15  1  0.184667  0.189948  0.812692  1
  In  In16  1  0.507273  0.830909  0.830909  1
  Hg  Hg17  1  0.834286  0.834418  0.834418  1
  Hg  Hg18  1  0.834286  0.834418  0.496878  1
  Hg  Hg19  1  0.834286  0.496878  0.834418  1
  Ir  Ir20  1  0.392130  0.391801  0.391801  1
  Ir  Ir21  1  0.392130  0.391801  0.824269  1
  Ir  Ir22  1  0.392130  0.824269  0.391801  1
  Ir  Ir23  1  0.825532  0.391490  0.391490  1
