# generated using pymatgen
data_Y6InSn5Pd6
_symmetry_space_group_name_H-M   'P 1'
_cell_length_a   7.69076300
_cell_length_b   7.71983978
_cell_length_c   7.72651916
_cell_angle_alpha   89.99408470
_cell_angle_beta   90.00000000
_cell_angle_gamma   119.87547891
_symmetry_Int_Tables_number   1
_chemical_formula_structural   Y6InSn5Pd6
_chemical_formula_sum   'Y6 In1 Sn5 Pd6'
_cell_volume   397.77345456
_cell_formula_units_Z   1
loop_
 _symmetry_equiv_pos_site_id
 _symmetry_equiv_pos_as_xyz
  1  'x, y, z'
loop_
 _atom_site_type_symbol
 _atom_site_label
 _atom_site_symmetry_multiplicity
 _atom_site_fract_x
 _atom_site_fract_y
 _atom_site_fract_z
 _atom_site_occupancy
  Y  Y0  1  0.405563  0.002373  0.248187  1
  Y  Y1  1  0.597707  0.597334  0.248529  1
  Y  Y2  1  0.996249  0.400593  0.248259  1
  Y  Y3  1  0.403190  0.997627  0.751813  1
  Y  Y4  1  0.595656  0.599407  0.751741  1
  Y  Y5  1  0.000373  0.402666  0.751471  1
  In  In6  1  0.739688  0.000000  0.000000  1
  Sn  Sn7  1  0.266228  0.265943  0.500157  1
  Sn  Sn8  1  0.000287  0.734057  0.499843  1
  Sn  Sn9  1  0.996403  0.740097  0.999924  1
  Sn  Sn10  1  0.256306  0.259903  0.000076  1
  Sn  Sn11  1  0.736966  0.000000  0.500000  1
  Pd  Pd12  1  0.331763  0.666780  0.003240  1
  Pd  Pd13  1  0.333715  0.666263  0.496202  1
  Pd  Pd14  1  0.664984  0.333220  0.996760  1
  Pd  Pd15  1  0.667453  0.333737  0.503798  1
  Pd  Pd16  1  0.003768  0.000071  0.255522  1
  Pd  Pd17  1  0.003697  0.999929  0.744478  1
