# generated using pymatgen
data_La3Si5
_symmetry_space_group_name_H-M   'P 1'
_cell_length_a   5.96522484
_cell_length_b   5.96868402
_cell_length_c   9.64310814
_cell_angle_alpha   143.92828297
_cell_angle_beta   112.23362697
_cell_angle_gamma   72.14393621
_symmetry_Int_Tables_number   1
_chemical_formula_structural   La3Si5
_chemical_formula_sum   'La3 Si5'
_cell_volume   187.12597801
_cell_formula_units_Z   1
loop_
 _symmetry_equiv_pos_site_id
 _symmetry_equiv_pos_as_xyz
  1  'x, y, z'
loop_
 _atom_site_type_symbol
 _atom_site_label
 _atom_site_symmetry_multiplicity
 _atom_site_fract_x
 _atom_site_fract_y
 _atom_site_fract_z
 _atom_site_occupancy
  La  La0  1  0.385366  0.856687  0.475865  1
  La  La1  1  0.045814  0.860233  0.808944  1
  La  La2  1  0.716628  0.872508  0.150327  1
  Si  Si3  1  0.548007  0.530655  0.647637  1
  Si  Si4  1  0.215233  0.165313  0.297158  1
  Si  Si5  1  0.531754  0.212387  0.979999  1
  Si  Si6  1  0.898291  0.212577  0.663292  1
  Si  Si7  1  0.889126  0.531097  0.305784  1
