# generated using pymatgen
data_Sr7Ca3(AlSb3)4
_symmetry_space_group_name_H-M   'P 1'
_cell_length_a   4.61929600
_cell_length_b   12.57050437
_cell_length_c   14.40366332
_cell_angle_alpha   90.24310139
_cell_angle_beta   90.00000000
_cell_angle_gamma   90.00000000
_symmetry_Int_Tables_number   1
_chemical_formula_structural   Sr7Ca3(AlSb3)4
_chemical_formula_sum   'Sr7 Ca3 Al4 Sb12'
_cell_volume   836.36826907
_cell_formula_units_Z   1
loop_
 _symmetry_equiv_pos_site_id
 _symmetry_equiv_pos_as_xyz
  1  'x, y, z'
loop_
 _atom_site_type_symbol
 _atom_site_label
 _atom_site_symmetry_multiplicity
 _atom_site_fract_x
 _atom_site_fract_y
 _atom_site_fract_z
 _atom_site_occupancy
  Sr  Sr0  1  0.500000  0.092536  0.748340  1
  Sr  Sr1  1  0.500000  0.408976  0.249354  1
  Sr  Sr2  1  0.500000  0.329380  0.519431  1
  Sr  Sr3  1  0.500000  0.907875  0.251615  1
  Sr  Sr4  1  0.500000  0.172702  0.017131  1
  Sr  Sr5  1  0.500000  0.825571  0.980037  1
  Sr  Sr6  1  0.500000  0.672221  0.485665  1
  Ca  Ca7  1  0.500000  0.499918  0.998008  1
  Ca  Ca8  1  0.500000  0.998971  0.500415  1
  Ca  Ca9  1  0.500000  0.592904  0.751457  1
  Al  Al10  1  0.000000  0.174890  0.210772  1
  Al  Al11  1  0.000000  0.824289  0.788377  1
  Al  Al12  1  0.000000  0.673718  0.289630  1
  Al  Al13  1  0.000000  0.326413  0.710273  1
  Sb  Sb14  1  0.000000  0.845837  0.408433  1
  Sb  Sb15  1  0.000000  0.153501  0.591650  1
  Sb  Sb16  1  0.000000  0.648701  0.899928  1
  Sb  Sb17  1  0.000000  0.346806  0.092032  1
  Sb  Sb18  1  0.500000  0.345190  0.815136  1
  Sb  Sb19  1  0.500000  0.659263  0.181512  1
  Sb  Sb20  1  0.500000  0.836165  0.683056  1
  Sb  Sb21  1  0.500000  0.160192  0.318435  1
  Sb  Sb22  1  0.000000  0.518394  0.605343  1
  Sb  Sb23  1  0.000000  0.486704  0.404661  1
  Sb  Sb24  1  0.000000  0.014265  0.900450  1
  Sb  Sb25  1  0.000000  0.984618  0.098859  1
