# generated using pymatgen
data_LiTm8CdRh2
_symmetry_space_group_name_H-M   'P 1'
_cell_length_a   9.51024584
_cell_length_b   9.51018692
_cell_length_c   9.52442200
_cell_angle_alpha   59.95045952
_cell_angle_beta   59.95077528
_cell_angle_gamma   59.91698992
_symmetry_Int_Tables_number   1
_chemical_formula_structural   LiTm8CdRh2
_chemical_formula_sum   'Li2 Tm16 Cd2 Rh4'
_cell_volume   608.28495066
_cell_formula_units_Z   2
loop_
 _symmetry_equiv_pos_site_id
 _symmetry_equiv_pos_as_xyz
  1  'x, y, z'
loop_
 _atom_site_type_symbol
 _atom_site_label
 _atom_site_symmetry_multiplicity
 _atom_site_fract_x
 _atom_site_fract_y
 _atom_site_fract_z
 _atom_site_occupancy
  Li  Li0  1  0.973570  0.673535  0.676450  1
  Li  Li1  1  0.673533  0.973566  0.676453  1
  Tm  Tm2  1  0.297093  0.898578  0.902165  1
  Tm  Tm3  1  0.686511  0.314308  0.685861  1
  Tm  Tm4  1  0.314321  0.686503  0.313322  1
  Tm  Tm5  1  0.062063  0.439101  0.436635  1
  Tm  Tm6  1  0.686509  0.314310  0.313320  1
  Tm  Tm7  1  0.439101  0.062061  0.436634  1
  Tm  Tm8  1  0.439100  0.062062  0.062203  1
  Tm  Tm9  1  0.902394  0.902391  0.905588  1
  Tm  Tm10  1  0.062062  0.439104  0.062198  1
  Tm  Tm11  1  0.898579  0.297090  0.902165  1
  Tm  Tm12  1  0.314324  0.686503  0.685851  1
  Tm  Tm13  1  0.902389  0.902391  0.289631  1
  Tm  Tm14  1  0.440088  0.440090  0.059911  1
  Tm  Tm15  1  0.312685  0.312679  0.687316  1
  Tm  Tm16  1  0.684171  0.684174  0.315828  1
  Tm  Tm17  1  0.066085  0.066072  0.433922  1
  Cd  Cd18  1  0.671157  0.671157  0.992362  1
  Cd  Cd19  1  0.671160  0.671158  0.665324  1
  Rh  Rh20  1  0.108696  0.108713  0.676540  1
  Rh  Rh21  1  0.109482  0.676248  0.107136  1
  Rh  Rh22  1  0.108693  0.108716  0.106051  1
  Rh  Rh23  1  0.676237  0.109491  0.107134  1
