# generated using pymatgen
data_Dy3Th(Ni2Hg)2
_symmetry_space_group_name_H-M   'P 1'
_cell_length_a   7.41567143
_cell_length_b   7.41567143
_cell_length_c   3.65896500
_cell_angle_alpha   90.00000000
_cell_angle_beta   90.00000000
_cell_angle_gamma   88.70651090
_symmetry_Int_Tables_number   1
_chemical_formula_structural   Dy3Th(Ni2Hg)2
_chemical_formula_sum   'Dy3 Th1 Ni4 Hg2'
_cell_volume   201.16319863
_cell_formula_units_Z   1
loop_
 _symmetry_equiv_pos_site_id
 _symmetry_equiv_pos_as_xyz
  1  'x, y, z'
loop_
 _atom_site_type_symbol
 _atom_site_label
 _atom_site_symmetry_multiplicity
 _atom_site_fract_x
 _atom_site_fract_y
 _atom_site_fract_z
 _atom_site_occupancy
  Dy  Dy0  1  0.823505  0.326616  0.499999  1
  Dy  Dy1  1  0.173385  0.676494  0.499999  1
  Dy  Dy2  1  0.677135  0.822864  0.499999  1
  Th  Th3  1  0.324729  0.175272  0.499999  1
  Ni  Ni4  1  0.615915  0.120688  0.000000  1
  Ni  Ni5  1  0.125063  0.374936  0.000000  1
  Ni  Ni6  1  0.885153  0.614848  0.000000  1
  Ni  Ni7  1  0.379311  0.884086  0.000000  1
  Hg  Hg8  1  0.990608  0.994804  0.000000  1
  Hg  Hg9  1  0.505197  0.509393  0.000000  1
