# generated using pymatgen
data_Pr5Te(AsO5)2
_symmetry_space_group_name_H-M   'P 1'
_cell_length_a   5.78419392
_cell_length_b   6.94021825
_cell_length_c   9.03875800
_cell_angle_alpha   95.30721296
_cell_angle_beta   108.66087510
_cell_angle_gamma   114.62740228
_symmetry_Int_Tables_number   1
_chemical_formula_structural   Pr5Te(AsO5)2
_chemical_formula_sum   'Pr5 Te1 As2 O10'
_cell_volume   301.56760487
_cell_formula_units_Z   1
loop_
 _symmetry_equiv_pos_site_id
 _symmetry_equiv_pos_as_xyz
  1  'x, y, z'
loop_
 _atom_site_type_symbol
 _atom_site_label
 _atom_site_symmetry_multiplicity
 _atom_site_fract_x
 _atom_site_fract_y
 _atom_site_fract_z
 _atom_site_occupancy
  Pr  Pr0  1  0.000000  0.000000  0.000000  1
  Pr  Pr1  1  0.380885  0.634045  0.127725  1
  Pr  Pr2  1  0.794791  0.298148  0.291432  1
  Pr  Pr3  1  0.205208  0.701852  0.708568  1
  Pr  Pr4  1  0.619116  0.365956  0.872276  1
  Te  Te5  1  0.500000  0.499999  0.500000  1
  As  As6  1  0.181105  0.973426  0.388784  1
  As  As7  1  0.818895  0.026574  0.611215  1
  O  O8  1  0.455940  0.323375  0.081321  1
  O  O9  1  0.948756  0.323375  0.081321  1
  O  O10  1  0.343084  0.966709  0.247386  1
  O  O11  1  0.871010  0.966709  0.247386  1
  O  O12  1  0.050753  0.697409  0.404099  1
  O  O13  1  0.949247  0.302591  0.595901  1
  O  O14  1  0.128990  0.033291  0.752613  1
  O  O15  1  0.656916  0.033291  0.752613  1
  O  O16  1  0.051244  0.676625  0.918678  1
  O  O17  1  0.544060  0.676625  0.918678  1
