# generated using pymatgen
data_Tb4Zn2Co11NiB6
_symmetry_space_group_name_H-M   'P 1'
_cell_length_a   5.10293100
_cell_length_b   5.10293180
_cell_length_c   12.66971600
_cell_angle_alpha   90.00000000
_cell_angle_beta   90.00000000
_cell_angle_gamma   119.84634837
_symmetry_Int_Tables_number   1
_chemical_formula_structural   Tb4Zn2Co11NiB6
_chemical_formula_sum   'Tb4 Zn2 Co11 Ni1 B6'
_cell_volume   286.15893322
_cell_formula_units_Z   1
loop_
 _symmetry_equiv_pos_site_id
 _symmetry_equiv_pos_as_xyz
  1  'x, y, z'
loop_
 _atom_site_type_symbol
 _atom_site_label
 _atom_site_symmetry_multiplicity
 _atom_site_fract_x
 _atom_site_fract_y
 _atom_site_fract_z
 _atom_site_occupancy
  Tb  Tb0  1  0.000000  0.000000  0.004108  1
  Tb  Tb1  1  0.000000  0.000000  0.499977  1
  Tb  Tb2  1  0.000000  0.000000  0.739439  1
  Tb  Tb3  1  0.000000  0.000000  0.261316  1
  Zn  Zn4  1  0.668457  0.331543  0.000161  1
  Zn  Zn5  1  0.331543  0.668457  0.000161  1
  Co  Co6  1  0.500000  0.000000  0.837457  1
  Co  Co7  1  0.000000  0.500000  0.837457  1
  Co  Co8  1  0.500000  0.500000  0.161351  1
  Co  Co9  1  0.500000  0.000000  0.161316  1
  Co  Co10  1  0.000000  0.500000  0.161316  1
  Co  Co11  1  0.500000  0.500000  0.614259  1
  Co  Co12  1  0.500000  0.000000  0.614360  1
  Co  Co13  1  0.000000  0.500000  0.614360  1
  Co  Co14  1  0.500000  0.500000  0.385245  1
  Co  Co15  1  0.500000  0.000000  0.385913  1
  Co  Co16  1  0.000000  0.500000  0.385913  1
  Ni  Ni17  1  0.500000  0.500000  0.839825  1
  B  B18  1  0.666529  0.333471  0.499365  1
  B  B19  1  0.333471  0.666529  0.499365  1
  B  B20  1  0.669187  0.330813  0.729558  1
  B  B21  1  0.330813  0.669187  0.729558  1
  B  B22  1  0.332839  0.667161  0.269110  1
  B  B23  1  0.667161  0.332839  0.269110  1
