# generated using pymatgen
data_Rb6Sc3RhBr18
_symmetry_space_group_name_H-M   'P 1'
_cell_length_a   7.71734600
_cell_length_b   7.71734627
_cell_length_c   19.42381600
_cell_angle_alpha   90.00000000
_cell_angle_beta   90.00000000
_cell_angle_gamma   119.99999883
_symmetry_Int_Tables_number   1
_chemical_formula_structural   Rb6Sc3RhBr18
_chemical_formula_sum   'Rb6 Sc3 Rh1 Br18'
_cell_volume   1001.84642145
_cell_formula_units_Z   1
loop_
 _symmetry_equiv_pos_site_id
 _symmetry_equiv_pos_as_xyz
  1  'x, y, z'
loop_
 _atom_site_type_symbol
 _atom_site_label
 _atom_site_symmetry_multiplicity
 _atom_site_fract_x
 _atom_site_fract_y
 _atom_site_fract_z
 _atom_site_occupancy
  Rb  Rb0  1  0.333333  0.666667  0.067726  1
  Rb  Rb1  1  0.666667  0.333333  0.935334  1
  Rb  Rb2  1  0.666667  0.333333  0.570474  1
  Rb  Rb3  1  0.333333  0.666667  0.437215  1
  Rb  Rb4  1  0.000000  0.000000  0.250555  1
  Rb  Rb5  1  0.000000  0.000000  0.744518  1
  Sc  Sc6  1  0.666667  0.333333  0.345130  1
  Sc  Sc7  1  0.666667  0.333333  0.156005  1
  Sc  Sc8  1  0.333333  0.666667  0.838403  1
  Rh  Rh9  1  0.333333  0.666667  0.666647  1
  Br  Br10  1  0.180836  0.361673  0.593374  1
  Br  Br11  1  0.830884  0.661766  0.413398  1
  Br  Br12  1  0.638327  0.819164  0.593374  1
  Br  Br13  1  0.830546  0.661091  0.086901  1
  Br  Br14  1  0.338234  0.169116  0.413398  1
  Br  Br15  1  0.170104  0.340209  0.908257  1
  Br  Br16  1  0.180836  0.819164  0.593374  1
  Br  Br17  1  0.338909  0.169454  0.086901  1
  Br  Br18  1  0.830884  0.169116  0.413398  1
  Br  Br19  1  0.659791  0.829896  0.908257  1
  Br  Br20  1  0.830546  0.169454  0.086901  1
  Br  Br21  1  0.170104  0.829896  0.908257  1
  Br  Br22  1  0.509914  0.019829  0.250118  1
  Br  Br23  1  0.488809  0.977617  0.743950  1
  Br  Br24  1  0.980171  0.490086  0.250118  1
  Br  Br25  1  0.022383  0.511191  0.743950  1
  Br  Br26  1  0.509914  0.490086  0.250118  1
  Br  Br27  1  0.488809  0.511191  0.743950  1
