# generated using pymatgen
data_La2Nd2Cd2IrAu3
_symmetry_space_group_name_H-M   'P 1'
_cell_length_a   3.93029300
_cell_length_b   8.11447915
_cell_length_c   8.11447972
_cell_angle_alpha   90.29507719
_cell_angle_beta   90.00000000
_cell_angle_gamma   90.00000000
_symmetry_Int_Tables_number   1
_chemical_formula_structural   La2Nd2Cd2IrAu3
_chemical_formula_sum   'La2 Nd2 Cd2 Ir1 Au3'
_cell_volume   258.78583208
_cell_formula_units_Z   1
loop_
 _symmetry_equiv_pos_site_id
 _symmetry_equiv_pos_as_xyz
  1  'x, y, z'
loop_
 _atom_site_type_symbol
 _atom_site_label
 _atom_site_symmetry_multiplicity
 _atom_site_fract_x
 _atom_site_fract_y
 _atom_site_fract_z
 _atom_site_occupancy
  La  La0  1  0.500000  0.170164  0.670164  1
  La  La1  1  0.500000  0.810174  0.310174  1
  Nd  Nd2  1  0.500000  0.348865  0.177941  1
  Nd  Nd3  1  0.500000  0.677941  0.848865  1
  Cd  Cd4  1  0.000000  0.999417  0.002407  1
  Cd  Cd5  1  0.000000  0.502407  0.499417  1
  Ir  Ir6  1  0.000000  0.626455  0.126455  1
  Au  Au7  1  0.000000  0.372555  0.872555  1
  Au  Au8  1  0.000000  0.866704  0.625319  1
  Au  Au9  1  0.000000  0.125319  0.366704  1
