# generated using pymatgen
data_Y2Er3Sn3Bi
_symmetry_space_group_name_H-M   'P 1'
_cell_length_a   8.12878600
_cell_length_b   8.15686500
_cell_length_c   15.37929800
_cell_angle_alpha   90.00000000
_cell_angle_beta   90.00000000
_cell_angle_gamma   90.00000000
_symmetry_Int_Tables_number   1
_chemical_formula_structural   Y2Er3Sn3Bi
_chemical_formula_sum   'Y8 Er12 Sn12 Bi4'
_cell_volume   1019.73065965
_cell_formula_units_Z   4
loop_
 _symmetry_equiv_pos_site_id
 _symmetry_equiv_pos_as_xyz
  1  'x, y, z'
loop_
 _atom_site_type_symbol
 _atom_site_label
 _atom_site_symmetry_multiplicity
 _atom_site_fract_x
 _atom_site_fract_y
 _atom_site_fract_z
 _atom_site_occupancy
  Y  Y0  1  0.538839  0.324738  0.897050  1
  Y  Y1  1  0.038839  0.175262  0.602950  1
  Y  Y2  1  0.461161  0.675262  0.397050  1
  Y  Y3  1  0.961161  0.824738  0.102950  1
  Y  Y4  1  0.478630  0.674712  0.101315  1
  Y  Y5  1  0.978630  0.825288  0.398685  1
  Y  Y6  1  0.521370  0.325288  0.601315  1
  Y  Y7  1  0.021370  0.174712  0.898685  1
  Er  Er8  1  0.373909  0.839895  0.874323  1
  Er  Er9  1  0.873909  0.660105  0.625677  1
  Er  Er10  1  0.626091  0.160105  0.374323  1
  Er  Er11  1  0.126091  0.339895  0.125677  1
  Er  Er12  1  0.635011  0.163279  0.123729  1
  Er  Er13  1  0.135011  0.336721  0.376271  1
  Er  Er14  1  0.364989  0.836721  0.623729  1
  Er  Er15  1  0.864989  0.663279  0.876271  1
  Er  Er16  1  0.198205  0.501298  0.747136  1
  Er  Er17  1  0.698205  0.998702  0.752864  1
  Er  Er18  1  0.801795  0.498702  0.247136  1
  Er  Er19  1  0.301795  0.001298  0.252864  1
  Sn  Sn20  1  0.710701  0.964942  0.958103  1
  Sn  Sn21  1  0.210701  0.535058  0.541897  1
  Sn  Sn22  1  0.289299  0.035058  0.458103  1
  Sn  Sn23  1  0.789299  0.464942  0.041897  1
  Sn  Sn24  1  0.564323  0.622197  0.748710  1
  Sn  Sn25  1  0.064323  0.877803  0.751290  1
  Sn  Sn26  1  0.435677  0.377803  0.248710  1
  Sn  Sn27  1  0.935677  0.122197  0.251290  1
  Sn  Sn28  1  0.335774  0.148279  0.750845  1
  Sn  Sn29  1  0.835774  0.351721  0.749155  1
  Sn  Sn30  1  0.664226  0.851721  0.250845  1
  Sn  Sn31  1  0.164226  0.648279  0.249155  1
  Bi  Bi32  1  0.285813  0.033775  0.042341  1
  Bi  Bi33  1  0.785813  0.466225  0.457659  1
  Bi  Bi34  1  0.714187  0.966225  0.542341  1
  Bi  Bi35  1  0.214187  0.533775  0.957659  1
