# generated using pymatgen
data_Er2ZnP6(IrRh)6
_symmetry_space_group_name_H-M   'P 1'
_cell_length_a   9.63373200
_cell_length_b   9.63373144
_cell_length_c   3.93609000
_cell_angle_alpha   90.00000000
_cell_angle_beta   90.00000000
_cell_angle_gamma   120.00000192
_symmetry_Int_Tables_number   1
_chemical_formula_structural   Er2ZnP6(IrRh)6
_chemical_formula_sum   'Er2 Zn1 P6 Ir6 Rh6'
_cell_volume   316.36231099
_cell_formula_units_Z   1
loop_
 _symmetry_equiv_pos_site_id
 _symmetry_equiv_pos_as_xyz
  1  'x, y, z'
loop_
 _atom_site_type_symbol
 _atom_site_label
 _atom_site_symmetry_multiplicity
 _atom_site_fract_x
 _atom_site_fract_y
 _atom_site_fract_z
 _atom_site_occupancy
  Er  Er0  1  0.333333  0.666667  0.753160  1
  Er  Er1  1  0.666667  0.333333  0.246840  1
  Zn  Zn2  1  0.000000  0.000000  0.500000  1
  P  P3  1  0.403311  0.282876  0.748682  1
  P  P4  1  0.717124  0.120435  0.748682  1
  P  P5  1  0.879565  0.596689  0.748682  1
  P  P6  1  0.596689  0.717124  0.251318  1
  P  P7  1  0.282876  0.879565  0.251318  1
  P  P8  1  0.120435  0.403311  0.251318  1
  Ir  Ir9  1  0.455090  0.068253  0.749117  1
  Ir  Ir10  1  0.931747  0.386836  0.749117  1
  Ir  Ir11  1  0.613164  0.544910  0.749117  1
  Ir  Ir12  1  0.544910  0.931747  0.250883  1
  Ir  Ir13  1  0.068253  0.613164  0.250883  1
  Ir  Ir14  1  0.386836  0.455090  0.250883  1
  Rh  Rh15  1  0.160800  0.284217  0.753373  1
  Rh  Rh16  1  0.715783  0.876583  0.753373  1
  Rh  Rh17  1  0.123417  0.839200  0.753373  1
  Rh  Rh18  1  0.839200  0.715783  0.246627  1
  Rh  Rh19  1  0.284217  0.123417  0.246627  1
  Rh  Rh20  1  0.876583  0.160800  0.246627  1
