# generated using pymatgen
data_Sm6Cd17SiAg6
_symmetry_space_group_name_H-M   'P 1'
_cell_length_a   9.92012912
_cell_length_b   9.92012627
_cell_length_c   9.92013000
_cell_angle_alpha   59.99997353
_cell_angle_beta   59.99998463
_cell_angle_gamma   59.99998024
_symmetry_Int_Tables_number   1
_chemical_formula_structural   Sm6Cd17SiAg6
_chemical_formula_sum   'Sm6 Cd17 Si1 Ag6'
_cell_volume   690.29811720
_cell_formula_units_Z   1
loop_
 _symmetry_equiv_pos_site_id
 _symmetry_equiv_pos_as_xyz
  1  'x, y, z'
loop_
 _atom_site_type_symbol
 _atom_site_label
 _atom_site_symmetry_multiplicity
 _atom_site_fract_x
 _atom_site_fract_y
 _atom_site_fract_z
 _atom_site_occupancy
  Sm  Sm0  1  0.792854  0.792854  0.207146  1
  Sm  Sm1  1  0.207146  0.792854  0.207146  1
  Sm  Sm2  1  0.792854  0.207146  0.207146  1
  Sm  Sm3  1  0.207146  0.207146  0.792854  1
  Sm  Sm4  1  0.792854  0.207146  0.792854  1
  Sm  Sm5  1  0.207146  0.792854  0.792854  1
  Cd  Cd6  1  0.835130  0.835130  0.494611  1
  Cd  Cd7  1  0.835130  0.494611  0.835130  1
  Cd  Cd8  1  0.494611  0.835130  0.835130  1
  Cd  Cd9  1  0.835130  0.835130  0.835130  1
  Cd  Cd10  1  0.164870  0.164870  0.505389  1
  Cd  Cd11  1  0.164870  0.505389  0.164870  1
  Cd  Cd12  1  0.505389  0.164870  0.164870  1
  Cd  Cd13  1  0.164870  0.164870  0.164870  1
  Cd  Cd14  1  0.623040  0.623040  0.130880  1
  Cd  Cd15  1  0.623040  0.130879  0.623040  1
  Cd  Cd16  1  0.130880  0.623040  0.623040  1
  Cd  Cd17  1  0.623040  0.623040  0.623040  1
  Cd  Cd18  1  0.376960  0.376960  0.869120  1
  Cd  Cd19  1  0.376960  0.869121  0.376960  1
  Cd  Cd20  1  0.869120  0.376960  0.376960  1
  Cd  Cd21  1  0.376960  0.376960  0.376960  1
  Cd  Cd22  1  0.500000  0.500000  0.500000  1
  Si  Si23  1  0.000000  0.000000  0.000000  1
  Ag  Ag24  1  0.000000  0.000000  0.500000  1
  Ag  Ag25  1  0.500000  0.000000  0.500000  1
  Ag  Ag26  1  0.000000  0.500000  0.500000  1
  Ag  Ag27  1  0.500000  0.500000  0.000000  1
  Ag  Ag28  1  0.000000  0.500000  0.000000  1
  Ag  Ag29  1  0.500000  0.000000  0.000000  1
