# generated using pymatgen
data_Tm12InCo4Pt
_symmetry_space_group_name_H-M   'P 1'
_cell_length_a   8.19700115
_cell_length_b   8.19700179
_cell_length_c   8.19700201
_cell_angle_alpha   111.03525976
_cell_angle_beta   110.77332827
_cell_angle_gamma   106.64170548
_symmetry_Int_Tables_number   1
_chemical_formula_structural   Tm12InCo4Pt
_chemical_formula_sum   'Tm12 In1 Co4 Pt1'
_cell_volume   423.20486618
_cell_formula_units_Z   1
loop_
 _symmetry_equiv_pos_site_id
 _symmetry_equiv_pos_as_xyz
  1  'x, y, z'
loop_
 _atom_site_type_symbol
 _atom_site_label
 _atom_site_symmetry_multiplicity
 _atom_site_fract_x
 _atom_site_fract_y
 _atom_site_fract_z
 _atom_site_occupancy
  Tm  Tm0  1  0.417178  0.218901  0.198277  1
  Tm  Tm1  1  0.582822  0.781099  0.801723  1
  Tm  Tm2  1  0.020624  0.218901  0.801723  1
  Tm  Tm3  1  0.979376  0.781099  0.198277  1
  Tm  Tm4  1  0.185424  0.288224  0.473648  1
  Tm  Tm5  1  0.814576  0.711776  0.526352  1
  Tm  Tm6  1  0.185424  0.711776  0.897201  1
  Tm  Tm7  1  0.814576  0.288224  0.102799  1
  Tm  Tm8  1  0.315603  0.620840  0.305237  1
  Tm  Tm9  1  0.684397  0.379160  0.694763  1
  Tm  Tm10  1  0.315603  0.010365  0.694763  1
  Tm  Tm11  1  0.684397  0.989635  0.305237  1
  In  In12  1  0.500000  0.500000  0.000000  1
  Co  Co13  1  0.377053  0.000000  0.377053  1
  Co  Co14  1  0.622947  0.000000  0.622947  1
  Co  Co15  1  0.112389  0.612389  0.500000  1
  Co  Co16  1  0.887611  0.387611  0.500000  1
  Pt  Pt17  1  0.000000  0.000000  0.000000  1
