# generated using pymatgen
data_Tm5LuFe4(Co7P6)2
_symmetry_space_group_name_H-M   'P 1'
_cell_length_a   3.67659500
_cell_length_b   10.51707319
_cell_length_c   12.03386919
_cell_angle_alpha   90.02097781
_cell_angle_beta   90.00000000
_cell_angle_gamma   90.00000000
_symmetry_Int_Tables_number   1
_chemical_formula_structural   Tm5LuFe4(Co7P6)2
_chemical_formula_sum   'Tm5 Lu1 Fe4 Co14 P12'
_cell_volume   465.31381373
_cell_formula_units_Z   1
loop_
 _symmetry_equiv_pos_site_id
 _symmetry_equiv_pos_as_xyz
  1  'x, y, z'
loop_
 _atom_site_type_symbol
 _atom_site_label
 _atom_site_symmetry_multiplicity
 _atom_site_fract_x
 _atom_site_fract_y
 _atom_site_fract_z
 _atom_site_occupancy
  Tm  Tm0  1  0.000000  0.500013  0.523352  1
  Tm  Tm1  1  0.500000  0.999871  0.476570  1
  Tm  Tm2  1  0.500000  0.180276  0.204057  1
  Tm  Tm3  1  0.000000  0.680344  0.795720  1
  Tm  Tm4  1  0.000000  0.319419  0.796123  1
  Lu  Lu5  1  0.500000  0.819953  0.204236  1
  Fe  Fe6  1  0.500000  0.499476  0.156827  1
  Fe  Fe7  1  0.000000  0.000197  0.843138  1
  Fe  Fe8  1  0.000000  0.500545  0.988568  1
  Fe  Fe9  1  0.500000  0.000031  0.011874  1
  Co  Co10  1  0.500000  0.499953  0.700816  1
  Co  Co11  1  0.000000  0.999578  0.298909  1
  Co  Co12  1  0.500000  0.331607  0.994010  1
  Co  Co13  1  0.500000  0.668501  0.994715  1
  Co  Co14  1  0.000000  0.168057  0.005919  1
  Co  Co15  1  0.000000  0.831955  0.006151  1
  Co  Co16  1  0.500000  0.296687  0.430625  1
  Co  Co17  1  0.500000  0.703364  0.430163  1
  Co  Co18  1  0.000000  0.202991  0.569525  1
  Co  Co19  1  0.000000  0.796838  0.569231  1
  Co  Co20  1  0.500000  0.878292  0.708620  1
  Co  Co21  1  0.500000  0.121536  0.708645  1
  Co  Co22  1  0.000000  0.622179  0.291176  1
  Co  Co23  1  0.000000  0.378323  0.291337  1
  P  P24  1  0.500000  0.500137  0.883590  1
  P  P25  1  0.000000  0.999725  0.116784  1
  P  P26  1  0.500000  0.499923  0.343777  1
  P  P27  1  0.000000  0.999924  0.656080  1
  P  P28  1  0.500000  0.311279  0.617219  1
  P  P29  1  0.500000  0.688741  0.616847  1
  P  P30  1  0.000000  0.188417  0.382895  1
  P  P31  1  0.000000  0.811407  0.382382  1
  P  P32  1  0.500000  0.847183  0.892650  1
  P  P33  1  0.500000  0.152677  0.892514  1
  P  P34  1  0.000000  0.653475  0.107724  1
  P  P35  1  0.000000  0.347128  0.107233  1
