# generated using pymatgen
data_Tb12Dy7TmSn16
_symmetry_space_group_name_H-M   'P 1'
_cell_length_a   8.04586001
_cell_length_b   8.19605382
_cell_length_c   15.49076500
_cell_angle_alpha   90.00053147
_cell_angle_beta   89.99884617
_cell_angle_gamma   89.95559012
_symmetry_Int_Tables_number   1
_chemical_formula_structural   Tb12Dy7TmSn16
_chemical_formula_sum   'Tb12 Dy7 Tm1 Sn16'
_cell_volume   1021.52737397
_cell_formula_units_Z   1
loop_
 _symmetry_equiv_pos_site_id
 _symmetry_equiv_pos_as_xyz
  1  'x, y, z'
loop_
 _atom_site_type_symbol
 _atom_site_label
 _atom_site_symmetry_multiplicity
 _atom_site_fract_x
 _atom_site_fract_y
 _atom_site_fract_z
 _atom_site_occupancy
  Tb  Tb0  1  0.632512  0.163791  0.121747  1
  Tb  Tb1  1  0.132520  0.336217  0.378594  1
  Tb  Tb2  1  0.367234  0.836114  0.622128  1
  Tb  Tb3  1  0.867878  0.663426  0.877918  1
  Tb  Tb4  1  0.519851  0.320562  0.901971  1
  Tb  Tb5  1  0.020252  0.180000  0.598038  1
  Tb  Tb6  1  0.480074  0.679794  0.402415  1
  Tb  Tb7  1  0.979956  0.820137  0.097778  1
  Tb  Tb8  1  0.480023  0.679733  0.097547  1
  Tb  Tb9  1  0.979902  0.820204  0.402255  1
  Tb  Tb10  1  0.519902  0.320624  0.597995  1
  Tb  Tb11  1  0.020301  0.179938  0.901998  1
  Dy  Dy12  1  0.367141  0.836183  0.877890  1
  Dy  Dy13  1  0.867797  0.663355  0.622063  1
  Dy  Dy14  1  0.632602  0.163720  0.378272  1
  Dy  Dy15  1  0.132610  0.336287  0.121390  1
  Dy  Dy16  1  0.698600  0.997904  0.749974  1
  Dy  Dy17  1  0.801040  0.497580  0.250024  1
  Dy  Dy18  1  0.301016  0.002357  0.249971  1
  Tm  Tm19  1  0.199257  0.502609  0.750022  1
  Sn  Sn20  1  0.292487  0.035399  0.041654  1
  Sn  Sn21  1  0.792308  0.464212  0.458359  1
  Sn  Sn22  1  0.707523  0.964377  0.542103  1
  Sn  Sn23  1  0.207579  0.535358  0.957281  1
  Sn  Sn24  1  0.707201  0.964403  0.957771  1
  Sn  Sn25  1  0.207259  0.535336  0.542842  1
  Sn  Sn26  1  0.292802  0.035383  0.458222  1
  Sn  Sn27  1  0.792636  0.464228  0.041769  1
  Sn  Sn28  1  0.564323  0.618335  0.749991  1
  Sn  Sn29  1  0.065497  0.880620  0.750002  1
  Sn  Sn30  1  0.434410  0.381372  0.249990  1
  Sn  Sn31  1  0.934641  0.118740  0.250022  1
  Sn  Sn32  1  0.328121  0.148230  0.750058  1
  Sn  Sn33  1  0.829226  0.353905  0.749946  1
  Sn  Sn34  1  0.671602  0.853710  0.250048  1
  Sn  Sn35  1  0.171914  0.645859  0.249951  1
