# generated using pymatgen
data_NaDy6CoBr12
_symmetry_space_group_name_H-M   'P 1'
_cell_length_a   9.18493603
_cell_length_b   9.18493749
_cell_length_c   9.18493710
_cell_angle_alpha   106.95792895
_cell_angle_beta   106.95792892
_cell_angle_gamma   106.95792540
_symmetry_Int_Tables_number   1
_chemical_formula_structural   NaDy6CoBr12
_chemical_formula_sum   'Na1 Dy6 Co1 Br12'
_cell_volume   646.05786909
_cell_formula_units_Z   1
loop_
 _symmetry_equiv_pos_site_id
 _symmetry_equiv_pos_as_xyz
  1  'x, y, z'
loop_
 _atom_site_type_symbol
 _atom_site_label
 _atom_site_symmetry_multiplicity
 _atom_site_fract_x
 _atom_site_fract_y
 _atom_site_fract_z
 _atom_site_occupancy
  Na  Na0  1  0.500000  0.500000  0.500000  1
  Dy  Dy1  1  0.971624  0.896778  0.689698  1
  Dy  Dy2  1  0.028376  0.103222  0.310302  1
  Dy  Dy3  1  0.103222  0.310302  0.028376  1
  Dy  Dy4  1  0.310302  0.028376  0.103222  1
  Dy  Dy5  1  0.896778  0.689698  0.971624  1
  Dy  Dy6  1  0.689698  0.971624  0.896778  1
  Co  Co7  1  0.000000  0.000000  0.000000  1
  Br  Br8  1  0.551941  0.630249  0.854909  1
  Br  Br9  1  0.448059  0.369751  0.145091  1
  Br  Br10  1  0.318459  0.926691  0.779652  1
  Br  Br11  1  0.369751  0.145091  0.448059  1
  Br  Br12  1  0.926691  0.779652  0.318459  1
  Br  Br13  1  0.681541  0.073309  0.220348  1
  Br  Br14  1  0.073309  0.220348  0.681541  1
  Br  Br15  1  0.779652  0.318459  0.926691  1
  Br  Br16  1  0.220348  0.681541  0.073309  1
  Br  Br17  1  0.854909  0.551941  0.630249  1
  Br  Br18  1  0.145091  0.448059  0.369751  1
  Br  Br19  1  0.630249  0.854909  0.551941  1
