# generated using pymatgen
data_CaAg4HgO8
_symmetry_space_group_name_H-M   'P 1'
_cell_length_a   6.66921555
_cell_length_b   6.66921614
_cell_length_c   6.66921612
_cell_angle_alpha   125.91589052
_cell_angle_beta   125.91589280
_cell_angle_gamma   80.02642326
_symmetry_Int_Tables_number   1
_chemical_formula_structural   CaAg4HgO8
_chemical_formula_sum   'Ca1 Ag4 Hg1 O8'
_cell_volume   187.84423300
_cell_formula_units_Z   1
loop_
 _symmetry_equiv_pos_site_id
 _symmetry_equiv_pos_as_xyz
  1  'x, y, z'
loop_
 _atom_site_type_symbol
 _atom_site_label
 _atom_site_symmetry_multiplicity
 _atom_site_fract_x
 _atom_site_fract_y
 _atom_site_fract_z
 _atom_site_occupancy
  Ca  Ca0  1  0.000000  0.000000  0.000000  1
  Ag  Ag1  1  0.375045  0.125185  0.750421  1
  Ag  Ag2  1  0.374764  0.624625  0.249579  1
  Ag  Ag3  1  0.874815  0.625236  0.249860  1
  Ag  Ag4  1  0.375375  0.624955  0.750140  1
  Hg  Hg5  1  0.750000  0.250000  0.500000  1
  O  O6  1  0.047456  0.994794  0.644870  1
  O  O7  1  0.597415  0.952544  0.947339  1
  O  O8  1  0.005206  0.650076  0.052661  1
  O  O9  1  0.397639  0.846239  0.142494  1
  O  O10  1  0.744854  0.602361  0.448600  1
  O  O11  1  0.153761  0.296254  0.551400  1
  O  O12  1  0.349924  0.402585  0.355130  1
  O  O13  1  0.703746  0.255146  0.857506  1
