# generated using pymatgen
data_Pr3Ho7C4I15
_symmetry_space_group_name_H-M   'P 1'
_cell_length_a   9.67129051
_cell_length_b   10.43739688
_cell_length_c   11.60575892
_cell_angle_alpha   93.40024076
_cell_angle_beta   114.19845243
_cell_angle_gamma   109.49252729
_symmetry_Int_Tables_number   1
_chemical_formula_structural   Pr3Ho7C4I15
_chemical_formula_sum   'Pr3 Ho7 C4 I15'
_cell_volume   980.79212286
_cell_formula_units_Z   1
loop_
 _symmetry_equiv_pos_site_id
 _symmetry_equiv_pos_as_xyz
  1  'x, y, z'
loop_
 _atom_site_type_symbol
 _atom_site_label
 _atom_site_symmetry_multiplicity
 _atom_site_fract_x
 _atom_site_fract_y
 _atom_site_fract_z
 _atom_site_occupancy
  Pr  Pr0  1  0.703485  0.567510  0.043903  1
  Pr  Pr1  1  0.295586  0.433423  0.955550  1
  Pr  Pr2  1  0.661827  0.254980  0.836738  1
  Ho  Ho3  1  0.591082  0.542822  0.336614  1
  Ho  Ho4  1  0.351850  0.741758  0.162091  1
  Ho  Ho5  1  0.766598  0.872716  0.251521  1
  Ho  Ho6  1  0.526429  0.186755  0.097751  1
  Ho  Ho7  1  0.237277  0.125364  0.750807  1
  Ho  Ho8  1  0.405966  0.456714  0.663294  1
  Ho  Ho9  1  0.473347  0.814549  0.901749  1
  C  C10  1  0.481671  0.296925  0.938602  1
  C  C11  1  0.517488  0.705979  0.062232  1
  C  C12  1  0.452702  0.361779  0.832330  1
  C  C13  1  0.545553  0.639000  0.168083  1
  I  I14  1  0.217836  0.908483  0.940761  1
  I  I15  1  0.113169  0.192869  0.480527  1
  I  I16  1  0.165583  0.565358  0.698730  1
  I  I17  1  0.394307  0.963071  0.652812  1
  I  I18  1  0.698098  0.738043  0.811382  1
  I  I19  1  0.299015  0.261883  0.186512  1
  I  I20  1  0.832238  0.433959  0.301387  1
  I  I21  1  0.885213  0.805198  0.521322  1
  I  I22  1  0.358363  0.628306  0.406258  1
  I  I23  1  0.050163  0.843115  0.225604  1
  I  I24  1  0.785796  0.088570  0.068883  1
  I  I25  1  0.637072  0.379643  0.583198  1
  I  I26  1  0.951045  0.156457  0.775175  1
  I  I27  1  0.591584  0.024479  0.340448  1
  I  I28  1  0.009658  0.510293  0.005735  1
