# generated using pymatgen
data_Yb4(NiH4)3
_symmetry_space_group_name_H-M   'P 1'
_cell_length_a   5.99785635
_cell_length_b   5.99785609
_cell_length_c   5.99785700
_cell_angle_alpha   109.47122710
_cell_angle_beta   109.47122621
_cell_angle_gamma   109.47121116
_symmetry_Int_Tables_number   1
_chemical_formula_structural   Yb4(NiH4)3
_chemical_formula_sum   'Yb4 Ni3 H12'
_cell_volume   166.09872682
_cell_formula_units_Z   1
loop_
 _symmetry_equiv_pos_site_id
 _symmetry_equiv_pos_as_xyz
  1  'x, y, z'
loop_
 _atom_site_type_symbol
 _atom_site_label
 _atom_site_symmetry_multiplicity
 _atom_site_fract_x
 _atom_site_fract_y
 _atom_site_fract_z
 _atom_site_occupancy
  Yb  Yb0  1  0.000000  0.000000  0.500000  1
  Yb  Yb1  1  0.000000  0.500000  0.000000  1
  Yb  Yb2  1  0.500000  0.000000  0.000000  1
  Yb  Yb3  1  0.500000  0.500000  0.500000  1
  Ni  Ni4  1  0.000000  0.500000  0.500000  1
  Ni  Ni5  1  0.500000  0.500000  0.000000  1
  Ni  Ni6  1  0.500000  0.000000  0.500000  1
  H  H7  1  0.732153  0.732153  0.000000  1
  H  H8  1  0.267847  0.000000  0.267847  1
  H  H9  1  0.000000  0.267847  0.267847  1
  H  H10  1  0.267847  0.267847  0.000000  1
  H  H11  1  0.732153  0.000000  0.732153  1
  H  H12  1  0.000000  0.732153  0.732153  1
  H  H13  1  0.750000  0.250000  0.500000  1
  H  H14  1  0.750000  0.500000  0.250000  1
  H  H15  1  0.500000  0.250000  0.750000  1
  H  H16  1  0.250000  0.500000  0.750000  1
  H  H17  1  0.250000  0.750000  0.500000  1
  H  H18  1  0.500000  0.750000  0.250000  1
