# generated using pymatgen
data_Gd2C2Br
_symmetry_space_group_name_H-M   'P 1'
_cell_length_a   7.68887790
_cell_length_b   7.68887768
_cell_length_c   6.60259722
_cell_angle_alpha   78.90317822
_cell_angle_beta   78.90317901
_cell_angle_gamma   31.00141107
_symmetry_Int_Tables_number   1
_chemical_formula_structural   Gd2C2Br
_chemical_formula_sum   'Gd4 C4 Br2'
_cell_volume   196.99611960
_cell_formula_units_Z   2
loop_
 _symmetry_equiv_pos_site_id
 _symmetry_equiv_pos_as_xyz
  1  'x, y, z'
loop_
 _atom_site_type_symbol
 _atom_site_label
 _atom_site_symmetry_multiplicity
 _atom_site_fract_x
 _atom_site_fract_y
 _atom_site_fract_z
 _atom_site_occupancy
  Gd  Gd0  1  0.846274  0.468705  0.347810  1
  Gd  Gd1  1  0.531295  0.153726  0.152190  1
  Gd  Gd2  1  0.153726  0.531295  0.652190  1
  Gd  Gd3  1  0.468705  0.846274  0.847810  1
  C  C4  1  0.352159  0.092905  0.473311  1
  C  C5  1  0.907095  0.647841  0.026689  1
  C  C6  1  0.647841  0.907095  0.526689  1
  C  C7  1  0.092905  0.352159  0.973311  1
  Br  Br8  1  0.229053  0.770947  0.250000  1
  Br  Br9  1  0.770947  0.229053  0.750000  1
