# generated using pymatgen
data_KPr3(BPd4)4
_symmetry_space_group_name_H-M   'P 1'
_cell_length_a   5.53409800
_cell_length_b   6.16695623
_cell_length_c   11.87912712
_cell_angle_alpha   90.23809274
_cell_angle_beta   90.00000000
_cell_angle_gamma   90.00000000
_symmetry_Int_Tables_number   1
_chemical_formula_structural   KPr3(BPd4)4
_chemical_formula_sum   'K1 Pr3 B4 Pd16'
_cell_volume   405.41376602
_cell_formula_units_Z   1
loop_
 _symmetry_equiv_pos_site_id
 _symmetry_equiv_pos_as_xyz
  1  'x, y, z'
loop_
 _atom_site_type_symbol
 _atom_site_label
 _atom_site_symmetry_multiplicity
 _atom_site_fract_x
 _atom_site_fract_y
 _atom_site_fract_z
 _atom_site_occupancy
  K  K0  1  0.250000  0.187686  0.663520  1
  Pr  Pr1  1  0.750000  0.307127  0.156883  1
  Pr  Pr2  1  0.750000  0.807592  0.345522  1
  Pr  Pr3  1  0.250000  0.690853  0.838540  1
  B  B4  1  0.750000  0.400266  0.551331  1
  B  B5  1  0.750000  0.898833  0.949439  1
  B  B6  1  0.250000  0.598527  0.447485  1
  B  B7  1  0.250000  0.098390  0.051679  1
  Pd  Pd8  1  0.750000  0.389512  0.734059  1
  Pd  Pd9  1  0.750000  0.877929  0.766753  1
  Pd  Pd10  1  0.250000  0.618912  0.265074  1
  Pd  Pd11  1  0.250000  0.123383  0.233248  1
  Pd  Pd12  1  0.750000  0.059595  0.555210  1
  Pd  Pd13  1  0.750000  0.557527  0.944947  1
  Pd  Pd14  1  0.250000  0.938528  0.440053  1
  Pd  Pd15  1  0.250000  0.443367  0.055486  1
  Pd  Pd16  1  0.997451  0.160086  0.915086  1
  Pd  Pd17  1  0.501602  0.662277  0.585861  1
  Pd  Pd18  1  0.501070  0.838850  0.090432  1
  Pd  Pd19  1  0.998021  0.339774  0.409006  1
  Pd  Pd20  1  0.998930  0.838850  0.090432  1
  Pd  Pd21  1  0.501979  0.339774  0.409006  1
  Pd  Pd22  1  0.502549  0.160086  0.915086  1
  Pd  Pd23  1  0.998398  0.662277  0.585861  1
