# generated using pymatgen
data_V12Zn2Ga5CuN4
_symmetry_space_group_name_H-M   'P 1'
_cell_length_a   6.57966097
_cell_length_b   6.58003634
_cell_length_c   6.57940959
_cell_angle_alpha   90.11577573
_cell_angle_beta   90.12035082
_cell_angle_gamma   90.02116316
_symmetry_Int_Tables_number   1
_chemical_formula_structural   V12Zn2Ga5CuN4
_chemical_formula_sum   'V12 Zn2 Ga5 Cu1 N4'
_cell_volume   284.85041486
_cell_formula_units_Z   1
loop_
 _symmetry_equiv_pos_site_id
 _symmetry_equiv_pos_as_xyz
  1  'x, y, z'
loop_
 _atom_site_type_symbol
 _atom_site_label
 _atom_site_symmetry_multiplicity
 _atom_site_fract_x
 _atom_site_fract_y
 _atom_site_fract_z
 _atom_site_occupancy
  V  V0  1  0.788970  0.959836  0.376887  1
  V  V1  1  0.710396  0.039388  0.873072  1
  V  V2  1  0.210539  0.458902  0.125901  1
  V  V3  1  0.290547  0.541095  0.625537  1
  V  V4  1  0.958679  0.376701  0.788988  1
  V  V5  1  0.038691  0.873304  0.710629  1
  V  V6  1  0.460006  0.125774  0.210142  1
  V  V7  1  0.541878  0.625813  0.291082  1
  V  V8  1  0.377257  0.788296  0.959161  1
  V  V9  1  0.872561  0.710043  0.038841  1
  V  V10  1  0.125533  0.210551  0.458620  1
  V  V11  1  0.626025  0.291438  0.540411  1
  Zn  Zn12  1  0.179286  0.820929  0.317960  1
  Zn  Zn13  1  0.318140  0.180241  0.821757  1
  Ga  Ga14  1  0.678444  0.677592  0.678350  1
  Ga  Ga15  1  0.575544  0.421684  0.936772  1
  Ga  Ga16  1  0.423671  0.932554  0.570876  1
  Ga  Ga17  1  0.930432  0.566670  0.419210  1
  Ga  Ga18  1  0.067409  0.076130  0.073594  1
  Cu  Cu19  1  0.821313  0.318336  0.179778  1
  N  N20  1  0.877341  0.126343  0.624051  1
  N  N21  1  0.625300  0.877730  0.125360  1
  N  N22  1  0.125240  0.624226  0.877449  1
  N  N23  1  0.376793  0.376420  0.375569  1
