# generated using pymatgen
data_TbHo3InIr
_symmetry_space_group_name_H-M   'P 1'
_cell_length_a   9.64786358
_cell_length_b   9.64468507
_cell_length_c   9.64966535
_cell_angle_alpha   60.00138683
_cell_angle_beta   60.02309147
_cell_angle_gamma   59.97669385
_symmetry_Int_Tables_number   1
_chemical_formula_structural   TbHo3InIr
_chemical_formula_sum   'Tb4 Ho12 In4 Ir4'
_cell_volume   634.92169016
_cell_formula_units_Z   4
loop_
 _symmetry_equiv_pos_site_id
 _symmetry_equiv_pos_as_xyz
  1  'x, y, z'
loop_
 _atom_site_type_symbol
 _atom_site_label
 _atom_site_symmetry_multiplicity
 _atom_site_fract_x
 _atom_site_fract_y
 _atom_site_fract_z
 _atom_site_occupancy
  Tb  Tb0  1  0.439776  0.439186  0.060495  1
  Tb  Tb1  1  0.650593  0.650432  0.048654  1
  Tb  Tb2  1  0.191147  0.808830  0.191560  1
  Tb  Tb3  1  0.060501  0.439291  0.060640  1
  Ho  Ho4  1  0.191405  0.809039  0.807905  1
  Ho  Ho5  1  0.060014  0.439423  0.440302  1
  Ho  Ho6  1  0.808450  0.191325  0.191516  1
  Ho  Ho7  1  0.650667  0.650481  0.650461  1
  Ho  Ho8  1  0.808817  0.191390  0.808316  1
  Ho  Ho9  1  0.191445  0.191667  0.808066  1
  Ho  Ho10  1  0.048202  0.650567  0.650674  1
  Ho  Ho11  1  0.439901  0.060146  0.060339  1
  Ho  Ho12  1  0.060280  0.060246  0.440041  1
  Ho  Ho13  1  0.650627  0.048407  0.650539  1
  Ho  Ho14  1  0.808208  0.808848  0.191516  1
  Ho  Ho15  1  0.439704  0.060034  0.439979  1
  In  In16  1  0.416836  0.416688  0.417339  1
  In  In17  1  0.417143  0.416928  0.748808  1
  In  In18  1  0.416867  0.749437  0.417051  1
  In  In19  1  0.749120  0.416838  0.417299  1
  Ir  Ir20  1  0.423707  0.859485  0.857718  1
  Ir  Ir21  1  0.859055  0.859359  0.858314  1
  Ir  Ir22  1  0.859354  0.423147  0.858231  1
  Ir  Ir23  1  0.858181  0.858807  0.424240  1
