# generated using pymatgen
data_Tb4Tm8Tc3Pt
_symmetry_space_group_name_H-M   'P 1'
_cell_length_a   6.27242690
_cell_length_b   7.37717442
_cell_length_c   9.07306900
_cell_angle_alpha   90.00000000
_cell_angle_beta   90.00000000
_cell_angle_gamma   89.94994254
_symmetry_Int_Tables_number   1
_chemical_formula_structural   Tb4Tm8Tc3Pt
_chemical_formula_sum   'Tb4 Tm8 Tc3 Pt1'
_cell_volume   419.83603175
_cell_formula_units_Z   1
loop_
 _symmetry_equiv_pos_site_id
 _symmetry_equiv_pos_as_xyz
  1  'x, y, z'
loop_
 _atom_site_type_symbol
 _atom_site_label
 _atom_site_symmetry_multiplicity
 _atom_site_fract_x
 _atom_site_fract_y
 _atom_site_fract_z
 _atom_site_occupancy
  Tb  Tb0  1  0.874773  0.542256  0.250000  1
  Tb  Tb1  1  0.621881  0.037122  0.250000  1
  Tb  Tb2  1  0.127128  0.456862  0.750000  1
  Tb  Tb3  1  0.371624  0.964285  0.750000  1
  Tm  Tm4  1  0.331878  0.675815  0.067015  1
  Tm  Tm5  1  0.161727  0.177222  0.435598  1
  Tm  Tm6  1  0.663833  0.318689  0.559012  1
  Tm  Tm7  1  0.839699  0.828512  0.939229  1
  Tm  Tm8  1  0.663833  0.318689  0.940988  1
  Tm  Tm9  1  0.839699  0.828512  0.560771  1
  Tm  Tm10  1  0.331878  0.675815  0.432985  1
  Tm  Tm11  1  0.161727  0.177222  0.064402  1
  Tc  Tc12  1  0.040393  0.883558  0.250000  1
  Tc  Tc13  1  0.461116  0.385710  0.250000  1
  Tc  Tc14  1  0.954697  0.116624  0.750000  1
  Pt  Pt15  1  0.554111  0.613107  0.750000  1
