# generated using pymatgen
data_NdDy5(SnRh)6
_symmetry_space_group_name_H-M   'P 1'
_cell_length_a   7.51796946
_cell_length_b   7.50722869
_cell_length_c   7.93583100
_cell_angle_alpha   90.00000000
_cell_angle_beta   90.00000000
_cell_angle_gamma   119.95146326
_symmetry_Int_Tables_number   1
_chemical_formula_structural   NdDy5(SnRh)6
_chemical_formula_sum   'Nd1 Dy5 Sn6 Rh6'
_cell_volume   388.07480325
_cell_formula_units_Z   1
loop_
 _symmetry_equiv_pos_site_id
 _symmetry_equiv_pos_as_xyz
  1  'x, y, z'
loop_
 _atom_site_type_symbol
 _atom_site_label
 _atom_site_symmetry_multiplicity
 _atom_site_fract_x
 _atom_site_fract_y
 _atom_site_fract_z
 _atom_site_occupancy
  Nd  Nd0  1  0.999969  0.588913  0.250000  1
  Dy  Dy1  1  0.592462  0.000328  0.750000  1
  Dy  Dy2  1  0.407550  0.407930  0.750000  1
  Dy  Dy3  1  0.000013  0.593833  0.750000  1
  Dy  Dy4  1  0.592231  0.999441  0.250000  1
  Dy  Dy5  1  0.407768  0.407133  0.250000  1
  Sn  Sn6  1  0.259168  0.001836  0.999213  1
  Sn  Sn7  1  0.740838  0.742701  0.500772  1
  Sn  Sn8  1  0.999997  0.256119  0.503800  1
  Sn  Sn9  1  0.999997  0.256119  0.996200  1
  Sn  Sn10  1  0.740838  0.742701  0.999228  1
  Sn  Sn11  1  0.259168  0.001836  0.500787  1
  Rh  Rh12  1  0.664415  0.331846  0.995248  1
  Rh  Rh13  1  0.664415  0.331846  0.504752  1
  Rh  Rh14  1  0.335576  0.667382  0.995473  1
  Rh  Rh15  1  0.335576  0.667382  0.504527  1
  Rh  Rh16  1  0.999985  0.998771  0.750000  1
  Rh  Rh17  1  0.000037  0.003883  0.250000  1
