# generated using pymatgen
data_Tb2Er2Sc3AlPt4
_symmetry_space_group_name_H-M   'P 1'
_cell_length_a   4.51660500
_cell_length_b   7.03077283
_cell_length_c   8.28012458
_cell_angle_alpha   86.84737260
_cell_angle_beta   90.00000000
_cell_angle_gamma   90.00000000
_symmetry_Int_Tables_number   1
_chemical_formula_structural   Tb2Er2Sc3AlPt4
_chemical_formula_sum   'Tb2 Er2 Sc3 Al1 Pt4'
_cell_volume   262.53927282
_cell_formula_units_Z   1
loop_
 _symmetry_equiv_pos_site_id
 _symmetry_equiv_pos_as_xyz
  1  'x, y, z'
loop_
 _atom_site_type_symbol
 _atom_site_label
 _atom_site_symmetry_multiplicity
 _atom_site_fract_x
 _atom_site_fract_y
 _atom_site_fract_z
 _atom_site_occupancy
  Tb  Tb0  1  0.750000  0.520029  0.814039  1
  Tb  Tb1  1  0.750000  0.039798  0.672272  1
  Er  Er2  1  0.250000  0.466981  0.184104  1
  Er  Er3  1  0.250000  0.989932  0.340663  1
  Sc  Sc4  1  0.250000  0.862125  0.931105  1
  Sc  Sc5  1  0.750000  0.131697  0.072108  1
  Sc  Sc6  1  0.750000  0.641397  0.433443  1
  Al  Al7  1  0.250000  0.361744  0.566329  1
  Pt  Pt8  1  0.250000  0.731262  0.612520  1
  Pt  Pt9  1  0.750000  0.264892  0.383077  1
  Pt  Pt10  1  0.750000  0.745953  0.100881  1
  Pt  Pt11  1  0.250000  0.244190  0.889459  1
