# generated using pymatgen
data_Er4Zn3In2Co
_symmetry_space_group_name_H-M   'P 1'
_cell_length_a   7.72284434
_cell_length_b   7.72284434
_cell_length_c   3.61424500
_cell_angle_alpha   90.00000000
_cell_angle_beta   90.00000000
_cell_angle_gamma   90.06743871
_symmetry_Int_Tables_number   1
_chemical_formula_structural   Er4Zn3In2Co
_chemical_formula_sum   'Er4 Zn3 In2 Co1'
_cell_volume   215.56182437
_cell_formula_units_Z   1
loop_
 _symmetry_equiv_pos_site_id
 _symmetry_equiv_pos_as_xyz
  1  'x, y, z'
loop_
 _atom_site_type_symbol
 _atom_site_label
 _atom_site_symmetry_multiplicity
 _atom_site_fract_x
 _atom_site_fract_y
 _atom_site_fract_z
 _atom_site_occupancy
  Er  Er0  1  0.353682  0.177212  0.500000  1
  Er  Er1  1  0.805288  0.305288  0.500000  1
  Er  Er2  1  0.171562  0.671562  0.500000  1
  Er  Er3  1  0.677212  0.853682  0.500000  1
  Zn  Zn4  1  0.115405  0.372329  0.000000  1
  Zn  Zn5  1  0.872329  0.615405  0.000000  1
  Zn  Zn6  1  0.383124  0.883124  0.000000  1
  In  In7  1  0.000549  0.002541  0.000000  1
  In  In8  1  0.502542  0.500550  0.000000  1
  Co  Co9  1  0.618308  0.118308  0.000000  1
