# generated using pymatgen
data_Lu5Nb2P12Ir17
_symmetry_space_group_name_H-M   'P 1'
_cell_length_a   12.55246700
_cell_length_b   12.75698640
_cell_length_c   3.97741700
_cell_angle_alpha   90.00000000
_cell_angle_beta   90.00000000
_cell_angle_gamma   119.47107191
_symmetry_Int_Tables_number   1
_chemical_formula_structural   Lu5Nb2P12Ir17
_chemical_formula_sum   'Lu5 Nb2 P12 Ir17'
_cell_volume   554.49682890
_cell_formula_units_Z   1
loop_
 _symmetry_equiv_pos_site_id
 _symmetry_equiv_pos_as_xyz
  1  'x, y, z'
loop_
 _atom_site_type_symbol
 _atom_site_label
 _atom_site_symmetry_multiplicity
 _atom_site_fract_x
 _atom_site_fract_y
 _atom_site_fract_z
 _atom_site_occupancy
  Lu  Lu0  1  0.330227  0.660873  0.500000  1
  Lu  Lu1  1  0.669355  0.339127  0.500000  1
  Lu  Lu2  1  0.998527  0.813558  0.000000  1
  Lu  Lu3  1  0.184969  0.186442  0.000000  1
  Lu  Lu4  1  0.815385  0.000000  0.000000  1
  Nb  Nb5  1  0.997577  0.450863  0.500000  1
  Nb  Nb6  1  0.546714  0.549137  0.500000  1
  P  P7  1  0.003261  0.643215  0.500000  1
  P  P8  1  0.360046  0.356785  0.500000  1
  P  P9  1  0.646986  0.000000  0.500000  1
  P  P10  1  0.513927  0.683221  0.000000  1
  P  P11  1  0.309235  0.824048  0.000000  1
  P  P12  1  0.163574  0.481543  0.000000  1
  P  P13  1  0.485187  0.175952  0.000000  1
  P  P14  1  0.682031  0.518457  0.000000  1
  P  P15  1  0.830706  0.316779  0.000000  1
  P  P16  1  0.000045  0.174830  0.500000  1
  P  P17  1  0.825214  0.825170  0.500000  1
  P  P18  1  0.180149  0.000000  0.500000  1
  Ir  Ir19  1  0.504548  0.862488  0.000000  1
  Ir  Ir20  1  0.129077  0.641641  0.000000  1
  Ir  Ir21  1  0.354051  0.494470  0.000000  1
  Ir  Ir22  1  0.487437  0.358359  0.000000  1
  Ir  Ir23  1  0.859584  0.505530  0.000000  1
  Ir  Ir24  1  0.642061  0.137512  0.000000  1
  Ir  Ir25  1  0.464926  0.000000  0.500000  1
  Ir  Ir26  1  0.997481  0.281693  0.000000  1
  Ir  Ir27  1  0.715787  0.718307  0.000000  1
  Ir  Ir28  1  0.290504  0.000000  0.000000  1
  Ir  Ir29  1  0.625642  0.808278  0.500000  1
  Ir  Ir30  1  0.200102  0.823396  0.500000  1
  Ir  Ir31  1  0.177845  0.366697  0.500000  1
  Ir  Ir32  1  0.376706  0.176604  0.500000  1
  Ir  Ir33  1  0.811148  0.633303  0.500000  1
  Ir  Ir34  1  0.817365  0.191722  0.500000  1
  Ir  Ir35  1  0.002621  0.000000  0.500000  1
