# generated using pymatgen
data_LaTh3(SnPt2)2
_symmetry_space_group_name_H-M   'P 1'
_cell_length_a   7.99016411
_cell_length_b   7.99016411
_cell_length_c   3.83049900
_cell_angle_alpha   90.00000000
_cell_angle_beta   90.00000000
_cell_angle_gamma   89.37694143
_symmetry_Int_Tables_number   1
_chemical_formula_structural   LaTh3(SnPt2)2
_chemical_formula_sum   'La1 Th3 Sn2 Pt4'
_cell_volume   244.53502533
_cell_formula_units_Z   1
loop_
 _symmetry_equiv_pos_site_id
 _symmetry_equiv_pos_as_xyz
  1  'x, y, z'
loop_
 _atom_site_type_symbol
 _atom_site_label
 _atom_site_symmetry_multiplicity
 _atom_site_fract_x
 _atom_site_fract_y
 _atom_site_fract_z
 _atom_site_occupancy
  La  La0  1  0.324521  0.824521  0.500000  1
  Th  Th1  1  0.826482  0.673699  0.500000  1
  Th  Th2  1  0.173699  0.326482  0.500000  1
  Th  Th3  1  0.672469  0.172469  0.500000  1
  Sn  Sn4  1  0.500214  0.501119  0.000000  1
  Sn  Sn5  1  0.001119  0.000214  0.000000  1
  Pt  Pt6  1  0.120902  0.620902  0.000000  1
  Pt  Pt7  1  0.636765  0.875702  0.000000  1
  Pt  Pt8  1  0.868127  0.368127  0.000000  1
  Pt  Pt9  1  0.375702  0.136765  0.000000  1
