# generated using pymatgen
data_LuNb8SbS16
_symmetry_space_group_name_H-M   'P 1'
_cell_length_a   6.73982100
_cell_length_b   6.73982107
_cell_length_c   13.67647800
_cell_angle_alpha   90.00000000
_cell_angle_beta   90.00000000
_cell_angle_gamma   120.00000454
_symmetry_Int_Tables_number   1
_chemical_formula_structural   LuNb8SbS16
_chemical_formula_sum   'Lu1 Nb8 Sb1 S16'
_cell_volume   538.02395507
_cell_formula_units_Z   1
loop_
 _symmetry_equiv_pos_site_id
 _symmetry_equiv_pos_as_xyz
  1  'x, y, z'
loop_
 _atom_site_type_symbol
 _atom_site_label
 _atom_site_symmetry_multiplicity
 _atom_site_fract_x
 _atom_site_fract_y
 _atom_site_fract_z
 _atom_site_occupancy
  Lu  Lu0  1  0.000000  0.000000  0.500000  1
  Nb  Nb1  1  0.988899  0.494450  0.253560  1
  Nb  Nb2  1  0.011101  0.505550  0.746440  1
  Nb  Nb3  1  0.494450  0.505550  0.746440  1
  Nb  Nb4  1  0.505550  0.011101  0.253560  1
  Nb  Nb5  1  0.000000  0.000000  0.746116  1
  Nb  Nb6  1  0.000000  0.000000  0.253884  1
  Nb  Nb7  1  0.505550  0.494450  0.253560  1
  Nb  Nb8  1  0.494450  0.988899  0.746440  1
  Sb  Sb9  1  0.000000  0.000000  0.000000  1
  S  S10  1  0.333333  0.666667  0.629173  1
  S  S11  1  0.666667  0.333333  0.136838  1
  S  S12  1  0.666667  0.333333  0.370827  1
  S  S13  1  0.333333  0.666667  0.863162  1
  S  S14  1  0.167916  0.335832  0.368123  1
  S  S15  1  0.830952  0.169048  0.860243  1
  S  S16  1  0.338095  0.169048  0.860243  1
  S  S17  1  0.664168  0.832084  0.368123  1
  S  S18  1  0.167916  0.832084  0.368123  1
  S  S19  1  0.830952  0.661905  0.860243  1
  S  S20  1  0.169048  0.338095  0.139757  1
  S  S21  1  0.832084  0.167916  0.631877  1
  S  S22  1  0.335832  0.167916  0.631877  1
  S  S23  1  0.661905  0.830952  0.139757  1
  S  S24  1  0.169048  0.830952  0.139757  1
  S  S25  1  0.832084  0.664168  0.631877  1
