# generated using pymatgen
data_Rb19(Mo2N5)6
_symmetry_space_group_name_H-M   'P 1'
_cell_length_a   12.01154252
_cell_length_b   12.01154200
_cell_length_c   12.01154200
_cell_angle_alpha   65.66055755
_cell_angle_beta   65.66055866
_cell_angle_gamma   65.66055203
_symmetry_Int_Tables_number   1
_chemical_formula_structural   Rb19(Mo2N5)6
_chemical_formula_sum   'Rb19 Mo12 N30'
_cell_volume   1375.98950490
_cell_formula_units_Z   1
loop_
 _symmetry_equiv_pos_site_id
 _symmetry_equiv_pos_as_xyz
  1  'x, y, z'
loop_
 _atom_site_type_symbol
 _atom_site_label
 _atom_site_symmetry_multiplicity
 _atom_site_fract_x
 _atom_site_fract_y
 _atom_site_fract_z
 _atom_site_occupancy
  Rb  Rb0  1  0.437153  0.837008  0.551728  1
  Rb  Rb1  1  0.837024  0.551714  0.437152  1
  Rb  Rb2  1  0.551711  0.437165  0.837005  1
  Rb  Rb3  1  0.944669  0.051025  0.321765  1
  Rb  Rb4  1  0.051017  0.321728  0.944692  1
  Rb  Rb5  1  0.321744  0.944683  0.051016  1
  Rb  Rb6  1  0.562847  0.162992  0.448272  1
  Rb  Rb7  1  0.162976  0.448286  0.562848  1
  Rb  Rb8  1  0.448289  0.562835  0.162995  1
  Rb  Rb9  1  0.055331  0.948975  0.678235  1
  Rb  Rb10  1  0.948983  0.678272  0.055308  1
  Rb  Rb11  1  0.678256  0.055317  0.948984  1
  Rb  Rb12  1  0.577861  0.917419  0.754453  1
  Rb  Rb13  1  0.917384  0.754464  0.577840  1
  Rb  Rb14  1  0.754463  0.577836  0.917394  1
  Rb  Rb15  1  0.082616  0.245536  0.422160  1
  Rb  Rb16  1  0.245537  0.422164  0.082606  1
  Rb  Rb17  1  0.422139  0.082581  0.245547  1
  Rb  Rb18  1  0.500000  0.500000  0.500000  1
  Mo  Mo19  1  0.599218  0.750038  0.198913  1
  Mo  Mo20  1  0.750058  0.198883  0.599140  1
  Mo  Mo21  1  0.199050  0.599157  0.750037  1
  Mo  Mo22  1  0.099909  0.702141  0.248840  1
  Mo  Mo23  1  0.702308  0.248815  0.099931  1
  Mo  Mo24  1  0.248852  0.099848  0.702272  1
  Mo  Mo25  1  0.400782  0.249962  0.801087  1
  Mo  Mo26  1  0.249942  0.801117  0.400860  1
  Mo  Mo27  1  0.800950  0.400843  0.249963  1
  Mo  Mo28  1  0.900091  0.297859  0.751160  1
  Mo  Mo29  1  0.297692  0.751185  0.900069  1
  Mo  Mo30  1  0.751148  0.900152  0.297728  1
  N  N31  1  0.343532  0.153666  0.755096  1
  N  N32  1  0.153665  0.755099  0.343548  1
  N  N33  1  0.755075  0.343550  0.153670  1
  N  N34  1  0.846335  0.244901  0.656452  1
  N  N35  1  0.244925  0.656450  0.846330  1
  N  N36  1  0.656468  0.846334  0.244904  1
  N  N37  1  0.701338  0.575711  0.237867  1
  N  N38  1  0.575709  0.237822  0.701361  1
  N  N39  1  0.237875  0.701349  0.575710  1
  N  N40  1  0.206388  0.733062  0.076552  1
  N  N41  1  0.733061  0.076563  0.206382  1
  N  N42  1  0.076565  0.206392  0.733047  1
  N  N43  1  0.298662  0.424289  0.762133  1
  N  N44  1  0.424291  0.762178  0.298639  1
  N  N45  1  0.762125  0.298651  0.424290  1
  N  N46  1  0.793612  0.266938  0.923448  1
  N  N47  1  0.266939  0.923437  0.793618  1
  N  N48  1  0.923435  0.793608  0.266953  1
  N  N49  1  0.686549  0.886588  0.463821  1
  N  N50  1  0.886563  0.463879  0.686548  1
  N  N51  1  0.463758  0.686612  0.886554  1
  N  N52  1  0.188428  0.966615  0.389562  1
  N  N53  1  0.966446  0.389553  0.188541  1
  N  N54  1  0.389515  0.188494  0.966550  1
  N  N55  1  0.313451  0.113412  0.536179  1
  N  N56  1  0.113437  0.536121  0.313452  1
  N  N57  1  0.536242  0.313388  0.113446  1
  N  N58  1  0.811572  0.033385  0.610438  1
  N  N59  1  0.033554  0.610447  0.811459  1
  N  N60  1  0.610485  0.811506  0.033450  1
