# generated using pymatgen
data_Li2TaMn(B4Ru5)2
_symmetry_space_group_name_H-M   'P 1'
_cell_length_a   2.94101100
_cell_length_b   8.32567728
_cell_length_c   10.00798014
_cell_angle_alpha   90.79651681
_cell_angle_beta   90.00000000
_cell_angle_gamma   90.00000000
_symmetry_Int_Tables_number   1
_chemical_formula_structural   Li2TaMn(B4Ru5)2
_chemical_formula_sum   'Li2 Ta1 Mn1 B8 Ru10'
_cell_volume   245.03080628
_cell_formula_units_Z   1
loop_
 _symmetry_equiv_pos_site_id
 _symmetry_equiv_pos_as_xyz
  1  'x, y, z'
loop_
 _atom_site_type_symbol
 _atom_site_label
 _atom_site_symmetry_multiplicity
 _atom_site_fract_x
 _atom_site_fract_y
 _atom_site_fract_z
 _atom_site_occupancy
  Li  Li0  1  0.500000  0.357310  0.193793  1
  Li  Li1  1  0.500000  0.150107  0.668674  1
  Ta  Ta2  1  0.500000  0.648998  0.821228  1
  Mn  Mn3  1  0.500000  0.864517  0.297128  1
  B  B4  1  0.500000  0.853842  0.599303  1
  B  B5  1  0.500000  0.150943  0.398227  1
  B  B6  1  0.500000  0.342968  0.900194  1
  B  B7  1  0.500000  0.643031  0.109453  1
  B  B8  1  0.500000  0.962954  0.908589  1
  B  B9  1  0.500000  0.048971  0.087588  1
  B  B10  1  0.500000  0.451190  0.592116  1
  B  B11  1  0.500000  0.537285  0.414622  1
  Ru  Ru12  1  0.000000  0.392482  0.742118  1
  Ru  Ru13  1  0.000000  0.616371  0.269904  1
  Ru  Ru14  1  0.000000  0.902090  0.758512  1
  Ru  Ru15  1  0.000000  0.105788  0.236837  1
  Ru  Ru16  1  0.000000  0.987683  0.487547  1
  Ru  Ru17  1  0.000000  0.496229  0.004573  1
  Ru  Ru18  1  0.000000  0.653582  0.558691  1
  Ru  Ru19  1  0.000000  0.342518  0.453106  1
  Ru  Ru20  1  0.000000  0.153454  0.952224  1
  Ru  Ru21  1  0.000000  0.837690  0.045573  1
