# generated using pymatgen
data_Tb2Lu4Bi2Mo
_symmetry_space_group_name_H-M   'P 1'
_cell_length_a   8.20917114
_cell_length_b   8.20884084
_cell_length_c   4.32965900
_cell_angle_alpha   90.00000000
_cell_angle_beta   90.00000000
_cell_angle_gamma   119.99867217
_symmetry_Int_Tables_number   1
_chemical_formula_structural   Tb2Lu4Bi2Mo
_chemical_formula_sum   'Tb2 Lu4 Bi2 Mo1'
_cell_volume   252.68023979
_cell_formula_units_Z   1
loop_
 _symmetry_equiv_pos_site_id
 _symmetry_equiv_pos_as_xyz
  1  'x, y, z'
loop_
 _atom_site_type_symbol
 _atom_site_label
 _atom_site_symmetry_multiplicity
 _atom_site_fract_x
 _atom_site_fract_y
 _atom_site_fract_z
 _atom_site_occupancy
  Tb  Tb0  1  0.390044  0.390788  0.500000  1
  Tb  Tb1  1  0.609956  0.000744  0.500000  1
  Lu  Lu2  1  0.232758  0.998659  0.000000  1
  Lu  Lu3  1  0.000000  0.614315  0.500000  1
  Lu  Lu4  1  0.767242  0.765901  0.000000  1
  Lu  Lu5  1  0.000000  0.231238  0.000000  1
  Bi  Bi6  1  0.330206  0.666119  0.000000  1
  Bi  Bi7  1  0.669794  0.335912  0.000000  1
  Mo  Mo8  1  0.000000  0.996323  0.500000  1
