# generated using pymatgen
data_Dy3Y17IrRh11
_symmetry_space_group_name_H-M   'P 1'
_cell_length_a   10.96534536
_cell_length_b   10.96540838
_cell_length_c   6.38480200
_cell_angle_alpha   89.99630158
_cell_angle_beta   89.99862055
_cell_angle_gamma   90.06541337
_symmetry_Int_Tables_number   1
_chemical_formula_structural   Dy3Y17IrRh11
_chemical_formula_sum   'Dy3 Y17 Ir1 Rh11'
_cell_volume   767.70483378
_cell_formula_units_Z   1
loop_
 _symmetry_equiv_pos_site_id
 _symmetry_equiv_pos_as_xyz
  1  'x, y, z'
loop_
 _atom_site_type_symbol
 _atom_site_label
 _atom_site_symmetry_multiplicity
 _atom_site_fract_x
 _atom_site_fract_y
 _atom_site_fract_z
 _atom_site_occupancy
  Dy  Dy0  1  0.000150  0.000241  0.999840  1
  Dy  Dy1  1  0.499721  0.499931  0.000168  1
  Dy  Dy2  1  0.500070  0.500272  0.499850  1
  Y  Y3  1  0.290920  0.089055  0.379155  1
  Y  Y4  1  0.291230  0.909429  0.879201  1
  Y  Y5  1  0.709074  0.088598  0.879108  1
  Y  Y6  1  0.708799  0.910775  0.378876  1
  Y  Y7  1  0.587099  0.790280  0.878821  1
  Y  Y8  1  0.589155  0.209111  0.379547  1
  Y  Y9  1  0.410498  0.790300  0.380269  1
  Y  Y10  1  0.410996  0.208765  0.878921  1
  Y  Y11  1  0.209746  0.412696  0.621291  1
  Y  Y12  1  0.209685  0.589291  0.119631  1
  Y  Y13  1  0.790890  0.411067  0.120341  1
  Y  Y14  1  0.791212  0.589231  0.621191  1
  Y  Y15  1  0.911170  0.709196  0.120829  1
  Y  Y16  1  0.911186  0.291028  0.620908  1
  Y  Y17  1  0.090786  0.708678  0.620799  1
  Y  Y18  1  0.089003  0.291093  0.121096  1
  Y  Y19  1  0.999763  0.999863  0.500158  1
  Ir  Ir20  1  0.347030  0.652958  0.750046  1
  Rh  Rh21  1  0.846493  0.153574  0.248923  1
  Rh  Rh22  1  0.846182  0.846701  0.751344  1
  Rh  Rh23  1  0.153369  0.153738  0.750895  1
  Rh  Rh24  1  0.152725  0.847183  0.248882  1
  Rh  Rh25  1  0.653001  0.346988  0.750106  1
  Rh  Rh26  1  0.653852  0.653102  0.250004  1
  Rh  Rh27  1  0.346874  0.346172  0.249764  1
  Rh  Rh28  1  0.500188  0.000486  0.126176  1
  Rh  Rh29  1  0.500314  0.000702  0.625467  1
  Rh  Rh30  1  0.999304  0.499680  0.874670  1
  Rh  Rh31  1  0.999517  0.499813  0.373722  1
