# generated using pymatgen
data_La2Sm7Er11Si15Os
_symmetry_space_group_name_H-M   'P 1'
_cell_length_a   7.43962360
_cell_length_b   7.82250863
_cell_length_c   14.70541806
_cell_angle_alpha   89.85737873
_cell_angle_beta   90.05028838
_cell_angle_gamma   89.98125931
_symmetry_Int_Tables_number   1
_chemical_formula_structural   La2Sm7Er11Si15Os
_chemical_formula_sum   'La2 Sm7 Er11 Si15 Os1'
_cell_volume   855.80112514
_cell_formula_units_Z   1
loop_
 _symmetry_equiv_pos_site_id
 _symmetry_equiv_pos_as_xyz
  1  'x, y, z'
loop_
 _atom_site_type_symbol
 _atom_site_label
 _atom_site_symmetry_multiplicity
 _atom_site_fract_x
 _atom_site_fract_y
 _atom_site_fract_z
 _atom_site_occupancy
  La  La0  1  0.520974  0.568737  0.343435  1
  La  La1  1  0.020010  0.427078  0.656894  1
  Sm  Sm2  1  0.844015  0.732097  0.499294  1
  Sm  Sm3  1  0.481804  0.924800  0.849257  1
  Sm  Sm4  1  0.979695  0.071494  0.151991  1
  Sm  Sm5  1  0.481129  0.923652  0.150307  1
  Sm  Sm6  1  0.977966  0.071649  0.849002  1
  Sm  Sm7  1  0.522188  0.566046  0.654357  1
  Sm  Sm8  1  0.021091  0.429298  0.345155  1
  Er  Er9  1  0.808269  0.577815  0.878104  1
  Er  Er10  1  0.328864  0.434787  0.123011  1
  Er  Er11  1  0.180285  0.926333  0.373226  1
  Er  Er12  1  0.679966  0.068832  0.627019  1
  Er  Er13  1  0.179923  0.925833  0.627590  1
  Er  Er14  1  0.678921  0.069307  0.372235  1
  Er  Er15  1  0.810358  0.576556  0.122115  1
  Er  Er16  1  0.330181  0.436986  0.876587  1
  Er  Er17  1  0.647030  0.245457  0.000084  1
  Er  Er18  1  0.162617  0.759259  0.000036  1
  Er  Er19  1  0.347028  0.262208  0.500045  1
  Si  Si20  1  0.022355  0.356596  0.999718  1
  Si  Si21  1  0.469336  0.867152  0.501079  1
  Si  Si22  1  0.975420  0.134838  0.499155  1
  Si  Si23  1  0.651898  0.276437  0.789181  1
  Si  Si24  1  0.146775  0.720549  0.209832  1
  Si  Si25  1  0.351061  0.214413  0.286743  1
  Si  Si26  1  0.850581  0.785227  0.714032  1
  Si  Si27  1  0.357271  0.216141  0.712704  1
  Si  Si28  1  0.855906  0.783560  0.286288  1
  Si  Si29  1  0.652154  0.272717  0.209485  1
  Si  Si30  1  0.144723  0.724505  0.791369  1
  Si  Si31  1  0.772072  0.881945  0.999929  1
  Si  Si32  1  0.264276  0.129189  0.999935  1
  Si  Si33  1  0.232086  0.626282  0.501416  1
  Si  Si34  1  0.728961  0.364717  0.499329  1
  Os  Os35  1  0.522813  0.647509  0.000058  1
