# generated using pymatgen
data_LaDy(BIr)8
_symmetry_space_group_name_H-M   'P 1'
_cell_length_a   7.69745200
_cell_length_b   7.69745200
_cell_length_c   3.99534300
_cell_angle_alpha   90.00000000
_cell_angle_beta   90.00000000
_cell_angle_gamma   90.00000000
_symmetry_Int_Tables_number   1
_chemical_formula_structural   LaDy(BIr)8
_chemical_formula_sum   'La1 Dy1 B8 Ir8'
_cell_volume   236.72713835
_cell_formula_units_Z   1
loop_
 _symmetry_equiv_pos_site_id
 _symmetry_equiv_pos_as_xyz
  1  'x, y, z'
loop_
 _atom_site_type_symbol
 _atom_site_label
 _atom_site_symmetry_multiplicity
 _atom_site_fract_x
 _atom_site_fract_y
 _atom_site_fract_z
 _atom_site_occupancy
  La  La0  1  0.000000  0.000000  0.500000  1
  Dy  Dy1  1  0.500000  0.500000  0.000000  1
  B  B2  1  0.657495  0.776706  0.611229  1
  B  B3  1  0.158590  0.281143  0.893121  1
  B  B4  1  0.281143  0.841410  0.106879  1
  B  B5  1  0.718857  0.158590  0.106879  1
  B  B6  1  0.342505  0.223294  0.611229  1
  B  B7  1  0.841410  0.718857  0.893121  1
  B  B8  1  0.223294  0.657495  0.388771  1
  B  B9  1  0.776706  0.342505  0.388771  1
  Ir  Ir10  1  0.343490  0.110509  0.109811  1
  Ir  Ir11  1  0.656510  0.889491  0.109811  1
  Ir  Ir12  1  0.608531  0.162330  0.609895  1
  Ir  Ir13  1  0.110509  0.656510  0.890189  1
  Ir  Ir14  1  0.162330  0.391469  0.390105  1
  Ir  Ir15  1  0.837670  0.608531  0.390105  1
  Ir  Ir16  1  0.889491  0.343490  0.890189  1
  Ir  Ir17  1  0.391469  0.837670  0.609895  1
