# generated using pymatgen
data_LaDySbTe
_symmetry_space_group_name_H-M   'P 1'
_cell_length_a   7.79726106
_cell_length_b   7.79726139
_cell_length_c   7.79726001
_cell_angle_alpha   33.42008880
_cell_angle_beta   33.42008271
_cell_angle_gamma   33.42008623
_symmetry_Int_Tables_number   1
_chemical_formula_structural   LaDySbTe
_chemical_formula_sum   'La1 Dy1 Sb1 Te1'
_cell_volume   128.06108315
_cell_formula_units_Z   1
loop_
 _symmetry_equiv_pos_site_id
 _symmetry_equiv_pos_as_xyz
  1  'x, y, z'
loop_
 _atom_site_type_symbol
 _atom_site_label
 _atom_site_symmetry_multiplicity
 _atom_site_fract_x
 _atom_site_fract_y
 _atom_site_fract_z
 _atom_site_occupancy
  La  La0  1  0.253437  0.253437  0.253437  1
  Dy  Dy1  1  0.746437  0.746437  0.746437  1
  Sb  Sb2  1  0.004957  0.004957  0.004957  1
  Te  Te3  1  0.495169  0.495169  0.495169  1
