# generated using pymatgen
data_Hf3Ga3FeCuNi
_symmetry_space_group_name_H-M   'P 1'
_cell_length_a   7.03355200
_cell_length_b   7.03355188
_cell_length_c   3.27935500
_cell_angle_alpha   90.00000000
_cell_angle_beta   90.00000000
_cell_angle_gamma   120.00000995
_symmetry_Int_Tables_number   1
_chemical_formula_structural   Hf3Ga3FeCuNi
_chemical_formula_sum   'Hf3 Ga3 Fe1 Cu1 Ni1'
_cell_volume   140.49744261
_cell_formula_units_Z   1
loop_
 _symmetry_equiv_pos_site_id
 _symmetry_equiv_pos_as_xyz
  1  'x, y, z'
loop_
 _atom_site_type_symbol
 _atom_site_label
 _atom_site_symmetry_multiplicity
 _atom_site_fract_x
 _atom_site_fract_y
 _atom_site_fract_z
 _atom_site_occupancy
  Hf  Hf0  1  0.405797  0.386258  0.500000  1
  Hf  Hf1  1  0.613742  0.019540  0.500000  1
  Hf  Hf2  1  0.980460  0.594203  0.500000  1
  Ga  Ga3  1  0.731976  0.738464  0.000000  1
  Ga  Ga4  1  0.261536  0.993512  0.000000  1
  Ga  Ga5  1  0.006488  0.268024  0.000000  1
  Fe  Fe6  1  0.666667  0.333333  0.000000  1
  Cu  Cu7  1  0.333333  0.666667  0.000000  1
  Ni  Ni8  1  0.000000  0.000000  0.500000  1
