# generated using pymatgen
data_Tb4DyEr5Ru4
_symmetry_space_group_name_H-M   'P 1'
_cell_length_a   6.33592506
_cell_length_b   7.27239056
_cell_length_c   8.45754242
_cell_angle_alpha   96.75780918
_cell_angle_beta   112.02999876
_cell_angle_gamma   89.89365967
_symmetry_Int_Tables_number   1
_chemical_formula_structural   Tb4DyEr5Ru4
_chemical_formula_sum   'Tb4 Dy1 Er5 Ru4'
_cell_volume   358.35948939
_cell_formula_units_Z   1
loop_
 _symmetry_equiv_pos_site_id
 _symmetry_equiv_pos_as_xyz
  1  'x, y, z'
loop_
 _atom_site_type_symbol
 _atom_site_label
 _atom_site_symmetry_multiplicity
 _atom_site_fract_x
 _atom_site_fract_y
 _atom_site_fract_z
 _atom_site_occupancy
  Tb  Tb0  1  0.790203  0.583714  0.812570  1
  Tb  Tb1  1  0.977064  0.916212  0.187380  1
  Tb  Tb2  1  0.210141  0.416012  0.187406  1
  Tb  Tb3  1  0.022581  0.084096  0.812624  1
  Dy  Dy4  1  0.205507  0.685332  0.565545  1
  Er  Er5  1  0.639974  0.815258  0.434383  1
  Er  Er6  1  0.794254  0.314672  0.434222  1
  Er  Er7  1  0.360122  0.184809  0.565333  1
  Er  Er8  1  0.419874  0.749888  0.000319  1
  Er  Er9  1  0.580451  0.250207  0.000078  1
  Ru  Ru10  1  0.601387  0.924760  0.779160  1
  Ru  Ru11  1  0.821429  0.575929  0.220572  1
  Ru  Ru12  1  0.399080  0.075507  0.221139  1
  Ru  Ru13  1  0.177933  0.423604  0.779269  1
