# generated using pymatgen
data_Dy8Tm2Sn5Bi3
_symmetry_space_group_name_H-M   'P 1'
_cell_length_a   8.16763500
_cell_length_b   8.21942577
_cell_length_c   15.58568400
_cell_angle_alpha   90.21106165
_cell_angle_beta   90.00000000
_cell_angle_gamma   90.00000000
_symmetry_Int_Tables_number   1
_chemical_formula_structural   Dy8Tm2Sn5Bi3
_chemical_formula_sum   'Dy16 Tm4 Sn10 Bi6'
_cell_volume   1046.31082644
_cell_formula_units_Z   2
loop_
 _symmetry_equiv_pos_site_id
 _symmetry_equiv_pos_as_xyz
  1  'x, y, z'
loop_
 _atom_site_type_symbol
 _atom_site_label
 _atom_site_symmetry_multiplicity
 _atom_site_fract_x
 _atom_site_fract_y
 _atom_site_fract_z
 _atom_site_occupancy
  Dy  Dy0  1  0.378088  0.840212  0.875715  1
  Dy  Dy1  1  0.878088  0.659788  0.624285  1
  Dy  Dy2  1  0.617945  0.159769  0.375887  1
  Dy  Dy3  1  0.117945  0.340231  0.124113  1
  Dy  Dy4  1  0.622787  0.164595  0.123630  1
  Dy  Dy5  1  0.122787  0.335405  0.376370  1
  Dy  Dy6  1  0.375026  0.843497  0.623200  1
  Dy  Dy7  1  0.875026  0.656503  0.876800  1
  Dy  Dy8  1  0.550342  0.332305  0.892940  1
  Dy  Dy9  1  0.050342  0.167695  0.607060  1
  Dy  Dy10  1  0.453783  0.679119  0.392168  1
  Dy  Dy11  1  0.953783  0.820881  0.107832  1
  Dy  Dy12  1  0.463057  0.667708  0.106960  1
  Dy  Dy13  1  0.963057  0.832292  0.393040  1
  Dy  Dy14  1  0.540394  0.323101  0.606388  1
  Dy  Dy15  1  0.040394  0.176899  0.893612  1
  Tm  Tm16  1  0.209994  0.499873  0.749994  1
  Tm  Tm17  1  0.709994  0.000127  0.750006  1
  Tm  Tm18  1  0.790086  0.499963  0.246655  1
  Tm  Tm19  1  0.290086  0.000037  0.253345  1
  Sn  Sn20  1  0.279435  0.028225  0.456032  1
  Sn  Sn21  1  0.779435  0.471775  0.043968  1
  Sn  Sn22  1  0.572463  0.626167  0.748513  1
  Sn  Sn23  1  0.072463  0.873833  0.751487  1
  Sn  Sn24  1  0.424780  0.375281  0.250161  1
  Sn  Sn25  1  0.924780  0.124719  0.249839  1
  Sn  Sn26  1  0.349613  0.148451  0.751704  1
  Sn  Sn27  1  0.849613  0.351549  0.748296  1
  Sn  Sn28  1  0.652368  0.854036  0.249670  1
  Sn  Sn29  1  0.152368  0.645964  0.250330  1
  Bi  Bi30  1  0.275068  0.023081  0.045506  1
  Bi  Bi31  1  0.775068  0.476919  0.454494  1
  Bi  Bi32  1  0.722503  0.973763  0.544104  1
  Bi  Bi33  1  0.222503  0.526237  0.955896  1
  Bi  Bi34  1  0.722266  0.973988  0.955422  1
  Bi  Bi35  1  0.222266  0.526012  0.544578  1
