# generated using pymatgen
data_NdGd2RuCl3
_symmetry_space_group_name_H-M   'P 1'
_cell_length_a   4.09251000
_cell_length_b   8.69813239
_cell_length_c   11.80203100
_cell_angle_alpha   86.93292192
_cell_angle_beta   90.00000000
_cell_angle_gamma   90.00000000
_symmetry_Int_Tables_number   1
_chemical_formula_structural   NdGd2RuCl3
_chemical_formula_sum   'Nd2 Gd4 Ru2 Cl6'
_cell_volume   419.51739693
_cell_formula_units_Z   2
loop_
 _symmetry_equiv_pos_site_id
 _symmetry_equiv_pos_as_xyz
  1  'x, y, z'
loop_
 _atom_site_type_symbol
 _atom_site_label
 _atom_site_symmetry_multiplicity
 _atom_site_fract_x
 _atom_site_fract_y
 _atom_site_fract_z
 _atom_site_occupancy
  Nd  Nd0  1  0.250000  0.875805  0.842435  1
  Nd  Nd1  1  0.750000  0.124195  0.157565  1
  Gd  Gd2  1  0.250000  0.321673  0.381022  1
  Gd  Gd3  1  0.750000  0.678327  0.618978  1
  Gd  Gd4  1  0.250000  0.889077  0.381372  1
  Gd  Gd5  1  0.750000  0.110923  0.618628  1
  Ru  Ru6  1  0.250000  0.895520  0.615331  1
  Ru  Ru7  1  0.750000  0.104480  0.384669  1
  Cl  Cl8  1  0.250000  0.401419  0.620307  1
  Cl  Cl9  1  0.750000  0.598581  0.379693  1
  Cl  Cl10  1  0.250000  0.893840  0.115624  1
  Cl  Cl11  1  0.750000  0.106160  0.884376  1
  Cl  Cl12  1  0.250000  0.351447  0.134438  1
  Cl  Cl13  1  0.750000  0.648553  0.865562  1
