# generated using pymatgen
data_Pr6Ho10Cd4CoPt3
_symmetry_space_group_name_H-M   'P 1'
_cell_length_a   9.73749264
_cell_length_b   9.73749100
_cell_length_c   9.73749214
_cell_angle_alpha   60.08348741
_cell_angle_beta   60.08348424
_cell_angle_gamma   60.08348284
_symmetry_Int_Tables_number   1
_chemical_formula_structural   Pr6Ho10Cd4CoPt3
_chemical_formula_sum   'Pr6 Ho10 Cd4 Co1 Pt3'
_cell_volume   654.10453575
_cell_formula_units_Z   1
loop_
 _symmetry_equiv_pos_site_id
 _symmetry_equiv_pos_as_xyz
  1  'x, y, z'
loop_
 _atom_site_type_symbol
 _atom_site_label
 _atom_site_symmetry_multiplicity
 _atom_site_fract_x
 _atom_site_fract_y
 _atom_site_fract_z
 _atom_site_occupancy
  Pr  Pr0  1  0.939743  0.560133  0.560133  1
  Pr  Pr1  1  0.559546  0.938617  0.938617  1
  Pr  Pr2  1  0.560133  0.939743  0.560133  1
  Pr  Pr3  1  0.938617  0.559546  0.938617  1
  Pr  Pr4  1  0.560133  0.560133  0.939743  1
  Pr  Pr5  1  0.938617  0.938617  0.559546  1
  Ho  Ho6  1  0.350516  0.350516  0.350516  1
  Ho  Ho7  1  0.344286  0.344286  0.956293  1
  Ho  Ho8  1  0.344286  0.956293  0.344286  1
  Ho  Ho9  1  0.956293  0.344286  0.344286  1
  Ho  Ho10  1  0.821455  0.186473  0.186473  1
  Ho  Ho11  1  0.186268  0.812142  0.812142  1
  Ho  Ho12  1  0.186473  0.821455  0.186473  1
  Ho  Ho13  1  0.812142  0.186268  0.812142  1
  Ho  Ho14  1  0.186473  0.186473  0.821455  1
  Ho  Ho15  1  0.812142  0.812142  0.186268  1
  Cd  Cd16  1  0.579046  0.579046  0.579046  1
  Cd  Cd17  1  0.580212  0.580212  0.261586  1
  Cd  Cd18  1  0.580212  0.261586  0.580212  1
  Cd  Cd19  1  0.261586  0.580212  0.580212  1
  Co  Co20  1  0.141885  0.141885  0.141885  1
  Pt  Pt21  1  0.143333  0.143333  0.573269  1
  Pt  Pt22  1  0.143333  0.573269  0.143333  1
  Pt  Pt23  1  0.573269  0.143333  0.143333  1
