# generated using pymatgen
data_Y6MnCo17P12
_symmetry_space_group_name_H-M   'P 1'
_cell_length_a   3.69076800
_cell_length_b   10.52030900
_cell_length_c   12.18008500
_cell_angle_alpha   90.00000000
_cell_angle_beta   90.00000000
_cell_angle_gamma   90.00000000
_symmetry_Int_Tables_number   1
_chemical_formula_structural   Y6MnCo17P12
_chemical_formula_sum   'Y6 Mn1 Co17 P12'
_cell_volume   472.92858163
_cell_formula_units_Z   1
loop_
 _symmetry_equiv_pos_site_id
 _symmetry_equiv_pos_as_xyz
  1  'x, y, z'
loop_
 _atom_site_type_symbol
 _atom_site_label
 _atom_site_symmetry_multiplicity
 _atom_site_fract_x
 _atom_site_fract_y
 _atom_site_fract_z
 _atom_site_occupancy
  Y  Y0  1  0.000000  0.500000  0.522718  1
  Y  Y1  1  0.500000  0.000000  0.477997  1
  Y  Y2  1  0.500000  0.818207  0.206007  1
  Y  Y3  1  0.500000  0.181793  0.206007  1
  Y  Y4  1  0.000000  0.682822  0.795025  1
  Y  Y5  1  0.000000  0.317178  0.795025  1
  Mn  Mn6  1  0.500000  0.500000  0.159009  1
  Co  Co7  1  0.000000  0.000000  0.840546  1
  Co  Co8  1  0.500000  0.500000  0.702906  1
  Co  Co9  1  0.000000  0.000000  0.296642  1
  Co  Co10  1  0.000000  0.500000  0.986164  1
  Co  Co11  1  0.500000  0.000000  0.014045  1
  Co  Co12  1  0.500000  0.333062  0.994126  1
  Co  Co13  1  0.500000  0.666938  0.994126  1
  Co  Co14  1  0.000000  0.166394  0.005597  1
  Co  Co15  1  0.000000  0.833606  0.005597  1
  Co  Co16  1  0.500000  0.297028  0.430211  1
  Co  Co17  1  0.500000  0.702972  0.430211  1
  Co  Co18  1  0.000000  0.203033  0.569131  1
  Co  Co19  1  0.000000  0.796967  0.569131  1
  Co  Co20  1  0.500000  0.879551  0.709209  1
  Co  Co21  1  0.500000  0.120449  0.709209  1
  Co  Co22  1  0.000000  0.620415  0.290254  1
  Co  Co23  1  0.000000  0.379585  0.290254  1
  P  P24  1  0.500000  0.500000  0.882523  1
  P  P25  1  0.000000  0.000000  0.116986  1
  P  P26  1  0.500000  0.500000  0.345248  1
  P  P27  1  0.000000  0.000000  0.656867  1
  P  P28  1  0.500000  0.310531  0.616119  1
  P  P29  1  0.500000  0.689469  0.616119  1
  P  P30  1  0.000000  0.189055  0.384188  1
  P  P31  1  0.000000  0.810945  0.384188  1
  P  P32  1  0.500000  0.848426  0.892967  1
  P  P33  1  0.500000  0.151574  0.892967  1
  P  P34  1  0.000000  0.653170  0.106340  1
  P  P35  1  0.000000  0.346830  0.106340  1
