# generated using pymatgen
data_Ba6Mn3CdNiO15
_symmetry_space_group_name_H-M   'P 1'
_cell_length_a   7.33544398
_cell_length_b   7.33544888
_cell_length_c   7.33543531
_cell_angle_alpha   87.44045144
_cell_angle_beta   87.44042897
_cell_angle_gamma   87.44047697
_symmetry_Int_Tables_number   1
_chemical_formula_structural   Ba6Mn3CdNiO15
_chemical_formula_sum   'Ba6 Mn3 Cd1 Ni1 O15'
_cell_volume   393.56350727
_cell_formula_units_Z   1
loop_
 _symmetry_equiv_pos_site_id
 _symmetry_equiv_pos_as_xyz
  1  'x, y, z'
loop_
 _atom_site_type_symbol
 _atom_site_label
 _atom_site_symmetry_multiplicity
 _atom_site_fract_x
 _atom_site_fract_y
 _atom_site_fract_z
 _atom_site_occupancy
  Ba  Ba0  1  0.334129  0.665568  0.999386  1
  Ba  Ba1  1  0.999386  0.334130  0.665567  1
  Ba  Ba2  1  0.665569  0.999386  0.334128  1
  Ba  Ba3  1  0.146020  0.853865  0.502719  1
  Ba  Ba4  1  0.502719  0.146019  0.853864  1
  Ba  Ba5  1  0.853863  0.502719  0.146020  1
  Mn  Mn6  1  0.288646  0.288645  0.288646  1
  Mn  Mn7  1  0.713616  0.713617  0.713617  1
  Mn  Mn8  1  0.092520  0.092522  0.092521  1
  Cd  Cd9  1  0.501010  0.501009  0.501011  1
  Ni  Ni10  1  0.906128  0.906126  0.906126  1
  O  O11  1  0.141361  0.998299  0.852929  1
  O  O12  1  0.852928  0.141361  0.998299  1
  O  O13  1  0.998300  0.852929  0.141362  1
  O  O14  1  0.030227  0.189327  0.328863  1
  O  O15  1  0.328863  0.030230  0.189325  1
  O  O16  1  0.189325  0.328865  0.030227  1
  O  O17  1  0.811528  0.967917  0.673449  1
  O  O18  1  0.673449  0.811529  0.967918  1
  O  O19  1  0.967917  0.673449  0.811529  1
  O  O20  1  0.360652  0.214741  0.524722  1
  O  O21  1  0.524724  0.360651  0.214741  1
  O  O22  1  0.214742  0.524723  0.360652  1
  O  O23  1  0.786145  0.640182  0.476052  1
  O  O24  1  0.476051  0.786142  0.640183  1
  O  O25  1  0.640184  0.476050  0.786146  1
