# generated using pymatgen
data_Hf4Tc2IrRu
_symmetry_space_group_name_H-M   'P 1'
_cell_length_a   6.48408900
_cell_length_b   4.61515200
_cell_length_c   9.23322800
_cell_angle_alpha   90.00000000
_cell_angle_beta   89.99996371
_cell_angle_gamma   90.00000000
_symmetry_Int_Tables_number   1
_chemical_formula_structural   Hf4Tc2IrRu
_chemical_formula_sum   'Hf8 Tc4 Ir2 Ru2'
_cell_volume   276.30486788
_cell_formula_units_Z   2
loop_
 _symmetry_equiv_pos_site_id
 _symmetry_equiv_pos_as_xyz
  1  'x, y, z'
loop_
 _atom_site_type_symbol
 _atom_site_label
 _atom_site_symmetry_multiplicity
 _atom_site_fract_x
 _atom_site_fract_y
 _atom_site_fract_z
 _atom_site_occupancy
  Hf  Hf0  1  0.998975  0.750001  0.123322  1
  Hf  Hf1  1  0.501040  0.750001  0.123322  1
  Hf  Hf2  1  0.001034  0.250000  0.376677  1
  Hf  Hf3  1  0.498970  0.250000  0.376677  1
  Hf  Hf4  1  0.498718  0.750001  0.626604  1
  Hf  Hf5  1  0.001281  0.750001  0.626605  1
  Hf  Hf6  1  0.501276  0.250000  0.873394  1
  Hf  Hf7  1  0.998712  0.250000  0.873394  1
  Tc  Tc8  1  0.750002  0.250000  0.126182  1
  Tc  Tc9  1  0.250002  0.750001  0.373816  1
  Tc  Tc10  1  0.749998  0.250000  0.623818  1
  Tc  Tc11  1  0.249997  0.750001  0.876183  1
  Ir  Ir12  1  0.250003  0.250000  0.125362  1
  Ir  Ir13  1  0.750003  0.750001  0.374639  1
  Ru  Ru14  1  0.249996  0.250000  0.624463  1
  Ru  Ru15  1  0.749995  0.750001  0.875537  1
