# generated using pymatgen
data_HfMnNbV3
_symmetry_space_group_name_H-M   'P 1'
_cell_length_a   5.00506771
_cell_length_b   5.00506714
_cell_length_c   5.00506700
_cell_angle_alpha   61.13461649
_cell_angle_beta   61.13462011
_cell_angle_gamma   61.13461985
_symmetry_Int_Tables_number   1
_chemical_formula_structural   HfMnNbV3
_chemical_formula_sum   'Hf1 Mn1 Nb1 V3'
_cell_volume   90.92110910
_cell_formula_units_Z   1
loop_
 _symmetry_equiv_pos_site_id
 _symmetry_equiv_pos_as_xyz
  1  'x, y, z'
loop_
 _atom_site_type_symbol
 _atom_site_label
 _atom_site_symmetry_multiplicity
 _atom_site_fract_x
 _atom_site_fract_y
 _atom_site_fract_z
 _atom_site_occupancy
  Hf  Hf0  1  0.625377  0.625377  0.625377  1
  Mn  Mn1  1  0.999905  0.999905  0.999905  1
  Nb  Nb2  1  0.374601  0.374601  0.374601  1
  V  V3  1  0.000094  0.499930  0.000094  1
  V  V4  1  0.499930  0.000094  0.000094  1
  V  V5  1  0.000094  0.000094  0.499930  1
