# generated using pymatgen
data_Ho8B24IrOsRu2
_symmetry_space_group_name_H-M   'P 1'
_cell_length_a   3.64926300
_cell_length_b   9.13777714
_cell_length_c   11.48620038
_cell_angle_alpha   90.00461625
_cell_angle_beta   90.00000000
_cell_angle_gamma   90.00000000
_symmetry_Int_Tables_number   1
_chemical_formula_structural   Ho8B24IrOsRu2
_chemical_formula_sum   'Ho8 B24 Ir1 Os1 Ru2'
_cell_volume   383.02058291
_cell_formula_units_Z   1
loop_
 _symmetry_equiv_pos_site_id
 _symmetry_equiv_pos_as_xyz
  1  'x, y, z'
loop_
 _atom_site_type_symbol
 _atom_site_label
 _atom_site_symmetry_multiplicity
 _atom_site_fract_x
 _atom_site_fract_y
 _atom_site_fract_z
 _atom_site_occupancy
  Ho  Ho0  1  0.000000  0.321448  0.411159  1
  Ho  Ho1  1  0.000000  0.680604  0.585538  1
  Ho  Ho2  1  0.000000  0.821601  0.087041  1
  Ho  Ho3  1  0.000000  0.176139  0.915664  1
  Ho  Ho4  1  0.000000  0.944776  0.373263  1
  Ho  Ho5  1  0.000000  0.054289  0.627124  1
  Ho  Ho6  1  0.000000  0.443926  0.126219  1
  Ho  Ho7  1  0.000000  0.557934  0.873997  1
  B  B8  1  0.500000  0.553856  0.433178  1
  B  B9  1  0.500000  0.446473  0.566509  1
  B  B10  1  0.500000  0.053797  0.067064  1
  B  B11  1  0.500000  0.945823  0.933103  1
  B  B12  1  0.500000  0.748444  0.420021  1
  B  B13  1  0.500000  0.250571  0.578914  1
  B  B14  1  0.500000  0.247704  0.079707  1
  B  B15  1  0.500000  0.752143  0.920240  1
  B  B16  1  0.500000  0.791330  0.266393  1
  B  B17  1  0.500000  0.207749  0.734351  1
  B  B18  1  0.500000  0.291366  0.233523  1
  B  B19  1  0.500000  0.708595  0.766012  1
  B  B20  1  0.500000  0.631685  0.185366  1
  B  B21  1  0.500000  0.367691  0.816114  1
  B  B22  1  0.500000  0.132337  0.314689  1
  B  B23  1  0.500000  0.867925  0.685112  1
  B  B24  1  0.500000  0.983515  0.213141  1
  B  B25  1  0.500000  0.016567  0.787102  1
  B  B26  1  0.500000  0.483130  0.286734  1
  B  B27  1  0.500000  0.517885  0.713147  1
  B  B28  1  0.500000  0.609645  0.030096  1
  B  B29  1  0.500000  0.389901  0.969241  1
  B  B30  1  0.500000  0.110409  0.470142  1
  B  B31  1  0.500000  0.890542  0.530270  1
  Ir  Ir32  1  0.000000  0.362757  0.678076  1
  Os  Os33  1  0.000000  0.637612  0.321774  1
  Ru  Ru34  1  0.000000  0.137790  0.178981  1
  Ru  Ru35  1  0.000000  0.862043  0.820995  1
