# generated using pymatgen
data_NaCaMoN3
_symmetry_space_group_name_H-M   'P 1'
_cell_length_a   6.12626647
_cell_length_b   6.12626613
_cell_length_c   11.94143716
_cell_angle_alpha   89.57704168
_cell_angle_beta   89.57704320
_cell_angle_gamma   121.65352980
_symmetry_Int_Tables_number   1
_chemical_formula_structural   NaCaMoN3
_chemical_formula_sum   'Na4 Ca4 Mo4 N12'
_cell_volume   381.46002695
_cell_formula_units_Z   4
loop_
 _symmetry_equiv_pos_site_id
 _symmetry_equiv_pos_as_xyz
  1  'x, y, z'
loop_
 _atom_site_type_symbol
 _atom_site_label
 _atom_site_symmetry_multiplicity
 _atom_site_fract_x
 _atom_site_fract_y
 _atom_site_fract_z
 _atom_site_occupancy
  Na  Na0  1  0.555102  0.967571  0.865022  1
  Na  Na1  1  0.032429  0.444898  0.634978  1
  Na  Na2  1  0.444898  0.032429  0.134978  1
  Na  Na3  1  0.967571  0.555102  0.365022  1
  Ca  Ca4  1  0.321253  0.092859  0.581434  1
  Ca  Ca5  1  0.907141  0.678747  0.918566  1
  Ca  Ca6  1  0.678747  0.907141  0.418566  1
  Ca  Ca7  1  0.092859  0.321253  0.081434  1
  Mo  Mo8  1  0.725157  0.742659  0.661258  1
  Mo  Mo9  1  0.257341  0.274843  0.838742  1
  Mo  Mo10  1  0.274843  0.257341  0.338742  1
  Mo  Mo11  1  0.742659  0.725157  0.161258  1
  N  N12  1  0.575668  0.424332  0.750000  1
  N  N13  1  0.424332  0.575668  0.250000  1
  N  N14  1  0.509802  0.845232  0.615388  1
  N  N15  1  0.154768  0.490198  0.884612  1
  N  N16  1  0.490198  0.154768  0.384612  1
  N  N17  1  0.845232  0.509802  0.115388  1
  N  N18  1  0.712824  0.876714  0.036823  1
  N  N19  1  0.123286  0.287176  0.463177  1
  N  N20  1  0.287176  0.123286  0.963177  1
  N  N21  1  0.876714  0.712824  0.536823  1
  N  N22  1  0.001630  0.998370  0.750000  1
  N  N23  1  0.998370  0.001630  0.250000  1
