# generated using pymatgen
data_Tm4S3N2
_symmetry_space_group_name_H-M   'P 1'
_cell_length_a   6.63782466
_cell_length_b   3.76935942
_cell_length_c   10.18364232
_cell_angle_alpha   90.00000286
_cell_angle_beta   50.68387393
_cell_angle_gamma   73.50508516
_symmetry_Int_Tables_number   1
_chemical_formula_structural   Tm4S3N2
_chemical_formula_sum   'Tm4 S3 N2'
_cell_volume   183.37269200
_cell_formula_units_Z   1
loop_
 _symmetry_equiv_pos_site_id
 _symmetry_equiv_pos_as_xyz
  1  'x, y, z'
loop_
 _atom_site_type_symbol
 _atom_site_label
 _atom_site_symmetry_multiplicity
 _atom_site_fract_x
 _atom_site_fract_y
 _atom_site_fract_z
 _atom_site_occupancy
  Tm  Tm0  1  0.225572  0.887214  0.648275  1
  Tm  Tm1  1  0.774428  0.112786  0.351725  1
  Tm  Tm2  1  0.581740  0.709130  0.145837  1
  Tm  Tm3  1  0.418260  0.290870  0.854163  1
  S  S4  1  0.000000  0.000000  0.000000  1
  S  S5  1  0.779816  0.610092  0.784333  1
  S  S6  1  0.220184  0.389908  0.215667  1
  N  N7  1  0.562839  0.718581  0.361656  1
  N  N8  1  0.437161  0.281419  0.638344  1
