# generated using pymatgen
data_DyHoPa(Co3P2)3
_symmetry_space_group_name_H-M   'P 1'
_cell_length_a   3.71123800
_cell_length_b   10.52223200
_cell_length_c   12.14700400
_cell_angle_alpha   90.00000000
_cell_angle_beta   90.00000000
_cell_angle_gamma   90.00000000
_symmetry_Int_Tables_number   1
_chemical_formula_structural   DyHoPa(Co3P2)3
_chemical_formula_sum   'Dy2 Ho2 Pa2 Co18 P12'
_cell_volume   474.34666769
_cell_formula_units_Z   2
loop_
 _symmetry_equiv_pos_site_id
 _symmetry_equiv_pos_as_xyz
  1  'x, y, z'
loop_
 _atom_site_type_symbol
 _atom_site_label
 _atom_site_symmetry_multiplicity
 _atom_site_fract_x
 _atom_site_fract_y
 _atom_site_fract_z
 _atom_site_occupancy
  Dy  Dy0  1  0.000000  0.684955  0.794954  1
  Dy  Dy1  1  0.000000  0.315045  0.794954  1
  Ho  Ho2  1  0.500000  0.815141  0.205145  1
  Ho  Ho3  1  0.500000  0.184859  0.205145  1
  Pa  Pa4  1  0.000000  0.500000  0.528752  1
  Pa  Pa5  1  0.500000  0.000000  0.471021  1
  Co  Co6  1  0.500000  0.500000  0.158417  1
  Co  Co7  1  0.000000  0.000000  0.841652  1
  Co  Co8  1  0.500000  0.500000  0.696267  1
  Co  Co9  1  0.000000  0.000000  0.303405  1
  Co  Co10  1  0.000000  0.500000  0.984874  1
  Co  Co11  1  0.500000  0.000000  0.015665  1
  Co  Co12  1  0.500000  0.333827  0.994067  1
  Co  Co13  1  0.500000  0.666173  0.994067  1
  Co  Co14  1  0.000000  0.165968  0.006461  1
  Co  Co15  1  0.000000  0.834032  0.006461  1
  Co  Co16  1  0.500000  0.301388  0.431392  1
  Co  Co17  1  0.500000  0.698612  0.431392  1
  Co  Co18  1  0.000000  0.198461  0.568206  1
  Co  Co19  1  0.000000  0.801539  0.568206  1
  Co  Co20  1  0.500000  0.880365  0.710553  1
  Co  Co21  1  0.500000  0.119635  0.710553  1
  Co  Co22  1  0.000000  0.619863  0.289243  1
  Co  Co23  1  0.000000  0.380137  0.289243  1
  P  P24  1  0.500000  0.500000  0.879333  1
  P  P25  1  0.000000  0.000000  0.121153  1
  P  P26  1  0.500000  0.500000  0.343381  1
  P  P27  1  0.000000  0.000000  0.656512  1
  P  P28  1  0.500000  0.306690  0.616864  1
  P  P29  1  0.500000  0.693310  0.616864  1
  P  P30  1  0.000000  0.193141  0.382609  1
  P  P31  1  0.000000  0.806859  0.382609  1
  P  P32  1  0.500000  0.847632  0.894761  1
  P  P33  1  0.500000  0.152368  0.894761  1
  P  P34  1  0.000000  0.652811  0.105529  1
  P  P35  1  0.000000  0.347189  0.105529  1
