# generated using pymatgen
data_Hf9Cu(MoW)2
_symmetry_space_group_name_H-M   'P 1'
_cell_length_a   8.71085587
_cell_length_b   8.71759275
_cell_length_c   8.51421000
_cell_angle_alpha   90.00000000
_cell_angle_beta   90.00000000
_cell_angle_gamma   120.02559026
_symmetry_Int_Tables_number   1
_chemical_formula_structural   Hf9Cu(MoW)2
_chemical_formula_sum   'Hf18 Cu2 Mo4 W4'
_cell_volume   559.78382746
_cell_formula_units_Z   2
loop_
 _symmetry_equiv_pos_site_id
 _symmetry_equiv_pos_as_xyz
  1  'x, y, z'
loop_
 _atom_site_type_symbol
 _atom_site_label
 _atom_site_symmetry_multiplicity
 _atom_site_fract_x
 _atom_site_fract_y
 _atom_site_fract_z
 _atom_site_occupancy
  Hf  Hf0  1  0.197475  0.801872  0.445742  1
  Hf  Hf1  1  0.197475  0.395604  0.445742  1
  Hf  Hf2  1  0.604944  0.802473  0.445446  1
  Hf  Hf3  1  0.801866  0.197830  0.554033  1
  Hf  Hf4  1  0.801866  0.604034  0.554033  1
  Hf  Hf5  1  0.395823  0.197911  0.554051  1
  Hf  Hf6  1  0.801866  0.197830  0.945967  1
  Hf  Hf7  1  0.801866  0.604034  0.945967  1
  Hf  Hf8  1  0.395823  0.197911  0.945949  1
  Hf  Hf9  1  0.197475  0.801872  0.054258  1
  Hf  Hf10  1  0.197475  0.395604  0.054258  1
  Hf  Hf11  1  0.604944  0.802473  0.054554  1
  Hf  Hf12  1  0.542160  0.458925  0.250000  1
  Hf  Hf13  1  0.542160  0.083233  0.250000  1
  Hf  Hf14  1  0.916912  0.458456  0.250000  1
  Hf  Hf15  1  0.458153  0.541989  0.750000  1
  Hf  Hf16  1  0.458153  0.916165  0.750000  1
  Hf  Hf17  1  0.083887  0.541944  0.750000  1
  Cu  Cu18  1  0.333090  0.666545  0.250000  1
  Cu  Cu19  1  0.666614  0.333307  0.750000  1
  Mo  Mo20  1  0.223220  0.111610  0.250000  1
  Mo  Mo21  1  0.112088  0.887994  0.750000  1
  Mo  Mo22  1  0.112088  0.224095  0.750000  1
  Mo  Mo23  1  0.776053  0.888027  0.750000  1
  W  W24  1  0.888140  0.111500  0.250000  1
  W  W25  1  0.888140  0.776639  0.250000  1
  W  W26  1  0.000122  0.000061  0.500811  1
  W  W27  1  0.000122  0.000061  0.999189  1
