# generated using pymatgen
data_Ho3Ag5Ir
_symmetry_space_group_name_H-M   'P 1'
_cell_length_a   7.77941300
_cell_length_b   7.77941287
_cell_length_c   3.73531700
_cell_angle_alpha   90.00000000
_cell_angle_beta   90.00000000
_cell_angle_gamma   119.99998780
_symmetry_Int_Tables_number   1
_chemical_formula_structural   Ho3Ag5Ir
_chemical_formula_sum   'Ho3 Ag5 Ir1'
_cell_volume   195.77255050
_cell_formula_units_Z   1
loop_
 _symmetry_equiv_pos_site_id
 _symmetry_equiv_pos_as_xyz
  1  'x, y, z'
loop_
 _atom_site_type_symbol
 _atom_site_label
 _atom_site_symmetry_multiplicity
 _atom_site_fract_x
 _atom_site_fract_y
 _atom_site_fract_z
 _atom_site_occupancy
  Ho  Ho0  1  0.580274  0.615178  0.000000  1
  Ho  Ho1  1  0.384822  0.965096  0.000000  1
  Ho  Ho2  1  0.034904  0.419726  0.000000  1
  Ag  Ag3  1  0.993118  0.728362  0.500000  1
  Ag  Ag4  1  0.271638  0.264756  0.500000  1
  Ag  Ag5  1  0.735244  0.006882  0.500000  1
  Ag  Ag6  1  0.000000  0.000000  0.000000  1
  Ag  Ag7  1  0.666667  0.333333  0.500000  1
  Ir  Ir8  1  0.333333  0.666667  0.500000  1
