# generated using pymatgen
data_Dy2SnGe4(PRh6)2
_symmetry_space_group_name_H-M   'P 1'
_cell_length_a   9.98692694
_cell_length_b   9.98227466
_cell_length_c   3.87891287
_cell_angle_alpha   89.97896379
_cell_angle_beta   89.96879364
_cell_angle_gamma   120.02290149
_symmetry_Int_Tables_number   1
_chemical_formula_structural   Dy2SnGe4(PRh6)2
_chemical_formula_sum   'Dy2 Sn1 Ge4 P2 Rh12'
_cell_volume   334.81244512
_cell_formula_units_Z   1
loop_
 _symmetry_equiv_pos_site_id
 _symmetry_equiv_pos_as_xyz
  1  'x, y, z'
loop_
 _atom_site_type_symbol
 _atom_site_label
 _atom_site_symmetry_multiplicity
 _atom_site_fract_x
 _atom_site_fract_y
 _atom_site_fract_z
 _atom_site_occupancy
  Dy  Dy0  1  0.334527  0.668791  0.739456  1
  Dy  Dy1  1  0.670583  0.334908  0.238418  1
  Sn  Sn2  1  0.994853  0.997661  0.727865  1
  Ge  Ge3  1  0.887344  0.601343  0.738187  1
  Ge  Ge4  1  0.406198  0.287139  0.738889  1
  Ge  Ge5  1  0.712554  0.114535  0.737893  1
  Ge  Ge6  1  0.112960  0.406522  0.239677  1
  P  P7  1  0.594104  0.706032  0.238213  1
  P  P8  1  0.291924  0.889223  0.239214  1
  Rh  Rh9  1  0.620518  0.555609  0.738048  1
  Rh  Rh10  1  0.445515  0.060560  0.738842  1
  Rh  Rh11  1  0.936306  0.383127  0.739062  1
  Rh  Rh12  1  0.392580  0.452848  0.238958  1
  Rh  Rh13  1  0.542959  0.928791  0.238330  1
  Rh  Rh14  1  0.066300  0.624976  0.238863  1
  Rh  Rh15  1  0.140588  0.847405  0.739537  1
  Rh  Rh16  1  0.162219  0.289985  0.739487  1
  Rh  Rh17  1  0.696529  0.857564  0.738023  1
  Rh  Rh18  1  0.882916  0.135767  0.237212  1
  Rh  Rh19  1  0.850094  0.748581  0.236948  1
  Rh  Rh20  1  0.258427  0.108635  0.238878  1
