# generated using pymatgen
data_Th10Si16Ag
_symmetry_space_group_name_H-M   'P 1'
_cell_length_a   11.39792912
_cell_length_b   11.41030365
_cell_length_c   11.39784946
_cell_angle_alpha   143.23055015
_cell_angle_beta   136.99851497
_cell_angle_gamma   57.81326902
_symmetry_Int_Tables_number   1
_chemical_formula_structural   Th10Si16Ag
_chemical_formula_sum   'Th10 Si16 Ag1'
_cell_volume   600.01583684
_cell_formula_units_Z   1
loop_
 _symmetry_equiv_pos_site_id
 _symmetry_equiv_pos_as_xyz
  1  'x, y, z'
loop_
 _atom_site_type_symbol
 _atom_site_label
 _atom_site_symmetry_multiplicity
 _atom_site_fract_x
 _atom_site_fract_y
 _atom_site_fract_z
 _atom_site_occupancy
  Th  Th0  1  0.057168  0.567039  0.027249  1
  Th  Th1  1  0.352164  0.368596  0.520156  1
  Th  Th2  1  0.157107  0.159500  0.518320  1
  Th  Th3  1  0.453631  0.962427  0.018411  1
  Th  Th4  1  0.641181  0.159502  0.002395  1
  Th  Th5  1  0.944016  0.962427  0.508796  1
  Th  Th6  1  0.848438  0.368596  0.016430  1
  Th  Th7  1  0.539792  0.567036  0.509869  1
  Th  Th8  1  0.251897  0.769372  0.014427  1
  Th  Th9  1  0.754945  0.769372  0.517475  1
  Si  Si10  1  0.110539  0.066137  0.955597  1
  Si  Si11  1  0.798307  0.200675  0.402370  1
  Si  Si12  1  0.298589  0.896338  0.597752  1
  Si  Si13  1  0.400948  0.501539  0.100591  1
  Si  Si14  1  0.889450  0.845621  0.956171  1
  Si  Si15  1  0.101408  0.709530  0.608120  1
  Si  Si16  1  0.198566  0.604268  0.405703  1
  Si  Si17  1  0.700803  0.297712  0.596908  1
  Si  Si18  1  0.002949  0.429177  0.426224  1
  Si  Si19  1  0.706116  0.651118  0.945001  1
  Si  Si20  1  0.599925  0.700917  0.100992  1
  Si  Si21  1  0.000625  0.086350  0.085725  1
  Si  Si22  1  0.499352  0.406091  0.906736  1
  Si  Si23  1  0.294370  0.241909  0.947538  1
  Si  Si24  1  0.593897  0.044769  0.450870  1
  Si  Si25  1  0.405603  0.849880  0.444278  1
  Ag  Ag26  1  0.898214  0.503019  0.604813  1
