# generated using pymatgen
data_TbCe2(InPt)3
_symmetry_space_group_name_H-M   'P 1'
_cell_length_a   7.66967700
_cell_length_b   7.65880108
_cell_length_c   4.01799200
_cell_angle_alpha   90.00000000
_cell_angle_beta   90.00000000
_cell_angle_gamma   120.04698188
_symmetry_Int_Tables_number   1
_chemical_formula_structural   TbCe2(InPt)3
_chemical_formula_sum   'Tb1 Ce2 In3 Pt3'
_cell_volume   204.30159858
_cell_formula_units_Z   1
loop_
 _symmetry_equiv_pos_site_id
 _symmetry_equiv_pos_as_xyz
  1  'x, y, z'
loop_
 _atom_site_type_symbol
 _atom_site_label
 _atom_site_symmetry_multiplicity
 _atom_site_fract_x
 _atom_site_fract_y
 _atom_site_fract_z
 _atom_site_occupancy
  Tb  Tb0  1  0.407579  0.000000  0.500000  1
  Ce  Ce1  1  0.589384  0.589017  0.500000  1
  Ce  Ce2  1  0.000367  0.410983  0.500000  1
  In  In3  1  0.004302  0.748871  0.000000  1
  In  In4  1  0.741685  0.000000  0.000000  1
  In  In5  1  0.255431  0.251129  0.000000  1
  Pt  Pt6  1  0.998485  0.000000  0.500000  1
  Pt  Pt7  1  0.670525  0.338282  0.000000  1
  Pt  Pt8  1  0.332242  0.661718  0.000000  1
