# generated using pymatgen
data_KAg(BrO3)4
_symmetry_space_group_name_H-M   'P 1'
_cell_length_a   5.99455393
_cell_length_b   7.54305196
_cell_length_c   8.36186783
_cell_angle_alpha   105.52935379
_cell_angle_beta   95.58764994
_cell_angle_gamma   111.75416292
_symmetry_Int_Tables_number   1
_chemical_formula_structural   KAg(BrO3)4
_chemical_formula_sum   'K1 Ag1 Br4 O12'
_cell_volume   330.08689476
_cell_formula_units_Z   1
loop_
 _symmetry_equiv_pos_site_id
 _symmetry_equiv_pos_as_xyz
  1  'x, y, z'
loop_
 _atom_site_type_symbol
 _atom_site_label
 _atom_site_symmetry_multiplicity
 _atom_site_fract_x
 _atom_site_fract_y
 _atom_site_fract_z
 _atom_site_occupancy
  K  K0  1  0.187668  0.102543  0.887655  1
  Ag  Ag1  1  0.431294  0.098135  0.374868  1
  Br  Br2  1  0.494546  0.816043  0.594242  1
  Br  Br3  1  0.879588  0.373561  0.243766  1
  Br  Br4  1  0.771470  0.451632  0.750745  1
  Br  Br5  1  0.476940  0.731581  0.080808  1
  O  O6  1  0.372275  0.810292  0.763159  1
  O  O7  1  0.477984  0.301364  0.606702  1
  O  O8  1  0.277665  0.872186  0.474524  1
  O  O9  1  0.818795  0.682547  0.751737  1
  O  O10  1  0.751410  0.026747  0.648196  1
  O  O11  1  0.871544  0.158662  0.117955  1
  O  O12  1  0.231400  0.511537  0.015799  1
  O  O13  1  0.636882  0.762675  0.266216  1
  O  O14  1  0.677963  0.432043  0.928514  1
  O  O15  1  0.322925  0.897830  0.135031  1
  O  O16  1  0.569585  0.320213  0.267603  1
  O  O17  1  0.028066  0.411150  0.436110  1
