# generated using pymatgen
data_DyHf8USi8
_symmetry_space_group_name_H-M   'P 1'
_cell_length_a   7.17211573
_cell_length_b   7.17455273
_cell_length_c   13.08424900
_cell_angle_alpha   90.00000000
_cell_angle_beta   90.00000000
_cell_angle_gamma   90.09994545
_symmetry_Int_Tables_number   1
_chemical_formula_structural   DyHf8USi8
_chemical_formula_sum   'Dy2 Hf16 U2 Si16'
_cell_volume   673.27154516
_cell_formula_units_Z   2
loop_
 _symmetry_equiv_pos_site_id
 _symmetry_equiv_pos_as_xyz
  1  'x, y, z'
loop_
 _atom_site_type_symbol
 _atom_site_label
 _atom_site_symmetry_multiplicity
 _atom_site_fract_x
 _atom_site_fract_y
 _atom_site_fract_z
 _atom_site_occupancy
  Dy  Dy0  1  0.996165  0.844871  0.217384  1
  Dy  Dy1  1  0.003835  0.155129  0.717384  1
  Hf  Hf2  1  0.644619  0.006383  0.374493  1
  Hf  Hf3  1  0.355381  0.993617  0.874493  1
  Hf  Hf4  1  0.001292  0.349746  0.121833  1
  Hf  Hf5  1  0.998708  0.650254  0.621833  1
  Hf  Hf6  1  0.502098  0.850371  0.125762  1
  Hf  Hf7  1  0.497902  0.149629  0.625762  1
  Hf  Hf8  1  0.852431  0.498802  0.877441  1
  Hf  Hf9  1  0.147569  0.501198  0.377441  1
  Hf  Hf10  1  0.674199  0.823997  0.751671  1
  Hf  Hf11  1  0.325801  0.176003  0.251671  1
  Hf  Hf12  1  0.824259  0.325345  0.500581  1
  Hf  Hf13  1  0.175741  0.674655  0.000581  1
  Hf  Hf14  1  0.649706  0.496227  0.284333  1
  Hf  Hf15  1  0.350294  0.503773  0.784333  1
  Hf  Hf16  1  0.501339  0.346119  0.034394  1
  Hf  Hf17  1  0.498661  0.653881  0.534394  1
  U  U18  1  0.844711  0.002014  0.963677  1
  U  U19  1  0.155289  0.997986  0.463677  1
  Si  Si20  1  0.848400  0.701440  0.429107  1
  Si  Si21  1  0.151600  0.298560  0.929107  1
  Si  Si22  1  0.699656  0.147754  0.177686  1
  Si  Si23  1  0.300344  0.852246  0.677686  1
  Si  Si24  1  0.790152  0.635997  0.071831  1
  Si  Si25  1  0.209848  0.364003  0.571831  1
  Si  Si26  1  0.632535  0.213084  0.822230  1
  Si  Si27  1  0.367465  0.786916  0.322230  1
  Si  Si28  1  0.794033  0.949974  0.563518  1
  Si  Si29  1  0.205967  0.050026  0.063518  1
  Si  Si30  1  0.947531  0.209288  0.313170  1
  Si  Si31  1  0.052469  0.790712  0.813170  1
  Si  Si32  1  0.547733  0.695319  0.936144  1
  Si  Si33  1  0.452267  0.304681  0.436144  1
  Si  Si34  1  0.695843  0.457315  0.684746  1
  Si  Si35  1  0.304157  0.542685  0.184746  1
