# generated using pymatgen
data_Er2Be4Ru5
_symmetry_space_group_name_H-M   'P 1'
_cell_length_a   3.24546300
_cell_length_b   8.91699026
_cell_length_c   10.29117501
_cell_angle_alpha   90.01614194
_cell_angle_beta   90.00000000
_cell_angle_gamma   90.00000000
_symmetry_Int_Tables_number   1
_chemical_formula_structural   Er2Be4Ru5
_chemical_formula_sum   'Er4 Be8 Ru10'
_cell_volume   297.82414319
_cell_formula_units_Z   2
loop_
 _symmetry_equiv_pos_site_id
 _symmetry_equiv_pos_as_xyz
  1  'x, y, z'
loop_
 _atom_site_type_symbol
 _atom_site_label
 _atom_site_symmetry_multiplicity
 _atom_site_fract_x
 _atom_site_fract_y
 _atom_site_fract_z
 _atom_site_occupancy
  Er  Er0  1  0.500000  0.835014  0.183513  1
  Er  Er1  1  0.500000  0.164986  0.816487  1
  Er  Er2  1  0.500000  0.664773  0.683670  1
  Er  Er3  1  0.500000  0.335227  0.316330  1
  Be  Be4  1  0.500000  0.965112  0.593249  1
  Be  Be5  1  0.500000  0.034888  0.406751  1
  Be  Be6  1  0.500000  0.838293  0.906973  1
  Be  Be7  1  0.500000  0.161707  0.093027  1
  Be  Be8  1  0.500000  0.661601  0.406942  1
  Be  Be9  1  0.500000  0.338399  0.593058  1
  Be  Be10  1  0.500000  0.465256  0.906757  1
  Be  Be11  1  0.500000  0.534744  0.093243  1
  Ru  Ru12  1  0.000000  0.655967  0.955053  1
  Ru  Ru13  1  0.000000  0.344033  0.044947  1
  Ru  Ru14  1  0.000000  0.844074  0.454955  1
  Ru  Ru15  1  0.000000  0.155926  0.545045  1
  Ru  Ru16  1  0.000000  0.000000  0.000000  1
  Ru  Ru17  1  0.000000  0.411332  0.753048  1
  Ru  Ru18  1  0.000000  0.588668  0.246952  1
  Ru  Ru19  1  0.000000  0.500000  0.500000  1
  Ru  Ru20  1  0.000000  0.911446  0.747093  1
  Ru  Ru21  1  0.000000  0.088554  0.252907  1
