# generated using pymatgen
data_Lu5(TcO6)2
_symmetry_space_group_name_H-M   'P 1'
_cell_length_a   6.68963642
_cell_length_b   6.68964394
_cell_length_c   7.37087110
_cell_angle_alpha   73.77360888
_cell_angle_beta   73.77312459
_cell_angle_gamma   49.44419658
_symmetry_Int_Tables_number   1
_chemical_formula_structural   Lu5(TcO6)2
_chemical_formula_sum   'Lu5 Tc2 O12'
_cell_volume   238.46209442
_cell_formula_units_Z   1
loop_
 _symmetry_equiv_pos_site_id
 _symmetry_equiv_pos_as_xyz
  1  'x, y, z'
loop_
 _atom_site_type_symbol
 _atom_site_label
 _atom_site_symmetry_multiplicity
 _atom_site_fract_x
 _atom_site_fract_y
 _atom_site_fract_z
 _atom_site_occupancy
  Lu  Lu0  1  0.697073  0.697070  0.640349  1
  Lu  Lu1  1  0.302927  0.302930  0.359651  1
  Lu  Lu2  1  0.684322  0.684318  0.178759  1
  Lu  Lu3  1  0.315678  0.315682  0.821241  1
  Lu  Lu4  1  0.000000  0.000000  0.500000  1
  Tc  Tc5  1  0.785188  0.214817  0.999997  1
  Tc  Tc6  1  0.214812  0.785183  0.000003  1
  O  O7  1  0.001928  0.001936  0.208411  1
  O  O8  1  0.998072  0.998064  0.791589  1
  O  O9  1  0.578194  0.086246  0.087315  1
  O  O10  1  0.421806  0.913754  0.912685  1
  O  O11  1  0.913762  0.421807  0.912678  1
  O  O12  1  0.086238  0.578193  0.087322  1
  O  O13  1  0.498913  0.498918  0.184157  1
  O  O14  1  0.501087  0.501082  0.815843  1
  O  O15  1  0.405364  0.901469  0.427543  1
  O  O16  1  0.594636  0.098531  0.572457  1
  O  O17  1  0.098533  0.594639  0.572453  1
  O  O18  1  0.901467  0.405361  0.427547  1
