# generated using pymatgen
data_Y6Fe13Co5
_symmetry_space_group_name_H-M   'P 1'
_cell_length_a   5.11560908
_cell_length_b   5.10871947
_cell_length_c   16.28925632
_cell_angle_alpha   90.11417507
_cell_angle_beta   89.99698374
_cell_angle_gamma   120.05274050
_symmetry_Int_Tables_number   1
_chemical_formula_structural   Y6Fe13Co5
_chemical_formula_sum   'Y6 Fe13 Co5'
_cell_volume   368.47592841
_cell_formula_units_Z   1
loop_
 _symmetry_equiv_pos_site_id
 _symmetry_equiv_pos_as_xyz
  1  'x, y, z'
loop_
 _atom_site_type_symbol
 _atom_site_label
 _atom_site_symmetry_multiplicity
 _atom_site_fract_x
 _atom_site_fract_y
 _atom_site_fract_z
 _atom_site_occupancy
  Y  Y0  1  0.666057  0.332136  0.250077  1
  Y  Y1  1  0.333420  0.666870  0.750432  1
  Y  Y2  1  0.333031  0.666060  0.963316  1
  Y  Y3  1  0.667120  0.334260  0.463185  1
  Y  Y4  1  0.666937  0.333948  0.038479  1
  Y  Y5  1  0.333360  0.666651  0.538362  1
  Fe  Fe6  1  0.667231  0.334588  0.749898  1
  Fe  Fe7  1  0.331961  0.663878  0.249641  1
  Fe  Fe8  1  0.999547  0.999025  0.749842  1
  Fe  Fe9  1  0.167365  0.334692  0.372370  1
  Fe  Fe10  1  0.166346  0.833508  0.371651  1
  Fe  Fe11  1  0.667173  0.833492  0.371650  1
  Fe  Fe12  1  0.332649  0.166471  0.871900  1
  Fe  Fe13  1  0.833765  0.166467  0.871894  1
  Fe  Fe14  1  0.832879  0.665825  0.872645  1
  Fe  Fe15  1  0.332149  0.165697  0.627353  1
  Fe  Fe16  1  0.833574  0.165713  0.627353  1
  Fe  Fe17  1  0.166496  0.836312  0.128005  1
  Fe  Fe18  1  0.669800  0.836325  0.127993  1
  Co  Co19  1  0.000333  0.000513  0.498582  1
  Co  Co20  1  0.999621  0.999366  0.999411  1
  Co  Co21  1  0.998134  0.996322  0.250652  1
  Co  Co22  1  0.833284  0.666529  0.627944  1
  Co  Co23  1  0.167653  0.335343  0.127362  1
