# generated using pymatgen
data_TbNd5(CI5)2
_symmetry_space_group_name_H-M   'P 1'
_cell_length_a   7.89303304
_cell_length_b   9.70655335
_cell_length_c   9.79081103
_cell_angle_alpha   107.13037558
_cell_angle_beta   96.58209236
_cell_angle_gamma   104.45211108
_symmetry_Int_Tables_number   1
_chemical_formula_structural   TbNd5(CI5)2
_chemical_formula_sum   'Tb1 Nd5 C2 I10'
_cell_volume   679.65715588
_cell_formula_units_Z   1
loop_
 _symmetry_equiv_pos_site_id
 _symmetry_equiv_pos_as_xyz
  1  'x, y, z'
loop_
 _atom_site_type_symbol
 _atom_site_label
 _atom_site_symmetry_multiplicity
 _atom_site_fract_x
 _atom_site_fract_y
 _atom_site_fract_z
 _atom_site_occupancy
  Tb  Tb0  1  0.630913  0.868567  0.823298  1
  Nd  Nd1  1  0.105567  0.039087  0.775875  1
  Nd  Nd2  1  0.374451  0.133400  0.179805  1
  Nd  Nd3  1  0.892155  0.959839  0.223199  1
  Nd  Nd4  1  0.029557  0.734860  0.922617  1
  Nd  Nd5  1  0.968767  0.264948  0.076598  1
  C  C6  1  0.909549  0.969738  0.958507  1
  C  C7  1  0.085489  0.028981  0.039872  1
  I  I8  1  0.201345  0.735981  0.647423  1
  I  I9  1  0.088148  0.369523  0.819178  1
  I  I10  1  0.458708  0.807808  0.086279  1
  I  I11  1  0.254108  0.084280  0.461639  1
  I  I12  1  0.544677  0.184794  0.903727  1
  I  I13  1  0.809670  0.267141  0.357623  1
  I  I14  1  0.346255  0.457573  0.273566  1
  I  I15  1  0.912207  0.630474  0.180568  1
  I  I16  1  0.649735  0.549829  0.726472  1
  I  I17  1  0.738701  0.913178  0.543754  1
