# generated using pymatgen
data_Sc10Co7Si20Rh
_symmetry_space_group_name_H-M   'P 1'
_cell_length_a   12.09249281
_cell_length_b   12.06665626
_cell_length_c   3.95701800
_cell_angle_alpha   90.00000000
_cell_angle_beta   90.00000000
_cell_angle_gamma   90.08396606
_symmetry_Int_Tables_number   1
_chemical_formula_structural   Sc10Co7Si20Rh
_chemical_formula_sum   'Sc10 Co7 Si20 Rh1'
_cell_volume   577.39143691
_cell_formula_units_Z   1
loop_
 _symmetry_equiv_pos_site_id
 _symmetry_equiv_pos_as_xyz
  1  'x, y, z'
loop_
 _atom_site_type_symbol
 _atom_site_label
 _atom_site_symmetry_multiplicity
 _atom_site_fract_x
 _atom_site_fract_y
 _atom_site_fract_z
 _atom_site_occupancy
  Sc  Sc0  1  0.000872  0.000033  0.000000  1
  Sc  Sc1  1  0.499736  0.505975  0.000000  1
  Sc  Sc2  1  0.680485  0.174436  0.500000  1
  Sc  Sc3  1  0.171941  0.323791  0.500000  1
  Sc  Sc4  1  0.822636  0.675603  0.500000  1
  Sc  Sc5  1  0.324325  0.823528  0.500000  1
  Sc  Sc6  1  0.889499  0.389093  0.500000  1
  Sc  Sc7  1  0.384644  0.109766  0.500000  1
  Sc  Sc8  1  0.613368  0.886854  0.500000  1
  Sc  Sc9  1  0.110914  0.611853  0.500000  1
  Co  Co10  1  0.251847  0.477633  0.000000  1
  Co  Co11  1  0.745860  0.525940  0.000000  1
  Co  Co12  1  0.475027  0.746228  0.000000  1
  Co  Co13  1  0.976842  0.754465  0.000000  1
  Co  Co14  1  0.024210  0.245426  0.000000  1
  Co  Co15  1  0.756981  0.023129  0.000000  1
  Co  Co16  1  0.245742  0.976441  0.000000  1
  Si  Si17  1  0.572631  0.061439  0.000000  1
  Si  Si18  1  0.067058  0.432003  0.000000  1
  Si  Si19  1  0.931016  0.569562  0.000000  1
  Si  Si20  1  0.430951  0.931033  0.000000  1
  Si  Si21  1  0.195883  0.156271  0.000000  1
  Si  Si22  1  0.156847  0.802396  0.000000  1
  Si  Si23  1  0.845500  0.196424  0.000000  1
  Si  Si24  1  0.803559  0.842681  0.000000  1
  Si  Si25  1  0.301142  0.657063  0.000000  1
  Si  Si26  1  0.705589  0.344462  0.000000  1
  Si  Si27  1  0.656483  0.699022  0.000000  1
  Si  Si28  1  0.334390  0.302898  0.000000  1
  Si  Si29  1  0.000473  0.164101  0.500000  1
  Si  Si30  1  0.163515  0.994605  0.500000  1
  Si  Si31  1  0.837770  0.998289  0.500000  1
  Si  Si32  1  0.996657  0.836274  0.500000  1
  Si  Si33  1  0.500176  0.666910  0.500000  1
  Si  Si34  1  0.503524  0.348958  0.500000  1
  Si  Si35  1  0.664582  0.498651  0.500000  1
  Si  Si36  1  0.335011  0.493655  0.500000  1
  Rh  Rh37  1  0.522314  0.253112  0.000000  1
