# generated using pymatgen
data_Tb2SmHf(Co4P3)2
_symmetry_space_group_name_H-M   'P 1'
_cell_length_a   3.72877300
_cell_length_b   10.70005000
_cell_length_c   12.42216100
_cell_angle_alpha   90.00000000
_cell_angle_beta   90.00000000
_cell_angle_gamma   90.00000000
_symmetry_Int_Tables_number   1
_chemical_formula_structural   Tb2SmHf(Co4P3)2
_chemical_formula_sum   'Tb4 Sm2 Hf2 Co16 P12'
_cell_volume   495.62009433
_cell_formula_units_Z   2
loop_
 _symmetry_equiv_pos_site_id
 _symmetry_equiv_pos_as_xyz
  1  'x, y, z'
loop_
 _atom_site_type_symbol
 _atom_site_label
 _atom_site_symmetry_multiplicity
 _atom_site_fract_x
 _atom_site_fract_y
 _atom_site_fract_z
 _atom_site_occupancy
  Tb  Tb0  1  0.500000  0.821481  0.204202  1
  Tb  Tb1  1  0.500000  0.178519  0.204202  1
  Tb  Tb2  1  0.000000  0.678519  0.795798  1
  Tb  Tb3  1  0.000000  0.321481  0.795798  1
  Sm  Sm4  1  0.000000  0.500000  0.528892  1
  Sm  Sm5  1  0.500000  0.000000  0.471108  1
  Hf  Hf6  1  0.500000  0.500000  0.155645  1
  Hf  Hf7  1  0.000000  0.000000  0.844355  1
  Co  Co8  1  0.500000  0.500000  0.704974  1
  Co  Co9  1  0.000000  0.000000  0.295026  1
  Co  Co10  1  0.000000  0.500000  0.986763  1
  Co  Co11  1  0.500000  0.000000  0.013237  1
  Co  Co12  1  0.500000  0.331961  0.993464  1
  Co  Co13  1  0.500000  0.668039  0.993464  1
  Co  Co14  1  0.000000  0.168039  0.006536  1
  Co  Co15  1  0.000000  0.831961  0.006536  1
  Co  Co16  1  0.500000  0.295318  0.432297  1
  Co  Co17  1  0.500000  0.704682  0.432297  1
  Co  Co18  1  0.000000  0.204682  0.567703  1
  Co  Co19  1  0.000000  0.795318  0.567703  1
  Co  Co20  1  0.500000  0.878462  0.704369  1
  Co  Co21  1  0.500000  0.121538  0.704369  1
  Co  Co22  1  0.000000  0.621538  0.295631  1
  Co  Co23  1  0.000000  0.378462  0.295631  1
  P  P24  1  0.500000  0.500000  0.884301  1
  P  P25  1  0.000000  0.000000  0.115699  1
  P  P26  1  0.500000  0.500000  0.359138  1
  P  P27  1  0.000000  0.000000  0.640862  1
  P  P28  1  0.500000  0.307984  0.616015  1
  P  P29  1  0.500000  0.692016  0.616015  1
  P  P30  1  0.000000  0.192016  0.383985  1
  P  P31  1  0.000000  0.807984  0.383985  1
  P  P32  1  0.500000  0.838911  0.893825  1
  P  P33  1  0.500000  0.161089  0.893825  1
  P  P34  1  0.000000  0.661089  0.106175  1
  P  P35  1  0.000000  0.338911  0.106175  1
