# generated using pymatgen
data_Y10NiHg2Au
_symmetry_space_group_name_H-M   'P 1'
_cell_length_a   9.67715857
_cell_length_b   9.63860270
_cell_length_c   9.53023100
_cell_angle_alpha   90.00000000
_cell_angle_beta   90.00000000
_cell_angle_gamma   119.86829098
_symmetry_Int_Tables_number   1
_chemical_formula_structural   Y10NiHg2Au
_chemical_formula_sum   'Y20 Ni2 Hg4 Au2'
_cell_volume   770.85174056
_cell_formula_units_Z   2
loop_
 _symmetry_equiv_pos_site_id
 _symmetry_equiv_pos_as_xyz
  1  'x, y, z'
loop_
 _atom_site_type_symbol
 _atom_site_label
 _atom_site_symmetry_multiplicity
 _atom_site_fract_x
 _atom_site_fract_y
 _atom_site_fract_z
 _atom_site_occupancy
  Y  Y0  1  0.991571  0.995785  0.484018  1
  Y  Y1  1  0.991571  0.995785  0.015982  1
  Y  Y2  1  0.552114  0.464737  0.250000  1
  Y  Y3  1  0.552114  0.087378  0.250000  1
  Y  Y4  1  0.915204  0.457602  0.250000  1
  Y  Y5  1  0.456494  0.542573  0.750000  1
  Y  Y6  1  0.456494  0.913920  0.750000  1
  Y  Y7  1  0.088917  0.544458  0.750000  1
  Y  Y8  1  0.208709  0.791285  0.435768  1
  Y  Y9  1  0.208709  0.417426  0.435768  1
  Y  Y10  1  0.579715  0.789858  0.436993  1
  Y  Y11  1  0.792257  0.209431  0.562138  1
  Y  Y12  1  0.792257  0.582825  0.562138  1
  Y  Y13  1  0.418269  0.209134  0.561984  1
  Y  Y14  1  0.792257  0.209431  0.937862  1
  Y  Y15  1  0.792257  0.582825  0.937862  1
  Y  Y16  1  0.418269  0.209134  0.938016  1
  Y  Y17  1  0.208709  0.791285  0.064232  1
  Y  Y18  1  0.208709  0.417426  0.064232  1
  Y  Y19  1  0.579715  0.789858  0.063007  1
  Ni  Ni20  1  0.335064  0.667533  0.250000  1
  Ni  Ni21  1  0.664919  0.332459  0.750000  1
  Hg  Hg22  1  0.247269  0.123635  0.250000  1
  Hg  Hg23  1  0.116915  0.884452  0.750000  1
  Hg  Hg24  1  0.116915  0.232463  0.750000  1
  Hg  Hg25  1  0.764310  0.882155  0.750000  1
  Au  Au26  1  0.875147  0.127850  0.250000  1
  Au  Au27  1  0.875147  0.747297  0.250000  1
