# generated using pymatgen
data_Sc3Nb5P4
_symmetry_space_group_name_H-M   'P 1'
_cell_length_a   3.54482200
_cell_length_b   6.88528125
_cell_length_c   8.29680644
_cell_angle_alpha   90.46713442
_cell_angle_beta   90.00000000
_cell_angle_gamma   90.00000000
_symmetry_Int_Tables_number   1
_chemical_formula_structural   Sc3Nb5P4
_chemical_formula_sum   'Sc3 Nb5 P4'
_cell_volume   202.49422464
_cell_formula_units_Z   1
loop_
 _symmetry_equiv_pos_site_id
 _symmetry_equiv_pos_as_xyz
  1  'x, y, z'
loop_
 _atom_site_type_symbol
 _atom_site_label
 _atom_site_symmetry_multiplicity
 _atom_site_fract_x
 _atom_site_fract_y
 _atom_site_fract_z
 _atom_site_occupancy
  Sc  Sc0  1  0.250000  0.033356  0.663328  1
  Sc  Sc1  1  0.250000  0.534838  0.834636  1
  Sc  Sc2  1  0.750000  0.464111  0.167266  1
  Nb  Nb3  1  0.750000  0.966318  0.331641  1
  Nb  Nb4  1  0.750000  0.864917  0.943739  1
  Nb  Nb5  1  0.250000  0.643641  0.439332  1
  Nb  Nb6  1  0.750000  0.360608  0.557131  1
  Nb  Nb7  1  0.250000  0.136179  0.061320  1
  P  P8  1  0.250000  0.257672  0.357160  1
  P  P9  1  0.250000  0.761978  0.143881  1
  P  P10  1  0.750000  0.738165  0.644840  1
  P  P11  1  0.750000  0.238218  0.855729  1
