# generated using pymatgen
data_TaTi3Al2(Co5B2)2
_symmetry_space_group_name_H-M   'P 1'
_cell_length_a   8.44867404
_cell_length_b   8.44867404
_cell_length_c   3.00067400
_cell_angle_alpha   90.00000000
_cell_angle_beta   90.00000000
_cell_angle_gamma   89.75671563
_symmetry_Int_Tables_number   1
_chemical_formula_structural   TaTi3Al2(Co5B2)2
_chemical_formula_sum   'Ta1 Ti3 Al2 Co10 B4'
_cell_volume   214.18645847
_cell_formula_units_Z   1
loop_
 _symmetry_equiv_pos_site_id
 _symmetry_equiv_pos_as_xyz
  1  'x, y, z'
loop_
 _atom_site_type_symbol
 _atom_site_label
 _atom_site_symmetry_multiplicity
 _atom_site_fract_x
 _atom_site_fract_y
 _atom_site_fract_z
 _atom_site_occupancy
  Ta  Ta0  1  0.824093  0.324093  0.000000  1
  Ti  Ti1  1  0.323691  0.175190  0.000000  1
  Ti  Ti2  1  0.675190  0.823691  0.000000  1
  Ti  Ti3  1  0.176780  0.676780  0.000000  1
  Al  Al4  1  0.000626  0.999403  0.000000  1
  Al  Al5  1  0.499403  0.500626  0.000000  1
  Co  Co6  1  0.499128  0.999128  0.500000  1
  Co  Co7  1  0.003719  0.503719  0.500000  1
  Co  Co8  1  0.071163  0.220439  0.500000  1
  Co  Co9  1  0.220528  0.929894  0.500000  1
  Co  Co10  1  0.778557  0.066924  0.500000  1
  Co  Co11  1  0.928561  0.780567  0.500000  1
  Co  Co12  1  0.429894  0.720528  0.500000  1
  Co  Co13  1  0.566924  0.278557  0.500000  1
  Co  Co14  1  0.720439  0.571163  0.500000  1
  Co  Co15  1  0.280567  0.428561  0.500000  1
  B  B16  1  0.619656  0.119656  0.000000  1
  B  B17  1  0.121677  0.380694  0.000000  1
  B  B18  1  0.880694  0.621677  0.000000  1
  B  B19  1  0.378711  0.878711  0.000000  1
