# generated using pymatgen
data_TbDy2In3IrRh2
_symmetry_space_group_name_H-M   'P 1'
_cell_length_a   7.58136726
_cell_length_b   7.57651358
_cell_length_c   3.90331800
_cell_angle_alpha   90.00000000
_cell_angle_beta   90.00000000
_cell_angle_gamma   119.95501176
_symmetry_Int_Tables_number   1
_chemical_formula_structural   TbDy2In3IrRh2
_chemical_formula_sum   'Tb1 Dy2 In3 Ir1 Rh2'
_cell_volume   194.25768471
_cell_formula_units_Z   1
loop_
 _symmetry_equiv_pos_site_id
 _symmetry_equiv_pos_as_xyz
  1  'x, y, z'
loop_
 _atom_site_type_symbol
 _atom_site_label
 _atom_site_symmetry_multiplicity
 _atom_site_fract_x
 _atom_site_fract_y
 _atom_site_fract_z
 _atom_site_occupancy
  Tb  Tb0  1  0.996391  0.588264  0.500000  1
  Dy  Dy1  1  0.592263  0.003884  0.500000  1
  Dy  Dy2  1  0.411516  0.407836  0.500000  1
  In  In3  1  0.001381  0.257499  0.000000  1
  In  In4  1  0.256711  0.999097  0.000000  1
  In  In5  1  0.741926  0.743652  0.000000  1
  Ir  Ir6  1  0.665999  0.332782  0.000000  1
  Rh  Rh7  1  0.999986  0.000222  0.500000  1
  Rh  Rh8  1  0.333827  0.666764  0.000000  1
