# generated using pymatgen
data_LuNb6TcS12
_symmetry_space_group_name_H-M   'P 1'
_cell_length_a   5.83100400
_cell_length_b   5.83100312
_cell_length_c   12.78762500
_cell_angle_alpha   90.00000000
_cell_angle_beta   90.00000000
_cell_angle_gamma   120.00001634
_symmetry_Int_Tables_number   1
_chemical_formula_structural   LuNb6TcS12
_chemical_formula_sum   'Lu1 Nb6 Tc1 S12'
_cell_volume   376.53648606
_cell_formula_units_Z   1
loop_
 _symmetry_equiv_pos_site_id
 _symmetry_equiv_pos_as_xyz
  1  'x, y, z'
loop_
 _atom_site_type_symbol
 _atom_site_label
 _atom_site_symmetry_multiplicity
 _atom_site_fract_x
 _atom_site_fract_y
 _atom_site_fract_z
 _atom_site_occupancy
  Lu  Lu0  1  0.333333  0.666667  0.250000  1
  Nb  Nb1  1  0.333333  0.666667  0.516655  1
  Nb  Nb2  1  0.666667  0.333333  0.987834  1
  Nb  Nb3  1  0.666667  0.333333  0.512166  1
  Nb  Nb4  1  0.333333  0.666667  0.983345  1
  Nb  Nb5  1  0.000000  0.000000  0.516370  1
  Nb  Nb6  1  0.000000  0.000000  0.983630  1
  Tc  Tc7  1  0.666667  0.333333  0.750000  1
  S  S8  1  0.329796  0.329621  0.109653  1
  S  S9  1  0.670379  0.000174  0.109653  1
  S  S10  1  0.999826  0.670204  0.109653  1
  S  S11  1  0.996115  0.333171  0.636717  1
  S  S12  1  0.666829  0.003885  0.863283  1
  S  S13  1  0.666829  0.662944  0.636717  1
  S  S14  1  0.337056  0.003885  0.636717  1
  S  S15  1  0.670379  0.670204  0.390347  1
  S  S16  1  0.329796  0.000174  0.390347  1
  S  S17  1  0.337056  0.333171  0.863283  1
  S  S18  1  0.996115  0.662944  0.863283  1
  S  S19  1  0.999826  0.329621  0.390347  1
