# generated using pymatgen
data_Dy3LuBBr6
_symmetry_space_group_name_H-M   'P 1'
_cell_length_a   3.94469700
_cell_length_b   13.12351231
_cell_length_c   13.58282589
_cell_angle_alpha   89.82484339
_cell_angle_beta   90.00000000
_cell_angle_gamma   90.00000000
_symmetry_Int_Tables_number   1
_chemical_formula_structural   Dy3LuBBr6
_chemical_formula_sum   'Dy6 Lu2 B2 Br12'
_cell_volume   703.15624319
_cell_formula_units_Z   2
loop_
 _symmetry_equiv_pos_site_id
 _symmetry_equiv_pos_as_xyz
  1  'x, y, z'
loop_
 _atom_site_type_symbol
 _atom_site_label
 _atom_site_symmetry_multiplicity
 _atom_site_fract_x
 _atom_site_fract_y
 _atom_site_fract_z
 _atom_site_occupancy
  Dy  Dy0  1  0.000000  0.101969  0.080957  1
  Dy  Dy1  1  0.000000  0.898031  0.919043  1
  Dy  Dy2  1  0.500000  0.123792  0.854627  1
  Dy  Dy3  1  0.500000  0.876208  0.145373  1
  Dy  Dy4  1  0.500000  0.622397  0.643882  1
  Dy  Dy5  1  0.500000  0.377603  0.356118  1
  Lu  Lu6  1  0.000000  0.598216  0.421827  1
  Lu  Lu7  1  0.000000  0.401784  0.578173  1
  B  B8  1  0.500000  0.000000  0.000000  1
  B  B9  1  0.500000  0.500000  0.500000  1
  Br  Br10  1  0.500000  0.272749  0.678466  1
  Br  Br11  1  0.500000  0.727251  0.321534  1
  Br  Br12  1  0.500000  0.766737  0.816849  1
  Br  Br13  1  0.500000  0.233263  0.183151  1
  Br  Br14  1  0.000000  0.262944  0.930798  1
  Br  Br15  1  0.000000  0.737056  0.069202  1
  Br  Br16  1  0.000000  0.484569  0.240418  1
  Br  Br17  1  0.000000  0.515431  0.759582  1
  Br  Br18  1  0.000000  0.980556  0.262527  1
  Br  Br19  1  0.000000  0.019444  0.737473  1
  Br  Br20  1  0.000000  0.239439  0.435103  1
  Br  Br21  1  0.000000  0.760561  0.564897  1
