# generated using pymatgen
data_La3Th11OsRu5
_symmetry_space_group_name_H-M   'P 1'
_cell_length_a   9.91048452
_cell_length_b   10.02398237
_cell_length_c   6.38341088
_cell_angle_alpha   89.71283032
_cell_angle_beta   90.15452682
_cell_angle_gamma   119.99655006
_symmetry_Int_Tables_number   1
_chemical_formula_structural   La3Th11OsRu5
_chemical_formula_sum   'La3 Th11 Os1 Ru5'
_cell_volume   549.19711082
_cell_formula_units_Z   1
loop_
 _symmetry_equiv_pos_site_id
 _symmetry_equiv_pos_as_xyz
  1  'x, y, z'
loop_
 _atom_site_type_symbol
 _atom_site_label
 _atom_site_symmetry_multiplicity
 _atom_site_fract_x
 _atom_site_fract_y
 _atom_site_fract_z
 _atom_site_occupancy
  La  La0  1  0.462227  0.538435  0.297501  1
  La  La1  1  0.073892  0.537539  0.298711  1
  La  La2  1  0.924431  0.460367  0.798450  1
  Th  Th3  1  0.249576  0.125438  0.505968  1
  Th  Th4  1  0.541296  0.080544  0.800634  1
  Th  Th5  1  0.749293  0.874871  0.004483  1
  Th  Th6  1  0.663832  0.331972  0.282410  1
  Th  Th7  1  0.126762  0.875123  0.001241  1
  Th  Th8  1  0.460958  0.922616  0.302010  1
  Th  Th9  1  0.539017  0.459542  0.799011  1
  Th  Th10  1  0.874059  0.124566  0.502967  1
  Th  Th11  1  0.124889  0.248586  0.001454  1
  Th  Th12  1  0.874395  0.750728  0.504026  1
  Th  Th13  1  0.336573  0.669637  0.780927  1
  Os  Os14  1  0.810700  0.630933  0.049866  1
  Ru  Ru15  1  0.808433  0.177029  0.050872  1
  Ru  Ru16  1  0.631527  0.820645  0.552055  1
  Ru  Ru17  1  0.371556  0.185432  0.044417  1
  Ru  Ru18  1  0.184376  0.362736  0.557828  1
  Ru  Ru19  1  0.192209  0.823262  0.549165  1
