# generated using pymatgen
data_Dy3Tm3Lu2(CdIr)2
_symmetry_space_group_name_H-M   'P 1'
_cell_length_a   9.53288444
_cell_length_b   9.53157138
_cell_length_c   9.54096157
_cell_angle_alpha   60.00388014
_cell_angle_beta   59.91291526
_cell_angle_gamma   59.85657609
_symmetry_Int_Tables_number   1
_chemical_formula_structural   Dy3Tm3Lu2(CdIr)2
_chemical_formula_sum   'Dy6 Tm6 Lu4 Cd4 Ir4'
_cell_volume   611.95528383
_cell_formula_units_Z   2
loop_
 _symmetry_equiv_pos_site_id
 _symmetry_equiv_pos_as_xyz
  1  'x, y, z'
loop_
 _atom_site_type_symbol
 _atom_site_label
 _atom_site_symmetry_multiplicity
 _atom_site_fract_x
 _atom_site_fract_y
 _atom_site_fract_z
 _atom_site_occupancy
  Dy  Dy0  1  0.189993  0.810487  0.810795  1
  Dy  Dy1  1  0.810506  0.189456  0.189275  1
  Dy  Dy2  1  0.810539  0.190049  0.810792  1
  Dy  Dy3  1  0.189409  0.810508  0.189242  1
  Dy  Dy4  1  0.810625  0.810635  0.189905  1
  Dy  Dy5  1  0.189127  0.189169  0.810804  1
  Tm  Tm6  1  0.598715  0.598963  0.598363  1
  Tm  Tm7  1  0.599879  0.599642  0.202642  1
  Tm  Tm8  1  0.599991  0.203095  0.599074  1
  Tm  Tm9  1  0.203290  0.599830  0.599294  1
  Tm  Tm10  1  0.061049  0.437511  0.438414  1
  Tm  Tm11  1  0.436318  0.062184  0.061977  1
  Lu  Lu12  1  0.437780  0.060720  0.438797  1
  Lu  Lu13  1  0.062000  0.436557  0.061821  1
  Lu  Lu14  1  0.438084  0.438196  0.060885  1
  Lu  Lu15  1  0.061949  0.061987  0.437028  1
  Cd  Cd16  1  0.829951  0.829839  0.830472  1
  Cd  Cd17  1  0.830342  0.830418  0.508184  1
  Cd  Cd18  1  0.830544  0.507156  0.831037  1
  Cd  Cd19  1  0.507143  0.830460  0.830960  1
  Ir  Ir20  1  0.392662  0.391704  0.390850  1
  Ir  Ir21  1  0.392062  0.393198  0.825500  1
  Ir  Ir22  1  0.392193  0.825976  0.392494  1
  Ir  Ir23  1  0.825849  0.392264  0.391395  1
