# generated using pymatgen
data_Dy(ErSe2)2
_symmetry_space_group_name_H-M   'P 1'
_cell_length_a   4.04411700
_cell_length_b   6.97223356
_cell_length_c   6.97138496
_cell_angle_alpha   71.63174651
_cell_angle_beta   90.00000000
_cell_angle_gamma   90.00000000
_symmetry_Int_Tables_number   1
_chemical_formula_structural   Dy(ErSe2)2
_chemical_formula_sum   'Dy1 Er2 Se4'
_cell_volume   186.55381950
_cell_formula_units_Z   1
loop_
 _symmetry_equiv_pos_site_id
 _symmetry_equiv_pos_as_xyz
  1  'x, y, z'
loop_
 _atom_site_type_symbol
 _atom_site_label
 _atom_site_symmetry_multiplicity
 _atom_site_fract_x
 _atom_site_fract_y
 _atom_site_fract_z
 _atom_site_occupancy
  Dy  Dy0  1  0.000000  0.500000  0.500000  1
  Er  Er1  1  0.000000  0.000000  0.000000  1
  Er  Er2  1  0.500000  0.500000  0.000000  1
  Se  Se3  1  0.500000  0.756446  0.253381  1
  Se  Se4  1  0.000000  0.254145  0.244517  1
  Se  Se5  1  0.500000  0.243554  0.746619  1
  Se  Se6  1  0.000000  0.745855  0.755483  1
