# generated using pymatgen
data_YbY2ErB16
_symmetry_space_group_name_H-M   'P 1'
_cell_length_a   7.10312420
_cell_length_b   7.10312327
_cell_length_c   4.02355700
_cell_angle_alpha   90.00000000
_cell_angle_beta   90.00000000
_cell_angle_gamma   90.09895722
_symmetry_Int_Tables_number   1
_chemical_formula_structural   YbY2ErB16
_chemical_formula_sum   'Yb1 Y2 Er1 B16'
_cell_volume   203.00571804
_cell_formula_units_Z   1
loop_
 _symmetry_equiv_pos_site_id
 _symmetry_equiv_pos_as_xyz
  1  'x, y, z'
loop_
 _atom_site_type_symbol
 _atom_site_label
 _atom_site_symmetry_multiplicity
 _atom_site_fract_x
 _atom_site_fract_y
 _atom_site_fract_z
 _atom_site_occupancy
  Yb  Yb0  1  0.682353  0.817647  0.000000  1
  Y  Y1  1  0.817800  0.317955  0.000000  1
  Y  Y2  1  0.182045  0.682200  0.000000  1
  Er  Er3  1  0.319474  0.180526  0.000000  1
  B  B4  1  0.500038  0.500960  0.797149  1
  B  B5  1  0.999040  0.999962  0.797149  1
  B  B6  1  0.500038  0.500960  0.202851  1
  B  B7  1  0.999040  0.999962  0.202851  1
  B  B8  1  0.913281  0.586719  0.500000  1
  B  B9  1  0.086929  0.413071  0.500000  1
  B  B10  1  0.412916  0.913753  0.500000  1
  B  B11  1  0.586247  0.087084  0.500000  1
  B  B12  1  0.675429  0.538225  0.500000  1
  B  B13  1  0.324378  0.460512  0.500000  1
  B  B14  1  0.176919  0.963104  0.500000  1
  B  B15  1  0.823919  0.038006  0.500000  1
  B  B16  1  0.461994  0.676081  0.500000  1
  B  B17  1  0.536896  0.323081  0.500000  1
  B  B18  1  0.039488  0.175622  0.500000  1
  B  B19  1  0.961775  0.824571  0.500000  1
