# generated using pymatgen
data_Be15Nb6(Co3Cu)2
_symmetry_space_group_name_H-M   'P 1'
_cell_length_a   7.58418399
_cell_length_b   7.58989290
_cell_length_c   7.58989300
_cell_angle_alpha   60.00000391
_cell_angle_beta   59.97510040
_cell_angle_gamma   59.97510306
_symmetry_Int_Tables_number   1
_chemical_formula_structural   Be15Nb6(Co3Cu)2
_chemical_formula_sum   'Be15 Nb6 Co6 Cu2'
_cell_volume   308.81730768
_cell_formula_units_Z   1
loop_
 _symmetry_equiv_pos_site_id
 _symmetry_equiv_pos_as_xyz
  1  'x, y, z'
loop_
 _atom_site_type_symbol
 _atom_site_label
 _atom_site_symmetry_multiplicity
 _atom_site_fract_x
 _atom_site_fract_y
 _atom_site_fract_z
 _atom_site_occupancy
  Be  Be0  1  0.322389  0.328647  0.328647  1
  Be  Be1  1  0.677611  0.671353  0.671353  1
  Be  Be2  1  0.322389  0.328647  0.020318  1
  Be  Be3  1  0.322389  0.020318  0.328647  1
  Be  Be4  1  0.677611  0.671353  0.979682  1
  Be  Be5  1  0.677611  0.979682  0.671353  1
  Be  Be6  1  0.029786  0.323405  0.323405  1
  Be  Be7  1  0.970214  0.676595  0.676595  1
  Be  Be8  1  0.500000  0.000000  0.000000  1
  Be  Be9  1  0.000000  0.500000  0.500000  1
  Be  Be10  1  0.000000  0.500000  0.000000  1
  Be  Be11  1  0.500000  0.000000  0.500000  1
  Be  Be12  1  0.000000  0.000000  0.500000  1
  Be  Be13  1  0.500000  0.500000  0.000000  1
  Be  Be14  1  0.000000  0.000000  0.000000  1
  Nb  Nb15  1  0.714288  0.295005  0.295005  1
  Nb  Nb16  1  0.285712  0.704995  0.704995  1
  Nb  Nb17  1  0.285712  0.704995  0.304298  1
  Nb  Nb18  1  0.714288  0.295005  0.695702  1
  Nb  Nb19  1  0.285712  0.304298  0.704995  1
  Nb  Nb20  1  0.714288  0.695702  0.295005  1
  Co  Co21  1  0.124495  0.121395  0.121395  1
  Co  Co22  1  0.875505  0.878605  0.878605  1
  Co  Co23  1  0.124495  0.121395  0.632715  1
  Co  Co24  1  0.124495  0.632715  0.121395  1
  Co  Co25  1  0.875505  0.878605  0.367285  1
  Co  Co26  1  0.875505  0.367285  0.878605  1
  Cu  Cu27  1  0.631393  0.122869  0.122869  1
  Cu  Cu28  1  0.368607  0.877131  0.877131  1
