# generated using pymatgen
data_La2Er(Ga2Ni3)3
_symmetry_space_group_name_H-M   'P 1'
_cell_length_a   8.85878200
_cell_length_b   8.85878264
_cell_length_c   4.12393900
_cell_angle_alpha   90.00000000
_cell_angle_beta   90.00000000
_cell_angle_gamma   119.99999760
_symmetry_Int_Tables_number   1
_chemical_formula_structural   La2Er(Ga2Ni3)3
_chemical_formula_sum   'La2 Er1 Ga6 Ni9'
_cell_volume   280.27924276
_cell_formula_units_Z   1
loop_
 _symmetry_equiv_pos_site_id
 _symmetry_equiv_pos_as_xyz
  1  'x, y, z'
loop_
 _atom_site_type_symbol
 _atom_site_label
 _atom_site_symmetry_multiplicity
 _atom_site_fract_x
 _atom_site_fract_y
 _atom_site_fract_z
 _atom_site_occupancy
  La  La0  1  0.666667  0.333333  0.500000  1
  La  La1  1  0.333333  0.666667  0.500000  1
  Er  Er2  1  0.000000  0.000000  0.000000  1
  Ga  Ga3  1  0.477372  0.477372  0.000000  1
  Ga  Ga4  1  0.522628  0.000000  0.000000  1
  Ga  Ga5  1  0.000000  0.522628  0.000000  1
  Ga  Ga6  1  0.734389  0.734389  0.500000  1
  Ga  Ga7  1  0.265611  0.000000  0.500000  1
  Ga  Ga8  1  0.000000  0.265611  0.500000  1
  Ni  Ni9  1  0.831057  0.196803  0.000000  1
  Ni  Ni10  1  0.803197  0.634253  0.000000  1
  Ni  Ni11  1  0.365747  0.168943  0.000000  1
  Ni  Ni12  1  0.196803  0.831057  0.000000  1
  Ni  Ni13  1  0.634253  0.803197  0.000000  1
  Ni  Ni14  1  0.168943  0.365747  0.000000  1
  Ni  Ni15  1  0.287767  0.287767  0.500000  1
  Ni  Ni16  1  0.712233  0.000000  0.500000  1
  Ni  Ni17  1  0.000000  0.712233  0.500000  1
