# generated using pymatgen
data_Dy5Ho7GaNi3RhPb
_symmetry_space_group_name_H-M   'P 1'
_cell_length_a   8.36591284
_cell_length_b   8.36591221
_cell_length_c   8.36421900
_cell_angle_alpha   112.73527438
_cell_angle_beta   109.64259601
_cell_angle_gamma   106.11226286
_symmetry_Int_Tables_number   1
_chemical_formula_structural   Dy5Ho7GaNi3RhPb
_chemical_formula_sum   'Dy5 Ho7 Ga1 Ni3 Rh1 Pb1'
_cell_volume   449.08726696
_cell_formula_units_Z   1
loop_
 _symmetry_equiv_pos_site_id
 _symmetry_equiv_pos_as_xyz
  1  'x, y, z'
loop_
 _atom_site_type_symbol
 _atom_site_label
 _atom_site_symmetry_multiplicity
 _atom_site_fract_x
 _atom_site_fract_y
 _atom_site_fract_z
 _atom_site_occupancy
  Dy  Dy0  1  0.438153  0.239651  0.198158  1
  Dy  Dy1  1  0.580153  0.776114  0.804404  1
  Dy  Dy2  1  0.028165  0.224158  0.804333  1
  Dy  Dy3  1  0.958492  0.760013  0.198165  1
  Dy  Dy4  1  0.180533  0.287907  0.468405  1
  Ho  Ho5  1  0.824502  0.716380  0.540904  1
  Ho  Ho6  1  0.180531  0.712056  0.892586  1
  Ho  Ho7  1  0.824373  0.283347  0.107694  1
  Ho  Ho8  1  0.324530  0.635116  0.311766  1
  Ho  Ho9  1  0.677033  0.365155  0.689521  1
  Ho  Ho10  1  0.324340  0.012434  0.689529  1
  Ho  Ho11  1  0.676662  0.987333  0.311826  1
  Ga  Ga12  1  0.014469  0.999238  0.013713  1
  Ni  Ni13  1  0.645174  0.000439  0.645865  1
  Ni  Ni14  1  0.119806  0.622989  0.497507  1
  Ni  Ni15  1  0.874763  0.378008  0.497620  1
  Rh  Rh16  1  0.332487  0.999356  0.332040  1
  Pb  Pb17  1  0.495831  0.500305  0.995966  1
