# generated using pymatgen
data_Y3In3Rh2Au
_symmetry_space_group_name_H-M   'P 1'
_cell_length_a   7.76845500
_cell_length_b   7.76845492
_cell_length_c   3.82233700
_cell_angle_alpha   90.00000000
_cell_angle_beta   90.00000000
_cell_angle_gamma   120.00000459
_symmetry_Int_Tables_number   1
_chemical_formula_structural   Y3In3Rh2Au
_chemical_formula_sum   'Y3 In3 Rh2 Au1'
_cell_volume   199.76936558
_cell_formula_units_Z   1
loop_
 _symmetry_equiv_pos_site_id
 _symmetry_equiv_pos_as_xyz
  1  'x, y, z'
loop_
 _atom_site_type_symbol
 _atom_site_label
 _atom_site_symmetry_multiplicity
 _atom_site_fract_x
 _atom_site_fract_y
 _atom_site_fract_z
 _atom_site_occupancy
  Y  Y0  1  0.981938  0.587011  0.500000  1
  Y  Y1  1  0.412989  0.394927  0.500000  1
  Y  Y2  1  0.605073  0.018062  0.500000  1
  In  In3  1  0.995942  0.254941  0.000000  1
  In  In4  1  0.258999  0.004058  0.000000  1
  In  In5  1  0.745059  0.741001  0.000000  1
  Rh  Rh6  1  0.000000  0.000000  0.500000  1
  Rh  Rh7  1  0.666667  0.333333  0.000000  1
  Au  Au8  1  0.333333  0.666667  0.000000  1
