# generated using pymatgen
data_SrEu2(CdPt)3
_symmetry_space_group_name_H-M   'P 1'
_cell_length_a   7.71515184
_cell_length_b   7.65272184
_cell_length_c   4.26853700
_cell_angle_alpha   90.00000000
_cell_angle_beta   90.00000000
_cell_angle_gamma   119.71932871
_symmetry_Int_Tables_number   1
_chemical_formula_structural   SrEu2(CdPt)3
_chemical_formula_sum   'Sr1 Eu2 Cd3 Pt3'
_cell_volume   218.87262055
_cell_formula_units_Z   1
loop_
 _symmetry_equiv_pos_site_id
 _symmetry_equiv_pos_as_xyz
  1  'x, y, z'
loop_
 _atom_site_type_symbol
 _atom_site_label
 _atom_site_symmetry_multiplicity
 _atom_site_fract_x
 _atom_site_fract_y
 _atom_site_fract_z
 _atom_site_occupancy
  Sr  Sr0  1  0.000014  0.590834  0.500000  1
  Eu  Eu1  1  0.408523  0.408282  0.500000  1
  Eu  Eu2  1  0.591433  0.999785  0.500000  1
  Cd  Cd3  1  0.750860  0.751606  0.000000  1
  Cd  Cd4  1  0.249139  0.000763  0.000000  1
  Cd  Cd5  1  0.000018  0.249578  0.000000  1
  Pt  Pt6  1  0.656756  0.325290  0.000000  1
  Pt  Pt7  1  0.343206  0.668391  0.000000  1
  Pt  Pt8  1  0.000053  0.005470  0.500000  1
