# generated using pymatgen
data_Lu2Ni7B2Au
_symmetry_space_group_name_H-M   'P 1'
_cell_length_a   4.94134068
_cell_length_b   4.95309415
_cell_length_c   14.06097300
_cell_angle_alpha   90.00000000
_cell_angle_beta   90.00000000
_cell_angle_gamma   119.98107231
_symmetry_Int_Tables_number   1
_chemical_formula_structural   Lu2Ni7B2Au
_chemical_formula_sum   'Lu4 Ni14 B4 Au2'
_cell_volume   298.09190781
_cell_formula_units_Z   2
loop_
 _symmetry_equiv_pos_site_id
 _symmetry_equiv_pos_as_xyz
  1  'x, y, z'
loop_
 _atom_site_type_symbol
 _atom_site_label
 _atom_site_symmetry_multiplicity
 _atom_site_fract_x
 _atom_site_fract_y
 _atom_site_fract_z
 _atom_site_occupancy
  Lu  Lu0  1  0.666755  0.333430  0.472783  1
  Lu  Lu1  1  0.333245  0.666570  0.972783  1
  Lu  Lu2  1  0.333437  0.666690  0.740094  1
  Lu  Lu3  1  0.666563  0.333310  0.240094  1
  Ni  Ni4  1  0.999926  0.999912  0.001338  1
  Ni  Ni5  1  0.000074  0.000088  0.501338  1
  Ni  Ni6  1  0.165176  0.330683  0.147823  1
  Ni  Ni7  1  0.834824  0.669317  0.647823  1
  Ni  Ni8  1  0.669338  0.834752  0.147743  1
  Ni  Ni9  1  0.165137  0.834683  0.147799  1
  Ni  Ni10  1  0.834863  0.165317  0.647799  1
  Ni  Ni11  1  0.330662  0.165248  0.647743  1
  Ni  Ni12  1  0.833566  0.667028  0.853247  1
  Ni  Ni13  1  0.833445  0.166286  0.853221  1
  Ni  Ni14  1  0.332747  0.166445  0.853203  1
  Ni  Ni15  1  0.667253  0.833555  0.353203  1
  Ni  Ni16  1  0.166555  0.833714  0.353221  1
  Ni  Ni17  1  0.166434  0.332972  0.353247  1
  B  B18  1  0.333414  0.666815  0.250292  1
  B  B19  1  0.666586  0.333185  0.750292  1
  B  B20  1  0.999962  0.000026  0.253346  1
  B  B21  1  0.000038  0.999974  0.753346  1
  Au  Au22  1  0.333227  0.666428  0.529110  1
  Au  Au23  1  0.666773  0.333572  0.029110  1
