# generated using pymatgen
data_Li2Tb2Ho3P12Ir17
_symmetry_space_group_name_H-M   'P 1'
_cell_length_a   12.66075700
_cell_length_b   12.75942549
_cell_length_c   3.95730600
_cell_angle_alpha   90.00000000
_cell_angle_beta   90.00000000
_cell_angle_gamma   119.74452539
_symmetry_Int_Tables_number   1
_chemical_formula_structural   Li2Tb2Ho3P12Ir17
_chemical_formula_sum   'Li2 Tb2 Ho3 P12 Ir17'
_cell_volume   555.05156334
_cell_formula_units_Z   1
loop_
 _symmetry_equiv_pos_site_id
 _symmetry_equiv_pos_as_xyz
  1  'x, y, z'
loop_
 _atom_site_type_symbol
 _atom_site_label
 _atom_site_symmetry_multiplicity
 _atom_site_fract_x
 _atom_site_fract_y
 _atom_site_fract_z
 _atom_site_occupancy
  Li  Li0  1  0.999523  0.442044  0.500000  1
  Li  Li1  1  0.557479  0.557956  0.500000  1
  Tb  Tb2  1  0.332380  0.662452  0.500000  1
  Tb  Tb3  1  0.669929  0.337548  0.500000  1
  Ho  Ho4  1  0.001741  0.809108  0.000000  1
  Ho  Ho5  1  0.192631  0.190892  0.000000  1
  Ho  Ho6  1  0.811146  0.000000  0.000000  1
  P  P7  1  0.999369  0.630540  0.500000  1
  P  P8  1  0.368830  0.369460  0.500000  1
  P  P9  1  0.639766  0.000000  0.500000  1
  P  P10  1  0.513775  0.683340  0.000000  1
  P  P11  1  0.307231  0.823326  0.000000  1
  P  P12  1  0.166541  0.479547  0.000000  1
  P  P13  1  0.483905  0.176674  0.000000  1
  P  P14  1  0.686994  0.520453  0.000000  1
  P  P15  1  0.830436  0.316660  0.000000  1
  P  P16  1  0.997650  0.177544  0.500000  1
  P  P17  1  0.820106  0.822456  0.500000  1
  P  P18  1  0.178209  0.000000  0.500000  1
  Ir  Ir19  1  0.503934  0.865819  0.000000  1
  Ir  Ir20  1  0.129046  0.638665  0.000000  1
  Ir  Ir21  1  0.356186  0.487628  0.000000  1
  Ir  Ir22  1  0.490383  0.361335  0.000000  1
  Ir  Ir23  1  0.868560  0.512372  0.000000  1
  Ir  Ir24  1  0.638116  0.134181  0.000000  1
  Ir  Ir25  1  0.458679  0.000000  0.500000  1
  Ir  Ir26  1  0.996279  0.277046  0.000000  1
  Ir  Ir27  1  0.719234  0.722954  0.000000  1
  Ir  Ir28  1  0.286492  0.000000  0.000000  1
  Ir  Ir29  1  0.622652  0.807680  0.500000  1
  Ir  Ir30  1  0.199146  0.823447  0.500000  1
  Ir  Ir31  1  0.177049  0.369972  0.500000  1
  Ir  Ir32  1  0.375701  0.176553  0.500000  1
  Ir  Ir33  1  0.807077  0.630028  0.500000  1
  Ir  Ir34  1  0.814973  0.192320  0.500000  1
  Ir  Ir35  1  0.998852  0.000000  0.500000  1
