# generated using pymatgen
data_Tb3TiFeCo7P6
_symmetry_space_group_name_H-M   'P 1'
_cell_length_a   3.71206200
_cell_length_b   10.63877800
_cell_length_c   12.25172300
_cell_angle_alpha   90.00000000
_cell_angle_beta   90.00000000
_cell_angle_gamma   90.00000000
_symmetry_Int_Tables_number   1
_chemical_formula_structural   Tb3TiFeCo7P6
_chemical_formula_sum   'Tb6 Ti2 Fe2 Co14 P12'
_cell_volume   483.84263775
_cell_formula_units_Z   2
loop_
 _symmetry_equiv_pos_site_id
 _symmetry_equiv_pos_as_xyz
  1  'x, y, z'
loop_
 _atom_site_type_symbol
 _atom_site_label
 _atom_site_symmetry_multiplicity
 _atom_site_fract_x
 _atom_site_fract_y
 _atom_site_fract_z
 _atom_site_occupancy
  Tb  Tb0  1  0.000000  0.500000  0.524794  1
  Tb  Tb1  1  0.500000  0.000000  0.475206  1
  Tb  Tb2  1  0.500000  0.820698  0.204296  1
  Tb  Tb3  1  0.500000  0.179302  0.204296  1
  Tb  Tb4  1  0.000000  0.679302  0.795704  1
  Tb  Tb5  1  0.000000  0.320698  0.795704  1
  Ti  Ti6  1  0.500000  0.500000  0.152434  1
  Ti  Ti7  1  0.000000  0.000000  0.847566  1
  Fe  Fe8  1  0.000000  0.500000  0.987948  1
  Fe  Fe9  1  0.500000  0.000000  0.012052  1
  Co  Co10  1  0.500000  0.500000  0.702272  1
  Co  Co11  1  0.000000  0.000000  0.297728  1
  Co  Co12  1  0.500000  0.330884  0.994774  1
  Co  Co13  1  0.500000  0.669116  0.994774  1
  Co  Co14  1  0.000000  0.169116  0.005226  1
  Co  Co15  1  0.000000  0.830884  0.005226  1
  Co  Co16  1  0.500000  0.295912  0.431716  1
  Co  Co17  1  0.500000  0.704088  0.431716  1
  Co  Co18  1  0.000000  0.204088  0.568284  1
  Co  Co19  1  0.000000  0.795912  0.568284  1
  Co  Co20  1  0.500000  0.879088  0.705560  1
  Co  Co21  1  0.500000  0.120912  0.705560  1
  Co  Co22  1  0.000000  0.620912  0.294440  1
  Co  Co23  1  0.000000  0.379088  0.294440  1
  P  P24  1  0.500000  0.500000  0.886195  1
  P  P25  1  0.000000  0.000000  0.113805  1
  P  P26  1  0.500000  0.500000  0.352054  1
  P  P27  1  0.000000  0.000000  0.647946  1
  P  P28  1  0.500000  0.309045  0.615709  1
  P  P29  1  0.500000  0.690955  0.615709  1
  P  P30  1  0.000000  0.190955  0.384291  1
  P  P31  1  0.000000  0.809045  0.384291  1
  P  P32  1  0.500000  0.843881  0.894392  1
  P  P33  1  0.500000  0.156119  0.894392  1
  P  P34  1  0.000000  0.656119  0.105608  1
  P  P35  1  0.000000  0.343881  0.105608  1
