# generated using pymatgen
data_Zr6BBr12
_symmetry_space_group_name_H-M   'P 1'
_cell_length_a   8.69152078
_cell_length_b   8.69152098
_cell_length_c   8.69152134
_cell_angle_alpha   106.84583529
_cell_angle_beta   106.84583444
_cell_angle_gamma   106.84582814
_symmetry_Int_Tables_number   1
_chemical_formula_structural   Zr6BBr12
_chemical_formula_sum   'Zr6 B1 Br12'
_cell_volume   549.08910741
_cell_formula_units_Z   1
loop_
 _symmetry_equiv_pos_site_id
 _symmetry_equiv_pos_as_xyz
  1  'x, y, z'
loop_
 _atom_site_type_symbol
 _atom_site_label
 _atom_site_symmetry_multiplicity
 _atom_site_fract_x
 _atom_site_fract_y
 _atom_site_fract_z
 _atom_site_occupancy
  Zr  Zr0  1  0.972358  0.713096  0.904673  1
  Zr  Zr1  1  0.286904  0.095327  0.027642  1
  Zr  Zr2  1  0.095327  0.027642  0.286904  1
  Zr  Zr3  1  0.904673  0.972358  0.713096  1
  Zr  Zr4  1  0.713096  0.904673  0.972358  1
  Zr  Zr5  1  0.027642  0.286904  0.095327  1
  B  B6  1  0.000000  0.000000  0.000000  1
  Br  Br7  1  0.922928  0.313213  0.778339  1
  Br  Br8  1  0.686787  0.221661  0.077072  1
  Br  Br9  1  0.441327  0.140583  0.364481  1
  Br  Br10  1  0.859417  0.635519  0.558673  1
  Br  Br11  1  0.221661  0.077072  0.686787  1
  Br  Br12  1  0.635519  0.558673  0.859417  1
  Br  Br13  1  0.364481  0.441327  0.140583  1
  Br  Br14  1  0.778339  0.922928  0.313213  1
  Br  Br15  1  0.140583  0.364481  0.441327  1
  Br  Br16  1  0.558673  0.859417  0.635519  1
  Br  Br17  1  0.313213  0.778339  0.922928  1
  Br  Br18  1  0.077072  0.686787  0.221661  1
