# generated using pymatgen
data_Tb4Yb7In9Pt4
_symmetry_space_group_name_H-M   'P 1'
_cell_length_a   13.32418567
_cell_length_b   13.32375569
_cell_length_c   3.72586800
_cell_angle_alpha   90.00000000
_cell_angle_beta   90.00000000
_cell_angle_gamma   112.84093218
_symmetry_Int_Tables_number   1
_chemical_formula_structural   Tb4Yb7In9Pt4
_chemical_formula_sum   'Tb4 Yb7 In9 Pt4'
_cell_volume   609.57999359
_cell_formula_units_Z   1
loop_
 _symmetry_equiv_pos_site_id
 _symmetry_equiv_pos_as_xyz
  1  'x, y, z'
loop_
 _atom_site_type_symbol
 _atom_site_label
 _atom_site_symmetry_multiplicity
 _atom_site_fract_x
 _atom_site_fract_y
 _atom_site_fract_z
 _atom_site_occupancy
  Tb  Tb0  1  0.378878  0.621120  0.000000  1
  Tb  Tb1  1  0.621122  0.378880  0.000000  1
  Tb  Tb2  1  0.311783  0.311785  0.000000  1
  Tb  Tb3  1  0.688217  0.688215  0.000000  1
  Yb  Yb4  1  0.412911  0.071280  0.000000  1
  Yb  Yb5  1  0.587089  0.928720  0.000000  1
  Yb  Yb6  1  0.071289  0.412917  0.000000  1
  Yb  Yb7  1  0.928711  0.587083  0.000000  1
  Yb  Yb8  1  0.159164  0.840838  0.000000  1
  Yb  Yb9  1  0.840836  0.159162  0.000000  1
  Yb  Yb10  1  0.000000  0.000000  0.000000  1
  In  In11  1  0.369387  0.836647  0.500000  1
  In  In12  1  0.630613  0.163353  0.500000  1
  In  In13  1  0.836646  0.369384  0.500000  1
  In  In14  1  0.163354  0.630616  0.500000  1
  In  In15  1  0.217646  0.077897  0.500000  1
  In  In16  1  0.782354  0.922103  0.500000  1
  In  In17  1  0.077896  0.217626  0.500000  1
  In  In18  1  0.922104  0.782374  0.500000  1
  In  In19  1  0.500000  0.500000  0.500000  1
  Pt  Pt20  1  0.448631  0.247570  0.500000  1
  Pt  Pt21  1  0.551369  0.752430  0.500000  1
  Pt  Pt22  1  0.247574  0.448630  0.500000  1
  Pt  Pt23  1  0.752426  0.551370  0.500000  1
