# generated using pymatgen
data_Tm6GaSi11Pt8
_symmetry_space_group_name_H-M   'P 1'
_cell_length_a   4.23167500
_cell_length_b   8.53062170
_cell_length_c   12.91684000
_cell_angle_alpha   80.35663342
_cell_angle_beta   90.00000000
_cell_angle_gamma   90.00000000
_symmetry_Int_Tables_number   1
_chemical_formula_structural   Tm6GaSi11Pt8
_chemical_formula_sum   'Tm6 Ga1 Si11 Pt8'
_cell_volume   459.69387030
_cell_formula_units_Z   1
loop_
 _symmetry_equiv_pos_site_id
 _symmetry_equiv_pos_as_xyz
  1  'x, y, z'
loop_
 _atom_site_type_symbol
 _atom_site_label
 _atom_site_symmetry_multiplicity
 _atom_site_fract_x
 _atom_site_fract_y
 _atom_site_fract_z
 _atom_site_occupancy
  Tm  Tm0  1  0.250000  0.763832  0.439077  1
  Tm  Tm1  1  0.250000  0.592444  0.182523  1
  Tm  Tm2  1  0.750000  0.233073  0.561941  1
  Tm  Tm3  1  0.750000  0.413193  0.814083  1
  Tm  Tm4  1  0.750000  0.929201  0.816545  1
  Tm  Tm5  1  0.250000  0.069994  0.183052  1
  Ga  Ga6  1  0.250000  0.402999  0.428001  1
  Si  Si7  1  0.750000  0.583010  0.566073  1
  Si  Si8  1  0.750000  0.129168  0.004913  1
  Si  Si9  1  0.750000  0.871755  0.571920  1
  Si  Si10  1  0.250000  0.697627  0.714911  1
  Si  Si11  1  0.750000  0.308713  0.288635  1
  Si  Si12  1  0.750000  0.810052  0.275194  1
  Si  Si13  1  0.250000  0.874770  0.993584  1
  Si  Si14  1  0.250000  0.194081  0.723332  1
  Si  Si15  1  0.250000  0.378813  0.002119  1
  Si  Si16  1  0.250000  0.112852  0.435857  1
  Si  Si17  1  0.750000  0.620180  0.998793  1
  Pt  Pt18  1  0.750000  0.352008  0.101998  1
  Pt  Pt19  1  0.250000  0.970050  0.625160  1
  Pt  Pt20  1  0.750000  0.851034  0.087416  1
  Pt  Pt21  1  0.750000  0.030214  0.374470  1
  Pt  Pt22  1  0.250000  0.647351  0.900575  1
  Pt  Pt23  1  0.250000  0.152396  0.910993  1
  Pt  Pt24  1  0.750000  0.543041  0.371149  1
  Pt  Pt25  1  0.250000  0.468151  0.627684  1
