# generated using pymatgen
data_TmLu2In3(Ni7B2)2
_symmetry_space_group_name_H-M   'P 1'
_cell_length_a   4.97414800
_cell_length_b   4.97414891
_cell_length_c   14.11032100
_cell_angle_alpha   90.00000000
_cell_angle_beta   90.00000000
_cell_angle_gamma   120.00000727
_symmetry_Int_Tables_number   1
_chemical_formula_structural   TmLu2In3(Ni7B2)2
_chemical_formula_sum   'Tm1 Lu2 In3 Ni14 B4'
_cell_volume   302.34652326
_cell_formula_units_Z   1
loop_
 _symmetry_equiv_pos_site_id
 _symmetry_equiv_pos_as_xyz
  1  'x, y, z'
loop_
 _atom_site_type_symbol
 _atom_site_label
 _atom_site_symmetry_multiplicity
 _atom_site_fract_x
 _atom_site_fract_y
 _atom_site_fract_z
 _atom_site_occupancy
  Tm  Tm0  1  0.666667  0.333333  0.251862  1
  Lu  Lu1  1  0.333333  0.666667  0.968126  1
  Lu  Lu2  1  0.333333  0.666667  0.743685  1
  In  In3  1  0.333333  0.666667  0.527751  1
  In  In4  1  0.666667  0.333333  0.034175  1
  In  In5  1  0.666667  0.333333  0.469581  1
  Ni  Ni6  1  0.000000  0.000000  0.000611  1
  Ni  Ni7  1  0.000000  0.000000  0.500364  1
  Ni  Ni8  1  0.166186  0.332371  0.148111  1
  Ni  Ni9  1  0.833572  0.667144  0.646321  1
  Ni  Ni10  1  0.667629  0.833814  0.148111  1
  Ni  Ni11  1  0.166186  0.833814  0.148111  1
  Ni  Ni12  1  0.833572  0.166428  0.646321  1
  Ni  Ni13  1  0.332856  0.166428  0.646321  1
  Ni  Ni14  1  0.833794  0.667587  0.852500  1
  Ni  Ni15  1  0.833794  0.166206  0.852500  1
  Ni  Ni16  1  0.332413  0.166206  0.852500  1
  Ni  Ni17  1  0.667018  0.833509  0.353478  1
  Ni  Ni18  1  0.166491  0.833509  0.353478  1
  Ni  Ni19  1  0.166491  0.332982  0.353478  1
  B  B20  1  0.333333  0.666667  0.250773  1
  B  B21  1  0.666667  0.333333  0.749700  1
  B  B22  1  0.000000  0.000000  0.252255  1
  B  B23  1  0.000000  0.000000  0.749889  1
