# generated using pymatgen
data_Rb5PtCO5
_symmetry_space_group_name_H-M   'P 1'
_cell_length_a   7.75661200
_cell_length_b   7.75661232
_cell_length_c   9.30264300
_cell_angle_alpha   90.00000000
_cell_angle_beta   90.00000000
_cell_angle_gamma   90.41382877
_symmetry_Int_Tables_number   1
_chemical_formula_structural   Rb5PtCO5
_chemical_formula_sum   'Rb10 Pt2 C2 O10'
_cell_volume   559.67921684
_cell_formula_units_Z   2
loop_
 _symmetry_equiv_pos_site_id
 _symmetry_equiv_pos_as_xyz
  1  'x, y, z'
loop_
 _atom_site_type_symbol
 _atom_site_label
 _atom_site_symmetry_multiplicity
 _atom_site_fract_x
 _atom_site_fract_y
 _atom_site_fract_z
 _atom_site_occupancy
  Rb  Rb0  1  0.420505  0.920505  0.796433  1
  Rb  Rb1  1  0.559749  0.452194  0.755082  1
  Rb  Rb2  1  0.952194  0.059749  0.755082  1
  Rb  Rb3  1  0.056971  0.556971  0.769539  1
  Rb  Rb4  1  0.556971  0.056971  0.230461  1
  Rb  Rb5  1  0.452194  0.559749  0.244918  1
  Rb  Rb6  1  0.059749  0.952194  0.244918  1
  Rb  Rb7  1  0.920505  0.420505  0.203567  1
  Rb  Rb8  1  0.246242  0.246242  0.500000  1
  Rb  Rb9  1  0.746242  0.746242  0.500000  1
  Pt  Pt10  1  0.256600  0.256600  0.000000  1
  Pt  Pt11  1  0.756600  0.756600  0.000000  1
  C  C12  1  0.776078  0.276078  0.485416  1
  C  C13  1  0.276078  0.776078  0.514584  1
  O  O14  1  0.270833  0.240503  0.791380  1
  O  O15  1  0.740503  0.770833  0.791380  1
  O  O16  1  0.770833  0.740503  0.208620  1
  O  O17  1  0.240503  0.270833  0.208620  1
  O  O18  1  0.360596  0.860596  0.414893  1
  O  O19  1  0.632500  0.338129  0.435013  1
  O  O20  1  0.838129  0.132500  0.435013  1
  O  O21  1  0.338129  0.632500  0.564987  1
  O  O22  1  0.132500  0.838129  0.564987  1
  O  O23  1  0.860596  0.360596  0.585107  1
