# generated using pymatgen
data_Tm2Mn3Fe2(CoP)7
_symmetry_space_group_name_H-M   'P 1'
_cell_length_a   8.97565286
_cell_length_b   8.96806834
_cell_length_c   3.59605200
_cell_angle_alpha   90.00000000
_cell_angle_beta   90.00000000
_cell_angle_gamma   119.80306678
_symmetry_Int_Tables_number   1
_chemical_formula_structural   Tm2Mn3Fe2(CoP)7
_chemical_formula_sum   'Tm2 Mn3 Fe2 Co7 P7'
_cell_volume   251.17705406
_cell_formula_units_Z   1
loop_
 _symmetry_equiv_pos_site_id
 _symmetry_equiv_pos_as_xyz
  1  'x, y, z'
loop_
 _atom_site_type_symbol
 _atom_site_label
 _atom_site_symmetry_multiplicity
 _atom_site_fract_x
 _atom_site_fract_y
 _atom_site_fract_z
 _atom_site_occupancy
  Tm  Tm0  1  0.334172  0.668206  0.000000  1
  Tm  Tm1  1  0.999273  0.999480  0.500000  1
  Mn  Mn2  1  0.768658  0.206908  0.500000  1
  Mn  Mn3  1  0.438273  0.230086  0.500000  1
  Mn  Mn4  1  0.793541  0.559548  0.500000  1
  Fe  Fe5  1  0.510299  0.057856  0.000000  1
  Fe  Fe6  1  0.546043  0.489138  0.000000  1
  Co  Co7  1  0.728222  0.961693  0.000000  1
  Co  Co8  1  0.232912  0.271398  0.000000  1
  Co  Co9  1  0.038112  0.765967  0.000000  1
  Co  Co10  1  0.943833  0.453449  0.000000  1
  Co  Co11  1  0.104425  0.385792  0.500000  1
  Co  Co12  1  0.280360  0.895703  0.500000  1
  Co  Co13  1  0.615898  0.719860  0.500000  1
  P  P14  1  0.962917  0.219923  0.000000  1
  P  P15  1  0.255705  0.034680  0.000000  1
  P  P16  1  0.779269  0.741244  0.000000  1
  P  P17  1  0.069927  0.622681  0.500000  1
  P  P18  1  0.551702  0.930788  0.500000  1
  P  P19  1  0.378773  0.451923  0.500000  1
  P  P20  1  0.667690  0.333673  0.000000  1
