# generated using pymatgen
data_Sc4CO3
_symmetry_space_group_name_H-M   'P 1'
_cell_length_a   4.51803094
_cell_length_b   10.10484211
_cell_length_c   5.54941184
_cell_angle_alpha   100.47917238
_cell_angle_beta   65.94418493
_cell_angle_gamma   153.39424471
_symmetry_Int_Tables_number   1
_chemical_formula_structural   Sc4CO3
_chemical_formula_sum   'Sc4 C1 O3'
_cell_volume   92.70954512
_cell_formula_units_Z   1
loop_
 _symmetry_equiv_pos_site_id
 _symmetry_equiv_pos_as_xyz
  1  'x, y, z'
loop_
 _atom_site_type_symbol
 _atom_site_label
 _atom_site_symmetry_multiplicity
 _atom_site_fract_x
 _atom_site_fract_y
 _atom_site_fract_z
 _atom_site_occupancy
  Sc  Sc0  1  0.542911  0.271721  0.639201  1
  Sc  Sc1  1  0.812348  0.528369  0.125648  1
  Sc  Sc2  1  0.082135  0.785096  0.611896  1
  Sc  Sc3  1  0.312485  0.028429  0.125635  1
  C  C4  1  0.813111  0.028639  0.125226  1
  O  O5  1  0.565539  0.779786  0.623667  1
  O  O6  1  0.059799  0.277133  0.627298  1
  O  O7  1  0.312907  0.528565  0.125346  1
