# generated using pymatgen
data_Sm2Re3Si2MoC2
_symmetry_space_group_name_H-M   'P 1'
_cell_length_a   5.86837456
_cell_length_b   5.86837486
_cell_length_c   7.44620564
_cell_angle_alpha   89.15121460
_cell_angle_beta   90.84878457
_cell_angle_gamma   140.62872100
_symmetry_Int_Tables_number   1
_chemical_formula_structural   Sm2Re3Si2MoC2
_chemical_formula_sum   'Sm2 Re3 Si2 Mo1 C2'
_cell_volume   162.64516203
_cell_formula_units_Z   1
loop_
 _symmetry_equiv_pos_site_id
 _symmetry_equiv_pos_as_xyz
  1  'x, y, z'
loop_
 _atom_site_type_symbol
 _atom_site_label
 _atom_site_symmetry_multiplicity
 _atom_site_fract_x
 _atom_site_fract_y
 _atom_site_fract_z
 _atom_site_occupancy
  Sm  Sm0  1  0.541772  0.458228  0.250527  1
  Sm  Sm1  1  0.458682  0.541318  0.749832  1
  Re  Re2  1  0.179256  0.820744  0.942831  1
  Re  Re3  1  0.168586  0.831414  0.565394  1
  Re  Re4  1  0.829218  0.170782  0.434734  1
  Si  Si5  1  0.262645  0.737355  0.264839  1
  Si  Si6  1  0.734539  0.265461  0.736244  1
  Mo  Mo7  1  0.823200  0.176800  0.057052  1
  C  C8  1  0.003139  0.996861  0.998822  1
  C  C9  1  0.998962  0.001038  0.499725  1
