# generated using pymatgen
data_Ac5TlSe8
_symmetry_space_group_name_H-M   'P 1'
_cell_length_a   8.18196954
_cell_length_b   8.18197207
_cell_length_c   8.18196761
_cell_angle_alpha   109.24411309
_cell_angle_beta   109.92647829
_cell_angle_gamma   109.24402299
_symmetry_Int_Tables_number   1
_chemical_formula_structural   Ac5TlSe8
_chemical_formula_sum   'Ac5 Tl1 Se8'
_cell_volume   421.62968547
_cell_formula_units_Z   1
loop_
 _symmetry_equiv_pos_site_id
 _symmetry_equiv_pos_as_xyz
  1  'x, y, z'
loop_
 _atom_site_type_symbol
 _atom_site_label
 _atom_site_symmetry_multiplicity
 _atom_site_fract_x
 _atom_site_fract_y
 _atom_site_fract_z
 _atom_site_occupancy
  Ac  Ac0  1  0.243117  0.630425  0.377312  1
  Ac  Ac1  1  0.375000  0.250000  0.625000  1
  Ac  Ac2  1  0.746887  0.869575  0.112692  1
  Ac  Ac3  1  0.622688  0.365806  0.253113  1
  Ac  Ac4  1  0.887308  0.134195  0.756883  1
  Tl  Tl5  1  0.125000  0.750000  0.875000  1
  Se  Se6  1  0.995227  0.854657  0.489248  1
  Se  Se7  1  0.997284  0.336236  0.489964  1
  Se  Se8  1  0.510036  0.007320  0.846272  1
  Se  Se9  1  0.153728  0.163764  0.161048  1
  Se  Se10  1  0.359431  0.494021  0.004773  1
  Se  Se11  1  0.634590  0.645342  0.640569  1
  Se  Se12  1  0.510752  0.005979  0.365409  1
  Se  Se13  1  0.838952  0.492680  0.002716  1
