# generated using pymatgen
data_Ho7PaAlPd24
_symmetry_space_group_name_H-M   'P 1'
_cell_length_a   8.30406968
_cell_length_b   8.30406900
_cell_length_c   8.30406900
_cell_angle_alpha   89.79983172
_cell_angle_beta   89.79983173
_cell_angle_gamma   89.79983050
_symmetry_Int_Tables_number   1
_chemical_formula_structural   Ho7PaAlPd24
_chemical_formula_sum   'Ho7 Pa1 Al1 Pd24'
_cell_volume   572.61794001
_cell_formula_units_Z   1
loop_
 _symmetry_equiv_pos_site_id
 _symmetry_equiv_pos_as_xyz
  1  'x, y, z'
loop_
 _atom_site_type_symbol
 _atom_site_label
 _atom_site_symmetry_multiplicity
 _atom_site_fract_x
 _atom_site_fract_y
 _atom_site_fract_z
 _atom_site_occupancy
  Ho  Ho0  1  0.746791  0.746791  0.746791  1
  Ho  Ho1  1  0.747700  0.747700  0.252105  1
  Ho  Ho2  1  0.747700  0.252105  0.747700  1
  Ho  Ho3  1  0.252602  0.252602  0.749308  1
  Ho  Ho4  1  0.252602  0.749308  0.252602  1
  Ho  Ho5  1  0.252105  0.747700  0.747700  1
  Ho  Ho6  1  0.749308  0.252602  0.252602  1
  Pa  Pa7  1  0.255487  0.255487  0.255487  1
  Al  Al8  1  0.996371  0.996371  0.996371  1
  Pd  Pd9  1  0.259166  0.497442  0.004886  1
  Pd  Pd10  1  0.741185  0.498692  0.000226  1
  Pd  Pd11  1  0.004886  0.259166  0.497442  1
  Pd  Pd12  1  0.497442  0.259166  0.004886  1
  Pd  Pd13  1  0.000226  0.741185  0.498692  1
  Pd  Pd14  1  0.498692  0.741185  0.000226  1
  Pd  Pd15  1  0.497442  0.004886  0.259166  1
  Pd  Pd16  1  0.259166  0.004886  0.497442  1
  Pd  Pd17  1  0.498692  0.000226  0.741185  1
  Pd  Pd18  1  0.741185  0.000226  0.498692  1
  Pd  Pd19  1  0.004886  0.497442  0.259166  1
  Pd  Pd20  1  0.000226  0.498692  0.741185  1
  Pd  Pd21  1  0.253223  0.497654  0.497654  1
  Pd  Pd22  1  0.747779  0.499367  0.499367  1
  Pd  Pd23  1  0.497654  0.253223  0.497654  1
  Pd  Pd24  1  0.499367  0.747779  0.499367  1
  Pd  Pd25  1  0.497654  0.497654  0.253223  1
  Pd  Pd26  1  0.499367  0.499367  0.747779  1
  Pd  Pd27  1  0.285100  0.003143  0.003143  1
  Pd  Pd28  1  0.710352  0.999676  0.999676  1
  Pd  Pd29  1  0.003143  0.285100  0.003143  1
  Pd  Pd30  1  0.999676  0.710352  0.999676  1
  Pd  Pd31  1  0.003143  0.003143  0.285100  1
  Pd  Pd32  1  0.999676  0.999676  0.710352  1
