# generated using pymatgen
data_YbHo3(Zn4Ru)2
_symmetry_space_group_name_H-M   'P 1'
_cell_length_a   6.96179900
_cell_length_b   6.96179900
_cell_length_c   5.32201500
_cell_angle_alpha   90.00000000
_cell_angle_beta   90.00000000
_cell_angle_gamma   90.00000000
_symmetry_Int_Tables_number   1
_chemical_formula_structural   YbHo3(Zn4Ru)2
_chemical_formula_sum   'Yb1 Ho3 Zn8 Ru2'
_cell_volume   257.94021337
_cell_formula_units_Z   1
loop_
 _symmetry_equiv_pos_site_id
 _symmetry_equiv_pos_as_xyz
  1  'x, y, z'
loop_
 _atom_site_type_symbol
 _atom_site_label
 _atom_site_symmetry_multiplicity
 _atom_site_fract_x
 _atom_site_fract_y
 _atom_site_fract_z
 _atom_site_occupancy
  Yb  Yb0  1  0.000000  0.500000  0.765712  1
  Ho  Ho1  1  0.000000  0.000000  0.998385  1
  Ho  Ho2  1  0.500000  0.000000  0.226727  1
  Ho  Ho3  1  0.500000  0.500000  0.998385  1
  Zn  Zn4  1  0.188870  0.688870  0.293533  1
  Zn  Zn5  1  0.811130  0.688870  0.293533  1
  Zn  Zn6  1  0.811130  0.311130  0.293533  1
  Zn  Zn7  1  0.312520  0.187480  0.710138  1
  Zn  Zn8  1  0.188870  0.311130  0.293533  1
  Zn  Zn9  1  0.687480  0.187480  0.710138  1
  Zn  Zn10  1  0.687480  0.812520  0.710138  1
  Zn  Zn11  1  0.312520  0.812520  0.710138  1
  Ru  Ru12  1  0.500000  0.500000  0.498054  1
  Ru  Ru13  1  0.000000  0.000000  0.498054  1
