# generated using pymatgen
data_K4Rb12ThZrSb8
_symmetry_space_group_name_H-M   'P 1'
_cell_length_a   12.08191652
_cell_length_b   12.08064463
_cell_length_c   12.08009800
_cell_angle_alpha   60.00252712
_cell_angle_beta   60.00667660
_cell_angle_gamma   60.00399044
_symmetry_Int_Tables_number   1
_chemical_formula_structural   K4Rb12ThZrSb8
_chemical_formula_sum   'K4 Rb12 Th1 Zr1 Sb8'
_cell_volume   1246.88011940
_cell_formula_units_Z   1
loop_
 _symmetry_equiv_pos_site_id
 _symmetry_equiv_pos_as_xyz
  1  'x, y, z'
loop_
 _atom_site_type_symbol
 _atom_site_label
 _atom_site_symmetry_multiplicity
 _atom_site_fract_x
 _atom_site_fract_y
 _atom_site_fract_z
 _atom_site_occupancy
  K  K0  1  0.627060  0.118831  0.627061  1
  K  K1  1  0.627066  0.627061  0.118831  1
  K  K2  1  0.118841  0.627060  0.627059  1
  K  K3  1  0.627054  0.627052  0.627047  1
  Rb  Rb4  1  0.025623  0.025630  0.474406  1
  Rb  Rb5  1  0.777200  0.222773  0.222773  1
  Rb  Rb6  1  0.222746  0.777245  0.777245  1
  Rb  Rb7  1  0.777239  0.777242  0.222746  1
  Rb  Rb8  1  0.777244  0.222741  0.777249  1
  Rb  Rb9  1  0.222775  0.777204  0.222767  1
  Rb  Rb10  1  0.474362  0.025646  0.474355  1
  Rb  Rb11  1  0.474407  0.025628  0.025630  1
  Rb  Rb12  1  0.025641  0.474360  0.474360  1
  Rb  Rb13  1  0.025624  0.474403  0.025634  1
  Rb  Rb14  1  0.222781  0.222775  0.777197  1
  Rb  Rb15  1  0.474364  0.474360  0.025644  1
  Th  Th16  1  0.500017  0.500023  0.500025  1
  Zr  Zr17  1  0.749967  0.749965  0.749966  1
  Sb  Sb18  1  0.395704  0.812837  0.395704  1
  Sb  Sb19  1  0.847828  0.847829  0.456562  1
  Sb  Sb20  1  0.456570  0.847827  0.847825  1
  Sb  Sb21  1  0.847829  0.847829  0.847831  1
  Sb  Sb22  1  0.812819  0.395709  0.395712  1
  Sb  Sb23  1  0.395707  0.395705  0.395706  1
  Sb  Sb24  1  0.395704  0.395703  0.812839  1
  Sb  Sb25  1  0.847830  0.456563  0.847829  1
