# generated using pymatgen
data_YbSmEr5FeBr12
_symmetry_space_group_name_H-M   'P 1'
_cell_length_a   9.18686740
_cell_length_b   9.13125485
_cell_length_c   9.10603788
_cell_angle_alpha   106.51141860
_cell_angle_beta   106.54973563
_cell_angle_gamma   107.27284807
_symmetry_Int_Tables_number   1
_chemical_formula_structural   YbSmEr5FeBr12
_chemical_formula_sum   'Yb1 Sm1 Er5 Fe1 Br12'
_cell_volume   639.95542779
_cell_formula_units_Z   1
loop_
 _symmetry_equiv_pos_site_id
 _symmetry_equiv_pos_as_xyz
  1  'x, y, z'
loop_
 _atom_site_type_symbol
 _atom_site_label
 _atom_site_symmetry_multiplicity
 _atom_site_fract_x
 _atom_site_fract_y
 _atom_site_fract_z
 _atom_site_occupancy
  Yb  Yb0  1  0.500364  0.498887  0.501571  1
  Sm  Sm1  1  0.099258  0.305234  0.023176  1
  Er  Er2  1  0.023513  0.096202  0.298166  1
  Er  Er3  1  0.311172  0.026572  0.100854  1
  Er  Er4  1  0.902023  0.702932  0.976231  1
  Er  Er5  1  0.975635  0.900889  0.700775  1
  Er  Er6  1  0.688590  0.974882  0.898814  1
  Fe  Fe7  1  0.000655  0.003416  0.999480  1
  Br  Br8  1  0.462120  0.377427  0.158811  1
  Br  Br9  1  0.156619  0.452601  0.384366  1
  Br  Br10  1  0.373872  0.151540  0.451732  1
  Br  Br11  1  0.547306  0.623221  0.847552  1
  Br  Br12  1  0.845705  0.547884  0.625996  1
  Br  Br13  1  0.625619  0.845453  0.547455  1
  Br  Br14  1  0.770009  0.316317  0.924167  1
  Br  Br15  1  0.927355  0.778238  0.316113  1
  Br  Br16  1  0.317723  0.925485  0.777282  1
  Br  Br17  1  0.220866  0.687267  0.073732  1
  Br  Br18  1  0.070192  0.213744  0.671806  1
  Br  Br19  1  0.681404  0.071813  0.221925  1
