# generated using pymatgen
data_La10TbNd(SiBr3)4
_symmetry_space_group_name_H-M   'P 1'
_cell_length_a   10.55496255
_cell_length_b   10.60614918
_cell_length_c   10.66631295
_cell_angle_alpha   109.73408953
_cell_angle_beta   109.65998250
_cell_angle_gamma   109.17899343
_symmetry_Int_Tables_number   1
_chemical_formula_structural   La10TbNd(SiBr3)4
_chemical_formula_sum   'La10 Tb1 Nd1 Si4 Br12'
_cell_volume   917.36157787
_cell_formula_units_Z   1
loop_
 _symmetry_equiv_pos_site_id
 _symmetry_equiv_pos_as_xyz
  1  'x, y, z'
loop_
 _atom_site_type_symbol
 _atom_site_label
 _atom_site_symmetry_multiplicity
 _atom_site_fract_x
 _atom_site_fract_y
 _atom_site_fract_z
 _atom_site_occupancy
  La  La0  1  0.261889  0.009715  0.022384  1
  La  La1  1  0.022121  0.260474  0.011584  1
  La  La2  1  0.490807  0.752365  0.013613  1
  La  La3  1  0.748625  0.239362  0.261538  1
  La  La4  1  0.011163  0.020845  0.261951  1
  La  La5  1  0.009338  0.489486  0.750586  1
  La  La6  1  0.239346  0.260229  0.750349  1
  La  La7  1  0.262577  0.752445  0.241232  1
  La  La8  1  0.240085  0.477976  0.491333  1
  La  La9  1  0.480307  0.490297  0.241191  1
  Tb  Tb10  1  0.484503  0.232128  0.466550  1
  Nd  Nd11  1  0.748903  0.014057  0.486889  1
  Si  Si12  1  0.000102  0.249979  0.500745  1
  Si  Si13  1  0.250144  0.499801  0.000663  1
  Si  Si14  1  0.500594  0.002511  0.253085  1
  Si  Si15  1  0.252590  0.250203  0.252892  1
  Br  Br16  1  0.755761  0.749127  0.254957  1
  Br  Br17  1  0.504846  0.249978  0.996170  1
  Br  Br18  1  0.263851  0.008126  0.507090  1
  Br  Br19  1  0.508383  0.494639  0.746819  1
  Br  Br20  1  0.993108  0.991610  0.743881  1
  Br  Br21  1  0.745721  0.995631  0.991668  1
  Br  Br22  1  0.507252  0.756829  0.509205  1
  Br  Br23  1  0.743429  0.498918  0.507203  1
  Br  Br24  1  0.995624  0.504632  0.250722  1
  Br  Br25  1  0.990782  0.746117  0.996130  1
  Br  Br26  1  0.250002  0.754479  0.745858  1
  Br  Br27  1  0.738146  0.248040  0.743714  1
