# generated using pymatgen
data_Lu10Ir3Os
_symmetry_space_group_name_H-M   'P 1'
_cell_length_a   8.21086959
_cell_length_b   8.23933692
_cell_length_c   7.17014936
_cell_angle_alpha   83.52397601
_cell_angle_beta   83.48292347
_cell_angle_gamma   45.56761618
_symmetry_Int_Tables_number   1
_chemical_formula_structural   Lu10Ir3Os
_chemical_formula_sum   'Lu10 Ir3 Os1'
_cell_volume   343.76325648
_cell_formula_units_Z   1
loop_
 _symmetry_equiv_pos_site_id
 _symmetry_equiv_pos_as_xyz
  1  'x, y, z'
loop_
 _atom_site_type_symbol
 _atom_site_label
 _atom_site_symmetry_multiplicity
 _atom_site_fract_x
 _atom_site_fract_y
 _atom_site_fract_z
 _atom_site_occupancy
  Lu  Lu0  1  0.424668  0.575567  0.749741  1
  Lu  Lu1  1  0.346018  0.210519  0.318748  1
  Lu  Lu2  1  0.212628  0.969356  0.082408  1
  Lu  Lu3  1  0.790321  0.029775  0.917565  1
  Lu  Lu4  1  0.970316  0.211905  0.580966  1
  Lu  Lu5  1  0.652839  0.787948  0.679909  1
  Lu  Lu6  1  0.212790  0.345318  0.818960  1
  Lu  Lu7  1  0.783828  0.657225  0.182387  1
  Lu  Lu8  1  0.034067  0.790489  0.418394  1
  Lu  Lu9  1  0.574583  0.425341  0.250559  1
  Ir  Ir10  1  0.171425  0.607857  0.073587  1
  Ir  Ir11  1  0.829179  0.389377  0.926575  1
  Ir  Ir12  1  0.608637  0.172481  0.574927  1
  Os  Os13  1  0.388702  0.826842  0.425278  1
