# generated using pymatgen
data_HfTa5(GaRu2)6
_symmetry_space_group_name_H-M   'P 1'
_cell_length_a   4.39575604
_cell_length_b   6.21703005
_cell_length_c   13.16508401
_cell_angle_alpha   89.99689340
_cell_angle_beta   90.00383078
_cell_angle_gamma   89.98558901
_symmetry_Int_Tables_number   1
_chemical_formula_structural   HfTa5(GaRu2)6
_chemical_formula_sum   'Hf1 Ta5 Ga6 Ru12'
_cell_volume   359.78260950
_cell_formula_units_Z   1
loop_
 _symmetry_equiv_pos_site_id
 _symmetry_equiv_pos_as_xyz
  1  'x, y, z'
loop_
 _atom_site_type_symbol
 _atom_site_label
 _atom_site_symmetry_multiplicity
 _atom_site_fract_x
 _atom_site_fract_y
 _atom_site_fract_z
 _atom_site_occupancy
  Hf  Hf0  1  0.500117  0.500026  0.833332  1
  Ta  Ta1  1  0.000001  0.000010  0.999894  1
  Ta  Ta2  1  0.499882  0.499991  0.166411  1
  Ta  Ta3  1  0.999891  0.999988  0.333337  1
  Ta  Ta4  1  0.500009  0.500014  0.500318  1
  Ta  Ta5  1  0.000118  0.999984  0.666739  1
  Ga  Ga6  1  0.999994  0.499985  0.999190  1
  Ga  Ga7  1  0.499873  0.999997  0.167456  1
  Ga  Ga8  1  0.999857  0.500032  0.333363  1
  Ga  Ga9  1  0.500006  0.999955  0.499226  1
  Ga  Ga10  1  0.000123  0.500055  0.667455  1
  Ga  Ga11  1  0.500156  0.999985  0.833364  1
  Ru  Ru12  1  0.500076  0.247254  0.003105  1
  Ru  Ru13  1  0.499920  0.752759  0.003121  1
  Ru  Ru14  1  0.999823  0.250738  0.167655  1
  Ru  Ru15  1  0.999929  0.749250  0.167658  1
  Ru  Ru16  1  0.499980  0.249730  0.333366  1
  Ru  Ru17  1  0.499790  0.750263  0.333381  1
  Ru  Ru18  1  0.999959  0.250679  0.499005  1
  Ru  Ru19  1  0.000060  0.749323  0.499001  1
  Ru  Ru20  1  0.500193  0.247163  0.663546  1
  Ru  Ru21  1  0.500036  0.752819  0.663542  1
  Ru  Ru22  1  0.000015  0.243896  0.833277  1
  Ru  Ru23  1  0.000196  0.756100  0.833260  1
