# generated using pymatgen
data_HfTa4(TiAs2)2
_symmetry_space_group_name_H-M   'P 1'
_cell_length_a   7.89037910
_cell_length_b   7.89037821
_cell_length_c   14.24342800
_cell_angle_alpha   75.93730924
_cell_angle_beta   75.93731086
_cell_angle_gamma   26.12887790
_symmetry_Int_Tables_number   1
_chemical_formula_structural   HfTa4(TiAs2)2
_chemical_formula_sum   'Hf2 Ta8 Ti4 As8'
_cell_volume   378.18108947
_cell_formula_units_Z   2
loop_
 _symmetry_equiv_pos_site_id
 _symmetry_equiv_pos_as_xyz
  1  'x, y, z'
loop_
 _atom_site_type_symbol
 _atom_site_label
 _atom_site_symmetry_multiplicity
 _atom_site_fract_x
 _atom_site_fract_y
 _atom_site_fract_z
 _atom_site_occupancy
  Hf  Hf0  1  0.821621  0.821621  0.545701  1
  Hf  Hf1  1  0.178379  0.178379  0.454299  1
  Ta  Ta2  1  0.211711  0.211711  0.201182  1
  Ta  Ta3  1  0.788289  0.788289  0.798818  1
  Ta  Ta4  1  0.195102  0.195102  0.695979  1
  Ta  Ta5  1  0.804898  0.804898  0.304021  1
  Ta  Ta6  1  0.427133  0.427133  0.169167  1
  Ta  Ta7  1  0.572867  0.572867  0.830833  1
  Ta  Ta8  1  0.500000  0.500000  0.500000  1
  Ta  Ta9  1  0.000000  0.000000  0.000000  1
  Ti  Ti10  1  0.664520  0.664520  0.033568  1
  Ti  Ti11  1  0.335480  0.335480  0.966432  1
  Ti  Ti12  1  0.998715  0.998715  0.664584  1
  Ti  Ti13  1  0.001285  0.001285  0.335416  1
  As  As14  1  0.061960  0.061960  0.152722  1
  As  As15  1  0.938040  0.938040  0.847278  1
  As  As16  1  0.374783  0.374783  0.668188  1
  As  As17  1  0.625217  0.625217  0.331812  1
  As  As18  1  0.376438  0.376438  0.396231  1
  As  As19  1  0.623562  0.623562  0.603769  1
  As  As20  1  0.177013  0.177013  0.898950  1
  As  As21  1  0.822987  0.822987  0.101050  1
