# generated using pymatgen
data_NdTaB6Ru
_symmetry_space_group_name_H-M   'P 1'
_cell_length_a   3.53981300
_cell_length_b   9.07928800
_cell_length_c   11.42137500
_cell_angle_alpha   90.00000000
_cell_angle_beta   90.00000000
_cell_angle_gamma   90.00000000
_symmetry_Int_Tables_number   1
_chemical_formula_structural   NdTaB6Ru
_chemical_formula_sum   'Nd4 Ta4 B24 Ru4'
_cell_volume   367.07136204
_cell_formula_units_Z   4
loop_
 _symmetry_equiv_pos_site_id
 _symmetry_equiv_pos_as_xyz
  1  'x, y, z'
loop_
 _atom_site_type_symbol
 _atom_site_label
 _atom_site_symmetry_multiplicity
 _atom_site_fract_x
 _atom_site_fract_y
 _atom_site_fract_z
 _atom_site_occupancy
  Nd  Nd0  1  0.000000  0.323955  0.414194  1
  Nd  Nd1  1  0.000000  0.676045  0.585806  1
  Nd  Nd2  1  0.000000  0.823955  0.085806  1
  Nd  Nd3  1  0.000000  0.176045  0.914194  1
  Ta  Ta4  1  0.000000  0.947356  0.375373  1
  Ta  Ta5  1  0.000000  0.052644  0.624627  1
  Ta  Ta6  1  0.000000  0.447356  0.124627  1
  Ta  Ta7  1  0.000000  0.552644  0.875373  1
  B  B8  1  0.500000  0.556563  0.431075  1
  B  B9  1  0.500000  0.443437  0.568925  1
  B  B10  1  0.500000  0.056563  0.068925  1
  B  B11  1  0.500000  0.943437  0.931075  1
  B  B12  1  0.500000  0.756578  0.416048  1
  B  B13  1  0.500000  0.243422  0.583952  1
  B  B14  1  0.500000  0.256578  0.083952  1
  B  B15  1  0.500000  0.743422  0.916048  1
  B  B16  1  0.500000  0.799355  0.264130  1
  B  B17  1  0.500000  0.200645  0.735870  1
  B  B18  1  0.500000  0.299355  0.235870  1
  B  B19  1  0.500000  0.700645  0.764130  1
  B  B20  1  0.500000  0.628791  0.181192  1
  B  B21  1  0.500000  0.371209  0.818808  1
  B  B22  1  0.500000  0.128791  0.318808  1
  B  B23  1  0.500000  0.871209  0.681192  1
  B  B24  1  0.500000  0.983168  0.216041  1
  B  B25  1  0.500000  0.016832  0.783959  1
  B  B26  1  0.500000  0.483168  0.283959  1
  B  B27  1  0.500000  0.516832  0.716041  1
  B  B28  1  0.500000  0.597716  0.025492  1
  B  B29  1  0.500000  0.402284  0.974508  1
  B  B30  1  0.500000  0.097716  0.474508  1
  B  B31  1  0.500000  0.902284  0.525492  1
  Ru  Ru32  1  0.000000  0.645822  0.315697  1
  Ru  Ru33  1  0.000000  0.354178  0.684303  1
  Ru  Ru34  1  0.000000  0.145822  0.184303  1
  Ru  Ru35  1  0.000000  0.854178  0.815697  1
