# generated using pymatgen
data_K11Tl(AsSe4)4
_symmetry_space_group_name_H-M   'P 1'
_cell_length_a   9.64671200
_cell_length_b   10.21751231
_cell_length_c   11.04629300
_cell_angle_alpha   90.00000000
_cell_angle_beta   90.00000000
_cell_angle_gamma   89.72427297
_symmetry_Int_Tables_number   1
_chemical_formula_structural   K11Tl(AsSe4)4
_chemical_formula_sum   'K11 Tl1 As4 Se16'
_cell_volume   1088.76966556
_cell_formula_units_Z   1
loop_
 _symmetry_equiv_pos_site_id
 _symmetry_equiv_pos_as_xyz
  1  'x, y, z'
loop_
 _atom_site_type_symbol
 _atom_site_label
 _atom_site_symmetry_multiplicity
 _atom_site_fract_x
 _atom_site_fract_y
 _atom_site_fract_z
 _atom_site_occupancy
  K  K0  1  0.135972  0.076872  0.750000  1
  K  K1  1  0.361967  0.576831  0.250000  1
  K  K2  1  0.859505  0.922700  0.250000  1
  K  K3  1  0.575951  0.197391  0.043909  1
  K  K4  1  0.073729  0.306222  0.453598  1
  K  K5  1  0.426399  0.806864  0.546283  1
  K  K6  1  0.922462  0.692214  0.951471  1
  K  K7  1  0.426399  0.806864  0.953717  1
  K  K8  1  0.922462  0.692214  0.548529  1
  K  K9  1  0.575951  0.197391  0.456091  1
  K  K10  1  0.073729  0.306222  0.046402  1
  Tl  Tl11  1  0.620029  0.418403  0.750000  1
  As  As12  1  0.726788  0.975692  0.750000  1
  As  As13  1  0.231510  0.521915  0.750000  1
  As  As14  1  0.271908  0.023932  0.250000  1
  As  As15  1  0.772525  0.476669  0.250000  1
  Se  Se16  1  0.856042  0.023169  0.572839  1
  Se  Se17  1  0.367332  0.474519  0.925338  1
  Se  Se18  1  0.141884  0.976114  0.073257  1
  Se  Se19  1  0.644494  0.527226  0.426806  1
  Se  Se20  1  0.141884  0.976114  0.426743  1
  Se  Se21  1  0.644494  0.527226  0.073194  1
  Se  Se22  1  0.856042  0.023169  0.927161  1
  Se  Se23  1  0.367332  0.474519  0.574662  1
  Se  Se24  1  0.670474  0.750953  0.750000  1
  Se  Se25  1  0.173966  0.745825  0.750000  1
  Se  Se26  1  0.328381  0.248152  0.250000  1
  Se  Se27  1  0.828082  0.252053  0.250000  1
  Se  Se28  1  0.516946  0.100764  0.750000  1
  Se  Se29  1  0.022412  0.403287  0.750000  1
  Se  Se30  1  0.480869  0.900066  0.250000  1
  Se  Se31  1  0.982079  0.598448  0.250000  1
