# generated using pymatgen
data_Dy3Y6TmSi6
_symmetry_space_group_name_H-M   'P 1'
_cell_length_a   8.43770900
_cell_length_b   8.43770722
_cell_length_c   6.35179400
_cell_angle_alpha   90.00000000
_cell_angle_beta   90.00000000
_cell_angle_gamma   120.00001090
_symmetry_Int_Tables_number   1
_chemical_formula_structural   Dy3Y6TmSi6
_chemical_formula_sum   'Dy3 Y6 Tm1 Si6'
_cell_volume   391.63002810
_cell_formula_units_Z   1
loop_
 _symmetry_equiv_pos_site_id
 _symmetry_equiv_pos_as_xyz
  1  'x, y, z'
loop_
 _atom_site_type_symbol
 _atom_site_label
 _atom_site_symmetry_multiplicity
 _atom_site_fract_x
 _atom_site_fract_y
 _atom_site_fract_z
 _atom_site_occupancy
  Dy  Dy0  1  0.666667  0.333333  0.500000  1
  Dy  Dy1  1  0.333333  0.666667  0.500000  1
  Dy  Dy2  1  0.333333  0.666667  0.000000  1
  Y  Y3  1  0.756177  0.755982  0.249707  1
  Y  Y4  1  0.244018  0.000196  0.249707  1
  Y  Y5  1  0.999804  0.243823  0.249707  1
  Y  Y6  1  0.244018  0.243823  0.750293  1
  Y  Y7  1  0.756177  0.000196  0.750293  1
  Y  Y8  1  0.999804  0.755982  0.750293  1
  Tm  Tm9  1  0.666667  0.333333  0.000000  1
  Si  Si10  1  0.394927  0.394190  0.249280  1
  Si  Si11  1  0.605810  0.000737  0.249280  1
  Si  Si12  1  0.999263  0.605073  0.249280  1
  Si  Si13  1  0.605810  0.605073  0.750720  1
  Si  Si14  1  0.394927  0.000737  0.750720  1
  Si  Si15  1  0.999263  0.394190  0.750720  1
