# generated using pymatgen
data_AgHgP2O7
_symmetry_space_group_name_H-M   'P 1'
_cell_length_a   5.10513900
_cell_length_b   7.75345270
_cell_length_c   9.19934923
_cell_angle_alpha   101.90328170
_cell_angle_beta   90.00000000
_cell_angle_gamma   109.22126188
_symmetry_Int_Tables_number   1
_chemical_formula_structural   AgHgP2O7
_chemical_formula_sum   'Ag2 Hg2 P4 O14'
_cell_volume   335.53072321
_cell_formula_units_Z   2
loop_
 _symmetry_equiv_pos_site_id
 _symmetry_equiv_pos_as_xyz
  1  'x, y, z'
loop_
 _atom_site_type_symbol
 _atom_site_label
 _atom_site_symmetry_multiplicity
 _atom_site_fract_x
 _atom_site_fract_y
 _atom_site_fract_z
 _atom_site_occupancy
  Ag  Ag0  1  0.000000  0.000000  0.000000  1
  Ag  Ag1  1  0.000000  0.000000  0.500000  1
  Hg  Hg2  1  0.500000  0.500001  0.000000  1
  Hg  Hg3  1  0.000000  0.500000  0.500000  1
  P  P4  1  0.270914  0.796971  0.224146  1
  P  P5  1  0.473945  0.203030  0.275854  1
  P  P6  1  0.526056  0.796971  0.724147  1
  P  P7  1  0.729085  0.203030  0.775854  1
  O  O8  1  0.074160  0.780505  0.092706  1
  O  O9  1  0.351470  0.212601  0.125856  1
  O  O10  1  0.420911  0.651778  0.199143  1
  O  O11  1  0.520710  0.000000  0.250000  1
  O  O12  1  0.769134  0.348222  0.300857  1
  O  O13  1  0.138870  0.787400  0.374144  1
  O  O14  1  0.293653  0.219494  0.407294  1
  O  O15  1  0.706345  0.780505  0.592707  1
  O  O16  1  0.861132  0.212601  0.625856  1
  O  O17  1  0.230867  0.651779  0.699143  1
  O  O18  1  0.479290  0.000000  0.750000  1
  O  O19  1  0.579090  0.348221  0.800858  1
  O  O20  1  0.648529  0.787399  0.874144  1
  O  O21  1  0.925841  0.219495  0.907294  1
