# generated using pymatgen
data_Tb20Co3TcSb8
_symmetry_space_group_name_H-M   'P 1'
_cell_length_a   7.93870597
_cell_length_b   8.84003500
_cell_length_c   12.26225616
_cell_angle_alpha   90.00000000
_cell_angle_beta   90.34035611
_cell_angle_gamma   90.00000000
_symmetry_Int_Tables_number   1
_chemical_formula_structural   Tb20Co3TcSb8
_chemical_formula_sum   'Tb20 Co3 Tc1 Sb8'
_cell_volume   860.53080821
_cell_formula_units_Z   1
loop_
 _symmetry_equiv_pos_site_id
 _symmetry_equiv_pos_as_xyz
  1  'x, y, z'
loop_
 _atom_site_type_symbol
 _atom_site_label
 _atom_site_symmetry_multiplicity
 _atom_site_fract_x
 _atom_site_fract_y
 _atom_site_fract_z
 _atom_site_occupancy
  Tb  Tb0  1  0.157737  0.750000  0.206640  1
  Tb  Tb1  1  0.654934  0.250000  0.295492  1
  Tb  Tb2  1  0.845526  0.250000  0.797111  1
  Tb  Tb3  1  0.344636  0.750000  0.709209  1
  Tb  Tb4  1  0.454006  0.750000  0.997410  1
  Tb  Tb5  1  0.951092  0.250000  0.503637  1
  Tb  Tb6  1  0.544716  0.250000  0.002770  1
  Tb  Tb7  1  0.047524  0.750000  0.497169  1
  Tb  Tb8  1  0.625175  0.750000  0.300978  1
  Tb  Tb9  1  0.123918  0.250000  0.193719  1
  Tb  Tb10  1  0.377074  0.250000  0.695400  1
  Tb  Tb11  1  0.877323  0.750000  0.806606  1
  Tb  Tb12  1  0.821785  0.964533  0.064796  1
  Tb  Tb13  1  0.319271  0.042269  0.434147  1
  Tb  Tb14  1  0.179241  0.464008  0.935272  1
  Tb  Tb15  1  0.677852  0.534491  0.563935  1
  Tb  Tb16  1  0.179241  0.035992  0.935272  1
  Tb  Tb17  1  0.677852  0.965509  0.563935  1
  Tb  Tb18  1  0.821785  0.535467  0.064796  1
  Tb  Tb19  1  0.319271  0.457731  0.434147  1
  Co  Co20  1  0.935792  0.250000  0.009992  1
  Co  Co21  1  0.574288  0.250000  0.512253  1
  Co  Co22  1  0.067031  0.750000  0.990747  1
  Tc  Tc23  1  0.421815  0.750000  0.485424  1
  Sb  Sb24  1  0.927698  0.993070  0.326691  1
  Sb  Sb25  1  0.427635  0.008217  0.171736  1
  Sb  Sb26  1  0.071796  0.491952  0.673053  1
  Sb  Sb27  1  0.573429  0.507220  0.828091  1
  Sb  Sb28  1  0.071796  0.008048  0.673053  1
  Sb  Sb29  1  0.573429  0.992780  0.828091  1
  Sb  Sb30  1  0.927698  0.506930  0.326691  1
  Sb  Sb31  1  0.427635  0.491783  0.171736  1
