# generated using pymatgen
data_YUGa5Co6
_symmetry_space_group_name_H-M   'P 1'
_cell_length_a   5.07071348
_cell_length_b   6.57391260
_cell_length_c   6.57391264
_cell_angle_alpha   86.27638694
_cell_angle_beta   67.31469455
_cell_angle_gamma   67.31469703
_symmetry_Int_Tables_number   1
_chemical_formula_structural   YUGa5Co6
_chemical_formula_sum   'Y1 U1 Ga5 Co6'
_cell_volume   185.63686122
_cell_formula_units_Z   1
loop_
 _symmetry_equiv_pos_site_id
 _symmetry_equiv_pos_as_xyz
  1  'x, y, z'
loop_
 _atom_site_type_symbol
 _atom_site_label
 _atom_site_symmetry_multiplicity
 _atom_site_fract_x
 _atom_site_fract_y
 _atom_site_fract_z
 _atom_site_occupancy
  Y  Y0  1  0.000000  0.991698  0.008302  1
  U  U1  1  0.000000  0.351761  0.648239  1
  Ga  Ga2  1  0.000000  0.673296  0.326704  1
  Ga  Ga3  1  0.500000  0.166129  0.833871  1
  Ga  Ga4  1  0.500000  0.819324  0.180676  1
  Ga  Ga5  1  0.343886  0.660563  0.651664  1
  Ga  Ga6  1  0.656114  0.348336  0.339437  1
  Co  Co7  1  0.245887  0.252476  0.255749  1
  Co  Co8  1  0.754113  0.744251  0.747524  1
  Co  Co9  1  0.491866  0.004891  0.508808  1
  Co  Co10  1  0.508134  0.491192  0.995109  1
  Co  Co11  1  0.005566  0.491192  0.995109  1
  Co  Co12  1  0.994434  0.004891  0.508808  1
