# generated using pymatgen
data_LiPr8TmSi6
_symmetry_space_group_name_H-M   'P 1'
_cell_length_a   7.65861203
_cell_length_b   7.65861049
_cell_length_c   8.98128933
_cell_angle_alpha   115.23708415
_cell_angle_beta   115.23708081
_cell_angle_gamma   90.00000080
_symmetry_Int_Tables_number   1
_chemical_formula_structural   LiPr8TmSi6
_chemical_formula_sum   'Li1 Pr8 Tm1 Si6'
_cell_volume   420.25483970
_cell_formula_units_Z   1
loop_
 _symmetry_equiv_pos_site_id
 _symmetry_equiv_pos_as_xyz
  1  'x, y, z'
loop_
 _atom_site_type_symbol
 _atom_site_label
 _atom_site_symmetry_multiplicity
 _atom_site_fract_x
 _atom_site_fract_y
 _atom_site_fract_z
 _atom_site_occupancy
  Li  Li0  1  0.500000  0.500000  0.000000  1
  Pr  Pr1  1  0.957835  0.816156  0.286888  1
  Pr  Pr2  1  0.329052  0.470732  0.286888  1
  Pr  Pr3  1  0.816156  0.329052  0.286888  1
  Pr  Pr4  1  0.470732  0.957835  0.286888  1
  Pr  Pr5  1  0.042165  0.183844  0.713112  1
  Pr  Pr6  1  0.670948  0.529268  0.713112  1
  Pr  Pr7  1  0.183844  0.670948  0.713112  1
  Pr  Pr8  1  0.529268  0.042165  0.713112  1
  Tm  Tm9  1  0.000000  0.000000  0.000000  1
  Si  Si10  1  0.767570  0.767570  0.535141  1
  Si  Si11  1  0.232430  0.232430  0.464859  1
  Si  Si12  1  0.619101  0.889226  0.000000  1
  Si  Si13  1  0.380899  0.110774  0.000000  1
  Si  Si14  1  0.889226  0.380899  0.000000  1
  Si  Si15  1  0.110774  0.619101  0.000000  1
