# generated using pymatgen
data_Pr8Sc12Si15Ir
_symmetry_space_group_name_H-M   'P 1'
_cell_length_a   7.24205991
_cell_length_b   7.54659180
_cell_length_c   14.28228600
_cell_angle_alpha   90.00000000
_cell_angle_beta   90.00000000
_cell_angle_gamma   90.27540118
_symmetry_Int_Tables_number   1
_chemical_formula_structural   Pr8Sc12Si15Ir
_chemical_formula_sum   'Pr8 Sc12 Si15 Ir1'
_cell_volume   780.55890198
_cell_formula_units_Z   1
loop_
 _symmetry_equiv_pos_site_id
 _symmetry_equiv_pos_as_xyz
  1  'x, y, z'
loop_
 _atom_site_type_symbol
 _atom_site_label
 _atom_site_symmetry_multiplicity
 _atom_site_fract_x
 _atom_site_fract_y
 _atom_site_fract_z
 _atom_site_occupancy
  Pr  Pr0  1  0.012313  0.172573  0.401816  1
  Pr  Pr1  1  0.511615  0.329059  0.402466  1
  Pr  Pr2  1  0.483371  0.674882  0.901247  1
  Pr  Pr3  1  0.483371  0.674882  0.598753  1
  Pr  Pr4  1  0.990307  0.827358  0.598084  1
  Pr  Pr5  1  0.990307  0.827358  0.901916  1
  Pr  Pr6  1  0.511615  0.329059  0.097534  1
  Pr  Pr7  1  0.012313  0.172573  0.098184  1
  Sc  Sc8  1  0.328673  0.173813  0.626386  1
  Sc  Sc9  1  0.672062  0.823835  0.375159  1
  Sc  Sc10  1  0.647002  0.994192  0.750000  1
  Sc  Sc11  1  0.170792  0.675109  0.374324  1
  Sc  Sc12  1  0.829870  0.323267  0.875863  1
  Sc  Sc13  1  0.829870  0.323267  0.624137  1
  Sc  Sc14  1  0.839855  0.502863  0.250000  1
  Sc  Sc15  1  0.340170  0.998926  0.250000  1
  Sc  Sc16  1  0.328673  0.173813  0.873614  1
  Sc  Sc17  1  0.170792  0.675109  0.125676  1
  Sc  Sc18  1  0.672062  0.823835  0.124841  1
  Sc  Sc19  1  0.164364  0.501674  0.750000  1
  Si  Si20  1  0.465440  0.626490  0.250000  1
  Si  Si21  1  0.031109  0.125042  0.750000  1
  Si  Si22  1  0.539854  0.376206  0.750000  1
  Si  Si23  1  0.150806  0.461974  0.539288  1
  Si  Si24  1  0.966757  0.874718  0.250000  1
  Si  Si25  1  0.712231  0.117785  0.250000  1
  Si  Si26  1  0.849688  0.535774  0.040509  1
  Si  Si27  1  0.350781  0.963014  0.040212  1
  Si  Si28  1  0.150806  0.461974  0.960712  1
  Si  Si29  1  0.652530  0.039084  0.538341  1
  Si  Si30  1  0.350781  0.963014  0.459788  1
  Si  Si31  1  0.849688  0.535774  0.459491  1
  Si  Si32  1  0.787888  0.609125  0.750000  1
  Si  Si33  1  0.212863  0.383512  0.250000  1
  Si  Si34  1  0.652530  0.039084  0.961659  1
  Ir  Ir35  1  0.286849  0.889982  0.750000  1
