# generated using pymatgen
data_K2ZnAs2O7
_symmetry_space_group_name_H-M   'P 1'
_cell_length_a   5.89831201
_cell_length_b   8.35734301
_cell_length_c   8.35736500
_cell_angle_alpha   90.00080215
_cell_angle_beta   90.00144580
_cell_angle_gamma   90.00143667
_symmetry_Int_Tables_number   1
_chemical_formula_structural   K2ZnAs2O7
_chemical_formula_sum   'K4 Zn2 As4 O14'
_cell_volume   411.96976021
_cell_formula_units_Z   2
loop_
 _symmetry_equiv_pos_site_id
 _symmetry_equiv_pos_as_xyz
  1  'x, y, z'
loop_
 _atom_site_type_symbol
 _atom_site_label
 _atom_site_symmetry_multiplicity
 _atom_site_fract_x
 _atom_site_fract_y
 _atom_site_fract_z
 _atom_site_occupancy
  K  K0  1  0.510035  0.163544  0.663539  1
  K  K1  1  0.489873  0.336466  0.163535  1
  K  K2  1  0.510216  0.836464  0.336468  1
  K  K3  1  0.489879  0.663545  0.836467  1
  Zn  Zn4  1  0.999999  0.499988  0.500027  1
  Zn  Zn5  1  0.999998  0.000027  0.999988  1
  As  As6  1  0.959915  0.641763  0.141767  1
  As  As7  1  0.040139  0.141776  0.358235  1
  As  As8  1  0.959821  0.358223  0.858224  1
  As  As9  1  0.040140  0.858235  0.641775  1
  O  O10  1  0.159865  0.999912  0.499911  1
  O  O11  1  0.840128  0.500018  0.000020  1
  O  O12  1  0.755884  0.140798  0.359207  1
  O  O13  1  0.244046  0.359189  0.859189  1
  O  O14  1  0.755886  0.859205  0.640798  1
  O  O15  1  0.244174  0.640783  0.140784  1
  O  O16  1  0.176025  0.313940  0.419049  1
  O  O17  1  0.823902  0.186018  0.918993  1
  O  O18  1  0.176040  0.685962  0.581080  1
  O  O19  1  0.824034  0.813992  0.081029  1
  O  O20  1  0.824033  0.581029  0.313994  1
  O  O21  1  0.176025  0.919050  0.813941  1
  O  O22  1  0.823902  0.418996  0.686019  1
  O  O23  1  0.176039  0.081080  0.185962  1
