# generated using pymatgen
data_Er12GaCo4Rh
_symmetry_space_group_name_H-M   'P 1'
_cell_length_a   8.15895516
_cell_length_b   8.15895391
_cell_length_c   8.15895404
_cell_angle_alpha   110.89346985
_cell_angle_beta   110.90751185
_cell_angle_gamma   106.64900428
_symmetry_Int_Tables_number   1
_chemical_formula_structural   Er12GaCo4Rh
_chemical_formula_sum   'Er12 Ga1 Co4 Rh1'
_cell_volume   417.34535378
_cell_formula_units_Z   1
loop_
 _symmetry_equiv_pos_site_id
 _symmetry_equiv_pos_as_xyz
  1  'x, y, z'
loop_
 _atom_site_type_symbol
 _atom_site_label
 _atom_site_symmetry_multiplicity
 _atom_site_fract_x
 _atom_site_fract_y
 _atom_site_fract_z
 _atom_site_occupancy
  Er  Er0  1  0.584642  0.277684  0.306958  1
  Er  Er1  1  0.185490  0.213800  0.399290  1
  Er  Er2  1  0.185490  0.786200  0.971691  1
  Er  Er3  1  0.683741  0.487865  0.804124  1
  Er  Er4  1  0.683741  0.879618  0.195876  1
  Er  Er5  1  0.970725  0.277684  0.693042  1
  Er  Er6  1  0.029275  0.722316  0.306958  1
  Er  Er7  1  0.316259  0.120382  0.804124  1
  Er  Er8  1  0.316259  0.512135  0.195876  1
  Er  Er9  1  0.814510  0.213800  0.028309  1
  Er  Er10  1  0.814510  0.786200  0.600710  1
  Er  Er11  1  0.415358  0.722316  0.693042  1
  Ga  Ga12  1  0.500000  0.000000  0.500000  1
  Co  Co13  1  0.886979  0.886979  0.000000  1
  Co  Co14  1  0.374186  0.500000  0.874186  1
  Co  Co15  1  0.625814  0.500000  0.125814  1
  Co  Co16  1  0.113021  0.113021  0.000000  1
  Rh  Rh17  1  0.000000  0.500000  0.500000  1
