# generated using pymatgen
data_Hf2Nb2WN6
_symmetry_space_group_name_H-M   'P 1'
_cell_length_a   5.26282224
_cell_length_b   5.24483272
_cell_length_c   10.61754800
_cell_angle_alpha   90.00000000
_cell_angle_beta   90.00000000
_cell_angle_gamma   119.88700208
_symmetry_Int_Tables_number   1
_chemical_formula_structural   Hf2Nb2WN6
_chemical_formula_sum   'Hf4 Nb4 W2 N12'
_cell_volume   254.09644401
_cell_formula_units_Z   2
loop_
 _symmetry_equiv_pos_site_id
 _symmetry_equiv_pos_as_xyz
  1  'x, y, z'
loop_
 _atom_site_type_symbol
 _atom_site_label
 _atom_site_symmetry_multiplicity
 _atom_site_fract_x
 _atom_site_fract_y
 _atom_site_fract_z
 _atom_site_occupancy
  Hf  Hf0  1  0.329765  0.664883  0.500000  1
  Hf  Hf1  1  0.666468  0.333233  0.000000  1
  Hf  Hf2  1  0.666468  0.333233  0.500000  1
  Hf  Hf3  1  0.329765  0.664883  0.000000  1
  Nb  Nb4  1  0.999572  0.324972  0.250000  1
  Nb  Nb5  1  0.999572  0.674599  0.750000  1
  Nb  Nb6  1  0.325204  0.325523  0.750000  1
  Nb  Nb7  1  0.325204  0.999681  0.250000  1
  W  W8  1  0.675878  0.000081  0.750000  1
  W  W9  1  0.675878  0.675797  0.250000  1
  N  N10  1  0.349368  0.349103  0.373668  1
  N  N11  1  0.656742  0.995081  0.374674  1
  N  N12  1  0.995446  0.658191  0.374172  1
  N  N13  1  0.995446  0.337256  0.874172  1
  N  N14  1  0.656742  0.995081  0.125326  1
  N  N15  1  0.656742  0.661662  0.874674  1
  N  N16  1  0.349368  0.000265  0.873668  1
  N  N17  1  0.656742  0.661662  0.625326  1
  N  N18  1  0.995446  0.337256  0.625828  1
  N  N19  1  0.995446  0.658191  0.125828  1
  N  N20  1  0.349368  0.000265  0.626332  1
  N  N21  1  0.349368  0.349103  0.126332  1
