# generated using pymatgen
data_Fe2HBr9
_symmetry_space_group_name_H-M   'P 1'
_cell_length_a   7.35799656
_cell_length_b   9.25443109
_cell_length_c   16.71441930
_cell_angle_alpha   89.98925134
_cell_angle_beta   89.46988645
_cell_angle_gamma   80.27035065
_symmetry_Int_Tables_number   1
_chemical_formula_structural   Fe2HBr9
_chemical_formula_sum   'Fe4 H2 Br18'
_cell_volume   1121.73274269
_cell_formula_units_Z   2
loop_
 _symmetry_equiv_pos_site_id
 _symmetry_equiv_pos_as_xyz
  1  'x, y, z'
loop_
 _atom_site_type_symbol
 _atom_site_label
 _atom_site_symmetry_multiplicity
 _atom_site_fract_x
 _atom_site_fract_y
 _atom_site_fract_z
 _atom_site_occupancy
  Fe  Fe0  1  0.122453  0.708862  0.607514  1
  Fe  Fe1  1  0.877547  0.291138  0.392486  1
  Fe  Fe2  1  0.634162  0.283071  0.912871  1
  Fe  Fe3  1  0.365838  0.716929  0.087129  1
  H  H4  1  0.446237  0.616940  0.903561  1
  H  H5  1  0.553763  0.383060  0.096439  1
  Br  Br6  1  0.999562  0.125883  0.599650  1
  Br  Br7  1  0.000438  0.874117  0.400350  1
  Br  Br8  1  0.263602  0.507186  0.676506  1
  Br  Br9  1  0.736398  0.492814  0.323494  1
  Br  Br10  1  0.636527  0.527243  0.854661  1
  Br  Br11  1  0.363473  0.472757  0.145339  1
  Br  Br12  1  0.231751  0.922225  0.664678  1
  Br  Br13  1  0.768249  0.077775  0.335322  1
  Br  Br14  1  0.840830  0.118145  0.841561  1
  Br  Br15  1  0.159170  0.881855  0.158439  1
  Br  Br16  1  0.250188  0.709340  0.950406  1
  Br  Br17  1  0.749812  0.290660  0.049594  1
  Br  Br18  1  0.766248  0.323229  0.531054  1
  Br  Br19  1  0.233752  0.676771  0.468946  1
  Br  Br20  1  0.806852  0.744706  0.610651  1
  Br  Br21  1  0.193148  0.255294  0.389349  1
  Br  Br22  1  0.338452  0.235542  0.916206  1
  Br  Br23  1  0.661548  0.764458  0.083794  1
