# generated using pymatgen
data_Ac3Pr(WF7)4
_symmetry_space_group_name_H-M   'P 1'
_cell_length_a   5.94332529
_cell_length_b   9.54523911
_cell_length_c   12.76280200
_cell_angle_alpha   61.85145178
_cell_angle_beta   89.94972553
_cell_angle_gamma   89.96211054
_symmetry_Int_Tables_number   1
_chemical_formula_structural   Ac3Pr(WF7)4
_chemical_formula_sum   'Ac3 Pr1 W4 F28'
_cell_volume   638.40535469
_cell_formula_units_Z   1
loop_
 _symmetry_equiv_pos_site_id
 _symmetry_equiv_pos_as_xyz
  1  'x, y, z'
loop_
 _atom_site_type_symbol
 _atom_site_label
 _atom_site_symmetry_multiplicity
 _atom_site_fract_x
 _atom_site_fract_y
 _atom_site_fract_z
 _atom_site_occupancy
  Ac  Ac0  1  0.753911  0.807466  0.266502  1
  Ac  Ac1  1  0.254524  0.189963  0.233408  1
  Ac  Ac2  1  0.245970  0.186314  0.733730  1
  Pr  Pr3  1  0.744818  0.807825  0.766880  1
  W  W4  1  0.244801  0.726937  0.548351  1
  W  W5  1  0.745764  0.279235  0.954007  1
  W  W6  1  0.752470  0.268831  0.459256  1
  W  W7  1  0.253178  0.726927  0.038487  1
  F  F8  1  0.969042  0.715328  0.462256  1
  F  F9  1  0.464385  0.288765  0.037328  1
  F  F10  1  0.035356  0.282900  0.540286  1
  F  F11  1  0.535862  0.719183  0.952321  1
  F  F12  1  0.041714  0.710137  0.919171  1
  F  F13  1  0.549390  0.291507  0.579305  1
  F  F14  1  0.949520  0.296485  0.076620  1
  F  F15  1  0.451697  0.709612  0.425598  1
  F  F16  1  0.736625  0.516928  0.860643  1
  F  F17  1  0.234854  0.490555  0.641125  1
  F  F18  1  0.265943  0.490605  0.133204  1
  F  F19  1  0.764746  0.505645  0.363959  1
  F  F20  1  0.735249  0.042489  0.047503  1
  F  F21  1  0.235850  0.962894  0.453621  1
  F  F22  1  0.264629  0.963927  0.949275  1
  F  F23  1  0.762819  0.032344  0.554423  1
  F  F24  1  0.037487  0.746339  0.670536  1
  F  F25  1  0.547829  0.260418  0.830037  1
  F  F26  1  0.950637  0.253139  0.334605  1
  F  F27  1  0.454971  0.742648  0.161378  1
  F  F28  1  0.020576  0.271250  0.866663  1
  F  F29  1  0.516689  0.733835  0.638466  1
  F  F30  1  0.978393  0.729949  0.129293  1
  F  F31  1  0.473961  0.267300  0.371637  1
  F  F32  1  0.096583  0.960679  0.230863  1
  F  F33  1  0.598666  0.037705  0.269101  1
  F  F34  1  0.908714  0.024086  0.768277  1
  F  F35  1  0.422377  0.959845  0.731883  1
