# generated using pymatgen
data_Sn5B2(IrRh2)2
_symmetry_space_group_name_H-M   'P 1'
_cell_length_a   6.68103514
_cell_length_b   6.68334427
_cell_length_c   5.64492175
_cell_angle_alpha   89.99999712
_cell_angle_beta   90.14096205
_cell_angle_gamma   120.01143125
_symmetry_Int_Tables_number   1
_chemical_formula_structural   Sn5B2(IrRh2)2
_chemical_formula_sum   'Sn5 B2 Ir2 Rh4'
_cell_volume   218.26010342
_cell_formula_units_Z   1
loop_
 _symmetry_equiv_pos_site_id
 _symmetry_equiv_pos_as_xyz
  1  'x, y, z'
loop_
 _atom_site_type_symbol
 _atom_site_label
 _atom_site_symmetry_multiplicity
 _atom_site_fract_x
 _atom_site_fract_y
 _atom_site_fract_z
 _atom_site_occupancy
  Sn  Sn0  1  0.667516  0.333456  0.500112  1
  Sn  Sn1  1  0.000000  0.594850  0.000000  1
  Sn  Sn2  1  0.402907  0.404295  0.000236  1
  Sn  Sn3  1  0.597093  0.001388  0.999764  1
  Sn  Sn4  1  0.332484  0.665941  0.499888  1
  B  B5  1  0.000000  0.999108  0.500000  1
  B  B6  1  0.000000  0.999241  0.000000  1
  Ir  Ir7  1  0.249882  0.999468  0.253120  1
  Ir  Ir8  1  0.750118  0.749586  0.746880  1
  Rh  Rh9  1  0.001330  0.253198  0.746937  1
  Rh  Rh10  1  0.998670  0.251868  0.253063  1
  Rh  Rh11  1  0.745504  0.746553  0.253827  1
  Rh  Rh12  1  0.254496  0.001049  0.746173  1
