# generated using pymatgen
data_Na2MnCr2Ni9As7
_symmetry_space_group_name_H-M   'P 1'
_cell_length_a   9.51334518
_cell_length_b   9.52023282
_cell_length_c   3.76348200
_cell_angle_alpha   90.00000000
_cell_angle_beta   90.00000000
_cell_angle_gamma   120.03318691
_symmetry_Int_Tables_number   1
_chemical_formula_structural   Na2MnCr2Ni9As7
_chemical_formula_sum   'Na2 Mn1 Cr2 Ni9 As7'
_cell_volume   295.09100264
_cell_formula_units_Z   1
loop_
 _symmetry_equiv_pos_site_id
 _symmetry_equiv_pos_as_xyz
  1  'x, y, z'
loop_
 _atom_site_type_symbol
 _atom_site_label
 _atom_site_symmetry_multiplicity
 _atom_site_fract_x
 _atom_site_fract_y
 _atom_site_fract_z
 _atom_site_occupancy
  Na  Na0  1  0.332835  0.666481  0.000000  1
  Na  Na1  1  0.666712  0.333294  0.500000  1
  Mn  Mn2  1  0.901163  0.776970  0.500000  1
  Cr  Cr3  1  0.222491  0.123592  0.500000  1
  Cr  Cr4  1  0.875432  0.098270  0.500000  1
  Ni  Ni5  1  0.121622  0.280515  0.000000  1
  Ni  Ni6  1  0.720321  0.841441  0.000000  1
  Ni  Ni7  1  0.157707  0.878679  0.000000  1
  Ni  Ni8  1  0.429544  0.374250  0.000000  1
  Ni  Ni9  1  0.625967  0.055199  0.000000  1
  Ni  Ni10  1  0.945161  0.570039  0.000000  1
  Ni  Ni11  1  0.048558  0.431353  0.500000  1
  Ni  Ni12  1  0.569253  0.617783  0.500000  1
  Ni  Ni13  1  0.383208  0.951527  0.500000  1
  As  As14  1  0.292758  0.413217  0.500000  1
  As  As15  1  0.586075  0.879037  0.500000  1
  As  As16  1  0.120572  0.707697  0.500000  1
  As  As17  1  0.414484  0.119865  0.000000  1
  As  As18  1  0.880410  0.294981  0.000000  1
  As  As19  1  0.704904  0.584417  0.000000  1
  As  As20  1  0.000822  0.001393  0.000000  1
