# generated using pymatgen
data_Tb4HoCo(P2Ru3)6
_symmetry_space_group_name_H-M   'P 1'
_cell_length_a   12.48761870
_cell_length_b   12.49487151
_cell_length_c   3.97215600
_cell_angle_alpha   90.00000000
_cell_angle_beta   90.00000000
_cell_angle_gamma   120.01921672
_symmetry_Int_Tables_number   1
_chemical_formula_structural   Tb4HoCo(P2Ru3)6
_chemical_formula_sum   'Tb4 Ho1 Co1 P12 Ru18'
_cell_volume   536.64145988
_cell_formula_units_Z   1
loop_
 _symmetry_equiv_pos_site_id
 _symmetry_equiv_pos_as_xyz
  1  'x, y, z'
loop_
 _atom_site_type_symbol
 _atom_site_label
 _atom_site_symmetry_multiplicity
 _atom_site_fract_x
 _atom_site_fract_y
 _atom_site_fract_z
 _atom_site_occupancy
  Tb  Tb0  1  0.666673  0.333283  0.000000  1
  Tb  Tb1  1  0.333327  0.666611  0.000000  1
  Tb  Tb2  1  0.817400  0.817424  0.500000  1
  Tb  Tb3  1  0.182600  0.000025  0.500000  1
  Ho  Ho4  1  0.000000  0.182684  0.500000  1
  Co  Co5  1  0.000000  0.000364  0.000000  1
  P  P6  1  0.692780  0.169167  0.500000  1
  P  P7  1  0.830764  0.523443  0.500000  1
  P  P8  1  0.476221  0.307151  0.500000  1
  P  P9  1  0.169236  0.692678  0.500000  1
  P  P10  1  0.523779  0.830929  0.500000  1
  P  P11  1  0.307220  0.476387  0.500000  1
  P  P12  1  0.177144  0.177628  0.000000  1
  P  P13  1  0.822856  0.000484  0.000000  1
  P  P14  1  0.000000  0.822432  0.000000  1
  P  P15  1  0.627526  0.627556  0.000000  1
  P  P16  1  0.372474  0.000030  0.000000  1
  P  P17  1  0.000000  0.372267  0.000000  1
  Ru  Ru18  1  0.874036  0.364649  0.500000  1
  Ru  Ru19  1  0.635231  0.509152  0.500000  1
  Ru  Ru20  1  0.490648  0.126003  0.500000  1
  Ru  Ru21  1  0.364769  0.873920  0.500000  1
  Ru  Ru22  1  0.509352  0.635354  0.500000  1
  Ru  Ru23  1  0.125964  0.490612  0.500000  1
  Ru  Ru24  1  0.444158  0.444351  0.000000  1
  Ru  Ru25  1  0.555842  0.000193  0.000000  1
  Ru  Ru26  1  0.000000  0.555526  0.000000  1
  Ru  Ru27  1  0.809004  0.183831  0.000000  1
  Ru  Ru28  1  0.816346  0.624626  0.000000  1
  Ru  Ru29  1  0.375261  0.191685  0.000000  1
  Ru  Ru30  1  0.183654  0.808281  0.000000  1
  Ru  Ru31  1  0.624739  0.816425  0.000000  1
  Ru  Ru32  1  0.190996  0.374828  0.000000  1
  Ru  Ru33  1  0.279540  0.279815  0.500000  1
  Ru  Ru34  1  0.720460  0.000275  0.500000  1
  Ru  Ru35  1  0.000000  0.719927  0.500000  1
