# generated using pymatgen
data_CeTh3(SnH4)2
_symmetry_space_group_name_H-M   'P 1'
_cell_length_a   6.41090809
_cell_length_b   6.41090952
_cell_length_c   6.40175450
_cell_angle_alpha   105.52825380
_cell_angle_beta   105.52827161
_cell_angle_gamma   117.73203739
_symmetry_Int_Tables_number   1
_chemical_formula_structural   CeTh3(SnH4)2
_chemical_formula_sum   'Ce1 Th3 Sn2 H8'
_cell_volume   199.23881791
_cell_formula_units_Z   1
loop_
 _symmetry_equiv_pos_site_id
 _symmetry_equiv_pos_as_xyz
  1  'x, y, z'
loop_
 _atom_site_type_symbol
 _atom_site_label
 _atom_site_symmetry_multiplicity
 _atom_site_fract_x
 _atom_site_fract_y
 _atom_site_fract_z
 _atom_site_occupancy
  Ce  Ce0  1  0.841375  0.658625  0.500000  1
  Th  Th1  1  0.658796  0.160631  0.819428  1
  Th  Th2  1  0.157083  0.342917  0.500000  1
  Th  Th3  1  0.339369  0.841204  0.180572  1
  Sn  Sn4  1  0.749820  0.750180  0.000000  1
  Sn  Sn5  1  0.249820  0.250180  0.000000  1
  H  H6  1  0.227341  0.971547  0.500000  1
  H  H7  1  0.469069  0.726894  0.500000  1
  H  H8  1  0.720483  0.217600  0.240817  1
  H  H9  1  0.979667  0.476784  0.759183  1
  H  H10  1  0.282400  0.779517  0.759183  1
  H  H11  1  0.528453  0.272659  0.500000  1
  H  H12  1  0.023216  0.520333  0.240817  1
  H  H13  1  0.773106  0.030931  0.500000  1
