# generated using pymatgen
data_Ca12Tm3Ge12Mo5O48
_symmetry_space_group_name_H-M   'P 1'
_cell_length_a   11.07074994
_cell_length_b   11.06970625
_cell_length_c   11.07027407
_cell_angle_alpha   109.46972642
_cell_angle_beta   109.46071058
_cell_angle_gamma   109.48223558
_symmetry_Int_Tables_number   1
_chemical_formula_structural   Ca12Tm3Ge12Mo5O48
_chemical_formula_sum   'Ca12 Tm3 Ge12 Mo5 O48'
_cell_volume   1044.37125738
_cell_formula_units_Z   1
loop_
 _symmetry_equiv_pos_site_id
 _symmetry_equiv_pos_as_xyz
  1  'x, y, z'
loop_
 _atom_site_type_symbol
 _atom_site_label
 _atom_site_symmetry_multiplicity
 _atom_site_fract_x
 _atom_site_fract_y
 _atom_site_fract_z
 _atom_site_occupancy
  Ca  Ca0  1  0.250836  0.877106  0.624727  1
  Ca  Ca1  1  0.745139  0.622713  0.872287  1
  Ca  Ca2  1  0.622068  0.874650  0.747693  1
  Ca  Ca3  1  0.872292  0.627363  0.249540  1
  Ca  Ca4  1  0.622602  0.248306  0.874958  1
  Ca  Ca5  1  0.873669  0.749883  0.624093  1
  Ca  Ca6  1  0.749164  0.122894  0.375273  1
  Ca  Ca7  1  0.254861  0.377287  0.127713  1
  Ca  Ca8  1  0.377932  0.125350  0.252307  1
  Ca  Ca9  1  0.127708  0.372637  0.750460  1
  Ca  Ca10  1  0.377398  0.751694  0.125042  1
  Ca  Ca11  1  0.126331  0.250117  0.375907  1
  Tm  Tm12  1  0.000000  0.500000  0.500000  1
  Tm  Tm13  1  0.000000  0.500000  0.000000  1
  Tm  Tm14  1  0.000000  0.000000  0.000000  1
  Ge  Ge15  1  0.127251  0.751375  0.874529  1
  Ge  Ge16  1  0.872749  0.248625  0.125471  1
  Ge  Ge17  1  0.622697  0.375428  0.248543  1
  Ge  Ge18  1  0.747393  0.873210  0.124682  1
  Ge  Ge19  1  0.873562  0.122250  0.745802  1
  Ge  Ge20  1  0.254068  0.627632  0.376367  1
  Ge  Ge21  1  0.745932  0.372368  0.623633  1
  Ge  Ge22  1  0.252607  0.126790  0.875318  1
  Ge  Ge23  1  0.126438  0.877750  0.254198  1
  Ge  Ge24  1  0.377303  0.624572  0.751457  1
  Ge  Ge25  1  0.624919  0.749908  0.374964  1
  Ge  Ge26  1  0.375081  0.250092  0.625036  1
  Mo  Mo27  1  0.500000  0.500000  0.500000  1
  Mo  Mo28  1  0.500000  0.000000  0.500000  1
  Mo  Mo29  1  0.500000  0.500000  0.000000  1
  Mo  Mo30  1  0.000000  0.000000  0.500000  1
  Mo  Mo31  1  0.500000  0.000000  0.000000  1
  O  O32  1  0.411948  0.807194  0.790000  1
  O  O33  1  0.874086  0.394902  0.089837  1
  O  O34  1  0.104625  0.983258  0.692635  1
  O  O35  1  0.521152  0.623349  0.711273  1
  O  O36  1  0.691936  0.089383  0.710128  1
  O  O37  1  0.621669  0.709757  0.518066  1
  O  O38  1  0.620481  0.410576  0.101401  1
  O  O39  1  0.709786  0.518235  0.620874  1
  O  O40  1  0.804792  0.519735  0.394306  1
  O  O41  1  0.980780  0.785435  0.876098  1
  O  O42  1  0.785484  0.875357  0.980939  1
  O  O43  1  0.710244  0.690573  0.088970  1
  O  O44  1  0.411858  0.103678  0.622300  1
  O  O45  1  0.399852  0.810579  0.522555  1
  O  O46  1  0.091070  0.716166  0.693040  1
  O  O47  1  0.106535  0.624269  0.410083  1
  O  O48  1  0.518190  0.396470  0.808316  1
  O  O49  1  0.089227  0.877882  0.399961  1
  O  O50  1  0.981802  0.696240  0.106846  1
  O  O51  1  0.195208  0.480265  0.605694  1
  O  O52  1  0.690398  0.101149  0.978806  1
  O  O53  1  0.783963  0.410231  0.806081  1
  O  O54  1  0.397691  0.087975  0.876106  1
  O  O55  1  0.873744  0.977724  0.783805  1
  O  O56  1  0.588052  0.192806  0.210000  1
  O  O57  1  0.125914  0.605098  0.910163  1
  O  O58  1  0.895375  0.016742  0.307365  1
  O  O59  1  0.478848  0.376651  0.288727  1
  O  O60  1  0.308064  0.910617  0.289872  1
  O  O61  1  0.378331  0.290243  0.481934  1
  O  O62  1  0.379519  0.589424  0.898599  1
  O  O63  1  0.290214  0.481765  0.379126  1
  O  O64  1  0.126256  0.022276  0.216195  1
  O  O65  1  0.602309  0.912025  0.123894  1
  O  O66  1  0.216037  0.589769  0.193919  1
  O  O67  1  0.191515  0.210114  0.587670  1
  O  O68  1  0.309602  0.898851  0.021194  1
  O  O69  1  0.018198  0.303760  0.893154  1
  O  O70  1  0.910773  0.122118  0.600039  1
  O  O71  1  0.481810  0.603530  0.191684  1
  O  O72  1  0.893465  0.375731  0.589917  1
  O  O73  1  0.908930  0.283834  0.306960  1
  O  O74  1  0.600148  0.189421  0.477445  1
  O  O75  1  0.588142  0.896322  0.377700  1
  O  O76  1  0.289756  0.309427  0.911030  1
  O  O77  1  0.214516  0.124643  0.019061  1
  O  O78  1  0.019220  0.214565  0.123902  1
  O  O79  1  0.808485  0.789886  0.412330  1
