# generated using pymatgen
data_NaCe2NiF11
_symmetry_space_group_name_H-M   'P 1'
_cell_length_a   5.92072504
_cell_length_b   5.92072535
_cell_length_c   8.36678477
_cell_angle_alpha   68.82438231
_cell_angle_beta   68.82438030
_cell_angle_gamma   72.53782746
_symmetry_Int_Tables_number   1
_chemical_formula_structural   NaCe2NiF11
_chemical_formula_sum   'Na1 Ce2 Ni1 F11'
_cell_volume   250.12871232
_cell_formula_units_Z   1
loop_
 _symmetry_equiv_pos_site_id
 _symmetry_equiv_pos_as_xyz
  1  'x, y, z'
loop_
 _atom_site_type_symbol
 _atom_site_label
 _atom_site_symmetry_multiplicity
 _atom_site_fract_x
 _atom_site_fract_y
 _atom_site_fract_z
 _atom_site_occupancy
  Na  Na0  1  0.000000  0.000000  0.000000  1
  Ce  Ce1  1  0.509709  0.509709  0.760728  1
  Ce  Ce2  1  0.490291  0.490291  0.239272  1
  Ni  Ni3  1  0.000000  0.000000  0.500000  1
  F  F4  1  0.211580  0.821118  0.676687  1
  F  F5  1  0.178882  0.788420  0.323313  1
  F  F6  1  0.788420  0.178882  0.323313  1
  F  F7  1  0.821118  0.211580  0.676687  1
  F  F8  1  0.500000  0.500000  0.500000  1
  F  F9  1  0.680397  0.319603  0.000000  1
  F  F10  1  0.319603  0.680397  0.000000  1
  F  F11  1  0.235652  0.235652  0.357029  1
  F  F12  1  0.764348  0.764348  0.642971  1
  F  F13  1  0.263411  0.263411  0.891027  1
  F  F14  1  0.736589  0.736589  0.108973  1
