# generated using pymatgen
data_Ca7In2GeN2
_symmetry_space_group_name_H-M   'P 1'
_cell_length_a   12.41156298
_cell_length_b   12.41156214
_cell_length_c   4.84114400
_cell_angle_alpha   90.00000000
_cell_angle_beta   90.00000000
_cell_angle_gamma   157.08815489
_symmetry_Int_Tables_number   1
_chemical_formula_structural   Ca7In2GeN2
_chemical_formula_sum   'Ca7 In2 Ge1 N2'
_cell_volume   290.33632291
_cell_formula_units_Z   1
loop_
 _symmetry_equiv_pos_site_id
 _symmetry_equiv_pos_as_xyz
  1  'x, y, z'
loop_
 _atom_site_type_symbol
 _atom_site_label
 _atom_site_symmetry_multiplicity
 _atom_site_fract_x
 _atom_site_fract_y
 _atom_site_fract_z
 _atom_site_occupancy
  Ca  Ca0  1  0.907614  0.092385  0.000000  1
  Ca  Ca1  1  0.694979  0.305020  0.000000  1
  Ca  Ca2  1  0.500000  0.500000  0.000000  1
  Ca  Ca3  1  0.305020  0.694979  0.000000  1
  Ca  Ca4  1  0.092385  0.907614  0.000000  1
  Ca  Ca5  1  0.593056  0.406943  0.500000  1
  Ca  Ca6  1  0.406943  0.593056  0.500000  1
  In  In7  1  0.794440  0.205560  0.500000  1
  In  In8  1  0.205560  0.794440  0.500000  1
  Ge  Ge9  1  0.000000  0.000000  0.500000  1
  N  N10  1  0.601101  0.398898  0.000000  1
  N  N11  1  0.398898  0.601101  0.000000  1
