# generated using pymatgen
data_CeHo11Co4
_symmetry_space_group_name_H-M   'P 1'
_cell_length_a   6.19457683
_cell_length_b   6.85138058
_cell_length_c   9.40935400
_cell_angle_alpha   90.00000000
_cell_angle_beta   90.00000000
_cell_angle_gamma   92.01330811
_symmetry_Int_Tables_number   1
_chemical_formula_structural   CeHo11Co4
_chemical_formula_sum   'Ce1 Ho11 Co4'
_cell_volume   399.09966966
_cell_formula_units_Z   1
loop_
 _symmetry_equiv_pos_site_id
 _symmetry_equiv_pos_as_xyz
  1  'x, y, z'
loop_
 _atom_site_type_symbol
 _atom_site_label
 _atom_site_symmetry_multiplicity
 _atom_site_fract_x
 _atom_site_fract_y
 _atom_site_fract_z
 _atom_site_occupancy
  Ce  Ce0  1  0.352122  0.559469  0.250000  1
  Ho  Ho1  1  0.672737  0.175374  0.069291  1
  Ho  Ho2  1  0.137135  0.044246  0.250000  1
  Ho  Ho3  1  0.826744  0.674159  0.435283  1
  Ho  Ho4  1  0.324917  0.827127  0.931419  1
  Ho  Ho5  1  0.177932  0.325436  0.567133  1
  Ho  Ho6  1  0.672737  0.175374  0.430709  1
  Ho  Ho7  1  0.177932  0.325436  0.932867  1
  Ho  Ho8  1  0.324917  0.827127  0.568581  1
  Ho  Ho9  1  0.859655  0.958173  0.750000  1
  Ho  Ho10  1  0.644143  0.455962  0.750000  1
  Ho  Ho11  1  0.826744  0.674159  0.064717  1
  Co  Co12  1  0.977226  0.395547  0.250000  1
  Co  Co13  1  0.448462  0.112951  0.750000  1
  Co  Co14  1  0.530591  0.857422  0.250000  1
  Co  Co15  1  0.046005  0.612037  0.750000  1
