# generated using pymatgen
data_DyEr5(ThNi4)2
_symmetry_space_group_name_H-M   'P 1'
_cell_length_a   4.28622600
_cell_length_b   5.40862171
_cell_length_c   13.84578772
_cell_angle_alpha   90.19760980
_cell_angle_beta   90.00000000
_cell_angle_gamma   90.00000000
_symmetry_Int_Tables_number   1
_chemical_formula_structural   DyEr5(ThNi4)2
_chemical_formula_sum   'Dy1 Er5 Th2 Ni8'
_cell_volume   320.97910352
_cell_formula_units_Z   1
loop_
 _symmetry_equiv_pos_site_id
 _symmetry_equiv_pos_as_xyz
  1  'x, y, z'
loop_
 _atom_site_type_symbol
 _atom_site_label
 _atom_site_symmetry_multiplicity
 _atom_site_fract_x
 _atom_site_fract_y
 _atom_site_fract_z
 _atom_site_occupancy
  Dy  Dy0  1  0.750000  0.254457  0.963499  1
  Er  Er1  1  0.250000  0.525961  0.283866  1
  Er  Er2  1  0.750000  0.476130  0.717393  1
  Er  Er3  1  0.250000  0.978478  0.783980  1
  Er  Er4  1  0.250000  0.753128  0.538929  1
  Er  Er5  1  0.250000  0.741146  0.028689  1
  Th  Th6  1  0.750000  0.022057  0.214008  1
  Th  Th7  1  0.750000  0.245434  0.469590  1
  Ni  Ni8  1  0.250000  0.026440  0.356160  1
  Ni  Ni9  1  0.750000  0.526232  0.145746  1
  Ni  Ni10  1  0.750000  0.748971  0.396182  1
  Ni  Ni11  1  0.250000  0.481754  0.852403  1
  Ni  Ni12  1  0.750000  0.974801  0.645641  1
  Ni  Ni13  1  0.750000  0.747076  0.889668  1
  Ni  Ni14  1  0.250000  0.249044  0.106416  1
  Ni  Ni15  1  0.250000  0.248890  0.607827  1
