# generated using pymatgen
data_ErTa5(ReSi)6
_symmetry_space_group_name_H-M   'P 1'
_cell_length_a   7.62549598
_cell_length_b   7.59204447
_cell_length_c   7.62549602
_cell_angle_alpha   127.02934797
_cell_angle_beta   124.69840965
_cell_angle_gamma   80.23643575
_symmetry_Int_Tables_number   1
_chemical_formula_structural   ErTa5(ReSi)6
_chemical_formula_sum   'Er1 Ta5 Re6 Si6'
_cell_volume   279.48082461
_cell_formula_units_Z   1
loop_
 _symmetry_equiv_pos_site_id
 _symmetry_equiv_pos_as_xyz
  1  'x, y, z'
loop_
 _atom_site_type_symbol
 _atom_site_label
 _atom_site_symmetry_multiplicity
 _atom_site_fract_x
 _atom_site_fract_y
 _atom_site_fract_z
 _atom_site_occupancy
  Er  Er0  1  0.534544  0.060772  0.026229  1
  Ta  Ta1  1  0.463283  0.496167  0.532884  1
  Ta  Ta2  1  0.944237  0.483423  0.039186  1
  Ta  Ta3  1  0.054555  0.102724  0.548169  1
  Ta  Ta4  1  0.744681  0.906917  0.662236  1
  Ta  Ta5  1  0.253066  0.911053  0.157987  1
  Re  Re6  1  0.484036  0.247316  0.729097  1
  Re  Re7  1  0.018219  0.247316  0.263279  1
  Re  Re8  1  0.082281  0.748707  0.581827  1
  Re  Re9  1  0.901726  0.498238  0.651188  1
  Re  Re10  1  0.666880  0.748707  0.166426  1
  Re  Re11  1  0.347050  0.498238  0.096513  1
  Si  Si12  1  0.731093  0.474994  0.243901  1
  Si  Si13  1  0.280451  0.550011  0.769560  1
  Si  Si14  1  0.319910  0.822282  0.478028  1
  Si  Si15  1  0.673786  0.161526  0.505576  1
  Si  Si16  1  0.844254  0.822282  0.002372  1
  Si  Si17  1  0.155949  0.161526  0.987739  1
