# generated using pymatgen
data_RbAg(IO3)4
_symmetry_space_group_name_H-M   'P 1'
_cell_length_a   5.87520900
_cell_length_b   7.55500633
_cell_length_c   8.37600460
_cell_angle_alpha   106.59853992
_cell_angle_beta   90.00000000
_cell_angle_gamma   112.88165138
_symmetry_Int_Tables_number   1
_chemical_formula_structural   RbAg(IO3)4
_chemical_formula_sum   'Rb1 Ag1 I4 O12'
_cell_volume   325.65044156
_cell_formula_units_Z   1
loop_
 _symmetry_equiv_pos_site_id
 _symmetry_equiv_pos_as_xyz
  1  'x, y, z'
loop_
 _atom_site_type_symbol
 _atom_site_label
 _atom_site_symmetry_multiplicity
 _atom_site_fract_x
 _atom_site_fract_y
 _atom_site_fract_z
 _atom_site_occupancy
  Rb  Rb0  1  0.040018  0.000000  0.000000  1
  Ag  Ag1  1  0.224410  0.000000  0.500000  1
  I  I2  1  0.284010  0.638094  0.163992  1
  I  I3  1  0.645915  0.361906  0.836008  1
  I  I4  1  0.680803  0.298644  0.345097  1
  I  I5  1  0.382159  0.701356  0.654903  1
  O  O6  1  0.109375  0.799356  0.265975  1
  O  O7  1  0.310019  0.200644  0.734025  1
  O  O8  1  0.076047  0.403265  0.196472  1
  O  O9  1  0.672782  0.596734  0.803528  1
  O  O10  1  0.143892  0.600242  0.955050  1
  O  O11  1  0.543651  0.399758  0.044950  1
  O  O12  1  0.635672  0.053352  0.203646  1
  O  O13  1  0.582321  0.946648  0.796354  1
  O  O14  1  0.822046  0.294122  0.537271  1
  O  O15  1  0.527924  0.705878  0.462729  1
  O  O16  1  0.349032  0.235328  0.401499  1
  O  O17  1  0.113704  0.764672  0.598501  1
