# generated using pymatgen
data_La8Er5Tm7Si16
_symmetry_space_group_name_H-M   'P 1'
_cell_length_a   7.78363605
_cell_length_b   7.78266528
_cell_length_c   14.36340357
_cell_angle_alpha   90.02994807
_cell_angle_beta   90.01083773
_cell_angle_gamma   90.00809627
_symmetry_Int_Tables_number   1
_chemical_formula_structural   La8Er5Tm7Si16
_chemical_formula_sum   'La8 Er5 Tm7 Si16'
_cell_volume   870.09798935
_cell_formula_units_Z   1
loop_
 _symmetry_equiv_pos_site_id
 _symmetry_equiv_pos_as_xyz
  1  'x, y, z'
loop_
 _atom_site_type_symbol
 _atom_site_label
 _atom_site_symmetry_multiplicity
 _atom_site_fract_x
 _atom_site_fract_y
 _atom_site_fract_z
 _atom_site_occupancy
  La  La0  1  0.991610  0.642967  0.041409  1
  La  La1  1  0.008466  0.357366  0.540849  1
  La  La2  1  0.642853  0.991170  0.959130  1
  La  La3  1  0.142903  0.508525  0.791365  1
  La  La4  1  0.856970  0.491548  0.290891  1
  La  La5  1  0.508706  0.142974  0.209153  1
  La  La6  1  0.491137  0.857068  0.708680  1
  La  La7  1  0.356916  0.008852  0.458658  1
  Er  Er8  1  0.007716  0.860214  0.624862  1
  Er  Er9  1  0.639571  0.507337  0.875322  1
  Er  Er10  1  0.492444  0.360278  0.624594  1
  Er  Er11  1  0.507564  0.639641  0.125236  1
  Er  Er12  1  0.139487  0.992236  0.874969  1
  Tm  Tm13  1  0.360502  0.493005  0.374772  1
  Tm  Tm14  1  0.860617  0.007028  0.374833  1
  Tm  Tm15  1  0.993010  0.139748  0.125383  1
  Tm  Tm16  1  0.681983  0.682382  0.499821  1
  Tm  Tm17  1  0.817499  0.182110  0.749963  1
  Tm  Tm18  1  0.181917  0.818123  0.249983  1
  Tm  Tm19  1  0.317709  0.317552  0.000287  1
  Si  Si20  1  0.064109  0.711803  0.437060  1
  Si  Si21  1  0.935938  0.287767  0.937960  1
  Si  Si22  1  0.711995  0.063931  0.561959  1
  Si  Si23  1  0.211843  0.435773  0.187742  1
  Si  Si24  1  0.788046  0.564063  0.687541  1
  Si  Si25  1  0.435841  0.211668  0.812448  1
  Si  Si26  1  0.564267  0.788481  0.312727  1
  Si  Si27  1  0.288127  0.936330  0.062767  1
  Si  Si28  1  0.848089  0.796419  0.808937  1
  Si  Si29  1  0.151098  0.203683  0.309415  1
  Si  Si30  1  0.797121  0.849302  0.190906  1
  Si  Si31  1  0.296774  0.651360  0.558521  1
  Si  Si32  1  0.704097  0.348126  0.059643  1
  Si  Si33  1  0.651391  0.296185  0.440083  1
  Si  Si34  1  0.348385  0.703281  0.941209  1
  Si  Si35  1  0.203300  0.151703  0.690921  1
