# generated using pymatgen
data_Hf8FeCoPd2
_symmetry_space_group_name_H-M   'P 1'
_cell_length_a   8.62752770
_cell_length_b   8.62752839
_cell_length_c   8.63242700
_cell_angle_alpha   59.98121208
_cell_angle_beta   59.98120947
_cell_angle_gamma   59.97840393
_symmetry_Int_Tables_number   1
_chemical_formula_structural   Hf8FeCoPd2
_chemical_formula_sum   'Hf16 Fe2 Co2 Pd4'
_cell_volume   454.14693381
_cell_formula_units_Z   2
loop_
 _symmetry_equiv_pos_site_id
 _symmetry_equiv_pos_as_xyz
  1  'x, y, z'
loop_
 _atom_site_type_symbol
 _atom_site_label
 _atom_site_symmetry_multiplicity
 _atom_site_fract_x
 _atom_site_fract_y
 _atom_site_fract_z
 _atom_site_occupancy
  Hf  Hf0  1  0.181103  0.606440  0.606228  1
  Hf  Hf1  1  0.606440  0.181103  0.606228  1
  Hf  Hf2  1  0.606287  0.606287  0.181310  1
  Hf  Hf3  1  0.606287  0.606287  0.606114  1
  Hf  Hf4  1  0.812096  0.812096  0.187904  1
  Hf  Hf5  1  0.189623  0.189623  0.810377  1
  Hf  Hf6  1  0.810379  0.188473  0.812087  1
  Hf  Hf7  1  0.188473  0.810379  0.189061  1
  Hf  Hf8  1  0.188473  0.810379  0.812087  1
  Hf  Hf9  1  0.810379  0.188473  0.189061  1
  Hf  Hf10  1  0.438771  0.438771  0.061229  1
  Hf  Hf11  1  0.061152  0.061152  0.438848  1
  Hf  Hf12  1  0.438757  0.062735  0.438835  1
  Hf  Hf13  1  0.062735  0.438757  0.059673  1
  Hf  Hf14  1  0.062735  0.438757  0.438835  1
  Hf  Hf15  1  0.438757  0.062735  0.059673  1
  Fe  Fe16  1  0.393809  0.393809  0.817170  1
  Fe  Fe17  1  0.393809  0.393809  0.395212  1
  Co  Co18  1  0.817044  0.393593  0.394681  1
  Co  Co19  1  0.393593  0.817044  0.394681  1
  Pd  Pd20  1  0.487489  0.837208  0.837652  1
  Pd  Pd21  1  0.837208  0.487489  0.837652  1
  Pd  Pd22  1  0.837299  0.837299  0.488285  1
  Pd  Pd23  1  0.837299  0.837299  0.837117  1
