# generated using pymatgen
data_Nd16NiHg4Os3
_symmetry_space_group_name_H-M   'P 1'
_cell_length_a   9.85785516
_cell_length_b   9.93983283
_cell_length_c   9.93983300
_cell_angle_alpha   59.99999611
_cell_angle_beta   59.72452246
_cell_angle_gamma   59.72452762
_symmetry_Int_Tables_number   1
_chemical_formula_structural   Nd16NiHg4Os3
_chemical_formula_sum   'Nd16 Ni1 Hg4 Os3'
_cell_volume   685.81135135
_cell_formula_units_Z   1
loop_
 _symmetry_equiv_pos_site_id
 _symmetry_equiv_pos_as_xyz
  1  'x, y, z'
loop_
 _atom_site_type_symbol
 _atom_site_label
 _atom_site_symmetry_multiplicity
 _atom_site_fract_x
 _atom_site_fract_y
 _atom_site_fract_z
 _atom_site_occupancy
  Nd  Nd0  1  0.600388  0.597630  0.597630  1
  Nd  Nd1  1  0.600388  0.597630  0.204354  1
  Nd  Nd2  1  0.600388  0.204354  0.597630  1
  Nd  Nd3  1  0.206213  0.597929  0.597929  1
  Nd  Nd4  1  0.059915  0.440598  0.440598  1
  Nd  Nd5  1  0.439306  0.060084  0.060084  1
  Nd  Nd6  1  0.439306  0.060084  0.440528  1
  Nd  Nd7  1  0.059915  0.440598  0.058890  1
  Nd  Nd8  1  0.439306  0.440528  0.060084  1
  Nd  Nd9  1  0.059915  0.058890  0.440598  1
  Nd  Nd10  1  0.189666  0.809981  0.809981  1
  Nd  Nd11  1  0.805825  0.189029  0.189029  1
  Nd  Nd12  1  0.805825  0.189029  0.816117  1
  Nd  Nd13  1  0.189666  0.809981  0.190372  1
  Nd  Nd14  1  0.805825  0.816117  0.189029  1
  Nd  Nd15  1  0.189666  0.190372  0.809981  1
  Ni  Ni16  1  0.829804  0.390066  0.390066  1
  Hg  Hg17  1  0.832487  0.833990  0.833990  1
  Hg  Hg18  1  0.832487  0.833990  0.499533  1
  Hg  Hg19  1  0.832487  0.499533  0.833990  1
  Hg  Hg20  1  0.501271  0.832910  0.832910  1
  Os  Os21  1  0.393318  0.388372  0.388372  1
  Os  Os22  1  0.393318  0.388372  0.829937  1
  Os  Os23  1  0.393318  0.829937  0.388372  1
