# generated using pymatgen
data_Ho2Er2MnRu7
_symmetry_space_group_name_H-M   'P 1'
_cell_length_a   5.32044502
_cell_length_b   5.31909629
_cell_length_c   8.65505400
_cell_angle_alpha   90.00000123
_cell_angle_beta   89.99605276
_cell_angle_gamma   60.00838220
_symmetry_Int_Tables_number   1
_chemical_formula_structural   Ho2Er2MnRu7
_chemical_formula_sum   'Ho2 Er2 Mn1 Ru7'
_cell_volume   212.14016410
_cell_formula_units_Z   1
loop_
 _symmetry_equiv_pos_site_id
 _symmetry_equiv_pos_as_xyz
  1  'x, y, z'
loop_
 _atom_site_type_symbol
 _atom_site_label
 _atom_site_symmetry_multiplicity
 _atom_site_fract_x
 _atom_site_fract_y
 _atom_site_fract_z
 _atom_site_occupancy
  Ho  Ho0  1  0.333246  0.333377  0.565158  1
  Ho  Ho1  1  0.666754  0.666623  0.434842  1
  Er  Er2  1  0.666689  0.666656  0.067920  1
  Er  Er3  1  0.333311  0.333344  0.932080  1
  Mn  Mn4  1  0.000000  0.000000  0.000000  1
  Ru  Ru5  1  0.000000  0.000000  0.500000  1
  Ru  Ru6  1  0.828814  0.342346  0.754457  1
  Ru  Ru7  1  0.342486  0.828757  0.754408  1
  Ru  Ru8  1  0.828814  0.828841  0.754457  1
  Ru  Ru9  1  0.171186  0.657654  0.245543  1
  Ru  Ru10  1  0.657514  0.171243  0.245592  1
  Ru  Ru11  1  0.171186  0.171159  0.245543  1
