# generated using pymatgen
data_DyHo5TcOs
_symmetry_space_group_name_H-M   'P 1'
_cell_length_a   6.27983900
_cell_length_b   7.40852300
_cell_length_c   9.05942400
_cell_angle_alpha   90.00000000
_cell_angle_beta   90.00000000
_cell_angle_gamma   90.00000000
_symmetry_Int_Tables_number   1
_chemical_formula_structural   DyHo5TcOs
_chemical_formula_sum   'Dy2 Ho10 Tc2 Os2'
_cell_volume   421.48364690
_cell_formula_units_Z   2
loop_
 _symmetry_equiv_pos_site_id
 _symmetry_equiv_pos_as_xyz
  1  'x, y, z'
loop_
 _atom_site_type_symbol
 _atom_site_label
 _atom_site_symmetry_multiplicity
 _atom_site_fract_x
 _atom_site_fract_y
 _atom_site_fract_z
 _atom_site_occupancy
  Dy  Dy0  1  0.875381  0.539721  0.250000  1
  Dy  Dy1  1  0.624619  0.039721  0.250000  1
  Ho  Ho2  1  0.336983  0.675349  0.062422  1
  Ho  Ho3  1  0.163017  0.175349  0.437578  1
  Ho  Ho4  1  0.665278  0.324346  0.563075  1
  Ho  Ho5  1  0.834722  0.824346  0.936925  1
  Ho  Ho6  1  0.665278  0.324346  0.936925  1
  Ho  Ho7  1  0.834722  0.824346  0.563075  1
  Ho  Ho8  1  0.336983  0.675349  0.437578  1
  Ho  Ho9  1  0.163017  0.175349  0.062422  1
  Ho  Ho10  1  0.130526  0.459245  0.750000  1
  Ho  Ho11  1  0.369474  0.959245  0.750000  1
  Tc  Tc12  1  0.039040  0.884394  0.250000  1
  Tc  Tc13  1  0.460960  0.384394  0.250000  1
  Os  Os14  1  0.959544  0.117250  0.750000  1
  Os  Os15  1  0.540456  0.617250  0.750000  1
