# generated using pymatgen
data_Eu5AgRh2
_symmetry_space_group_name_H-M   'P 1'
_cell_length_a   8.98341574
_cell_length_b   8.98341557
_cell_length_c   8.99121306
_cell_angle_alpha   126.90885187
_cell_angle_beta   126.90884904
_cell_angle_gamma   78.39077989
_symmetry_Int_Tables_number   1
_chemical_formula_structural   Eu5AgRh2
_chemical_formula_sum   'Eu10 Ag2 Rh4'
_cell_volume   449.26188898
_cell_formula_units_Z   2
loop_
 _symmetry_equiv_pos_site_id
 _symmetry_equiv_pos_as_xyz
  1  'x, y, z'
loop_
 _atom_site_type_symbol
 _atom_site_label
 _atom_site_symmetry_multiplicity
 _atom_site_fract_x
 _atom_site_fract_y
 _atom_site_fract_z
 _atom_site_occupancy
  Eu  Eu0  1  0.474102  0.974102  0.176948  1
  Eu  Eu1  1  0.202549  0.702549  0.176490  1
  Eu  Eu2  1  0.525898  0.025898  0.823052  1
  Eu  Eu3  1  0.025984  0.202622  0.499760  1
  Eu  Eu4  1  0.702622  0.525984  0.499760  1
  Eu  Eu5  1  0.974016  0.797378  0.500240  1
  Eu  Eu6  1  0.000000  0.000000  0.000000  1
  Eu  Eu7  1  0.500000  0.500000  0.000000  1
  Eu  Eu8  1  0.797451  0.297451  0.823510  1
  Eu  Eu9  1  0.297378  0.474016  0.500240  1
  Ag  Ag10  1  0.749940  0.750060  0.000000  1
  Ag  Ag11  1  0.250060  0.249940  0.000000  1
  Rh  Rh12  1  0.134106  0.634106  0.768179  1
  Rh  Rh13  1  0.633988  0.866012  0.500000  1
  Rh  Rh14  1  0.366012  0.133988  0.500000  1
  Rh  Rh15  1  0.865894  0.365894  0.231821  1
