# generated using pymatgen
data_Dy3Er2(SiTe)2
_symmetry_space_group_name_H-M   'P 1'
_cell_length_a   8.48822998
_cell_length_b   8.50308451
_cell_length_c   7.84177100
_cell_angle_alpha   90.09927446
_cell_angle_beta   90.04797920
_cell_angle_gamma   125.26016290
_symmetry_Int_Tables_number   1
_chemical_formula_structural   Dy3Er2(SiTe)2
_chemical_formula_sum   'Dy6 Er4 Si4 Te4'
_cell_volume   462.15010933
_cell_formula_units_Z   2
loop_
 _symmetry_equiv_pos_site_id
 _symmetry_equiv_pos_as_xyz
  1  'x, y, z'
loop_
 _atom_site_type_symbol
 _atom_site_label
 _atom_site_symmetry_multiplicity
 _atom_site_fract_x
 _atom_site_fract_y
 _atom_site_fract_z
 _atom_site_occupancy
  Dy  Dy0  1  0.460068  0.211713  0.834982  1
  Dy  Dy1  1  0.789440  0.540951  0.165256  1
  Dy  Dy2  1  0.539932  0.788287  0.165018  1
  Dy  Dy3  1  0.210560  0.459049  0.834744  1
  Dy  Dy4  1  0.710199  0.959140  0.665029  1
  Dy  Dy5  1  0.289801  0.040860  0.334971  1
  Er  Er6  1  0.040827  0.286119  0.335772  1
  Er  Er7  1  0.959173  0.713881  0.664228  1
  Er  Er8  1  0.000000  0.000000  0.000000  1
  Er  Er9  1  0.500000  0.500000  0.500000  1
  Si  Si10  1  0.363403  0.364187  0.133764  1
  Si  Si11  1  0.636597  0.635813  0.866236  1
  Si  Si12  1  0.135106  0.135063  0.632347  1
  Si  Si13  1  0.864894  0.864937  0.367653  1
  Te  Te14  1  0.795725  0.204611  0.002192  1
  Te  Te15  1  0.204275  0.795389  0.997808  1
  Te  Te16  1  0.708145  0.297661  0.500800  1
  Te  Te17  1  0.291855  0.702339  0.499200  1
