# generated using pymatgen
data_Ce2Mn2C3
_symmetry_space_group_name_H-M   'P 1'
_cell_length_a   6.02178403
_cell_length_b   6.02178317
_cell_length_c   5.52012329
_cell_angle_alpha   63.08670715
_cell_angle_beta   63.08671050
_cell_angle_gamma   31.82146632
_symmetry_Int_Tables_number   1
_chemical_formula_structural   Ce2Mn2C3
_chemical_formula_sum   'Ce2 Mn2 C3'
_cell_volume   93.12271606
_cell_formula_units_Z   1
loop_
 _symmetry_equiv_pos_site_id
 _symmetry_equiv_pos_as_xyz
  1  'x, y, z'
loop_
 _atom_site_type_symbol
 _atom_site_label
 _atom_site_symmetry_multiplicity
 _atom_site_fract_x
 _atom_site_fract_y
 _atom_site_fract_z
 _atom_site_occupancy
  Ce  Ce0  1  0.401021  0.401021  0.796363  1
  Ce  Ce1  1  0.598979  0.598979  0.203637  1
  Mn  Mn2  1  0.164659  0.164659  0.677410  1
  Mn  Mn3  1  0.835341  0.835341  0.322590  1
  C  C4  1  0.000000  0.000000  0.000000  1
  C  C5  1  0.252553  0.252553  0.280322  1
  C  C6  1  0.747447  0.747447  0.719678  1
