# generated using pymatgen
data_Tb12Tc3Pt
_symmetry_space_group_name_H-M   'P 1'
_cell_length_a   6.33126915
_cell_length_b   7.42105056
_cell_length_c   9.28389300
_cell_angle_alpha   90.00000000
_cell_angle_beta   90.00000000
_cell_angle_gamma   89.94331739
_symmetry_Int_Tables_number   1
_chemical_formula_structural   Tb12Tc3Pt
_chemical_formula_sum   'Tb12 Tc3 Pt1'
_cell_volume   436.20042084
_cell_formula_units_Z   1
loop_
 _symmetry_equiv_pos_site_id
 _symmetry_equiv_pos_as_xyz
  1  'x, y, z'
loop_
 _atom_site_type_symbol
 _atom_site_label
 _atom_site_symmetry_multiplicity
 _atom_site_fract_x
 _atom_site_fract_y
 _atom_site_fract_z
 _atom_site_occupancy
  Tb  Tb0  1  0.630551  0.044717  0.250000  1
  Tb  Tb1  1  0.370213  0.956802  0.750000  1
  Tb  Tb2  1  0.126505  0.461040  0.750000  1
  Tb  Tb3  1  0.868204  0.535525  0.250000  1
  Tb  Tb4  1  0.169039  0.180946  0.059518  1
  Tb  Tb5  1  0.828401  0.824289  0.932287  1
  Tb  Tb6  1  0.665957  0.322681  0.935476  1
  Tb  Tb7  1  0.828401  0.824289  0.567713  1
  Tb  Tb8  1  0.336321  0.672780  0.060850  1
  Tb  Tb9  1  0.169039  0.180946  0.440482  1
  Tb  Tb10  1  0.336321  0.672780  0.439150  1
  Tb  Tb11  1  0.665957  0.322681  0.564524  1
  Tc  Tc12  1  0.454482  0.386794  0.250000  1
  Tc  Tc13  1  0.539904  0.613991  0.750000  1
  Tc  Tc14  1  0.962178  0.112760  0.750000  1
  Pt  Pt15  1  0.048528  0.886977  0.250000  1
