# generated using pymatgen
data_Zr4AgPd15
_symmetry_space_group_name_H-M   'P 1'
_cell_length_a   4.05000800
_cell_length_b   4.05000800
_cell_length_c   20.26353200
_cell_angle_alpha   90.00000000
_cell_angle_beta   90.00000000
_cell_angle_gamma   90.00000000
_symmetry_Int_Tables_number   1
_chemical_formula_structural   Zr4AgPd15
_chemical_formula_sum   'Zr4 Ag1 Pd15'
_cell_volume   332.37389671
_cell_formula_units_Z   1
loop_
 _symmetry_equiv_pos_site_id
 _symmetry_equiv_pos_as_xyz
  1  'x, y, z'
loop_
 _atom_site_type_symbol
 _atom_site_label
 _atom_site_symmetry_multiplicity
 _atom_site_fract_x
 _atom_site_fract_y
 _atom_site_fract_z
 _atom_site_occupancy
  Zr  Zr0  1  0.000000  0.000000  0.195168  1
  Zr  Zr1  1  0.000000  0.000000  0.399052  1
  Zr  Zr2  1  0.000000  0.000000  0.600948  1
  Zr  Zr3  1  0.000000  0.000000  0.804832  1
  Ag  Ag4  1  0.000000  0.000000  0.000000  1
  Pd  Pd5  1  0.500000  0.500000  0.000000  1
  Pd  Pd6  1  0.500000  0.500000  0.202910  1
  Pd  Pd7  1  0.500000  0.500000  0.400824  1
  Pd  Pd8  1  0.500000  0.500000  0.599176  1
  Pd  Pd9  1  0.500000  0.500000  0.797090  1
  Pd  Pd10  1  0.500000  0.000000  0.103048  1
  Pd  Pd11  1  0.500000  0.000000  0.301562  1
  Pd  Pd12  1  0.500000  0.000000  0.500000  1
  Pd  Pd13  1  0.500000  0.000000  0.698438  1
  Pd  Pd14  1  0.500000  0.000000  0.896952  1
  Pd  Pd15  1  0.000000  0.500000  0.103048  1
  Pd  Pd16  1  0.000000  0.500000  0.301562  1
  Pd  Pd17  1  0.000000  0.500000  0.500000  1
  Pd  Pd18  1  0.000000  0.500000  0.698438  1
  Pd  Pd19  1  0.000000  0.500000  0.896952  1
