# generated using pymatgen
data_Ho2Tm11Lu7(CoSb2)4
_symmetry_space_group_name_H-M   'P 1'
_cell_length_a   7.72673636
_cell_length_b   8.72225812
_cell_length_c   12.03004253
_cell_angle_alpha   90.01274751
_cell_angle_beta   89.96854327
_cell_angle_gamma   90.01461465
_symmetry_Int_Tables_number   1
_chemical_formula_structural   Ho2Tm11Lu7(CoSb2)4
_chemical_formula_sum   'Ho2 Tm11 Lu7 Co4 Sb8'
_cell_volume   810.75960250
_cell_formula_units_Z   1
loop_
 _symmetry_equiv_pos_site_id
 _symmetry_equiv_pos_as_xyz
  1  'x, y, z'
loop_
 _atom_site_type_symbol
 _atom_site_label
 _atom_site_symmetry_multiplicity
 _atom_site_fract_x
 _atom_site_fract_y
 _atom_site_fract_z
 _atom_site_occupancy
  Ho  Ho0  1  0.377401  0.249807  0.692089  1
  Ho  Ho1  1  0.877270  0.750000  0.808103  1
  Tm  Tm2  1  0.156220  0.750034  0.203890  1
  Tm  Tm3  1  0.656499  0.249878  0.296006  1
  Tm  Tm4  1  0.843911  0.249988  0.796066  1
  Tm  Tm5  1  0.343898  0.750056  0.704035  1
  Tm  Tm6  1  0.449823  0.750017  0.997937  1
  Tm  Tm7  1  0.949664  0.249869  0.502065  1
  Tm  Tm8  1  0.549740  0.249971  0.002201  1
  Tm  Tm9  1  0.049303  0.750217  0.497825  1
  Tm  Tm10  1  0.622407  0.750115  0.308650  1
  Tm  Tm11  1  0.122059  0.250027  0.191184  1
  Tm  Tm12  1  0.323676  0.463611  0.434291  1
  Lu  Lu13  1  0.824796  0.963607  0.065596  1
  Lu  Lu14  1  0.324691  0.036479  0.434397  1
  Lu  Lu15  1  0.175574  0.462365  0.935000  1
  Lu  Lu16  1  0.675855  0.537667  0.565109  1
  Lu  Lu17  1  0.175594  0.037610  0.934991  1
  Lu  Lu18  1  0.675567  0.962225  0.565039  1
  Lu  Lu19  1  0.824739  0.536362  0.065588  1
  Co  Co20  1  0.432670  0.750278  0.490742  1
  Co  Co21  1  0.932429  0.249993  0.009245  1
  Co  Co22  1  0.568435  0.249665  0.508929  1
  Co  Co23  1  0.067804  0.750008  0.991262  1
  Sb  Sb24  1  0.931405  0.991659  0.327474  1
  Sb  Sb25  1  0.431448  0.008311  0.172500  1
  Sb  Sb26  1  0.068750  0.491603  0.672230  1
  Sb  Sb27  1  0.568597  0.508468  0.827769  1
  Sb  Sb28  1  0.068622  0.008423  0.672268  1
  Sb  Sb29  1  0.568626  0.991548  0.827798  1
  Sb  Sb30  1  0.931011  0.508430  0.327350  1
  Sb  Sb31  1  0.431516  0.491713  0.172372  1
