# generated using pymatgen
data_Pa3Al2Tc3
_symmetry_space_group_name_H-M   'P 1'
_cell_length_a   5.55071100
_cell_length_b   7.97229662
_cell_length_c   7.97229800
_cell_angle_alpha   120.00000573
_cell_angle_beta   90.00000000
_cell_angle_gamma   90.00000000
_symmetry_Int_Tables_number   1
_chemical_formula_structural   Pa3Al2Tc3
_chemical_formula_sum   'Pa6 Al4 Tc6'
_cell_volume   305.52460805
_cell_formula_units_Z   2
loop_
 _symmetry_equiv_pos_site_id
 _symmetry_equiv_pos_as_xyz
  1  'x, y, z'
loop_
 _atom_site_type_symbol
 _atom_site_label
 _atom_site_symmetry_multiplicity
 _atom_site_fract_x
 _atom_site_fract_y
 _atom_site_fract_z
 _atom_site_occupancy
  Pa  Pa0  1  0.750000  0.741252  0.741252  1
  Pa  Pa1  1  0.250000  0.258748  0.258748  1
  Pa  Pa2  1  0.750000  0.000000  0.258748  1
  Pa  Pa3  1  0.250000  0.000000  0.741252  1
  Pa  Pa4  1  0.750000  0.258748  0.000000  1
  Pa  Pa5  1  0.250000  0.741252  0.000000  1
  Al  Al6  1  0.000000  0.666667  0.333333  1
  Al  Al7  1  0.000000  0.333333  0.666667  1
  Al  Al8  1  0.500000  0.333333  0.666667  1
  Al  Al9  1  0.500000  0.666667  0.333333  1
  Tc  Tc10  1  0.750000  0.391225  0.391225  1
  Tc  Tc11  1  0.250000  0.608775  0.608775  1
  Tc  Tc12  1  0.750000  0.000000  0.608775  1
  Tc  Tc13  1  0.250000  0.000000  0.391225  1
  Tc  Tc14  1  0.750000  0.608775  0.000000  1
  Tc  Tc15  1  0.250000  0.391225  0.000000  1
