# generated using pymatgen
data_Dy2PaIn3Ir2Rh
_symmetry_space_group_name_H-M   'P 1'
_cell_length_a   7.59922445
_cell_length_b   7.83458292
_cell_length_c   3.79486400
_cell_angle_alpha   90.00000000
_cell_angle_beta   90.00000000
_cell_angle_gamma   121.02991943
_symmetry_Int_Tables_number   1
_chemical_formula_structural   Dy2PaIn3Ir2Rh
_chemical_formula_sum   'Dy2 Pa1 In3 Ir2 Rh1'
_cell_volume   193.60234717
_cell_formula_units_Z   1
loop_
 _symmetry_equiv_pos_site_id
 _symmetry_equiv_pos_as_xyz
  1  'x, y, z'
loop_
 _atom_site_type_symbol
 _atom_site_label
 _atom_site_symmetry_multiplicity
 _atom_site_fract_x
 _atom_site_fract_y
 _atom_site_fract_z
 _atom_site_occupancy
  Dy  Dy0  1  0.595277  0.001503  0.500000  1
  Dy  Dy1  1  0.404723  0.406226  0.500000  1
  Pa  Pa2  1  0.000000  0.581038  0.500000  1
  In  In3  1  0.000000  0.242652  0.000000  1
  In  In4  1  0.269690  0.011620  0.000000  1
  In  In5  1  0.730310  0.741930  0.000000  1
  Ir  Ir6  1  0.699519  0.363017  0.000000  1
  Ir  Ir7  1  0.300481  0.663500  0.000000  1
  Rh  Rh8  1  0.000000  0.988514  0.500000  1
