# generated using pymatgen
data_Li12TbDy11(WO6)8
_symmetry_space_group_name_H-M   'P 1'
_cell_length_a   10.67500790
_cell_length_b   10.67347873
_cell_length_c   10.67501008
_cell_angle_alpha   109.46718130
_cell_angle_beta   109.48522750
_cell_angle_gamma   109.46724669
_symmetry_Int_Tables_number   1
_chemical_formula_structural   Li12TbDy11(WO6)8
_chemical_formula_sum   'Li12 Tb1 Dy11 W8 O48'
_cell_volume   936.24272934
_cell_formula_units_Z   1
loop_
 _symmetry_equiv_pos_site_id
 _symmetry_equiv_pos_as_xyz
  1  'x, y, z'
loop_
 _atom_site_type_symbol
 _atom_site_label
 _atom_site_symmetry_multiplicity
 _atom_site_fract_x
 _atom_site_fract_y
 _atom_site_fract_z
 _atom_site_occupancy
  Li  Li0  1  0.875130  0.749998  0.125130  1
  Li  Li1  1  0.249999  0.875000  0.125005  1
  Li  Li2  1  0.875085  0.125099  0.250106  1
  Li  Li3  1  0.374995  0.625002  0.249999  1
  Li  Li4  1  0.625000  0.249999  0.374999  1
  Li  Li5  1  0.750007  0.625000  0.375001  1
  Li  Li6  1  0.249896  0.374902  0.624915  1
  Li  Li7  1  0.374870  0.750001  0.624872  1
  Li  Li8  1  0.124999  0.874999  0.749994  1
  Li  Li9  1  0.625006  0.374903  0.749989  1
  Li  Li10  1  0.125000  0.250002  0.875001  1
  Li  Li11  1  0.750011  0.125098  0.874992  1
  Tb  Tb12  1  0.625000  0.750000  0.875000  1
  Dy  Dy13  1  0.749989  0.374993  0.124995  1
  Dy  Dy14  1  0.375000  0.250000  0.125000  1
  Dy  Dy15  1  0.624976  0.875052  0.250153  1
  Dy  Dy16  1  0.125003  0.374992  0.249998  1
  Dy  Dy17  1  0.125000  0.750000  0.375000  1
  Dy  Dy18  1  0.250002  0.125007  0.374996  1
  Dy  Dy19  1  0.750076  0.875053  0.624900  1
  Dy  Dy20  1  0.875000  0.250000  0.624999  1
  Dy  Dy21  1  0.375005  0.125007  0.750011  1
  Dy  Dy22  1  0.875100  0.624948  0.749923  1
  Dy  Dy23  1  0.249848  0.624948  0.875024  1
  W  W24  1  0.000311  0.000166  0.000058  1
  W  W25  1  0.499854  0.000166  0.000108  1
  W  W26  1  0.499892  0.499834  0.000146  1
  W  W27  1  0.999997  0.499986  0.000028  1
  W  W28  1  0.000041  0.000014  0.500011  1
  W  W29  1  0.999989  0.499986  0.499958  1
  W  W30  1  0.499974  0.000015  0.500004  1
  W  W31  1  0.499943  0.499835  0.499689  1
  O  O32  1  0.119142  0.201725  0.027877  1
  O  O33  1  0.908831  0.326214  0.027798  1
  O  O34  1  0.408791  0.880997  0.082651  1
  O  O35  1  0.673973  0.701440  0.083250  1
  O  O36  1  0.673781  0.972638  0.091600  1
  O  O37  1  0.417349  0.619002  0.091210  1
  O  O38  1  0.201804  0.027939  0.119065  1
  O  O39  1  0.917396  0.591174  0.118961  1
  O  O40  1  0.582584  0.201725  0.173848  1
  O  O41  1  0.591126  0.472060  0.173865  1
  O  O42  1  0.027766  0.118932  0.201528  1
  O  O43  1  0.173812  0.582628  0.201602  1
  O  O44  1  0.917384  0.326215  0.298415  1
  O  O45  1  0.380934  0.472060  0.298195  1
  O  O46  1  0.298399  0.917371  0.326188  1
  O  O47  1  0.027790  0.908828  0.326224  1
  O  O48  1  0.472124  0.298276  0.380859  1
  O  O49  1  0.908815  0.582628  0.381027  1
  O  O50  1  0.527789  0.826212  0.408790  1
  O  O51  1  0.881042  0.082631  0.408835  1
  O  O52  1  0.618972  0.091195  0.417400  1
  O  O53  1  0.798422  0.826214  0.417422  1
  O  O54  1  0.298470  0.381068  0.472232  1
  O  O55  1  0.173778  0.591172  0.472210  1
  O  O56  1  0.701655  0.619003  0.527795  1
  O  O57  1  0.826205  0.408805  0.527777  1
  O  O58  1  0.201586  0.173787  0.582618  1
  O  O59  1  0.381037  0.908829  0.582605  1
  O  O60  1  0.118973  0.917372  0.591185  1
  O  O61  1  0.472204  0.173788  0.591171  1
  O  O62  1  0.527468  0.701439  0.618189  1
  O  O63  1  0.091164  0.417368  0.618959  1
  O  O64  1  0.701590  0.082632  0.673797  1
  O  O65  1  0.972223  0.091194  0.673793  1
  O  O66  1  0.082578  0.673786  0.701578  1
  O  O67  1  0.618961  0.527362  0.701143  1
  O  O68  1  0.972206  0.880998  0.798346  1
  O  O69  1  0.826204  0.417369  0.798411  1
  O  O70  1  0.408400  0.527361  0.826218  1
  O  O71  1  0.416750  0.798561  0.826028  1
  O  O72  1  0.082600  0.408805  0.881028  1
  O  O73  1  0.798857  0.972639  0.881039  1
  O  O74  1  0.582598  0.381068  0.908834  1
  O  O75  1  0.326134  0.027938  0.908872  1
  O  O76  1  0.326153  0.298275  0.917416  1
  O  O77  1  0.591165  0.118932  0.917403  1
  O  O78  1  0.091210  0.673789  0.972210  1
  O  O79  1  0.881809  0.798561  0.972530  1
