# generated using pymatgen
data_Er20Ru11Au
_symmetry_space_group_name_H-M   'P 1'
_cell_length_a   10.74735516
_cell_length_b   10.74735328
_cell_length_c   6.33578600
_cell_angle_alpha   90.05781247
_cell_angle_beta   90.05780687
_cell_angle_gamma   89.64992191
_symmetry_Int_Tables_number   1
_chemical_formula_structural   Er20Ru11Au
_chemical_formula_sum   'Er20 Ru11 Au1'
_cell_volume   731.80450676
_cell_formula_units_Z   1
loop_
 _symmetry_equiv_pos_site_id
 _symmetry_equiv_pos_as_xyz
  1  'x, y, z'
loop_
 _atom_site_type_symbol
 _atom_site_label
 _atom_site_symmetry_multiplicity
 _atom_site_fract_x
 _atom_site_fract_y
 _atom_site_fract_z
 _atom_site_occupancy
  Er  Er0  1  0.292428  0.086793  0.376537  1
  Er  Er1  1  0.291153  0.923296  0.876086  1
  Er  Er2  1  0.708680  0.087319  0.876310  1
  Er  Er3  1  0.709109  0.914098  0.377350  1
  Er  Er4  1  0.593446  0.796057  0.877841  1
  Er  Er5  1  0.587154  0.205695  0.375465  1
  Er  Er6  1  0.417738  0.797329  0.363880  1
  Er  Er7  1  0.414197  0.210344  0.875583  1
  Er  Er8  1  0.203943  0.406554  0.622159  1
  Er  Er9  1  0.202671  0.582262  0.136120  1
  Er  Er10  1  0.794305  0.412846  0.124535  1
  Er  Er11  1  0.789656  0.585803  0.624417  1
  Er  Er12  1  0.913207  0.707572  0.123463  1
  Er  Er13  1  0.912681  0.291320  0.623690  1
  Er  Er14  1  0.076704  0.708847  0.623914  1
  Er  Er15  1  0.085902  0.290891  0.122650  1
  Er  Er16  1  0.000551  0.000120  0.499120  1
  Er  Er17  1  0.999880  0.999449  0.000880  1
  Er  Er18  1  0.505486  0.496490  0.004251  1
  Er  Er19  1  0.503510  0.494514  0.495749  1
  Ru  Ru20  1  0.847110  0.152890  0.250000  1
  Ru  Ru21  1  0.847047  0.846569  0.749563  1
  Ru  Ru22  1  0.153431  0.152953  0.750437  1
  Ru  Ru23  1  0.155242  0.844758  0.250000  1
  Ru  Ru24  1  0.653109  0.346891  0.750000  1
  Ru  Ru25  1  0.650649  0.652853  0.250536  1
  Ru  Ru26  1  0.347147  0.349351  0.249464  1
  Ru  Ru27  1  0.500689  0.000138  0.123348  1
  Ru  Ru28  1  0.500066  0.000280  0.626046  1
  Ru  Ru29  1  0.999720  0.499934  0.873954  1
  Ru  Ru30  1  0.999862  0.499311  0.376652  1
  Au  Au31  1  0.343525  0.656475  0.750000  1
