# generated using pymatgen
data_Pr5Tm5(InSb)4
_symmetry_space_group_name_H-M   'P 1'
_cell_length_a   8.91904095
_cell_length_b   9.03229998
_cell_length_c   8.25612100
_cell_angle_alpha   90.05684350
_cell_angle_beta   90.05392936
_cell_angle_gamma   125.17136503
_symmetry_Int_Tables_number   1
_chemical_formula_structural   Pr5Tm5(InSb)4
_chemical_formula_sum   'Pr5 Tm5 In4 Sb4'
_cell_volume   543.68043725
_cell_formula_units_Z   1
loop_
 _symmetry_equiv_pos_site_id
 _symmetry_equiv_pos_as_xyz
  1  'x, y, z'
loop_
 _atom_site_type_symbol
 _atom_site_label
 _atom_site_symmetry_multiplicity
 _atom_site_fract_x
 _atom_site_fract_y
 _atom_site_fract_z
 _atom_site_occupancy
  Pr  Pr0  1  0.833174  0.544551  0.175054  1
  Pr  Pr1  1  0.522574  0.798240  0.164498  1
  Pr  Pr2  1  0.171908  0.458222  0.824713  1
  Pr  Pr3  1  0.669577  0.954377  0.672470  1
  Pr  Pr4  1  0.328351  0.042715  0.327739  1
  Tm  Tm5  1  0.022895  0.286898  0.338739  1
  Tm  Tm6  1  0.973029  0.707856  0.660600  1
  Tm  Tm7  1  0.479441  0.210209  0.840974  1
  Tm  Tm8  1  0.000895  0.002130  0.997889  1
  Tm  Tm9  1  0.497697  0.495444  0.501528  1
  In  In10  1  0.371526  0.370247  0.127644  1
  In  In11  1  0.630153  0.625277  0.870726  1
  In  In12  1  0.130957  0.127098  0.629061  1
  In  In13  1  0.872767  0.872337  0.373831  1
  Sb  Sb14  1  0.791684  0.195629  0.016010  1
  Sb  Sb15  1  0.212578  0.817021  0.972688  1
  Sb  Sb16  1  0.717983  0.312416  0.522048  1
  Sb  Sb17  1  0.272809  0.679332  0.483788  1
