# generated using pymatgen
data_Tm2BeSi4Ni
_symmetry_space_group_name_H-M   'P 1'
_cell_length_a   8.41034127
_cell_length_b   8.41034044
_cell_length_c   3.90336300
_cell_angle_alpha   90.00000000
_cell_angle_beta   90.00000000
_cell_angle_gamma   152.79116288
_symmetry_Int_Tables_number   1
_chemical_formula_structural   Tm2BeSi4Ni
_chemical_formula_sum   'Tm2 Be1 Si4 Ni1'
_cell_volume   126.24253305
_cell_formula_units_Z   1
loop_
 _symmetry_equiv_pos_site_id
 _symmetry_equiv_pos_as_xyz
  1  'x, y, z'
loop_
 _atom_site_type_symbol
 _atom_site_label
 _atom_site_symmetry_multiplicity
 _atom_site_fract_x
 _atom_site_fract_y
 _atom_site_fract_z
 _atom_site_occupancy
  Tm  Tm0  1  0.601719  0.398281  0.250000  1
  Tm  Tm1  1  0.392836  0.607164  0.750000  1
  Be  Be2  1  0.827733  0.172267  0.250000  1
  Si  Si3  1  0.961468  0.038532  0.250000  1
  Si  Si4  1  0.039635  0.960365  0.750000  1
  Si  Si5  1  0.250436  0.749564  0.250000  1
  Si  Si6  1  0.749082  0.250918  0.750000  1
  Ni  Ni7  1  0.177091  0.822909  0.750000  1
