# generated using pymatgen
data_KRb3(NpTe3)2
_symmetry_space_group_name_H-M   'P 1'
_cell_length_a   8.13170582
_cell_length_b   8.13170636
_cell_length_c   8.95783148
_cell_angle_alpha   81.34215399
_cell_angle_beta   81.34215049
_cell_angle_gamma   120.12796089
_symmetry_Int_Tables_number   1
_chemical_formula_structural   KRb3(NpTe3)2
_chemical_formula_sum   'K1 Rb3 Np2 Te6'
_cell_volume   488.44875857
_cell_formula_units_Z   1
loop_
 _symmetry_equiv_pos_site_id
 _symmetry_equiv_pos_as_xyz
  1  'x, y, z'
loop_
 _atom_site_type_symbol
 _atom_site_label
 _atom_site_symmetry_multiplicity
 _atom_site_fract_x
 _atom_site_fract_y
 _atom_site_fract_z
 _atom_site_occupancy
  K  K0  1  0.500000  0.500000  0.000000  1
  Rb  Rb1  1  0.655011  0.344989  0.500000  1
  Rb  Rb2  1  0.344989  0.655011  0.500000  1
  Rb  Rb3  1  0.000000  0.000000  0.500000  1
  Np  Np4  1  0.832389  0.167611  0.000000  1
  Np  Np5  1  0.167611  0.832389  0.000000  1
  Te  Te6  1  0.805407  0.805407  0.200112  1
  Te  Te7  1  0.194593  0.194593  0.799888  1
  Te  Te8  1  0.431383  0.057112  0.204070  1
  Te  Te9  1  0.568617  0.942888  0.795930  1
  Te  Te10  1  0.942888  0.568617  0.795930  1
  Te  Te11  1  0.057112  0.431383  0.204070  1
