# generated using pymatgen
data_Er2PaAs4Pd7
_symmetry_space_group_name_H-M   'P 1'
_cell_length_a   8.08674389
_cell_length_b   8.08674327
_cell_length_c   9.64848623
_cell_angle_alpha   55.17699844
_cell_angle_beta   55.17700127
_cell_angle_gamma   29.63988431
_symmetry_Int_Tables_number   1
_chemical_formula_structural   Er2PaAs4Pd7
_chemical_formula_sum   'Er2 Pa1 As4 Pd7'
_cell_volume   251.78619913
_cell_formula_units_Z   1
loop_
 _symmetry_equiv_pos_site_id
 _symmetry_equiv_pos_as_xyz
  1  'x, y, z'
loop_
 _atom_site_type_symbol
 _atom_site_label
 _atom_site_symmetry_multiplicity
 _atom_site_fract_x
 _atom_site_fract_y
 _atom_site_fract_z
 _atom_site_occupancy
  Er  Er0  1  0.677654  0.677654  0.326526  1
  Er  Er1  1  0.322346  0.322346  0.673474  1
  Pa  Pa2  1  0.000000  0.000000  0.000000  1
  As  As3  1  0.344910  0.344910  0.243758  1
  As  As4  1  0.655090  0.655090  0.756242  1
  As  As5  1  0.895925  0.895925  0.824449  1
  As  As6  1  0.104075  0.104075  0.175551  1
  Pd  Pd7  1  0.307040  0.307040  0.023447  1
  Pd  Pd8  1  0.692960  0.692960  0.976553  1
  Pd  Pd9  1  0.513794  0.513794  0.698585  1
  Pd  Pd10  1  0.831217  0.831217  0.433389  1
  Pd  Pd11  1  0.486206  0.486206  0.301415  1
  Pd  Pd12  1  0.168783  0.168783  0.566611  1
  Pd  Pd13  1  0.000000  0.000000  0.500000  1
