# generated using pymatgen
data_Lu4Hf3Ta3Si8
_symmetry_space_group_name_H-M   'P 1'
_cell_length_a   7.10991303
_cell_length_b   7.11404203
_cell_length_c   13.03550400
_cell_angle_alpha   90.00000000
_cell_angle_beta   90.00000000
_cell_angle_gamma   89.98888239
_symmetry_Int_Tables_number   1
_chemical_formula_structural   Lu4Hf3Ta3Si8
_chemical_formula_sum   'Lu8 Hf6 Ta6 Si16'
_cell_volume   659.33864999
_cell_formula_units_Z   2
loop_
 _symmetry_equiv_pos_site_id
 _symmetry_equiv_pos_as_xyz
  1  'x, y, z'
loop_
 _atom_site_type_symbol
 _atom_site_label
 _atom_site_symmetry_multiplicity
 _atom_site_fract_x
 _atom_site_fract_y
 _atom_site_fract_z
 _atom_site_occupancy
  Lu  Lu0  1  0.497120  0.153957  0.534534  1
  Lu  Lu1  1  0.502880  0.846043  0.034534  1
  Lu  Lu2  1  0.652827  0.001775  0.284359  1
  Lu  Lu3  1  0.347173  0.998225  0.784359  1
  Lu  Lu4  1  0.843227  0.502715  0.966115  1
  Lu  Lu5  1  0.156773  0.497285  0.466115  1
  Lu  Lu6  1  0.003533  0.655452  0.715572  1
  Lu  Lu7  1  0.996467  0.344548  0.215572  1
  Hf  Hf8  1  0.851610  0.004682  0.876242  1
  Hf  Hf9  1  0.148390  0.995318  0.376242  1
  Hf  Hf10  1  0.645831  0.502793  0.374797  1
  Hf  Hf11  1  0.354169  0.497207  0.874797  1
  Hf  Hf12  1  0.004197  0.854094  0.124404  1
  Hf  Hf13  1  0.995803  0.145906  0.624404  1
  Ta  Ta14  1  0.672995  0.327345  0.749231  1
  Ta  Ta15  1  0.327005  0.672655  0.249231  1
  Ta  Ta16  1  0.823343  0.821056  0.500680  1
  Ta  Ta17  1  0.176657  0.178944  0.000680  1
  Ta  Ta18  1  0.490847  0.353985  0.124930  1
  Ta  Ta19  1  0.509153  0.646015  0.624930  1
  Si  Si20  1  0.790485  0.144192  0.069917  1
  Si  Si21  1  0.209515  0.855808  0.569917  1
  Si  Si22  1  0.642594  0.702105  0.814561  1
  Si  Si23  1  0.357406  0.297895  0.314561  1
  Si  Si24  1  0.857102  0.201530  0.432101  1
  Si  Si25  1  0.142898  0.798470  0.932101  1
  Si  Si26  1  0.699906  0.637953  0.181051  1
  Si  Si27  1  0.300094  0.362047  0.681051  1
  Si  Si28  1  0.547281  0.203351  0.936380  1
  Si  Si29  1  0.452719  0.796649  0.436380  1
  Si  Si30  1  0.701058  0.948394  0.683862  1
  Si  Si31  1  0.298942  0.051606  0.183862  1
  Si  Si32  1  0.797045  0.452531  0.565857  1
  Si  Si33  1  0.202955  0.547469  0.065857  1
  Si  Si34  1  0.951203  0.700360  0.315406  1
  Si  Si35  1  0.048797  0.299640  0.815406  1
