# generated using pymatgen
data_PrHo5ScCo16TcP12
_symmetry_space_group_name_H-M   'P 1'
_cell_length_a   3.71824400
_cell_length_b   10.61381400
_cell_length_c   12.29883500
_cell_angle_alpha   90.00000000
_cell_angle_beta   90.00000000
_cell_angle_gamma   90.00000000
_symmetry_Int_Tables_number   1
_chemical_formula_structural   PrHo5ScCo16TcP12
_chemical_formula_sum   'Pr1 Ho5 Sc1 Co16 Tc1 P12'
_cell_volume   485.37045130
_cell_formula_units_Z   1
loop_
 _symmetry_equiv_pos_site_id
 _symmetry_equiv_pos_as_xyz
  1  'x, y, z'
loop_
 _atom_site_type_symbol
 _atom_site_label
 _atom_site_symmetry_multiplicity
 _atom_site_fract_x
 _atom_site_fract_y
 _atom_site_fract_z
 _atom_site_occupancy
  Pr  Pr0  1  0.500000  0.000000  0.474955  1
  Ho  Ho1  1  0.000000  0.500000  0.527581  1
  Ho  Ho2  1  0.500000  0.821071  0.205515  1
  Ho  Ho3  1  0.500000  0.178929  0.205515  1
  Ho  Ho4  1  0.000000  0.681549  0.795742  1
  Ho  Ho5  1  0.000000  0.318451  0.795742  1
  Sc  Sc6  1  0.500000  0.500000  0.152710  1
  Co  Co7  1  0.000000  0.500000  0.984244  1
  Co  Co8  1  0.500000  0.000000  0.010597  1
  Co  Co9  1  0.500000  0.297413  0.434002  1
  Co  Co10  1  0.500000  0.702587  0.434002  1
  Co  Co11  1  0.000000  0.206212  0.571862  1
  Co  Co12  1  0.000000  0.793788  0.571862  1
  Co  Co13  1  0.500000  0.879181  0.708815  1
  Co  Co14  1  0.500000  0.120819  0.708815  1
  Co  Co15  1  0.000000  0.622206  0.294398  1
  Co  Co16  1  0.000000  0.377794  0.294398  1
  Co  Co17  1  0.500000  0.326967  0.989710  1
  Co  Co18  1  0.500000  0.673033  0.989710  1
  Co  Co19  1  0.000000  0.164222  0.004409  1
  Co  Co20  1  0.000000  0.835778  0.004409  1
  Co  Co21  1  0.500000  0.500000  0.704374  1
  Co  Co22  1  0.000000  0.000000  0.293253  1
  Tc  Tc23  1  0.000000  0.000000  0.843590  1
  P  P24  1  0.500000  0.311321  0.618079  1
  P  P25  1  0.500000  0.688679  0.618079  1
  P  P26  1  0.000000  0.193271  0.384178  1
  P  P27  1  0.000000  0.806729  0.384178  1
  P  P28  1  0.500000  0.500000  0.883100  1
  P  P29  1  0.000000  0.000000  0.115911  1
  P  P30  1  0.500000  0.846651  0.889694  1
  P  P31  1  0.500000  0.153349  0.889694  1
  P  P32  1  0.000000  0.662407  0.102280  1
  P  P33  1  0.000000  0.337593  0.102280  1
  P  P34  1  0.500000  0.500000  0.358206  1
  P  P35  1  0.000000  0.000000  0.654102  1
