# generated using pymatgen
data_YbPr3Al18ZnIr5
_symmetry_space_group_name_H-M   'P 1'
_cell_length_a   7.64635032
_cell_length_b   7.64980010
_cell_length_c   9.60870311
_cell_angle_alpha   89.85594538
_cell_angle_beta   90.00553905
_cell_angle_gamma   119.39775694
_symmetry_Int_Tables_number   1
_chemical_formula_structural   YbPr3Al18ZnIr5
_chemical_formula_sum   'Yb1 Pr3 Al18 Zn1 Ir5'
_cell_volume   489.66790721
_cell_formula_units_Z   1
loop_
 _symmetry_equiv_pos_site_id
 _symmetry_equiv_pos_as_xyz
  1  'x, y, z'
loop_
 _atom_site_type_symbol
 _atom_site_label
 _atom_site_symmetry_multiplicity
 _atom_site_fract_x
 _atom_site_fract_y
 _atom_site_fract_z
 _atom_site_occupancy
  Yb  Yb0  1  0.324412  0.004063  0.749690  1
  Pr  Pr1  1  0.997273  0.676359  0.248892  1
  Pr  Pr2  1  0.004029  0.324341  0.751214  1
  Pr  Pr3  1  0.673896  0.995769  0.248699  1
  Al  Al4  1  0.138976  0.137733  0.258269  1
  Al  Al5  1  0.862251  0.861703  0.742453  1
  Al  Al6  1  0.005215  0.345752  0.076940  1
  Al  Al7  1  0.997886  0.657218  0.920435  1
  Al  Al8  1  0.001847  0.666695  0.572846  1
  Al  Al9  1  0.336286  0.001601  0.434437  1
  Al  Al10  1  0.001471  0.336084  0.430483  1
  Al  Al11  1  0.661749  0.998773  0.572243  1
  Al  Al12  1  0.650895  0.995672  0.919645  1
  Al  Al13  1  0.344373  0.005381  0.072799  1
  Al  Al14  1  0.334125  0.332106  0.550095  1
  Al  Al15  1  0.666247  0.665693  0.454932  1
  Al  Al16  1  0.655631  0.655559  0.054085  1
  Al  Al17  1  0.344918  0.342919  0.941849  1
  Al  Al18  1  0.339365  0.547659  0.251254  1
  Al  Al19  1  0.659361  0.448784  0.748537  1
  Al  Al20  1  0.548340  0.338367  0.251495  1
  Al  Al21  1  0.449844  0.659978  0.748476  1
  Zn  Zn22  1  0.999520  0.000159  0.999850  1
  Ir  Ir23  1  0.671338  0.329371  0.999591  1
  Ir  Ir24  1  0.329740  0.671644  0.999570  1
  Ir  Ir25  1  0.329544  0.670379  0.499778  1
  Ir  Ir26  1  0.671384  0.329815  0.500549  1
  Ir  Ir27  1  0.000086  0.000424  0.500895  1
