# generated using pymatgen
data_InSn3B3Ir7
_symmetry_space_group_name_H-M   'P 1'
_cell_length_a   9.41093919
_cell_length_b   9.36826160
_cell_length_c   5.70863300
_cell_angle_alpha   90.00000000
_cell_angle_beta   90.00000000
_cell_angle_gamma   120.27024078
_symmetry_Int_Tables_number   1
_chemical_formula_structural   InSn3B3Ir7
_chemical_formula_sum   'In2 Sn6 B6 Ir14'
_cell_volume   434.67597900
_cell_formula_units_Z   2
loop_
 _symmetry_equiv_pos_site_id
 _symmetry_equiv_pos_as_xyz
  1  'x, y, z'
loop_
 _atom_site_type_symbol
 _atom_site_label
 _atom_site_symmetry_multiplicity
 _atom_site_fract_x
 _atom_site_fract_y
 _atom_site_fract_z
 _atom_site_occupancy
  In  In0  1  0.508048  0.094412  0.750000  1
  In  In1  1  0.092941  0.586307  0.250000  1
  Sn  Sn2  1  0.908940  0.411097  0.750000  1
  Sn  Sn3  1  0.588146  0.496370  0.750000  1
  Sn  Sn4  1  0.496171  0.910134  0.250000  1
  Sn  Sn5  1  0.330039  0.667720  0.750000  1
  Sn  Sn6  1  0.408483  0.503016  0.250000  1
  Sn  Sn7  1  0.668614  0.334426  0.250000  1
  B  B8  1  0.826438  0.789989  0.250000  1
  B  B9  1  0.965454  0.174128  0.250000  1
  B  B10  1  0.209426  0.036224  0.250000  1
  B  B11  1  0.791109  0.964201  0.750000  1
  B  B12  1  0.037169  0.826326  0.750000  1
  B  B13  1  0.173199  0.207481  0.750000  1
  Ir  Ir14  1  0.123966  0.350493  0.996009  1
  Ir  Ir15  1  0.773435  0.122882  0.497009  1
  Ir  Ir16  1  0.773435  0.122882  0.002991  1
  Ir  Ir17  1  0.646731  0.771364  0.500958  1
  Ir  Ir18  1  0.123966  0.350493  0.503991  1
  Ir  Ir19  1  0.874504  0.647657  0.001398  1
  Ir  Ir20  1  0.351523  0.229622  0.001929  1
  Ir  Ir21  1  0.227755  0.878303  0.501747  1
  Ir  Ir22  1  0.874504  0.647657  0.498602  1
  Ir  Ir23  1  0.351523  0.229622  0.498071  1
  Ir  Ir24  1  0.227755  0.878303  0.998253  1
  Ir  Ir25  1  0.999996  0.998763  0.500015  1
  Ir  Ir26  1  0.999996  0.998763  0.999985  1
  Ir  Ir27  1  0.646731  0.771364  0.999042  1
