# generated using pymatgen
data_Li4La2LuSn4
_symmetry_space_group_name_H-M   'P 1'
_cell_length_a   4.78809965
_cell_length_b   6.98124752
_cell_length_c   8.83183732
_cell_angle_alpha   113.28043737
_cell_angle_beta   105.72799437
_cell_angle_gamma   89.99999306
_symmetry_Int_Tables_number   1
_chemical_formula_structural   Li4La2LuSn4
_chemical_formula_sum   'Li4 La2 Lu1 Sn4'
_cell_volume   259.10794168
_cell_formula_units_Z   1
loop_
 _symmetry_equiv_pos_site_id
 _symmetry_equiv_pos_as_xyz
  1  'x, y, z'
loop_
 _atom_site_type_symbol
 _atom_site_label
 _atom_site_symmetry_multiplicity
 _atom_site_fract_x
 _atom_site_fract_y
 _atom_site_fract_z
 _atom_site_occupancy
  Li  Li0  1  0.671352  0.981132  0.342702  1
  Li  Li1  1  0.328648  0.018868  0.657298  1
  Li  Li2  1  0.328648  0.638431  0.657298  1
  Li  Li3  1  0.671352  0.361569  0.342702  1
  La  La4  1  0.131232  0.631232  0.262463  1
  La  La5  1  0.868768  0.368768  0.737537  1
  Lu  Lu6  1  0.000000  0.000000  0.000000  1
  Sn  Sn7  1  0.500000  0.708357  0.000000  1
  Sn  Sn8  1  0.500000  0.291643  0.000000  1
  Sn  Sn9  1  0.792327  0.792327  0.584652  1
  Sn  Sn10  1  0.207673  0.207673  0.415348  1
