# generated using pymatgen
data_Tb8Y12CoNi(Bi4Ru)2
_symmetry_space_group_name_H-M   'P 1'
_cell_length_a   8.03141484
_cell_length_b   8.96061400
_cell_length_c   12.50967900
_cell_angle_alpha   90.00000000
_cell_angle_beta   90.26180292
_cell_angle_gamma   90.00000000
_symmetry_Int_Tables_number   1
_chemical_formula_structural   Tb8Y12CoNi(Bi4Ru)2
_chemical_formula_sum   'Tb8 Y12 Co1 Ni1 Bi8 Ru2'
_cell_volume   900.26726806
_cell_formula_units_Z   1
loop_
 _symmetry_equiv_pos_site_id
 _symmetry_equiv_pos_as_xyz
  1  'x, y, z'
loop_
 _atom_site_type_symbol
 _atom_site_label
 _atom_site_symmetry_multiplicity
 _atom_site_fract_x
 _atom_site_fract_y
 _atom_site_fract_z
 _atom_site_occupancy
  Tb  Tb0  1  0.676549  0.039410  0.564780  1
  Tb  Tb1  1  0.322483  0.958202  0.435478  1
  Tb  Tb2  1  0.176732  0.958587  0.936120  1
  Tb  Tb3  1  0.322483  0.541798  0.435478  1
  Tb  Tb4  1  0.825074  0.036557  0.062728  1
  Tb  Tb5  1  0.676549  0.460590  0.564780  1
  Tb  Tb6  1  0.825074  0.463443  0.062728  1
  Tb  Tb7  1  0.176732  0.541413  0.936120  1
  Y  Y8  1  0.845089  0.750000  0.798172  1
  Y  Y9  1  0.155277  0.250000  0.205410  1
  Y  Y10  1  0.342424  0.250000  0.706175  1
  Y  Y11  1  0.655530  0.750000  0.294642  1
  Y  Y12  1  0.376272  0.750000  0.695234  1
  Y  Y13  1  0.622473  0.250000  0.306204  1
  Y  Y14  1  0.876346  0.250000  0.804459  1
  Y  Y15  1  0.119372  0.750000  0.191222  1
  Y  Y16  1  0.950077  0.750000  0.503044  1
  Y  Y17  1  0.049918  0.250000  0.497738  1
  Y  Y18  1  0.449826  0.250000  0.997861  1
  Y  Y19  1  0.551861  0.750000  0.002438  1
  Co  Co20  1  0.931565  0.750000  0.009604  1
  Ni  Ni21  1  0.428616  0.250000  0.489067  1
  Bi  Bi22  1  0.571205  0.491385  0.827236  1
  Bi  Bi23  1  0.429050  0.508675  0.173017  1
  Bi  Bi24  1  0.071180  0.508338  0.673310  1
  Bi  Bi25  1  0.429050  0.991325  0.173017  1
  Bi  Bi26  1  0.929266  0.491605  0.326679  1
  Bi  Bi27  1  0.571205  0.008615  0.827236  1
  Bi  Bi28  1  0.929266  0.008395  0.326679  1
  Bi  Bi29  1  0.071180  0.991662  0.673310  1
  Ru  Ru30  1  0.571031  0.750000  0.511497  1
  Ru  Ru31  1  0.071247  0.250000  0.988537  1
