# generated using pymatgen
data_TbDyReB8Mo
_symmetry_space_group_name_H-M   'P 1'
_cell_length_a   3.62417000
_cell_length_b   6.00869226
_cell_length_c   11.62444616
_cell_angle_alpha   90.04657366
_cell_angle_beta   90.00000000
_cell_angle_gamma   90.00000000
_symmetry_Int_Tables_number   1
_chemical_formula_structural   TbDyReB8Mo
_chemical_formula_sum   'Tb2 Dy2 Re2 B16 Mo2'
_cell_volume   253.13992667
_cell_formula_units_Z   2
loop_
 _symmetry_equiv_pos_site_id
 _symmetry_equiv_pos_as_xyz
  1  'x, y, z'
loop_
 _atom_site_type_symbol
 _atom_site_label
 _atom_site_symmetry_multiplicity
 _atom_site_fract_x
 _atom_site_fract_y
 _atom_site_fract_z
 _atom_site_occupancy
  Tb  Tb0  1  0.000000  0.627453  0.350514  1
  Tb  Tb1  1  0.000000  0.372547  0.649486  1
  Dy  Dy2  1  0.000000  0.126624  0.150719  1
  Dy  Dy3  1  0.000000  0.873376  0.849281  1
  Re  Re4  1  0.000000  0.134075  0.413171  1
  Re  Re5  1  0.000000  0.865925  0.586829  1
  B  B6  1  0.500000  0.788918  0.186330  1
  B  B7  1  0.500000  0.211082  0.813670  1
  B  B8  1  0.500000  0.284915  0.315709  1
  B  B9  1  0.500000  0.715085  0.684291  1
  B  B10  1  0.500000  0.866968  0.032303  1
  B  B11  1  0.500000  0.133032  0.967697  1
  B  B12  1  0.500000  0.362740  0.468953  1
  B  B13  1  0.500000  0.637260  0.531047  1
  B  B14  1  0.500000  0.886985  0.452897  1
  B  B15  1  0.500000  0.113015  0.547103  1
  B  B16  1  0.500000  0.385153  0.047519  1
  B  B17  1  0.500000  0.614847  0.952481  1
  B  B18  1  0.500000  0.977431  0.308668  1
  B  B19  1  0.500000  0.022569  0.691332  1
  B  B20  1  0.500000  0.475763  0.193973  1
  B  B21  1  0.500000  0.524237  0.806027  1
  Mo  Mo22  1  0.000000  0.629023  0.084573  1
  Mo  Mo23  1  0.000000  0.370977  0.915427  1
