# generated using pymatgen
data_La5Nd(ZnSb3)4
_symmetry_space_group_name_H-M   'P 1'
_cell_length_a   4.32874100
_cell_length_b   10.58085501
_cell_length_c   13.51559101
_cell_angle_alpha   89.99535149
_cell_angle_beta   90.00000000
_cell_angle_gamma   90.00000000
_symmetry_Int_Tables_number   1
_chemical_formula_structural   La5Nd(ZnSb3)4
_chemical_formula_sum   'La5 Nd1 Zn4 Sb12'
_cell_volume   619.03813607
_cell_formula_units_Z   1
loop_
 _symmetry_equiv_pos_site_id
 _symmetry_equiv_pos_as_xyz
  1  'x, y, z'
loop_
 _atom_site_type_symbol
 _atom_site_label
 _atom_site_symmetry_multiplicity
 _atom_site_fract_x
 _atom_site_fract_y
 _atom_site_fract_z
 _atom_site_occupancy
  La  La0  1  0.750000  0.248990  0.749332  1
  La  La1  1  0.250000  0.739490  0.911417  1
  La  La2  1  0.250000  0.739096  0.587993  1
  La  La3  1  0.250000  0.750273  0.250435  1
  La  La4  1  0.750000  0.260463  0.089519  1
  Nd  Nd5  1  0.750000  0.263629  0.410580  1
  Zn  Zn6  1  0.250000  0.002861  0.093075  1
  Zn  Zn7  1  0.250000  0.002769  0.408036  1
  Zn  Zn8  1  0.750000  0.997950  0.591085  1
  Zn  Zn9  1  0.750000  0.997677  0.907820  1
  Sb  Sb10  1  0.750000  0.502690  0.250366  1
  Sb  Sb11  1  0.750000  0.492193  0.916681  1
  Sb  Sb12  1  0.750000  0.842486  0.749712  1
  Sb  Sb13  1  0.750000  0.843067  0.420184  1
  Sb  Sb14  1  0.250000  0.155766  0.920719  1
  Sb  Sb15  1  0.250000  0.157112  0.577787  1
  Sb  Sb16  1  0.250000  0.159223  0.252210  1
  Sb  Sb17  1  0.250000  0.507032  0.083394  1
  Sb  Sb18  1  0.250000  0.495675  0.749914  1
  Sb  Sb19  1  0.250000  0.505553  0.416635  1
  Sb  Sb20  1  0.750000  0.491186  0.583018  1
  Sb  Sb21  1  0.750000  0.844819  0.080087  1
