# generated using pymatgen
data_MnZn7(NiRh)4
_symmetry_space_group_name_H-M   'P 1'
_cell_length_a   5.84941949
_cell_length_b   5.85263549
_cell_length_c   6.08915700
_cell_angle_alpha   90.00074787
_cell_angle_beta   89.99933818
_cell_angle_gamma   89.95300614
_symmetry_Int_Tables_number   1
_chemical_formula_structural   MnZn7(NiRh)4
_chemical_formula_sum   'Mn1 Zn7 Ni4 Rh4'
_cell_volume   208.45929774
_cell_formula_units_Z   1
loop_
 _symmetry_equiv_pos_site_id
 _symmetry_equiv_pos_as_xyz
  1  'x, y, z'
loop_
 _atom_site_type_symbol
 _atom_site_label
 _atom_site_symmetry_multiplicity
 _atom_site_fract_x
 _atom_site_fract_y
 _atom_site_fract_z
 _atom_site_occupancy
  Mn  Mn0  1  0.500007  0.500051  0.248888  1
  Zn  Zn1  1  0.500000  0.000005  0.248835  1
  Zn  Zn2  1  0.000012  0.500004  0.251221  1
  Zn  Zn3  1  0.000002  0.999993  0.251197  1
  Zn  Zn4  1  0.999999  0.500002  0.748795  1
  Zn  Zn5  1  0.999985  0.000001  0.748775  1
  Zn  Zn6  1  0.500004  0.499991  0.751204  1
  Zn  Zn7  1  0.500010  0.000005  0.751144  1
  Ni  Ni8  1  0.750384  0.250708  0.000764  1
  Ni  Ni9  1  0.249633  0.749283  0.000761  1
  Ni  Ni10  1  0.748265  0.250678  0.499217  1
  Ni  Ni11  1  0.251743  0.749321  0.499250  1
  Rh  Rh12  1  0.248795  0.250023  0.000634  1
  Rh  Rh13  1  0.751189  0.749957  0.000655  1
  Rh  Rh14  1  0.251219  0.250004  0.499335  1
  Rh  Rh15  1  0.748751  0.749968  0.499329  1
