# generated using pymatgen
data_HfUP2
_symmetry_space_group_name_H-M   'P 1'
_cell_length_a   6.66189433
_cell_length_b   6.66189477
_cell_length_c   6.66189450
_cell_angle_alpha   33.06321232
_cell_angle_beta   33.06320892
_cell_angle_gamma   33.06321200
_symmetry_Int_Tables_number   1
_chemical_formula_structural   HfUP2
_chemical_formula_sum   'Hf1 U1 P2'
_cell_volume   78.32078507
_cell_formula_units_Z   1
loop_
 _symmetry_equiv_pos_site_id
 _symmetry_equiv_pos_as_xyz
  1  'x, y, z'
loop_
 _atom_site_type_symbol
 _atom_site_label
 _atom_site_symmetry_multiplicity
 _atom_site_fract_x
 _atom_site_fract_y
 _atom_site_fract_z
 _atom_site_occupancy
  Hf  Hf0  1  0.000000  0.000000  0.000000  1
  U  U1  1  0.500000  0.500000  0.500000  1
  P  P2  1  0.255420  0.255420  0.255420  1
  P  P3  1  0.744580  0.744580  0.744580  1
