# generated using pymatgen
data_YbHo6FeBr12
_symmetry_space_group_name_H-M   'P 1'
_cell_length_a   9.20356185
_cell_length_b   9.20356361
_cell_length_c   9.20356269
_cell_angle_alpha   106.86665936
_cell_angle_beta   106.86666868
_cell_angle_gamma   106.86666433
_symmetry_Int_Tables_number   1
_chemical_formula_structural   YbHo6FeBr12
_chemical_formula_sum   'Yb1 Ho6 Fe1 Br12'
_cell_volume   651.59958079
_cell_formula_units_Z   1
loop_
 _symmetry_equiv_pos_site_id
 _symmetry_equiv_pos_as_xyz
  1  'x, y, z'
loop_
 _atom_site_type_symbol
 _atom_site_label
 _atom_site_symmetry_multiplicity
 _atom_site_fract_x
 _atom_site_fract_y
 _atom_site_fract_z
 _atom_site_occupancy
  Yb  Yb0  1  0.000000  0.000000  0.000000  1
  Ho  Ho1  1  0.401824  0.477403  0.198117  1
  Ho  Ho2  1  0.198117  0.401824  0.477403  1
  Ho  Ho3  1  0.477403  0.198117  0.401824  1
  Ho  Ho4  1  0.598176  0.522597  0.801883  1
  Ho  Ho5  1  0.801883  0.598176  0.522597  1
  Ho  Ho6  1  0.522597  0.801883  0.598176  1
  Fe  Fe7  1  0.500000  0.500000  0.500000  1
  Br  Br8  1  0.048215  0.344477  0.125136  1
  Br  Br9  1  0.125136  0.048215  0.344477  1
  Br  Br10  1  0.344477  0.125136  0.048215  1
  Br  Br11  1  0.951785  0.655523  0.874864  1
  Br  Br12  1  0.874864  0.951785  0.655523  1
  Br  Br13  1  0.655523  0.874864  0.951785  1
  Br  Br14  1  0.720739  0.572597  0.181320  1
  Br  Br15  1  0.181320  0.720739  0.572597  1
  Br  Br16  1  0.572597  0.181320  0.720739  1
  Br  Br17  1  0.279261  0.427403  0.818680  1
  Br  Br18  1  0.818680  0.279261  0.427403  1
  Br  Br19  1  0.427403  0.818680  0.279261  1
