# generated using pymatgen
data_Ta2GaRh5
_symmetry_space_group_name_H-M   'P 1'
_cell_length_a   4.03646200
_cell_length_b   5.50683200
_cell_length_c   10.80648100
_cell_angle_alpha   90.00000000
_cell_angle_beta   90.00000000
_cell_angle_gamma   90.00000000
_symmetry_Int_Tables_number   1
_chemical_formula_structural   Ta2GaRh5
_chemical_formula_sum   'Ta4 Ga2 Rh10'
_cell_volume   240.20773600
_cell_formula_units_Z   2
loop_
 _symmetry_equiv_pos_site_id
 _symmetry_equiv_pos_as_xyz
  1  'x, y, z'
loop_
 _atom_site_type_symbol
 _atom_site_label
 _atom_site_symmetry_multiplicity
 _atom_site_fract_x
 _atom_site_fract_y
 _atom_site_fract_z
 _atom_site_occupancy
  Ta  Ta0  1  0.500000  0.313720  0.360272  1
  Ta  Ta1  1  0.500000  0.686280  0.639728  1
  Ta  Ta2  1  0.500000  0.186280  0.860272  1
  Ta  Ta3  1  0.500000  0.813720  0.139728  1
  Ga  Ga4  1  0.000000  0.000000  0.500000  1
  Ga  Ga5  1  0.000000  0.500000  0.000000  1
  Rh  Rh6  1  0.500000  0.300623  0.110651  1
  Rh  Rh7  1  0.500000  0.699377  0.889349  1
  Rh  Rh8  1  0.500000  0.800623  0.389349  1
  Rh  Rh9  1  0.500000  0.199377  0.610651  1
  Rh  Rh10  1  0.000000  0.936620  0.744593  1
  Rh  Rh11  1  0.000000  0.063380  0.255407  1
  Rh  Rh12  1  0.000000  0.436620  0.755407  1
  Rh  Rh13  1  0.000000  0.563380  0.244593  1
  Rh  Rh14  1  0.000000  0.500000  0.500000  1
  Rh  Rh15  1  0.000000  0.000000  0.000000  1
