# generated using pymatgen
data_Tb2Y4Al21Si3Os8
_symmetry_space_group_name_H-M   'P 1'
_cell_length_a   8.72828307
_cell_length_b   8.72828067
_cell_length_c   9.66633800
_cell_angle_alpha   90.00034467
_cell_angle_beta   89.99963246
_cell_angle_gamma   119.98546943
_symmetry_Int_Tables_number   1
_chemical_formula_structural   Tb2Y4Al21Si3Os8
_chemical_formula_sum   'Tb2 Y4 Al21 Si3 Os8'
_cell_volume   637.84286925
_cell_formula_units_Z   1
loop_
 _symmetry_equiv_pos_site_id
 _symmetry_equiv_pos_as_xyz
  1  'x, y, z'
loop_
 _atom_site_type_symbol
 _atom_site_label
 _atom_site_symmetry_multiplicity
 _atom_site_fract_x
 _atom_site_fract_y
 _atom_site_fract_z
 _atom_site_occupancy
  Tb  Tb0  1  0.194361  0.805640  0.247544  1
  Tb  Tb1  1  0.805056  0.194944  0.752853  1
  Y  Y2  1  0.194792  0.389384  0.247504  1
  Y  Y3  1  0.804561  0.609412  0.752855  1
  Y  Y4  1  0.610616  0.805208  0.247504  1
  Y  Y5  1  0.390588  0.195439  0.752855  1
  Al  Al6  1  0.333477  0.666524  0.476695  1
  Al  Al7  1  0.164499  0.328754  0.573759  1
  Al  Al8  1  0.834751  0.669763  0.424123  1
  Al  Al9  1  0.671246  0.835501  0.573759  1
  Al  Al10  1  0.834664  0.669555  0.076313  1
  Al  Al11  1  0.330237  0.165249  0.424123  1
  Al  Al12  1  0.165722  0.331180  0.923283  1
  Al  Al13  1  0.164338  0.835662  0.573714  1
  Al  Al14  1  0.330445  0.165336  0.076313  1
  Al  Al15  1  0.834942  0.165058  0.424154  1
  Al  Al16  1  0.668820  0.834278  0.923283  1
  Al  Al17  1  0.834804  0.165196  0.076293  1
  Al  Al18  1  0.165564  0.834436  0.923325  1
  Al  Al19  1  0.563699  0.127298  0.248728  1
  Al  Al20  1  0.436694  0.873518  0.748709  1
  Al  Al21  1  0.872702  0.436300  0.248728  1
  Al  Al22  1  0.126482  0.563306  0.748710  1
  Al  Al23  1  0.563505  0.436495  0.248756  1
  Al  Al24  1  0.436902  0.563098  0.748676  1
  Al  Al25  1  0.000073  0.999927  0.248742  1
  Al  Al26  1  0.999943  0.000057  0.749442  1
  Si  Si27  1  0.333473  0.666527  0.038521  1
  Si  Si28  1  0.666525  0.333475  0.962659  1
  Si  Si29  1  0.666491  0.333508  0.538765  1
  Os  Os30  1  0.499908  0.999818  0.998904  1
  Os  Os31  1  0.000182  0.500092  0.998904  1
  Os  Os32  1  0.504330  0.008616  0.501464  1
  Os  Os33  1  0.499904  0.500096  0.998916  1
  Os  Os34  1  0.991384  0.495670  0.501464  1
  Os  Os35  1  0.504320  0.495679  0.501495  1
  Os  Os36  1  0.000007  0.999993  0.998964  1
  Os  Os37  1  0.999993  0.000007  0.499190  1
