# generated using pymatgen
data_TmLu2Zr(Al3Ir)6
_symmetry_space_group_name_H-M   'P 1'
_cell_length_a   7.51984178
_cell_length_b   7.51247994
_cell_length_c   9.37317700
_cell_angle_alpha   90.00000000
_cell_angle_beta   90.00000000
_cell_angle_gamma   119.63376210
_symmetry_Int_Tables_number   1
_chemical_formula_structural   TmLu2Zr(Al3Ir)6
_chemical_formula_sum   'Tm1 Lu2 Zr1 Al18 Ir6'
_cell_volume   460.25702126
_cell_formula_units_Z   1
loop_
 _symmetry_equiv_pos_site_id
 _symmetry_equiv_pos_as_xyz
  1  'x, y, z'
loop_
 _atom_site_type_symbol
 _atom_site_label
 _atom_site_symmetry_multiplicity
 _atom_site_fract_x
 _atom_site_fract_y
 _atom_site_fract_z
 _atom_site_occupancy
  Tm  Tm0  1  0.006097  0.327205  0.750000  1
  Lu  Lu1  1  0.671627  0.995700  0.250000  1
  Lu  Lu2  1  0.328265  0.006664  0.750000  1
  Zr  Zr3  1  0.996461  0.672142  0.250000  1
  Al  Al4  1  0.125768  0.123613  0.250000  1
  Al  Al5  1  0.870938  0.869626  0.750000  1
  Al  Al6  1  0.999730  0.337158  0.078787  1
  Al  Al7  1  0.999873  0.665109  0.928129  1
  Al  Al8  1  0.999873  0.665109  0.571871  1
  Al  Al9  1  0.333189  0.998318  0.421358  1
  Al  Al10  1  0.999730  0.337158  0.421213  1
  Al  Al11  1  0.664139  0.998695  0.575260  1
  Al  Al12  1  0.664139  0.998695  0.924740  1
  Al  Al13  1  0.333189  0.998318  0.078642  1
  Al  Al14  1  0.333663  0.333537  0.552529  1
  Al  Al15  1  0.668917  0.667479  0.442494  1
  Al  Al16  1  0.668917  0.667479  0.057506  1
  Al  Al17  1  0.333663  0.333537  0.947471  1
  Al  Al18  1  0.336554  0.550323  0.250000  1
  Al  Al19  1  0.660416  0.451106  0.750000  1
  Al  Al20  1  0.554746  0.343249  0.250000  1
  Al  Al21  1  0.450450  0.659755  0.750000  1
  Ir  Ir22  1  0.672167  0.327282  0.000540  1
  Ir  Ir23  1  0.328090  0.672732  0.001248  1
  Ir  Ir24  1  0.328090  0.672732  0.498752  1
  Ir  Ir25  1  0.672167  0.327282  0.499460  1
  Ir  Ir26  1  0.999569  0.999999  0.000396  1
  Ir  Ir27  1  0.999569  0.999999  0.499604  1
