# generated using pymatgen
data_GaFe(AgBr4)2
_symmetry_space_group_name_H-M   'P 1'
_cell_length_a   7.86296051
_cell_length_b   7.44363893
_cell_length_c   14.86232076
_cell_angle_alpha   89.43225554
_cell_angle_beta   89.69655961
_cell_angle_gamma   90.71121256
_symmetry_Int_Tables_number   1
_chemical_formula_structural   GaFe(AgBr4)2
_chemical_formula_sum   'Ga2 Fe2 Ag4 Br16'
_cell_volume   869.75485943
_cell_formula_units_Z   2
loop_
 _symmetry_equiv_pos_site_id
 _symmetry_equiv_pos_as_xyz
  1  'x, y, z'
loop_
 _atom_site_type_symbol
 _atom_site_label
 _atom_site_symmetry_multiplicity
 _atom_site_fract_x
 _atom_site_fract_y
 _atom_site_fract_z
 _atom_site_occupancy
  Ga  Ga0  1  0.184283  0.704699  0.607189  1
  Ga  Ga1  1  0.815717  0.295301  0.392811  1
  Fe  Fe2  1  0.676036  0.295534  0.895364  1
  Fe  Fe3  1  0.323964  0.704466  0.104636  1
  Ag  Ag4  1  0.448645  0.828438  0.866584  1
  Ag  Ag5  1  0.551355  0.171562  0.133416  1
  Ag  Ag6  1  0.944894  0.175871  0.635107  1
  Ag  Ag7  1  0.055106  0.824129  0.364893  1
  Br  Br8  1  0.185321  0.425927  0.685826  1
  Br  Br9  1  0.814679  0.574073  0.314174  1
  Br  Br10  1  0.677523  0.576867  0.818938  1
  Br  Br11  1  0.322477  0.423133  0.181062  1
  Br  Br12  1  0.335545  0.924074  0.690438  1
  Br  Br13  1  0.664455  0.075926  0.309562  1
  Br  Br14  1  0.832892  0.088636  0.809616  1
  Br  Br15  1  0.167108  0.911364  0.190384  1
  Br  Br16  1  0.191549  0.670055  0.963293  1
  Br  Br17  1  0.808451  0.329945  0.036707  1
  Br  Br18  1  0.687061  0.323836  0.536792  1
  Br  Br19  1  0.312939  0.676164  0.463208  1
  Br  Br20  1  0.903750  0.813992  0.585707  1
  Br  Br21  1  0.096250  0.186008  0.414293  1
  Br  Br22  1  0.394214  0.181806  0.914756  1
  Br  Br23  1  0.605786  0.818194  0.085244  1
