# generated using pymatgen
data_Tb5TiRhO12
_symmetry_space_group_name_H-M   'P 1'
_cell_length_a   6.84034236
_cell_length_b   6.84034187
_cell_length_c   7.39703662
_cell_angle_alpha   74.24474056
_cell_angle_beta   74.24474034
_cell_angle_gamma   50.69231278
_symmetry_Int_Tables_number   1
_chemical_formula_structural   Tb5TiRhO12
_chemical_formula_sum   'Tb5 Ti1 Rh1 O12'
_cell_volume   255.43070649
_cell_formula_units_Z   1
loop_
 _symmetry_equiv_pos_site_id
 _symmetry_equiv_pos_as_xyz
  1  'x, y, z'
loop_
 _atom_site_type_symbol
 _atom_site_label
 _atom_site_symmetry_multiplicity
 _atom_site_fract_x
 _atom_site_fract_y
 _atom_site_fract_z
 _atom_site_occupancy
  Tb  Tb0  1  0.684886  0.693917  0.671521  1
  Tb  Tb1  1  0.698609  0.692781  0.140839  1
  Tb  Tb2  1  0.002083  0.997917  0.000000  1
  Tb  Tb3  1  0.307219  0.301391  0.859161  1
  Tb  Tb4  1  0.306083  0.315114  0.328479  1
  Ti  Ti5  1  0.774531  0.225469  0.500000  1
  Rh  Rh6  1  0.246135  0.753865  0.500000  1
  O  O7  1  0.402408  0.904228  0.926496  1
  O  O8  1  0.572302  0.100262  0.581628  1
  O  O9  1  0.899738  0.427698  0.418372  1
  O  O10  1  0.095772  0.597592  0.073504  1
  O  O11  1  0.997258  0.002399  0.311062  1
  O  O12  1  0.501923  0.497905  0.684214  1
  O  O13  1  0.902222  0.406382  0.923124  1
  O  O14  1  0.094843  0.579328  0.583038  1
  O  O15  1  0.420672  0.905157  0.416962  1
  O  O16  1  0.593618  0.097778  0.076876  1
  O  O17  1  0.502095  0.498077  0.315786  1
  O  O18  1  0.997601  0.002742  0.688938  1
