# generated using pymatgen
data_Ho3Tm(SeO3)6
_symmetry_space_group_name_H-M   'P 1'
_cell_length_a   7.07098967
_cell_length_b   8.10627992
_cell_length_c   9.05110907
_cell_angle_alpha   71.55763639
_cell_angle_beta   70.08598001
_cell_angle_gamma   66.07493457
_symmetry_Int_Tables_number   1
_chemical_formula_structural   Ho3Tm(SeO3)6
_chemical_formula_sum   'Ho3 Tm1 Se6 O18'
_cell_volume   436.17820218
_cell_formula_units_Z   1
loop_
 _symmetry_equiv_pos_site_id
 _symmetry_equiv_pos_as_xyz
  1  'x, y, z'
loop_
 _atom_site_type_symbol
 _atom_site_label
 _atom_site_symmetry_multiplicity
 _atom_site_fract_x
 _atom_site_fract_y
 _atom_site_fract_z
 _atom_site_occupancy
  Ho  Ho0  1  0.333743  0.728270  0.590230  1
  Ho  Ho1  1  0.665842  0.272289  0.409617  1
  Ho  Ho2  1  0.742169  0.735265  0.797740  1
  Tm  Tm3  1  0.257769  0.264303  0.202491  1
  Se  Se4  1  0.113843  0.241989  0.584378  1
  Se  Se5  1  0.426874  0.776929  0.197449  1
  Se  Se6  1  0.147202  0.749329  0.966638  1
  Se  Se7  1  0.853147  0.247747  0.035262  1
  Se  Se8  1  0.572077  0.225000  0.803171  1
  Se  Se9  1  0.886786  0.758301  0.413847  1
  O  O10  1  0.157931  0.013810  0.654651  1
  O  O11  1  0.168179  0.563254  0.121048  1
  O  O12  1  0.033614  0.705114  0.554611  1
  O  O13  1  0.344494  0.253150  0.433643  1
  O  O14  1  0.067123  0.694505  0.831773  1
  O  O15  1  0.591607  0.287535  0.151142  1
  O  O16  1  0.349217  0.208950  0.951232  1
  O  O17  1  0.358841  0.946701  0.304144  1
  O  O18  1  0.516355  0.595384  0.351326  1
  O  O19  1  0.482303  0.406244  0.649123  1
  O  O20  1  0.639319  0.056696  0.695097  1
  O  O21  1  0.650960  0.791959  0.050975  1
  O  O22  1  0.407628  0.712082  0.849765  1
  O  O23  1  0.934298  0.304400  0.168675  1
  O  O24  1  0.655610  0.746868  0.563683  1
  O  O25  1  0.967826  0.294693  0.443244  1
  O  O26  1  0.833320  0.432564  0.879748  1
  O  O27  1  0.841928  0.986668  0.345296  1
