# generated using pymatgen
data_Tb8Hf7Zr5Si15As
_symmetry_space_group_name_H-M   'P 1'
_cell_length_a   7.31942700
_cell_length_b   7.32934564
_cell_length_c   13.46491714
_cell_angle_alpha   89.78581208
_cell_angle_beta   89.98309166
_cell_angle_gamma   89.93980350
_symmetry_Int_Tables_number   1
_chemical_formula_structural   Tb8Hf7Zr5Si15As
_chemical_formula_sum   'Tb8 Hf7 Zr5 Si15 As1'
_cell_volume   722.34168741
_cell_formula_units_Z   1
loop_
 _symmetry_equiv_pos_site_id
 _symmetry_equiv_pos_as_xyz
  1  'x, y, z'
loop_
 _atom_site_type_symbol
 _atom_site_label
 _atom_site_symmetry_multiplicity
 _atom_site_fract_x
 _atom_site_fract_y
 _atom_site_fract_z
 _atom_site_occupancy
  Tb  Tb0  1  0.996159  0.345367  0.214671  1
  Tb  Tb1  1  0.004623  0.656004  0.715271  1
  Tb  Tb2  1  0.152950  0.499588  0.466435  1
  Tb  Tb3  1  0.506467  0.842615  0.033872  1
  Tb  Tb4  1  0.844389  0.503252  0.964689  1
  Tb  Tb5  1  0.496390  0.154850  0.535895  1
  Tb  Tb6  1  0.345041  0.996224  0.785395  1
  Tb  Tb7  1  0.653944  0.004037  0.284380  1
  Hf  Hf8  1  0.851040  0.004347  0.874892  1
  Hf  Hf9  1  0.503845  0.649589  0.625078  1
  Hf  Hf10  1  0.351364  0.495778  0.875302  1
  Hf  Hf11  1  0.494591  0.348459  0.125028  1
  Hf  Hf12  1  0.652687  0.506861  0.376585  1
  Hf  Hf13  1  0.996024  0.149734  0.625641  1
  Hf  Hf14  1  0.001553  0.848173  0.123991  1
  Zr  Zr15  1  0.174683  0.175171  0.999980  1
  Zr  Zr16  1  0.825827  0.826200  0.500223  1
  Zr  Zr17  1  0.325233  0.677029  0.249663  1
  Zr  Zr18  1  0.674637  0.325394  0.750126  1
  Zr  Zr19  1  0.149210  0.996142  0.373201  1
  Si  Si20  1  0.637036  0.706088  0.816711  1
  Si  Si21  1  0.205391  0.863669  0.566796  1
  Si  Si22  1  0.136772  0.793843  0.932418  1
  Si  Si23  1  0.794097  0.137603  0.067141  1
  Si  Si24  1  0.861963  0.206285  0.433228  1
  Si  Si25  1  0.294618  0.362757  0.683008  1
  Si  Si26  1  0.704223  0.635468  0.183684  1
  Si  Si27  1  0.293892  0.039796  0.179992  1
  Si  Si28  1  0.705577  0.950412  0.686527  1
  Si  Si29  1  0.451324  0.795010  0.436842  1
  Si  Si30  1  0.204793  0.548659  0.063694  1
  Si  Si31  1  0.549806  0.204885  0.936499  1
  Si  Si32  1  0.794394  0.450401  0.564365  1
  Si  Si33  1  0.049981  0.294993  0.813532  1
  Si  Si34  1  0.950330  0.704525  0.313561  1
  As  As35  1  0.365148  0.300790  0.321682  1
