# generated using pymatgen
data_Nd3Th5Zn8(RuRh)4
_symmetry_space_group_name_H-M   'P 1'
_cell_length_a   3.91930100
_cell_length_b   7.53979531
_cell_length_c   16.50101563
_cell_angle_alpha   90.26446452
_cell_angle_beta   90.00000000
_cell_angle_gamma   90.00000000
_symmetry_Int_Tables_number   1
_chemical_formula_structural   Nd3Th5Zn8(RuRh)4
_chemical_formula_sum   'Nd3 Th5 Zn8 Ru4 Rh4'
_cell_volume   487.61181888
_cell_formula_units_Z   1
loop_
 _symmetry_equiv_pos_site_id
 _symmetry_equiv_pos_as_xyz
  1  'x, y, z'
loop_
 _atom_site_type_symbol
 _atom_site_label
 _atom_site_symmetry_multiplicity
 _atom_site_fract_x
 _atom_site_fract_y
 _atom_site_fract_z
 _atom_site_occupancy
  Nd  Nd0  1  0.750000  0.447869  0.215110  1
  Nd  Nd1  1  0.250000  0.054941  0.712898  1
  Nd  Nd2  1  0.250000  0.555071  0.786517  1
  Th  Th3  1  0.250000  0.170077  0.938793  1
  Th  Th4  1  0.250000  0.668073  0.560939  1
  Th  Th5  1  0.750000  0.318966  0.438137  1
  Th  Th6  1  0.750000  0.948725  0.283021  1
  Th  Th7  1  0.750000  0.825148  0.061426  1
  Zn  Zn8  1  0.750000  0.007201  0.559810  1
  Zn  Zn9  1  0.250000  0.614039  0.345821  1
  Zn  Zn10  1  0.750000  0.380637  0.653846  1
  Zn  Zn11  1  0.250000  0.498270  0.059614  1
  Zn  Zn12  1  0.750000  0.507816  0.939733  1
  Zn  Zn13  1  0.250000  0.992865  0.443402  1
  Zn  Zn14  1  0.250000  0.124712  0.151714  1
  Zn  Zn15  1  0.750000  0.880171  0.846012  1
  Ru  Ru16  1  0.250000  0.230066  0.317883  1
  Ru  Ru17  1  0.250000  0.261022  0.559338  1
  Ru  Ru18  1  0.250000  0.761096  0.186692  1
  Ru  Ru19  1  0.250000  0.760811  0.942014  1
  Rh  Rh20  1  0.750000  0.741965  0.438865  1
  Rh  Rh21  1  0.750000  0.251644  0.819808  1
  Rh  Rh22  1  0.750000  0.752029  0.679718  1
  Rh  Rh23  1  0.750000  0.246785  0.058889  1
