# generated using pymatgen
data_Ho3Mg2ZrIr3
_symmetry_space_group_name_H-M   'P 1'
_cell_length_a   7.31736323
_cell_length_b   7.17177895
_cell_length_c   4.19958600
_cell_angle_alpha   90.00000000
_cell_angle_beta   90.00000000
_cell_angle_gamma   119.34399427
_symmetry_Int_Tables_number   1
_chemical_formula_structural   Ho3Mg2ZrIr3
_chemical_formula_sum   'Ho3 Mg2 Zr1 Ir3'
_cell_volume   192.11075067
_cell_formula_units_Z   1
loop_
 _symmetry_equiv_pos_site_id
 _symmetry_equiv_pos_as_xyz
  1  'x, y, z'
loop_
 _atom_site_type_symbol
 _atom_site_label
 _atom_site_symmetry_multiplicity
 _atom_site_fract_x
 _atom_site_fract_y
 _atom_site_fract_z
 _atom_site_occupancy
  Ho  Ho0  1  0.580845  0.587004  0.000000  1
  Ho  Ho1  1  0.419155  0.006159  0.000000  1
  Ho  Ho2  1  0.000000  0.395897  0.000000  1
  Mg  Mg3  1  0.250269  0.249858  0.500000  1
  Mg  Mg4  1  0.749731  0.999589  0.500000  1
  Zr  Zr5  1  0.000000  0.752701  0.500000  1
  Ir  Ir6  1  0.000000  0.982813  0.000000  1
  Ir  Ir7  1  0.675292  0.350636  0.500000  1
  Ir  Ir8  1  0.324708  0.675344  0.500000  1
