# generated using pymatgen
data_Y2Ho4CrB14Os
_symmetry_space_group_name_H-M   'P 1'
_cell_length_a   8.04252322
_cell_length_b   8.04252254
_cell_length_c   9.32700100
_cell_angle_alpha   90.00000000
_cell_angle_beta   90.00000000
_cell_angle_gamma   155.02233905
_symmetry_Int_Tables_number   1
_chemical_formula_structural   Y2Ho4CrB14Os
_chemical_formula_sum   'Y2 Ho4 Cr1 B14 Os1'
_cell_volume   254.74847021
_cell_formula_units_Z   1
loop_
 _symmetry_equiv_pos_site_id
 _symmetry_equiv_pos_as_xyz
  1  'x, y, z'
loop_
 _atom_site_type_symbol
 _atom_site_label
 _atom_site_symmetry_multiplicity
 _atom_site_fract_x
 _atom_site_fract_y
 _atom_site_fract_z
 _atom_site_occupancy
  Y  Y0  1  0.757289  0.242711  0.250000  1
  Y  Y1  1  0.244879  0.755121  0.750000  1
  Ho  Ho2  1  0.105312  0.894688  0.061336  1
  Ho  Ho3  1  0.894650  0.105350  0.941605  1
  Ho  Ho4  1  0.105312  0.894688  0.438664  1
  Ho  Ho5  1  0.894650  0.105350  0.558395  1
  Cr  Cr6  1  0.947469  0.052531  0.250000  1
  B  B7  1  0.726774  0.273226  0.533836  1
  B  B8  1  0.272252  0.727748  0.466687  1
  B  B9  1  0.272252  0.727748  0.033313  1
  B  B10  1  0.726774  0.273226  0.966164  1
  B  B11  1  0.520477  0.479523  0.904725  1
  B  B12  1  0.478961  0.521039  0.096191  1
  B  B13  1  0.478961  0.521039  0.403809  1
  B  B14  1  0.520477  0.479523  0.595275  1
  B  B15  1  0.456674  0.543326  0.750000  1
  B  B16  1  0.541987  0.458013  0.250000  1
  B  B17  1  0.631551  0.368449  0.649746  1
  B  B18  1  0.368962  0.631038  0.348365  1
  B  B19  1  0.368962  0.631038  0.151635  1
  B  B20  1  0.631551  0.368449  0.850254  1
  Os  Os21  1  0.053826  0.946174  0.750000  1
