# generated using pymatgen
data_Tb3Ce2Dy3(ReB6)4
_symmetry_space_group_name_H-M   'P 1'
_cell_length_a   3.71330200
_cell_length_b   9.20363269
_cell_length_c   11.58435006
_cell_angle_alpha   90.13575246
_cell_angle_beta   90.00000000
_cell_angle_gamma   90.00000000
_symmetry_Int_Tables_number   1
_chemical_formula_structural   Tb3Ce2Dy3(ReB6)4
_chemical_formula_sum   'Tb3 Ce2 Dy3 Re4 B24'
_cell_volume   395.90410361
_cell_formula_units_Z   1
loop_
 _symmetry_equiv_pos_site_id
 _symmetry_equiv_pos_as_xyz
  1  'x, y, z'
loop_
 _atom_site_type_symbol
 _atom_site_label
 _atom_site_symmetry_multiplicity
 _atom_site_fract_x
 _atom_site_fract_y
 _atom_site_fract_z
 _atom_site_occupancy
  Tb  Tb0  1  0.000000  0.824290  0.085540  1
  Tb  Tb1  1  0.000000  0.175703  0.914365  1
  Tb  Tb2  1  0.000000  0.943547  0.370502  1
  Ce  Ce3  1  0.000000  0.322513  0.413710  1
  Ce  Ce4  1  0.000000  0.677491  0.586397  1
  Dy  Dy5  1  0.000000  0.056525  0.629747  1
  Dy  Dy6  1  0.000000  0.443065  0.128729  1
  Dy  Dy7  1  0.000000  0.556931  0.871222  1
  Re  Re8  1  0.000000  0.637377  0.322016  1
  Re  Re9  1  0.000000  0.362333  0.677991  1
  Re  Re10  1  0.000000  0.139568  0.179673  1
  Re  Re11  1  0.000000  0.860613  0.820169  1
  B  B12  1  0.500000  0.554208  0.431502  1
  B  B13  1  0.500000  0.445694  0.568537  1
  B  B14  1  0.500000  0.053710  0.066989  1
  B  B15  1  0.500000  0.946315  0.932929  1
  B  B16  1  0.500000  0.748593  0.417399  1
  B  B17  1  0.500000  0.251088  0.582613  1
  B  B18  1  0.500000  0.248399  0.081006  1
  B  B19  1  0.500000  0.751639  0.918970  1
  B  B20  1  0.500000  0.791482  0.265275  1
  B  B21  1  0.500000  0.208249  0.734646  1
  B  B22  1  0.500000  0.291121  0.233346  1
  B  B23  1  0.500000  0.708997  0.766622  1
  B  B24  1  0.500000  0.631284  0.185412  1
  B  B25  1  0.500000  0.368628  0.814528  1
  B  B26  1  0.500000  0.131572  0.313005  1
  B  B27  1  0.500000  0.868672  0.686866  1
  B  B28  1  0.500000  0.983400  0.211367  1
  B  B29  1  0.500000  0.016760  0.788420  1
  B  B30  1  0.500000  0.483939  0.286894  1
  B  B31  1  0.500000  0.516015  0.713083  1
  B  B32  1  0.500000  0.602039  0.028502  1
  B  B33  1  0.500000  0.397962  0.971482  1
  B  B34  1  0.500000  0.103812  0.471396  1
  B  B35  1  0.500000  0.896466  0.529150  1
