# generated using pymatgen
data_Y3LuCo8(PRu)12
_symmetry_space_group_name_H-M   'P 1'
_cell_length_a   3.78500900
_cell_length_b   10.60871689
_cell_length_c   12.10663201
_cell_angle_alpha   90.04691112
_cell_angle_beta   90.00000000
_cell_angle_gamma   90.00000000
_symmetry_Int_Tables_number   1
_chemical_formula_structural   Y3LuCo8(PRu)12
_chemical_formula_sum   'Y3 Lu1 Co8 P12 Ru12'
_cell_volume   486.13061529
_cell_formula_units_Z   1
loop_
 _symmetry_equiv_pos_site_id
 _symmetry_equiv_pos_as_xyz
  1  'x, y, z'
loop_
 _atom_site_type_symbol
 _atom_site_label
 _atom_site_symmetry_multiplicity
 _atom_site_fract_x
 _atom_site_fract_y
 _atom_site_fract_z
 _atom_site_occupancy
  Y  Y0  1  0.750000  0.084261  0.793423  1
  Y  Y1  1  0.750000  0.415645  0.293242  1
  Y  Y2  1  0.250000  0.584477  0.706776  1
  Lu  Lu3  1  0.250000  0.915367  0.206365  1
  Co  Co4  1  0.250000  0.612898  0.195864  1
  Co  Co5  1  0.750000  0.387728  0.804609  1
  Co  Co6  1  0.750000  0.111130  0.303258  1
  Co  Co7  1  0.250000  0.887624  0.695175  1
  Co  Co8  1  0.250000  0.036679  0.433792  1
  Co  Co9  1  0.750000  0.962813  0.564079  1
  Co  Co10  1  0.750000  0.537702  0.065301  1
  Co  Co11  1  0.250000  0.462838  0.935270  1
  P  P12  1  0.250000  0.074229  0.612051  1
  P  P13  1  0.750000  0.926024  0.385542  1
  P  P14  1  0.750000  0.574560  0.887656  1
  P  P15  1  0.250000  0.425687  0.112830  1
  P  P16  1  0.250000  0.228209  0.371927  1
  P  P17  1  0.750000  0.772107  0.628080  1
  P  P18  1  0.750000  0.729322  0.128913  1
  P  P19  1  0.250000  0.271699  0.872185  1
  P  P20  1  0.250000  0.898378  0.887044  1
  P  P21  1  0.750000  0.100173  0.113892  1
  P  P22  1  0.750000  0.398506  0.612926  1
  P  P23  1  0.250000  0.601473  0.387043  1
  Ru  Ru24  1  0.250000  0.793786  0.485993  1
  Ru  Ru25  1  0.750000  0.205880  0.513544  1
  Ru  Ru26  1  0.750000  0.293324  0.014257  1
  Ru  Ru27  1  0.250000  0.706466  0.986384  1
  Ru  Ru28  1  0.250000  0.093902  0.986759  1
  Ru  Ru29  1  0.750000  0.905375  0.015979  1
  Ru  Ru30  1  0.750000  0.594794  0.513434  1
  Ru  Ru31  1  0.250000  0.405321  0.486324  1
  Ru  Ru32  1  0.250000  0.275913  0.680621  1
  Ru  Ru33  1  0.750000  0.725481  0.318979  1
  Ru  Ru34  1  0.750000  0.776791  0.819778  1
  Ru  Ru35  1  0.250000  0.223439  0.180703  1
