# generated using pymatgen
data_Dy5As10P2Ir6Ru13
_symmetry_space_group_name_H-M   'P 1'
_cell_length_a   12.96258727
_cell_length_b   12.93404298
_cell_length_c   4.03473000
_cell_angle_alpha   90.00000000
_cell_angle_beta   90.00000000
_cell_angle_gamma   119.84129117
_symmetry_Int_Tables_number   1
_chemical_formula_structural   Dy5As10P2Ir6Ru13
_chemical_formula_sum   'Dy5 As10 P2 Ir6 Ru13'
_cell_volume   586.76395991
_cell_formula_units_Z   1
loop_
 _symmetry_equiv_pos_site_id
 _symmetry_equiv_pos_as_xyz
  1  'x, y, z'
loop_
 _atom_site_type_symbol
 _atom_site_label
 _atom_site_symmetry_multiplicity
 _atom_site_fract_x
 _atom_site_fract_y
 _atom_site_fract_z
 _atom_site_occupancy
  Dy  Dy0  1  0.667771  0.334143  0.000000  1
  Dy  Dy1  1  0.333155  0.665836  0.000000  1
  Dy  Dy2  1  0.816336  0.000836  0.500000  1
  Dy  Dy3  1  0.182602  0.186561  0.500000  1
  Dy  Dy4  1  0.997044  0.813824  0.500000  1
  As  As5  1  0.632936  0.002634  0.000000  1
  As  As6  1  0.370840  0.369845  0.000000  1
  As  As7  1  0.000132  0.629479  0.000000  1
  As  As8  1  0.685510  0.518426  0.500000  1
  As  As9  1  0.832809  0.312186  0.500000  1
  As  As10  1  0.316979  0.833595  0.500000  1
  As  As11  1  0.518174  0.682910  0.500000  1
  As  As12  1  0.175096  0.000841  0.000000  1
  As  As13  1  0.483387  0.166425  0.500000  1
  As  As14  1  0.166028  0.481636  0.500000  1
  P  P15  1  0.816980  0.818828  0.000000  1
  P  P16  1  0.996006  0.182590  0.000000  1
  Ir  Ir17  1  0.630619  0.808881  0.000000  1
  Ir  Ir18  1  0.178799  0.367163  0.000000  1
  Ir  Ir19  1  0.373972  0.180967  0.000000  1
  Ir  Ir20  1  0.191210  0.819068  0.000000  1
  Ir  Ir21  1  0.810500  0.632844  0.000000  1
  Ir  Ir22  1  0.989253  0.000625  0.000000  1
  Ru  Ru23  1  0.873736  0.514489  0.500000  1
  Ru  Ru24  1  0.486471  0.358942  0.500000  1
  Ru  Ru25  1  0.640917  0.123259  0.500000  1
  Ru  Ru26  1  0.127485  0.642293  0.500000  1
  Ru  Ru27  1  0.357283  0.483666  0.500000  1
  Ru  Ru28  1  0.516175  0.871950  0.500000  1
  Ru  Ru29  1  0.723574  0.723365  0.500000  1
  Ru  Ru30  1  0.002137  0.277802  0.500000  1
  Ru  Ru31  1  0.442653  0.997233  0.000000  1
  Ru  Ru32  1  0.556752  0.556737  0.000000  1
  Ru  Ru33  1  0.002753  0.444172  0.000000  1
  Ru  Ru34  1  0.822671  0.195625  0.000000  1
  Ru  Ru35  1  0.281255  0.000325  0.500000  1
