# generated using pymatgen
data_Cs5Cu(TcH9)3
_symmetry_space_group_name_H-M   'P 1'
_cell_length_a   10.00287994
_cell_length_b   10.00287922
_cell_length_c   6.59982600
_cell_angle_alpha   90.00000000
_cell_angle_beta   90.00000000
_cell_angle_gamma   120.88784894
_symmetry_Int_Tables_number   1
_chemical_formula_structural   Cs5Cu(TcH9)3
_chemical_formula_sum   'Cs5 Cu1 Tc3 H27'
_cell_volume   566.70600771
_cell_formula_units_Z   1
loop_
 _symmetry_equiv_pos_site_id
 _symmetry_equiv_pos_as_xyz
  1  'x, y, z'
loop_
 _atom_site_type_symbol
 _atom_site_label
 _atom_site_symmetry_multiplicity
 _atom_site_fract_x
 _atom_site_fract_y
 _atom_site_fract_z
 _atom_site_occupancy
  Cs  Cs0  1  0.228681  0.979568  0.500000  1
  Cs  Cs1  1  0.979568  0.228681  0.500000  1
  Cs  Cs2  1  0.587611  0.965053  0.000000  1
  Cs  Cs3  1  0.965053  0.587611  0.000000  1
  Cs  Cs4  1  0.407291  0.407291  0.000000  1
  Cu  Cu5  1  0.543434  0.543434  0.500000  1
  Tc  Tc6  1  0.003281  0.003281  0.000000  1
  Tc  Tc7  1  0.365813  0.663397  0.500000  1
  Tc  Tc8  1  0.663397  0.365813  0.500000  1
  H  H9  1  0.879482  0.992021  0.180826  1
  H  H10  1  0.992021  0.879482  0.180826  1
  H  H11  1  0.879482  0.992021  0.819174  1
  H  H12  1  0.992021  0.879482  0.819174  1
  H  H13  1  0.126708  0.126708  0.181224  1
  H  H14  1  0.126708  0.126708  0.818776  1
  H  H15  1  0.167323  0.995420  0.000000  1
  H  H16  1  0.995420  0.167323  0.000000  1
  H  H17  1  0.835664  0.835664  0.000000  1
  H  H18  1  0.272530  0.569381  0.288655  1
  H  H19  1  0.506600  0.670626  0.337521  1
  H  H20  1  0.272530  0.569381  0.711345  1
  H  H21  1  0.569381  0.272530  0.711345  1
  H  H22  1  0.347776  0.782935  0.338126  1
  H  H23  1  0.506600  0.670626  0.662479  1
  H  H24  1  0.670626  0.506600  0.662479  1
  H  H25  1  0.569381  0.272530  0.288655  1
  H  H26  1  0.347776  0.782935  0.661874  1
  H  H27  1  0.670626  0.506600  0.337521  1
  H  H28  1  0.782935  0.347776  0.661874  1
  H  H29  1  0.782935  0.347776  0.338126  1
  H  H30  1  0.330431  0.475944  0.500000  1
  H  H31  1  0.522990  0.840905  0.500000  1
  H  H32  1  0.475944  0.330431  0.500000  1
  H  H33  1  0.177859  0.613214  0.500000  1
  H  H34  1  0.840905  0.522990  0.500000  1
  H  H35  1  0.613214  0.177859  0.500000  1
