# generated using pymatgen
data_Nd20Co4Sn3Bi5
_symmetry_space_group_name_H-M   'P 1'
_cell_length_a   8.32988393
_cell_length_b   9.11316563
_cell_length_c   12.72987729
_cell_angle_alpha   90.14947690
_cell_angle_beta   90.16583522
_cell_angle_gamma   90.01625000
_symmetry_Int_Tables_number   1
_chemical_formula_structural   Nd20Co4Sn3Bi5
_chemical_formula_sum   'Nd20 Co4 Sn3 Bi5'
_cell_volume   966.33812742
_cell_formula_units_Z   1
loop_
 _symmetry_equiv_pos_site_id
 _symmetry_equiv_pos_as_xyz
  1  'x, y, z'
loop_
 _atom_site_type_symbol
 _atom_site_label
 _atom_site_symmetry_multiplicity
 _atom_site_fract_x
 _atom_site_fract_y
 _atom_site_fract_z
 _atom_site_occupancy
  Nd  Nd0  1  0.849010  0.744394  0.798307  1
  Nd  Nd1  1  0.152196  0.253313  0.200333  1
  Nd  Nd2  1  0.348807  0.255269  0.702653  1
  Nd  Nd3  1  0.647538  0.747885  0.299024  1
  Nd  Nd4  1  0.378335  0.744463  0.690969  1
  Nd  Nd5  1  0.617534  0.252892  0.308754  1
  Nd  Nd6  1  0.877913  0.255136  0.808373  1
  Nd  Nd7  1  0.125054  0.747087  0.190037  1
  Nd  Nd8  1  0.952450  0.747290  0.505539  1
  Nd  Nd9  1  0.051450  0.252934  0.498349  1
  Nd  Nd10  1  0.451977  0.256038  0.995980  1
  Nd  Nd11  1  0.548996  0.743595  0.004004  1
  Nd  Nd12  1  0.679520  0.031212  0.564731  1
  Nd  Nd13  1  0.319807  0.969312  0.435481  1
  Nd  Nd14  1  0.179769  0.969508  0.935534  1
  Nd  Nd15  1  0.322169  0.531072  0.432787  1
  Nd  Nd16  1  0.820641  0.030082  0.064042  1
  Nd  Nd17  1  0.680837  0.469092  0.570251  1
  Nd  Nd18  1  0.817116  0.468642  0.063093  1
  Nd  Nd19  1  0.181077  0.531641  0.932827  1
  Co  Co20  1  0.567341  0.750532  0.507376  1
  Co  Co21  1  0.432377  0.249513  0.492760  1
  Co  Co22  1  0.065763  0.249213  0.992171  1
  Co  Co23  1  0.935021  0.751053  0.007637  1
  Sn  Sn24  1  0.572198  0.494776  0.827086  1
  Sn  Sn25  1  0.427859  0.505189  0.173159  1
  Sn  Sn26  1  0.072276  0.505313  0.672510  1
  Bi  Bi27  1  0.426053  0.994451  0.172865  1
  Bi  Bi28  1  0.925399  0.494009  0.325808  1
  Bi  Bi29  1  0.573729  0.004969  0.826527  1
  Bi  Bi30  1  0.926242  0.005898  0.325960  1
  Bi  Bi31  1  0.073546  0.994227  0.675072  1
