# generated using pymatgen
data_Sm8Sc11Si16Au
_symmetry_space_group_name_H-M   'P 1'
_cell_length_a   7.10656290
_cell_length_b   7.48073630
_cell_length_c   14.16249600
_cell_angle_alpha   90.00000000
_cell_angle_beta   90.00000000
_cell_angle_gamma   89.79123715
_symmetry_Int_Tables_number   1
_chemical_formula_structural   Sm8Sc11Si16Au
_chemical_formula_sum   'Sm8 Sc11 Si16 Au1'
_cell_volume   752.90619008
_cell_formula_units_Z   1
loop_
 _symmetry_equiv_pos_site_id
 _symmetry_equiv_pos_as_xyz
  1  'x, y, z'
loop_
 _atom_site_type_symbol
 _atom_site_label
 _atom_site_symmetry_multiplicity
 _atom_site_fract_x
 _atom_site_fract_y
 _atom_site_fract_z
 _atom_site_occupancy
  Sm  Sm0  1  0.011133  0.172791  0.096925  1
  Sm  Sm1  1  0.991773  0.815802  0.899295  1
  Sm  Sm2  1  0.482028  0.672783  0.899023  1
  Sm  Sm3  1  0.991773  0.815802  0.600705  1
  Sm  Sm4  1  0.511617  0.324707  0.097041  1
  Sm  Sm5  1  0.011133  0.172791  0.403075  1
  Sm  Sm6  1  0.511617  0.324707  0.402959  1
  Sm  Sm7  1  0.482028  0.672783  0.600977  1
  Sc  Sc8  1  0.839360  0.499122  0.250000  1
  Sc  Sc9  1  0.340085  0.000963  0.250000  1
  Sc  Sc10  1  0.657967  0.001749  0.750000  1
  Sc  Sc11  1  0.325920  0.184400  0.626401  1
  Sc  Sc12  1  0.671285  0.823404  0.375491  1
  Sc  Sc13  1  0.171416  0.678071  0.374149  1
  Sc  Sc14  1  0.671285  0.823404  0.124509  1
  Sc  Sc15  1  0.835740  0.327886  0.626334  1
  Sc  Sc16  1  0.325920  0.184400  0.873599  1
  Sc  Sc17  1  0.835740  0.327886  0.873666  1
  Sc  Sc18  1  0.171416  0.678071  0.125851  1
  Si  Si19  1  0.029200  0.105406  0.750000  1
  Si  Si20  1  0.968112  0.881611  0.250000  1
  Si  Si21  1  0.467378  0.621960  0.250000  1
  Si  Si22  1  0.539352  0.380844  0.750000  1
  Si  Si23  1  0.290736  0.896080  0.750000  1
  Si  Si24  1  0.712093  0.121656  0.250000  1
  Si  Si25  1  0.211710  0.377036  0.250000  1
  Si  Si26  1  0.778469  0.622651  0.750000  1
  Si  Si27  1  0.157155  0.458867  0.531234  1
  Si  Si28  1  0.845854  0.536393  0.461849  1
  Si  Si29  1  0.347406  0.964113  0.462908  1
  Si  Si30  1  0.845854  0.536393  0.038151  1
  Si  Si31  1  0.655420  0.033959  0.540827  1
  Si  Si32  1  0.157155  0.458867  0.968766  1
  Si  Si33  1  0.655420  0.033959  0.959173  1
  Si  Si34  1  0.347406  0.964113  0.037092  1
  Au  Au35  1  0.152045  0.504571  0.750000  1
