# generated using pymatgen
data_Tm3(Th2Au5)2
_symmetry_space_group_name_H-M   'P 1'
_cell_length_a   8.87423970
_cell_length_b   8.87428120
_cell_length_c   10.49145000
_cell_angle_alpha   90.00023243
_cell_angle_beta   89.99991607
_cell_angle_gamma   107.67301150
_symmetry_Int_Tables_number   1
_chemical_formula_structural   Tm3(Th2Au5)2
_chemical_formula_sum   'Tm6 Th8 Au20'
_cell_volume   787.23373351
_cell_formula_units_Z   2
loop_
 _symmetry_equiv_pos_site_id
 _symmetry_equiv_pos_as_xyz
  1  'x, y, z'
loop_
 _atom_site_type_symbol
 _atom_site_label
 _atom_site_symmetry_multiplicity
 _atom_site_fract_x
 _atom_site_fract_y
 _atom_site_fract_z
 _atom_site_occupancy
  Tm  Tm0  1  0.504580  0.004580  0.250001  1
  Tm  Tm1  1  0.995420  0.495420  0.750001  1
  Tm  Tm2  1  0.000000  0.000000  0.000000  1
  Tm  Tm3  1  0.004580  0.504580  0.249999  1
  Tm  Tm4  1  0.495420  0.995420  0.749999  1
  Tm  Tm5  1  0.500000  0.500000  0.500000  1
  Th  Th6  1  0.695550  0.304451  0.000000  1
  Th  Th7  1  0.195549  0.804450  0.500000  1
  Th  Th8  1  0.807568  0.807569  0.303687  1
  Th  Th9  1  0.307568  0.307568  0.196313  1
  Th  Th10  1  0.804451  0.195550  0.500000  1
  Th  Th11  1  0.304450  0.695549  0.000000  1
  Th  Th12  1  0.692432  0.692432  0.803687  1
  Th  Th13  1  0.192432  0.192431  0.696313  1
  Au  Au14  1  0.148641  0.439099  0.496428  1
  Au  Au15  1  0.898383  0.898381  0.598453  1
  Au  Au16  1  0.560902  0.851361  0.503573  1
  Au  Au17  1  0.863088  0.152764  0.206749  1
  Au  Au18  1  0.363088  0.652764  0.293251  1
  Au  Au19  1  0.652766  0.363088  0.293253  1
  Au  Au20  1  0.398383  0.398381  0.901547  1
  Au  Au21  1  0.939098  0.648639  0.003573  1
  Au  Au22  1  0.347234  0.636912  0.706747  1
  Au  Au23  1  0.351360  0.060901  0.996428  1
  Au  Au24  1  0.601617  0.601619  0.098453  1
  Au  Au25  1  0.648640  0.939099  0.003572  1
  Au  Au26  1  0.101617  0.101619  0.401547  1
  Au  Au27  1  0.636912  0.347236  0.706749  1
  Au  Au28  1  0.136912  0.847236  0.793251  1
  Au  Au29  1  0.060902  0.351361  0.996427  1
  Au  Au30  1  0.851359  0.560901  0.503572  1
  Au  Au31  1  0.152765  0.863088  0.206747  1
  Au  Au32  1  0.439098  0.148639  0.496427  1
  Au  Au33  1  0.847235  0.136912  0.793253  1
