# generated using pymatgen
data_Sm8Sn(Pd7Pt5)2
_symmetry_space_group_name_H-M   'P 1'
_cell_length_a   8.51142300
_cell_length_b   8.51235100
_cell_length_c   8.51676500
_cell_angle_alpha   90.00000000
_cell_angle_beta   90.00000000
_cell_angle_gamma   89.99947499
_symmetry_Int_Tables_number   1
_chemical_formula_structural   Sm8Sn(Pd7Pt5)2
_chemical_formula_sum   'Sm8 Sn1 Pd14 Pt10'
_cell_volume   617.05853220
_cell_formula_units_Z   1
loop_
 _symmetry_equiv_pos_site_id
 _symmetry_equiv_pos_as_xyz
  1  'x, y, z'
loop_
 _atom_site_type_symbol
 _atom_site_label
 _atom_site_symmetry_multiplicity
 _atom_site_fract_x
 _atom_site_fract_y
 _atom_site_fract_z
 _atom_site_occupancy
  Sm  Sm0  1  0.252345  0.252330  0.252395  1
  Sm  Sm1  1  0.747898  0.746632  0.747075  1
  Sm  Sm2  1  0.747898  0.746632  0.252925  1
  Sm  Sm3  1  0.747380  0.253423  0.746737  1
  Sm  Sm4  1  0.252345  0.252330  0.747605  1
  Sm  Sm5  1  0.251821  0.747683  0.251985  1
  Sm  Sm6  1  0.251821  0.747683  0.748015  1
  Sm  Sm7  1  0.747380  0.253423  0.253263  1
  Sn  Sn8  1  0.002784  0.000275  0.000000  1
  Pd  Pd9  1  0.500327  0.000129  0.266711  1
  Pd  Pd10  1  0.266411  0.000200  0.500000  1
  Pd  Pd11  1  0.500327  0.000129  0.733289  1
  Pd  Pd12  1  0.732560  0.000230  0.500000  1
  Pd  Pd13  1  0.000130  0.500015  0.265961  1
  Pd  Pd14  1  0.000130  0.500015  0.734039  1
  Pd  Pd15  1  0.499871  0.744364  0.500000  1
  Pd  Pd16  1  0.499754  0.500106  0.255318  1
  Pd  Pd17  1  0.499754  0.500106  0.744682  1
  Pd  Pd18  1  0.690775  0.999912  0.000000  1
  Pd  Pd19  1  0.999050  0.312074  0.000000  1
  Pd  Pd20  1  0.999020  0.688326  0.000000  1
  Pd  Pd21  1  0.999178  0.999866  0.311519  1
  Pd  Pd22  1  0.999178  0.999866  0.688481  1
  Pt  Pt23  1  0.265184  0.500101  0.000000  1
  Pt  Pt24  1  0.733058  0.500090  0.000000  1
  Pt  Pt25  1  0.000161  0.265345  0.500000  1
  Pt  Pt26  1  0.499685  0.265254  0.000000  1
  Pt  Pt27  1  0.000195  0.734228  0.500000  1
  Pt  Pt28  1  0.499753  0.734598  0.000000  1
  Pt  Pt29  1  0.254329  0.499815  0.500000  1
  Pt  Pt30  1  0.746037  0.499890  0.500000  1
  Pt  Pt31  1  0.499868  0.255068  0.500000  1
  Pt  Pt32  1  0.313592  0.999866  0.000000  1
