# generated using pymatgen
data_Er2ZnB2Ir2Rh3
_symmetry_space_group_name_H-M   'P 1'
_cell_length_a   9.51132075
_cell_length_b   9.53015474
_cell_length_c   3.17312200
_cell_angle_alpha   90.00000000
_cell_angle_beta   90.00000000
_cell_angle_gamma   89.91301577
_symmetry_Int_Tables_number   1
_chemical_formula_structural   Er2ZnB2Ir2Rh3
_chemical_formula_sum   'Er4 Zn2 B4 Ir4 Rh6'
_cell_volume   287.62527664
_cell_formula_units_Z   2
loop_
 _symmetry_equiv_pos_site_id
 _symmetry_equiv_pos_as_xyz
  1  'x, y, z'
loop_
 _atom_site_type_symbol
 _atom_site_label
 _atom_site_symmetry_multiplicity
 _atom_site_fract_x
 _atom_site_fract_y
 _atom_site_fract_z
 _atom_site_occupancy
  Er  Er0  1  0.322229  0.823277  0.000000  1
  Er  Er1  1  0.677771  0.176723  0.000000  1
  Er  Er2  1  0.177371  0.322142  0.000000  1
  Er  Er3  1  0.822629  0.677858  0.000000  1
  Zn  Zn4  1  0.500000  0.500000  0.000000  1
  Zn  Zn5  1  0.000000  0.000000  0.000000  1
  B  B6  1  0.124591  0.621061  0.000000  1
  B  B7  1  0.875409  0.378939  0.000000  1
  B  B8  1  0.378018  0.122212  0.000000  1
  B  B9  1  0.621982  0.877788  0.000000  1
  Ir  Ir10  1  0.280187  0.569069  0.500000  1
  Ir  Ir11  1  0.719813  0.430931  0.500000  1
  Ir  Ir12  1  0.000000  0.500000  0.500000  1
  Ir  Ir13  1  0.500000  0.000000  0.500000  1
  Rh  Rh14  1  0.568921  0.720315  0.500000  1
  Rh  Rh15  1  0.431079  0.279685  0.500000  1
  Rh  Rh16  1  0.931455  0.219319  0.500000  1
  Rh  Rh17  1  0.068545  0.780681  0.500000  1
  Rh  Rh18  1  0.779993  0.930105  0.500000  1
  Rh  Rh19  1  0.220007  0.069895  0.500000  1
