# generated using pymatgen
data_Dy2Tm3(GaSi)2
_symmetry_space_group_name_H-M   'P 1'
_cell_length_a   7.39146600
_cell_length_b   7.67410000
_cell_length_c   14.79190900
_cell_angle_alpha   90.00000000
_cell_angle_beta   90.00000000
_cell_angle_gamma   90.00000000
_symmetry_Int_Tables_number   1
_chemical_formula_structural   Dy2Tm3(GaSi)2
_chemical_formula_sum   'Dy8 Tm12 Ga8 Si8'
_cell_volume   839.03922404
_cell_formula_units_Z   4
loop_
 _symmetry_equiv_pos_site_id
 _symmetry_equiv_pos_as_xyz
  1  'x, y, z'
loop_
 _atom_site_type_symbol
 _atom_site_label
 _atom_site_symmetry_multiplicity
 _atom_site_fract_x
 _atom_site_fract_y
 _atom_site_fract_z
 _atom_site_occupancy
  Dy  Dy0  1  0.013092  0.178009  0.099902  1
  Dy  Dy1  1  0.986908  0.821991  0.900098  1
  Dy  Dy2  1  0.486908  0.678009  0.900098  1
  Dy  Dy3  1  0.986908  0.821991  0.599902  1
  Dy  Dy4  1  0.513092  0.321991  0.099902  1
  Dy  Dy5  1  0.013092  0.178009  0.400098  1
  Dy  Dy6  1  0.513092  0.321991  0.400098  1
  Dy  Dy7  1  0.486908  0.678009  0.599902  1
  Tm  Tm8  1  0.164120  0.507715  0.750000  1
  Tm  Tm9  1  0.835880  0.492285  0.250000  1
  Tm  Tm10  1  0.335880  0.007715  0.250000  1
  Tm  Tm11  1  0.664120  0.992285  0.750000  1
  Tm  Tm12  1  0.329571  0.174252  0.623404  1
  Tm  Tm13  1  0.670429  0.825748  0.376596  1
  Tm  Tm14  1  0.170429  0.674252  0.376596  1
  Tm  Tm15  1  0.670429  0.825748  0.123404  1
  Tm  Tm16  1  0.829571  0.325748  0.623404  1
  Tm  Tm17  1  0.329571  0.174252  0.876596  1
  Tm  Tm18  1  0.829571  0.325748  0.876596  1
  Tm  Tm19  1  0.170429  0.674252  0.123404  1
  Ga  Ga20  1  0.159929  0.467146  0.539652  1
  Ga  Ga21  1  0.840071  0.532854  0.460348  1
  Ga  Ga22  1  0.340071  0.967146  0.460348  1
  Ga  Ga23  1  0.840071  0.532854  0.039652  1
  Ga  Ga24  1  0.659929  0.032854  0.539652  1
  Ga  Ga25  1  0.159929  0.467146  0.960348  1
  Ga  Ga26  1  0.659929  0.032854  0.960348  1
  Ga  Ga27  1  0.340071  0.967146  0.039652  1
  Si  Si28  1  0.034341  0.106578  0.750000  1
  Si  Si29  1  0.965659  0.893422  0.250000  1
  Si  Si30  1  0.465659  0.606578  0.250000  1
  Si  Si31  1  0.534341  0.393422  0.750000  1
  Si  Si32  1  0.279260  0.874613  0.750000  1
  Si  Si33  1  0.720740  0.125387  0.250000  1
  Si  Si34  1  0.220740  0.374613  0.250000  1
  Si  Si35  1  0.779260  0.625387  0.750000  1
