# generated using pymatgen
data_Tb2Mn3Fe6Co3P7
_symmetry_space_group_name_H-M   'P 1'
_cell_length_a   9.04230700
_cell_length_b   9.04230799
_cell_length_c   3.61798800
_cell_angle_alpha   90.00000000
_cell_angle_beta   90.00000000
_cell_angle_gamma   119.99999273
_symmetry_Int_Tables_number   1
_chemical_formula_structural   Tb2Mn3Fe6Co3P7
_chemical_formula_sum   'Tb2 Mn3 Fe6 Co3 P7'
_cell_volume   256.18655215
_cell_formula_units_Z   1
loop_
 _symmetry_equiv_pos_site_id
 _symmetry_equiv_pos_as_xyz
  1  'x, y, z'
loop_
 _atom_site_type_symbol
 _atom_site_label
 _atom_site_symmetry_multiplicity
 _atom_site_fract_x
 _atom_site_fract_y
 _atom_site_fract_z
 _atom_site_occupancy
  Tb  Tb0  1  0.666667  0.333333  0.000000  1
  Tb  Tb1  1  0.333333  0.666667  0.500000  1
  Mn  Mn2  1  0.101645  0.883436  0.500000  1
  Mn  Mn3  1  0.781790  0.898355  0.500000  1
  Mn  Mn4  1  0.116564  0.218210  0.500000  1
  Fe  Fe5  1  0.056379  0.629225  0.000000  1
  Fe  Fe6  1  0.572846  0.943621  0.000000  1
  Fe  Fe7  1  0.370775  0.427154  0.000000  1
  Fe  Fe8  1  0.274457  0.118791  0.000000  1
  Fe  Fe9  1  0.844333  0.725543  0.000000  1
  Fe  Fe10  1  0.881209  0.155667  0.000000  1
  Co  Co11  1  0.436451  0.052399  0.500000  1
  Co  Co12  1  0.615949  0.563549  0.500000  1
  Co  Co13  1  0.947601  0.384051  0.500000  1
  P  P14  1  0.300075  0.887668  0.000000  1
  P  P15  1  0.587594  0.699925  0.000000  1
  P  P16  1  0.112332  0.412406  0.000000  1
  P  P17  1  0.403460  0.289874  0.500000  1
  P  P18  1  0.886414  0.596540  0.500000  1
  P  P19  1  0.710126  0.113586  0.500000  1
  P  P20  1  0.000000  0.000000  0.000000  1
