# generated using pymatgen
data_Pr2Eu(Co3P2)3
_symmetry_space_group_name_H-M   'P 1'
_cell_length_a   3.78808100
_cell_length_b   10.64359300
_cell_length_c   12.37338000
_cell_angle_alpha   90.00000000
_cell_angle_beta   90.00000000
_cell_angle_gamma   90.00000000
_symmetry_Int_Tables_number   1
_chemical_formula_structural   Pr2Eu(Co3P2)3
_chemical_formula_sum   'Pr4 Eu2 Co18 P12'
_cell_volume   498.87973969
_cell_formula_units_Z   2
loop_
 _symmetry_equiv_pos_site_id
 _symmetry_equiv_pos_as_xyz
  1  'x, y, z'
loop_
 _atom_site_type_symbol
 _atom_site_label
 _atom_site_symmetry_multiplicity
 _atom_site_fract_x
 _atom_site_fract_y
 _atom_site_fract_z
 _atom_site_occupancy
  Pr  Pr0  1  0.000000  0.500000  0.520905  1
  Pr  Pr1  1  0.500000  0.000000  0.477931  1
  Pr  Pr2  1  0.000000  0.682933  0.794547  1
  Pr  Pr3  1  0.000000  0.317067  0.794547  1
  Eu  Eu4  1  0.500000  0.819508  0.205584  1
  Eu  Eu5  1  0.500000  0.180492  0.205584  1
  Co  Co6  1  0.500000  0.500000  0.154927  1
  Co  Co7  1  0.000000  0.000000  0.844252  1
  Co  Co8  1  0.500000  0.500000  0.704169  1
  Co  Co9  1  0.000000  0.000000  0.296358  1
  Co  Co10  1  0.000000  0.500000  0.990364  1
  Co  Co11  1  0.500000  0.000000  0.013283  1
  Co  Co12  1  0.500000  0.332744  0.997009  1
  Co  Co13  1  0.500000  0.667256  0.997009  1
  Co  Co14  1  0.000000  0.166119  0.004810  1
  Co  Co15  1  0.000000  0.833881  0.004810  1
  Co  Co16  1  0.500000  0.297005  0.428801  1
  Co  Co17  1  0.500000  0.702995  0.428801  1
  Co  Co18  1  0.000000  0.202604  0.568781  1
  Co  Co19  1  0.000000  0.797396  0.568781  1
  Co  Co20  1  0.500000  0.882037  0.711469  1
  Co  Co21  1  0.500000  0.117963  0.711469  1
  Co  Co22  1  0.000000  0.618386  0.287956  1
  Co  Co23  1  0.000000  0.381614  0.287956  1
  P  P24  1  0.500000  0.500000  0.889013  1
  P  P25  1  0.000000  0.000000  0.114511  1
  P  P26  1  0.500000  0.500000  0.336281  1
  P  P27  1  0.000000  0.000000  0.662193  1
  P  P28  1  0.500000  0.303942  0.612913  1
  P  P29  1  0.500000  0.696058  0.612913  1
  P  P30  1  0.000000  0.195721  0.383458  1
  P  P31  1  0.000000  0.804279  0.383458  1
  P  P32  1  0.500000  0.849061  0.896968  1
  P  P33  1  0.500000  0.150939  0.896968  1
  P  P34  1  0.000000  0.654161  0.105610  1
  P  P35  1  0.000000  0.345839  0.105610  1
