# generated using pymatgen
data_Dy2Si2NiRu
_symmetry_space_group_name_H-M   'P 1'
_cell_length_a   4.24173100
_cell_length_b   6.92427838
_cell_length_c   7.18896236
_cell_angle_alpha   91.48258472
_cell_angle_beta   90.00000000
_cell_angle_gamma   90.00000000
_symmetry_Int_Tables_number   1
_chemical_formula_structural   Dy2Si2NiRu
_chemical_formula_sum   'Dy4 Si4 Ni2 Ru2'
_cell_volume   211.07579901
_cell_formula_units_Z   2
loop_
 _symmetry_equiv_pos_site_id
 _symmetry_equiv_pos_as_xyz
  1  'x, y, z'
loop_
 _atom_site_type_symbol
 _atom_site_label
 _atom_site_symmetry_multiplicity
 _atom_site_fract_x
 _atom_site_fract_y
 _atom_site_fract_z
 _atom_site_occupancy
  Dy  Dy0  1  0.750000  0.010173  0.316486  1
  Dy  Dy1  1  0.250000  0.989827  0.683514  1
  Dy  Dy2  1  0.250000  0.490769  0.798870  1
  Dy  Dy3  1  0.750000  0.509231  0.201130  1
  Si  Si4  1  0.750000  0.695238  0.600425  1
  Si  Si5  1  0.250000  0.304762  0.399575  1
  Si  Si6  1  0.250000  0.800729  0.096867  1
  Si  Si7  1  0.750000  0.199271  0.903133  1
  Ni  Ni8  1  0.250000  0.665165  0.423768  1
  Ni  Ni9  1  0.750000  0.334835  0.576232  1
  Ru  Ru10  1  0.750000  0.843830  0.928992  1
  Ru  Ru11  1  0.250000  0.156170  0.071008  1
