# generated using pymatgen
data_Th3(AlPt)4
_symmetry_space_group_name_H-M   'P 1'
_cell_length_a   8.37944150
_cell_length_b   8.37944191
_cell_length_c   8.37944084
_cell_angle_alpha   150.77376142
_cell_angle_beta   128.55926696
_cell_angle_gamma   60.26279446
_symmetry_Int_Tables_number   1
_chemical_formula_structural   Th3(AlPt)4
_chemical_formula_sum   'Th3 Al4 Pt4'
_cell_volume   222.85890607
_cell_formula_units_Z   1
loop_
 _symmetry_equiv_pos_site_id
 _symmetry_equiv_pos_as_xyz
  1  'x, y, z'
loop_
 _atom_site_type_symbol
 _atom_site_label
 _atom_site_symmetry_multiplicity
 _atom_site_fract_x
 _atom_site_fract_y
 _atom_site_fract_z
 _atom_site_occupancy
  Th  Th0  1  0.500000  0.000000  0.500000  1
  Th  Th1  1  0.880219  0.880219  0.000000  1
  Th  Th2  1  0.119781  0.119781  0.000000  1
  Al  Al3  1  0.484487  0.677518  0.806969  1
  Al  Al4  1  0.870549  0.677518  0.193031  1
  Al  Al5  1  0.129451  0.322482  0.806969  1
  Al  Al6  1  0.515513  0.322482  0.193031  1
  Pt  Pt7  1  0.280704  0.780704  0.500000  1
  Pt  Pt8  1  0.719296  0.219296  0.500000  1
  Pt  Pt9  1  0.789288  0.500000  0.289288  1
  Pt  Pt10  1  0.210712  0.500000  0.710712  1
