# generated using pymatgen
data_Ac17Pr3Pb16
_symmetry_space_group_name_H-M   'P 1'
_cell_length_a   8.88089235
_cell_length_b   8.99457641
_cell_length_c   17.17503700
_cell_angle_alpha   90.00000000
_cell_angle_beta   90.00000000
_cell_angle_gamma   89.90038068
_symmetry_Int_Tables_number   1
_chemical_formula_structural   Ac17Pr3Pb16
_chemical_formula_sum   'Ac17 Pr3 Pb16'
_cell_volume   1371.93755954
_cell_formula_units_Z   1
loop_
 _symmetry_equiv_pos_site_id
 _symmetry_equiv_pos_as_xyz
  1  'x, y, z'
loop_
 _atom_site_type_symbol
 _atom_site_label
 _atom_site_symmetry_multiplicity
 _atom_site_fract_x
 _atom_site_fract_y
 _atom_site_fract_z
 _atom_site_occupancy
  Ac  Ac0  1  0.622562  0.157709  0.617255  1
  Ac  Ac1  1  0.123775  0.341843  0.883041  1
  Ac  Ac2  1  0.376639  0.841953  0.118539  1
  Ac  Ac3  1  0.876775  0.657761  0.381257  1
  Ac  Ac4  1  0.376639  0.841953  0.381461  1
  Ac  Ac5  1  0.876775  0.657761  0.118743  1
  Ac  Ac6  1  0.622562  0.157709  0.882745  1
  Ac  Ac7  1  0.123775  0.341843  0.616959  1
  Ac  Ac8  1  0.468882  0.679053  0.600046  1
  Ac  Ac9  1  0.970151  0.823097  0.899788  1
  Ac  Ac10  1  0.530937  0.322257  0.101426  1
  Ac  Ac11  1  0.030470  0.178592  0.398827  1
  Ac  Ac12  1  0.530937  0.322257  0.398574  1
  Ac  Ac13  1  0.030470  0.178592  0.101173  1
  Ac  Ac14  1  0.468882  0.679053  0.899954  1
  Ac  Ac15  1  0.970151  0.823097  0.600212  1
  Ac  Ac16  1  0.789987  0.499099  0.750000  1
  Pr  Pr17  1  0.288241  0.000316  0.750000  1
  Pr  Pr18  1  0.212444  0.499832  0.250000  1
  Pr  Pr19  1  0.712373  0.000820  0.250000  1
  Pb  Pb20  1  0.718447  0.969985  0.452788  1
  Pb  Pb21  1  0.218569  0.530123  0.047216  1
  Pb  Pb22  1  0.281483  0.029330  0.953091  1
  Pb  Pb23  1  0.781224  0.468192  0.543982  1
  Pb  Pb24  1  0.281483  0.029330  0.546909  1
  Pb  Pb25  1  0.781224  0.468192  0.956018  1
  Pb  Pb26  1  0.718447  0.969985  0.047212  1
  Pb  Pb27  1  0.218569  0.530123  0.452784  1
  Pb  Pb28  1  0.420010  0.374140  0.750000  1
  Pb  Pb29  1  0.929079  0.115269  0.750000  1
  Pb  Pb30  1  0.572616  0.622380  0.250000  1
  Pb  Pb31  1  0.072093  0.878460  0.250000  1
  Pb  Pb32  1  0.658893  0.858955  0.750000  1
  Pb  Pb33  1  0.169208  0.651582  0.750000  1
  Pb  Pb34  1  0.337877  0.149033  0.250000  1
  Pb  Pb35  1  0.837355  0.350324  0.250000  1
