# generated using pymatgen
data_Tb9Nd(In2Pd)4
_symmetry_space_group_name_H-M   'P 1'
_cell_length_a   3.65991500
_cell_length_b   8.20033826
_cell_length_c   18.43601200
_cell_angle_alpha   89.91869223
_cell_angle_beta   90.00000000
_cell_angle_gamma   90.00000000
_symmetry_Int_Tables_number   1
_chemical_formula_structural   Tb9Nd(In2Pd)4
_chemical_formula_sum   'Tb9 Nd1 In8 Pd4'
_cell_volume   553.31100874
_cell_formula_units_Z   1
loop_
 _symmetry_equiv_pos_site_id
 _symmetry_equiv_pos_as_xyz
  1  'x, y, z'
loop_
 _atom_site_type_symbol
 _atom_site_label
 _atom_site_symmetry_multiplicity
 _atom_site_fract_x
 _atom_site_fract_y
 _atom_site_fract_z
 _atom_site_occupancy
  Tb  Tb0  1  0.000000  0.118403  0.416287  1
  Tb  Tb1  1  0.000000  0.881597  0.583713  1
  Tb  Tb2  1  0.000000  0.379285  0.915900  1
  Tb  Tb3  1  0.000000  0.620715  0.084100  1
  Tb  Tb4  1  0.000000  0.242740  0.219833  1
  Tb  Tb5  1  0.000000  0.757260  0.780167  1
  Tb  Tb6  1  0.000000  0.258078  0.718678  1
  Tb  Tb7  1  0.000000  0.741922  0.281322  1
  Tb  Tb8  1  0.000000  0.500000  0.500000  1
  Nd  Nd9  1  0.000000  0.000000  0.000000  1
  In  In10  1  0.500000  0.422557  0.350500  1
  In  In11  1  0.500000  0.577443  0.649500  1
  In  In12  1  0.500000  0.077855  0.847819  1
  In  In13  1  0.500000  0.922145  0.152181  1
  In  In14  1  0.500000  0.297627  0.068723  1
  In  In15  1  0.500000  0.702373  0.931277  1
  In  In16  1  0.500000  0.207055  0.567314  1
  In  In17  1  0.500000  0.792945  0.432686  1
  Pd  Pd18  1  0.500000  0.024388  0.303858  1
  Pd  Pd19  1  0.500000  0.975612  0.696142  1
  Pd  Pd20  1  0.500000  0.475332  0.802986  1
  Pd  Pd21  1  0.500000  0.524668  0.197014  1
