# generated using pymatgen
data_Dy4ErTm7(GaCo2)2
_symmetry_space_group_name_H-M   'P 1'
_cell_length_a   8.17019340
_cell_length_b   8.17770411
_cell_length_c   8.17813196
_cell_angle_alpha   106.87782021
_cell_angle_beta   109.29529440
_cell_angle_gamma   112.31783966
_symmetry_Int_Tables_number   1
_chemical_formula_structural   Dy4ErTm7(GaCo2)2
_chemical_formula_sum   'Dy4 Er1 Tm7 Ga2 Co4'
_cell_volume   419.50930438
_cell_formula_units_Z   1
loop_
 _symmetry_equiv_pos_site_id
 _symmetry_equiv_pos_as_xyz
  1  'x, y, z'
loop_
 _atom_site_type_symbol
 _atom_site_label
 _atom_site_symmetry_multiplicity
 _atom_site_fract_x
 _atom_site_fract_y
 _atom_site_fract_z
 _atom_site_occupancy
  Dy  Dy0  1  0.699028  0.261492  0.960153  1
  Dy  Dy1  1  0.301106  0.738164  0.039723  1
  Dy  Dy2  1  0.699068  0.738921  0.437512  1
  Dy  Dy3  1  0.301083  0.261356  0.562966  1
  Er  Er4  1  0.398501  0.218825  0.179831  1
  Tm  Tm5  1  0.810874  0.137680  0.327288  1
  Tm  Tm6  1  0.810939  0.483685  0.673244  1
  Tm  Tm7  1  0.189362  0.862084  0.672652  1
  Tm  Tm8  1  0.189302  0.516590  0.327219  1
  Tm  Tm9  1  0.601238  0.780982  0.820227  1
  Tm  Tm10  1  0.960895  0.781166  0.179714  1
  Tm  Tm11  1  0.038815  0.218766  0.820049  1
  Ga  Ga12  1  0.500281  0.500382  0.999881  1
  Ga  Ga13  1  0.500035  0.000069  0.499942  1
  Co  Co14  1  0.841332  0.500231  0.341074  1
  Co  Co15  1  0.159135  0.500121  0.659018  1
  Co  Co16  1  0.999556  0.115347  0.115475  1
  Co  Co17  1  0.999449  0.884140  0.884031  1
