# generated using pymatgen
data_Tb2Ho3Bi2Os
_symmetry_space_group_name_H-M   'P 1'
_cell_length_a   7.97267500
_cell_length_b   9.03022200
_cell_length_c   12.50251300
_cell_angle_alpha   90.00000000
_cell_angle_beta   90.00000000
_cell_angle_gamma   90.00000000
_symmetry_Int_Tables_number   1
_chemical_formula_structural   Tb2Ho3Bi2Os
_chemical_formula_sum   'Tb8 Ho12 Bi8 Os4'
_cell_volume   900.11873830
_cell_formula_units_Z   4
loop_
 _symmetry_equiv_pos_site_id
 _symmetry_equiv_pos_as_xyz
  1  'x, y, z'
loop_
 _atom_site_type_symbol
 _atom_site_label
 _atom_site_symmetry_multiplicity
 _atom_site_fract_x
 _atom_site_fract_y
 _atom_site_fract_z
 _atom_site_occupancy
  Tb  Tb0  1  0.839418  0.750000  0.792029  1
  Tb  Tb1  1  0.160582  0.250000  0.207971  1
  Tb  Tb2  1  0.339418  0.250000  0.707971  1
  Tb  Tb3  1  0.660582  0.750000  0.292029  1
  Tb  Tb4  1  0.374789  0.750000  0.690856  1
  Tb  Tb5  1  0.625211  0.250000  0.309144  1
  Tb  Tb6  1  0.874789  0.250000  0.809144  1
  Tb  Tb7  1  0.125211  0.750000  0.190856  1
  Ho  Ho8  1  0.943003  0.750000  0.504438  1
  Ho  Ho9  1  0.056997  0.250000  0.495562  1
  Ho  Ho10  1  0.443003  0.250000  0.995562  1
  Ho  Ho11  1  0.556997  0.750000  0.004438  1
  Ho  Ho12  1  0.673756  0.041702  0.564667  1
  Ho  Ho13  1  0.326244  0.958298  0.435333  1
  Ho  Ho14  1  0.173756  0.958298  0.935333  1
  Ho  Ho15  1  0.326244  0.541702  0.435333  1
  Ho  Ho16  1  0.826244  0.041702  0.064667  1
  Ho  Ho17  1  0.673756  0.458298  0.564667  1
  Ho  Ho18  1  0.826244  0.458298  0.064667  1
  Ho  Ho19  1  0.173756  0.541702  0.935333  1
  Bi  Bi20  1  0.566174  0.493458  0.828205  1
  Bi  Bi21  1  0.433826  0.506542  0.171795  1
  Bi  Bi22  1  0.066174  0.506542  0.671795  1
  Bi  Bi23  1  0.433826  0.993458  0.171795  1
  Bi  Bi24  1  0.933826  0.493458  0.328205  1
  Bi  Bi25  1  0.566174  0.006542  0.828205  1
  Bi  Bi26  1  0.933826  0.006542  0.328205  1
  Bi  Bi27  1  0.066174  0.993458  0.671795  1
  Os  Os28  1  0.575473  0.750000  0.509600  1
  Os  Os29  1  0.424527  0.250000  0.490400  1
  Os  Os30  1  0.075473  0.250000  0.990400  1
  Os  Os31  1  0.924527  0.750000  0.009600  1
