# generated using pymatgen
data_Ce(Tm3Bi2)3
_symmetry_space_group_name_H-M   'P 1'
_cell_length_a   8.17212800
_cell_length_b   9.44871900
_cell_length_c   11.89535800
_cell_angle_alpha   90.00000000
_cell_angle_beta   90.00000000
_cell_angle_gamma   90.00000000
_symmetry_Int_Tables_number   1
_chemical_formula_structural   Ce(Tm3Bi2)3
_chemical_formula_sum   'Ce2 Tm18 Bi12'
_cell_volume   918.51364181
_cell_formula_units_Z   2
loop_
 _symmetry_equiv_pos_site_id
 _symmetry_equiv_pos_as_xyz
  1  'x, y, z'
loop_
 _atom_site_type_symbol
 _atom_site_label
 _atom_site_symmetry_multiplicity
 _atom_site_fract_x
 _atom_site_fract_y
 _atom_site_fract_z
 _atom_site_occupancy
  Ce  Ce0  1  0.684097  0.750000  0.777788  1
  Ce  Ce1  1  0.184097  0.750000  0.722212  1
  Tm  Tm2  1  0.353655  0.750000  0.218811  1
  Tm  Tm3  1  0.853655  0.750000  0.281189  1
  Tm  Tm4  1  0.648482  0.250000  0.783210  1
  Tm  Tm5  1  0.148482  0.250000  0.716790  1
  Tm  Tm6  1  0.692776  0.565533  0.060327  1
  Tm  Tm7  1  0.192776  0.934467  0.439673  1
  Tm  Tm8  1  0.307840  0.065302  0.940725  1
  Tm  Tm9  1  0.807840  0.434698  0.559275  1
  Tm  Tm10  1  0.307840  0.434698  0.940725  1
  Tm  Tm11  1  0.807840  0.065302  0.559275  1
  Tm  Tm12  1  0.692776  0.934467  0.060327  1
  Tm  Tm13  1  0.192776  0.565533  0.439673  1
  Tm  Tm14  1  0.477071  0.250000  0.487545  1
  Tm  Tm15  1  0.977071  0.250000  0.012455  1
  Tm  Tm16  1  0.522666  0.750000  0.511213  1
  Tm  Tm17  1  0.022666  0.750000  0.988787  1
  Tm  Tm18  1  0.312823  0.250000  0.217043  1
  Tm  Tm19  1  0.812823  0.250000  0.282957  1
  Bi  Bi20  1  0.403929  0.750000  0.962112  1
  Bi  Bi21  1  0.903929  0.750000  0.537888  1
  Bi  Bi22  1  0.595392  0.250000  0.042826  1
  Bi  Bi23  1  0.095392  0.250000  0.457174  1
  Bi  Bi24  1  0.565715  0.996599  0.325242  1
  Bi  Bi25  1  0.065715  0.503401  0.174758  1
  Bi  Bi26  1  0.434612  0.491469  0.672949  1
  Bi  Bi27  1  0.934612  0.008531  0.827051  1
  Bi  Bi28  1  0.434612  0.008531  0.672949  1
  Bi  Bi29  1  0.934612  0.491469  0.827051  1
  Bi  Bi30  1  0.565715  0.503401  0.325242  1
  Bi  Bi31  1  0.065715  0.996599  0.174758  1
