# generated using pymatgen
data_DyHoCoSi2Ru
_symmetry_space_group_name_H-M   'P 1'
_cell_length_a   4.27159800
_cell_length_b   7.01171705
_cell_length_c   6.93267612
_cell_angle_alpha   90.12652259
_cell_angle_beta   90.00000000
_cell_angle_gamma   90.00000000
_symmetry_Int_Tables_number   1
_chemical_formula_structural   DyHoCoSi2Ru
_chemical_formula_sum   'Dy2 Ho2 Co2 Si4 Ru2'
_cell_volume   207.64171593
_cell_formula_units_Z   2
loop_
 _symmetry_equiv_pos_site_id
 _symmetry_equiv_pos_as_xyz
  1  'x, y, z'
loop_
 _atom_site_type_symbol
 _atom_site_label
 _atom_site_symmetry_multiplicity
 _atom_site_fract_x
 _atom_site_fract_y
 _atom_site_fract_z
 _atom_site_occupancy
  Dy  Dy0  1  0.250000  0.180153  0.983936  1
  Dy  Dy1  1  0.750000  0.819847  0.016064  1
  Ho  Ho2  1  0.250000  0.305282  0.486091  1
  Ho  Ho3  1  0.750000  0.694718  0.513909  1
  Co  Co4  1  0.250000  0.934431  0.649090  1
  Co  Co5  1  0.750000  0.065569  0.350910  1
  Si  Si6  1  0.250000  0.608441  0.800255  1
  Si  Si7  1  0.750000  0.391559  0.199745  1
  Si  Si8  1  0.250000  0.895782  0.309453  1
  Si  Si9  1  0.750000  0.104218  0.690547  1
  Ru  Ru10  1  0.250000  0.569069  0.153976  1
  Ru  Ru11  1  0.750000  0.430931  0.846024  1
