# generated using pymatgen
data_Er5Tm7Ni4
_symmetry_space_group_name_H-M   'P 1'
_cell_length_a   6.73501402
_cell_length_b   9.44745432
_cell_length_c   6.24325021
_cell_angle_alpha   89.97108178
_cell_angle_beta   90.00642624
_cell_angle_gamma   89.99349191
_symmetry_Int_Tables_number   1
_chemical_formula_structural   Er5Tm7Ni4
_chemical_formula_sum   'Er5 Tm7 Ni4'
_cell_volume   397.25007167
_cell_formula_units_Z   1
loop_
 _symmetry_equiv_pos_site_id
 _symmetry_equiv_pos_as_xyz
  1  'x, y, z'
loop_
 _atom_site_type_symbol
 _atom_site_label
 _atom_site_symmetry_multiplicity
 _atom_site_fract_x
 _atom_site_fract_y
 _atom_site_fract_z
 _atom_site_occupancy
  Er  Er0  1  0.467929  0.749972  0.137263  1
  Er  Er1  1  0.968163  0.749847  0.362801  1
  Er  Er2  1  0.032104  0.250132  0.637019  1
  Er  Er3  1  0.820927  0.934680  0.821121  1
  Er  Er4  1  0.531904  0.250086  0.862941  1
  Tm  Tm5  1  0.179119  0.065565  0.178933  1
  Tm  Tm6  1  0.179089  0.434552  0.178804  1
  Tm  Tm7  1  0.678958  0.065642  0.321282  1
  Tm  Tm8  1  0.679020  0.434558  0.321193  1
  Tm  Tm9  1  0.320936  0.565452  0.678793  1
  Tm  Tm10  1  0.320950  0.934572  0.678642  1
  Tm  Tm11  1  0.820932  0.565265  0.821191  1
  Ni  Ni12  1  0.892180  0.250242  0.054136  1
  Ni  Ni13  1  0.392145  0.249990  0.445952  1
  Ni  Ni14  1  0.607510  0.749747  0.553833  1
  Ni  Ni15  1  0.108136  0.749696  0.946094  1
