# generated using pymatgen
data_LiCe3(NiP)4
_symmetry_space_group_name_H-M   'P 1'
_cell_length_a   3.94017100
_cell_length_b   3.94016886
_cell_length_c   14.47426500
_cell_angle_alpha   90.00000000
_cell_angle_beta   90.00000000
_cell_angle_gamma   120.00000956
_symmetry_Int_Tables_number   1
_chemical_formula_structural   LiCe3(NiP)4
_chemical_formula_sum   'Li1 Ce3 Ni4 P4'
_cell_volume   194.60635312
_cell_formula_units_Z   1
loop_
 _symmetry_equiv_pos_site_id
 _symmetry_equiv_pos_as_xyz
  1  'x, y, z'
loop_
 _atom_site_type_symbol
 _atom_site_label
 _atom_site_symmetry_multiplicity
 _atom_site_fract_x
 _atom_site_fract_y
 _atom_site_fract_z
 _atom_site_occupancy
  Li  Li0  1  0.000000  0.000000  0.500000  1
  Ce  Ce1  1  0.000000  0.000000  0.000000  1
  Ce  Ce2  1  0.000000  0.000000  0.276126  1
  Ce  Ce3  1  0.000000  0.000000  0.723874  1
  Ni  Ni4  1  0.333333  0.666667  0.430312  1
  Ni  Ni5  1  0.666667  0.333333  0.569688  1
  Ni  Ni6  1  0.666667  0.333333  0.861738  1
  Ni  Ni7  1  0.333333  0.666667  0.138262  1
  P  P8  1  0.333333  0.666667  0.863271  1
  P  P9  1  0.666667  0.333333  0.136729  1
  P  P10  1  0.666667  0.333333  0.402485  1
  P  P11  1  0.333333  0.666667  0.597515  1
