# generated using pymatgen
data_Li2Dy5Mo(P3Ir4)4
_symmetry_space_group_name_H-M   'P 1'
_cell_length_a   12.79418900
_cell_length_b   12.68577028
_cell_length_c   3.97940100
_cell_angle_alpha   90.00000000
_cell_angle_beta   90.00000000
_cell_angle_gamma   120.28311777
_symmetry_Int_Tables_number   1
_chemical_formula_structural   Li2Dy5Mo(P3Ir4)4
_chemical_formula_sum   'Li2 Dy5 Mo1 P12 Ir16'
_cell_volume   557.74009617
_cell_formula_units_Z   1
loop_
 _symmetry_equiv_pos_site_id
 _symmetry_equiv_pos_as_xyz
  1  'x, y, z'
loop_
 _atom_site_type_symbol
 _atom_site_label
 _atom_site_symmetry_multiplicity
 _atom_site_fract_x
 _atom_site_fract_y
 _atom_site_fract_z
 _atom_site_occupancy
  Li  Li0  1  0.001082  0.444529  0.500000  1
  Li  Li1  1  0.556553  0.555471  0.500000  1
  Dy  Dy2  1  0.334501  0.668544  0.500000  1
  Dy  Dy3  1  0.665958  0.331456  0.500000  1
  Dy  Dy4  1  0.003444  0.811329  0.000000  1
  Dy  Dy5  1  0.192115  0.188671  0.000000  1
  Dy  Dy6  1  0.811198  0.000000  0.000000  1
  Mo  Mo7  1  0.449370  0.000000  0.500000  1
  P  P8  1  0.998763  0.632825  0.500000  1
  P  P9  1  0.365938  0.367175  0.500000  1
  P  P10  1  0.633678  0.000000  0.500000  1
  P  P11  1  0.514897  0.684839  0.000000  1
  P  P12  1  0.315616  0.833320  0.000000  1
  P  P13  1  0.172068  0.483365  0.000000  1
  P  P14  1  0.482295  0.166680  0.000000  1
  P  P15  1  0.688704  0.516635  0.000000  1
  P  P16  1  0.830058  0.315161  0.000000  1
  P  P17  1  0.998078  0.180040  0.500000  1
  P  P18  1  0.818038  0.819960  0.500000  1
  P  P19  1  0.174486  0.000000  0.500000  1
  Ir  Ir20  1  0.508842  0.868994  0.000000  1
  Ir  Ir21  1  0.138004  0.643753  0.000000  1
  Ir  Ir22  1  0.358040  0.484744  0.000000  1
  Ir  Ir23  1  0.494252  0.356247  0.000000  1
  Ir  Ir24  1  0.873297  0.515256  0.000000  1
  Ir  Ir25  1  0.639849  0.131006  0.000000  1
  Ir  Ir26  1  0.998375  0.279549  0.000000  1
  Ir  Ir27  1  0.718826  0.720451  0.000000  1
  Ir  Ir28  1  0.284525  0.000000  0.000000  1
  Ir  Ir29  1  0.623855  0.805363  0.500000  1
  Ir  Ir30  1  0.190767  0.821401  0.500000  1
  Ir  Ir31  1  0.178266  0.374952  0.500000  1
  Ir  Ir32  1  0.369366  0.178599  0.500000  1
  Ir  Ir33  1  0.803314  0.625048  0.500000  1
  Ir  Ir34  1  0.818491  0.194637  0.500000  1
  Ir  Ir35  1  0.995094  0.000000  0.500000  1
