# generated using pymatgen
data_Ho4Lu4Ga3Co
_symmetry_space_group_name_H-M   'P 1'
_cell_length_a   9.86898600
_cell_length_b   9.86898549
_cell_length_c   6.87784000
_cell_angle_alpha   90.00000000
_cell_angle_beta   90.00000000
_cell_angle_gamma   120.00000170
_symmetry_Int_Tables_number   1
_chemical_formula_structural   Ho4Lu4Ga3Co
_chemical_formula_sum   'Ho8 Lu8 Ga6 Co2'
_cell_volume   580.13322163
_cell_formula_units_Z   2
loop_
 _symmetry_equiv_pos_site_id
 _symmetry_equiv_pos_as_xyz
  1  'x, y, z'
loop_
 _atom_site_type_symbol
 _atom_site_label
 _atom_site_symmetry_multiplicity
 _atom_site_fract_x
 _atom_site_fract_y
 _atom_site_fract_z
 _atom_site_occupancy
  Ho  Ho0  1  0.464438  0.535562  0.208006  1
  Ho  Ho1  1  0.071124  0.535562  0.208006  1
  Ho  Ho2  1  0.464438  0.928876  0.208006  1
  Ho  Ho3  1  0.535562  0.464438  0.708006  1
  Ho  Ho4  1  0.928876  0.464438  0.708006  1
  Ho  Ho5  1  0.535562  0.071124  0.708006  1
  Ho  Ho6  1  0.000000  0.000000  0.230200  1
  Ho  Ho7  1  0.000000  0.000000  0.730200  1
  Lu  Lu8  1  0.173710  0.826290  0.510782  1
  Lu  Lu9  1  0.652579  0.826290  0.510782  1
  Lu  Lu10  1  0.173710  0.347421  0.510782  1
  Lu  Lu11  1  0.826290  0.173710  0.010782  1
  Lu  Lu12  1  0.347421  0.173710  0.010782  1
  Lu  Lu13  1  0.826290  0.652579  0.010782  1
  Lu  Lu14  1  0.333333  0.666667  0.826063  1
  Lu  Lu15  1  0.666667  0.333333  0.326063  1
  Ga  Ga16  1  0.163610  0.836390  0.959647  1
  Ga  Ga17  1  0.672778  0.836390  0.959647  1
  Ga  Ga18  1  0.163610  0.327222  0.959647  1
  Ga  Ga19  1  0.836390  0.163610  0.459647  1
  Ga  Ga20  1  0.327222  0.163610  0.459647  1
  Ga  Ga21  1  0.836390  0.672778  0.459647  1
  Co  Co22  1  0.333333  0.666667  0.445450  1
  Co  Co23  1  0.666667  0.333333  0.945450  1
