# generated using pymatgen
data_TbY4Ir2Ru
_symmetry_space_group_name_H-M   'P 1'
_cell_length_a   10.88483800
_cell_length_b   10.88483800
_cell_length_c   6.45779200
_cell_angle_alpha   90.00000000
_cell_angle_beta   90.00000000
_cell_angle_gamma   90.00000000
_symmetry_Int_Tables_number   1
_chemical_formula_structural   TbY4Ir2Ru
_chemical_formula_sum   'Tb4 Y16 Ir8 Ru4'
_cell_volume   765.11724776
_cell_formula_units_Z   4
loop_
 _symmetry_equiv_pos_site_id
 _symmetry_equiv_pos_as_xyz
  1  'x, y, z'
loop_
 _atom_site_type_symbol
 _atom_site_label
 _atom_site_symmetry_multiplicity
 _atom_site_fract_x
 _atom_site_fract_y
 _atom_site_fract_z
 _atom_site_occupancy
  Tb  Tb0  1  0.000000  0.000000  0.500000  1
  Tb  Tb1  1  0.000000  0.000000  0.000000  1
  Tb  Tb2  1  0.500000  0.500000  0.000000  1
  Tb  Tb3  1  0.500000  0.500000  0.500000  1
  Y  Y4  1  0.293640  0.086893  0.378412  1
  Y  Y5  1  0.293640  0.913107  0.878412  1
  Y  Y6  1  0.706360  0.086893  0.878412  1
  Y  Y7  1  0.706360  0.913107  0.378412  1
  Y  Y8  1  0.586893  0.793640  0.878412  1
  Y  Y9  1  0.586893  0.206360  0.378412  1
  Y  Y10  1  0.413107  0.793640  0.378412  1
  Y  Y11  1  0.413107  0.206360  0.878412  1
  Y  Y12  1  0.206360  0.413107  0.621588  1
  Y  Y13  1  0.206360  0.586893  0.121588  1
  Y  Y14  1  0.793640  0.413107  0.121588  1
  Y  Y15  1  0.793640  0.586893  0.621588  1
  Y  Y16  1  0.913107  0.706360  0.121588  1
  Y  Y17  1  0.913107  0.293640  0.621588  1
  Y  Y18  1  0.086893  0.706360  0.621588  1
  Y  Y19  1  0.086893  0.293640  0.121588  1
  Ir  Ir20  1  0.847755  0.152245  0.250000  1
  Ir  Ir21  1  0.847755  0.847755  0.750000  1
  Ir  Ir22  1  0.152245  0.152245  0.750000  1
  Ir  Ir23  1  0.152245  0.847755  0.250000  1
  Ir  Ir24  1  0.652245  0.347755  0.750000  1
  Ir  Ir25  1  0.652245  0.652245  0.250000  1
  Ir  Ir26  1  0.347755  0.347755  0.250000  1
  Ir  Ir27  1  0.347755  0.652245  0.750000  1
  Ru  Ru28  1  0.500000  0.000000  0.123929  1
  Ru  Ru29  1  0.500000  0.000000  0.623929  1
  Ru  Ru30  1  0.000000  0.500000  0.876071  1
  Ru  Ru31  1  0.000000  0.500000  0.376071  1
