# generated using pymatgen
data_NdDy3(SbSe)4
_symmetry_space_group_name_H-M   'P 1'
_cell_length_a   4.16647000
_cell_length_b   4.16919128
_cell_length_c   17.95163121
_cell_angle_alpha   89.95784341
_cell_angle_beta   90.00000000
_cell_angle_gamma   90.00000000
_symmetry_Int_Tables_number   1
_chemical_formula_structural   NdDy3(SbSe)4
_chemical_formula_sum   'Nd1 Dy3 Sb4 Se4'
_cell_volume   311.83429782
_cell_formula_units_Z   1
loop_
 _symmetry_equiv_pos_site_id
 _symmetry_equiv_pos_as_xyz
  1  'x, y, z'
loop_
 _atom_site_type_symbol
 _atom_site_label
 _atom_site_symmetry_multiplicity
 _atom_site_fract_x
 _atom_site_fract_y
 _atom_site_fract_z
 _atom_site_occupancy
  Nd  Nd0  1  0.250000  0.739355  0.647217  1
  Dy  Dy1  1  0.750000  0.237674  0.853926  1
  Dy  Dy2  1  0.750000  0.261702  0.350290  1
  Dy  Dy3  1  0.250000  0.761900  0.147671  1
  Sb  Sb4  1  0.250000  0.248001  0.496854  1
  Sb  Sb5  1  0.250000  0.251321  0.001088  1
  Sb  Sb6  1  0.750000  0.750502  0.496696  1
  Sb  Sb7  1  0.750000  0.748775  0.000819  1
  Se  Se8  1  0.750000  0.237232  0.689853  1
  Se  Se9  1  0.750000  0.263641  0.187374  1
  Se  Se10  1  0.250000  0.763412  0.311569  1
  Se  Se11  1  0.250000  0.736482  0.816643  1
