# generated using pymatgen
data_LiCe2Si4Pd
_symmetry_space_group_name_H-M   'P 1'
_cell_length_a   3.94550600
_cell_length_b   7.36235100
_cell_length_c   10.29656500
_cell_angle_alpha   90.00000000
_cell_angle_beta   90.00000000
_cell_angle_gamma   90.00000000
_symmetry_Int_Tables_number   1
_chemical_formula_structural   LiCe2Si4Pd
_chemical_formula_sum   'Li2 Ce4 Si8 Pd2'
_cell_volume   299.09667989
_cell_formula_units_Z   2
loop_
 _symmetry_equiv_pos_site_id
 _symmetry_equiv_pos_as_xyz
  1  'x, y, z'
loop_
 _atom_site_type_symbol
 _atom_site_label
 _atom_site_symmetry_multiplicity
 _atom_site_fract_x
 _atom_site_fract_y
 _atom_site_fract_z
 _atom_site_occupancy
  Li  Li0  1  0.750000  0.003456  0.604127  1
  Li  Li1  1  0.750000  0.503456  0.895873  1
  Ce  Ce2  1  0.250000  0.144966  0.871629  1
  Ce  Ce3  1  0.250000  0.644966  0.628371  1
  Ce  Ce4  1  0.750000  0.862388  0.131527  1
  Ce  Ce5  1  0.750000  0.362388  0.368473  1
  Si  Si6  1  0.250000  0.222763  0.571916  1
  Si  Si7  1  0.250000  0.722763  0.928084  1
  Si  Si8  1  0.750000  0.774785  0.424115  1
  Si  Si9  1  0.750000  0.274785  0.075885  1
  Si  Si10  1  0.250000  0.661730  0.315817  1
  Si  Si11  1  0.250000  0.161730  0.184183  1
  Si  Si12  1  0.750000  0.335935  0.679744  1
  Si  Si13  1  0.750000  0.835935  0.820256  1
  Pd  Pd14  1  0.250000  0.993976  0.392391  1
  Pd  Pd15  1  0.250000  0.493976  0.107609  1
