# generated using pymatgen
data_Tm6TeO12
_symmetry_space_group_name_H-M   'P 1'
_cell_length_a   6.39792200
_cell_length_b   6.39792218
_cell_length_c   6.39792182
_cell_angle_alpha   98.73313146
_cell_angle_beta   98.73313231
_cell_angle_gamma   98.73312457
_symmetry_Int_Tables_number   1
_chemical_formula_structural   Tm6TeO12
_chemical_formula_sum   'Tm6 Te1 O12'
_cell_volume   251.71859494
_cell_formula_units_Z   1
loop_
 _symmetry_equiv_pos_site_id
 _symmetry_equiv_pos_as_xyz
  1  'x, y, z'
loop_
 _atom_site_type_symbol
 _atom_site_label
 _atom_site_symmetry_multiplicity
 _atom_site_fract_x
 _atom_site_fract_y
 _atom_site_fract_z
 _atom_site_occupancy
  Tm  Tm0  1  0.854944  0.389813  0.682526  1
  Tm  Tm1  1  0.610187  0.317474  0.145056  1
  Tm  Tm2  1  0.317474  0.145056  0.610187  1
  Tm  Tm3  1  0.682526  0.854944  0.389813  1
  Tm  Tm4  1  0.389813  0.682526  0.854944  1
  Tm  Tm5  1  0.145056  0.610187  0.317474  1
  Te  Te6  1  0.000000  0.000000  0.000000  1
  O  O7  1  0.927256  0.035486  0.698965  1
  O  O8  1  0.964514  0.301035  0.072744  1
  O  O9  1  0.592212  0.177273  0.431538  1
  O  O10  1  0.822727  0.568462  0.407788  1
  O  O11  1  0.301035  0.072744  0.964514  1
  O  O12  1  0.568462  0.407788  0.822727  1
  O  O13  1  0.431538  0.592212  0.177273  1
  O  O14  1  0.698965  0.927256  0.035486  1
  O  O15  1  0.177273  0.431538  0.592212  1
  O  O16  1  0.407788  0.822727  0.568462  1
  O  O17  1  0.035486  0.698965  0.927256  1
  O  O18  1  0.072744  0.964514  0.301035  1
