# generated using pymatgen
data_YEr7Ga3Ir
_symmetry_space_group_name_H-M   'P 1'
_cell_length_a   9.99723500
_cell_length_b   9.99723570
_cell_length_c   6.99280200
_cell_angle_alpha   90.00000000
_cell_angle_beta   90.00000000
_cell_angle_gamma   120.00000098
_symmetry_Int_Tables_number   1
_chemical_formula_structural   YEr7Ga3Ir
_chemical_formula_sum   'Y2 Er14 Ga6 Ir2'
_cell_volume   605.25960667
_cell_formula_units_Z   2
loop_
 _symmetry_equiv_pos_site_id
 _symmetry_equiv_pos_as_xyz
  1  'x, y, z'
loop_
 _atom_site_type_symbol
 _atom_site_label
 _atom_site_symmetry_multiplicity
 _atom_site_fract_x
 _atom_site_fract_y
 _atom_site_fract_z
 _atom_site_occupancy
  Y  Y0  1  0.000000  0.000000  0.268330  1
  Y  Y1  1  0.000000  0.000000  0.768330  1
  Er  Er2  1  0.171664  0.828336  0.990487  1
  Er  Er3  1  0.828336  0.171664  0.490487  1
  Er  Er4  1  0.171664  0.343328  0.990487  1
  Er  Er5  1  0.656672  0.828336  0.990487  1
  Er  Er6  1  0.343328  0.171664  0.490487  1
  Er  Er7  1  0.828336  0.656672  0.490487  1
  Er  Er8  1  0.333333  0.666667  0.663728  1
  Er  Er9  1  0.666667  0.333333  0.163728  1
  Er  Er10  1  0.465428  0.534572  0.295259  1
  Er  Er11  1  0.534572  0.465428  0.795259  1
  Er  Er12  1  0.465428  0.930856  0.295259  1
  Er  Er13  1  0.069144  0.534572  0.295259  1
  Er  Er14  1  0.930856  0.465428  0.795259  1
  Er  Er15  1  0.534572  0.069144  0.795259  1
  Ga  Ga16  1  0.163636  0.836364  0.542128  1
  Ga  Ga17  1  0.836364  0.163636  0.042128  1
  Ga  Ga18  1  0.163636  0.327273  0.542128  1
  Ga  Ga19  1  0.672727  0.836364  0.542128  1
  Ga  Ga20  1  0.327273  0.163636  0.042128  1
  Ga  Ga21  1  0.836364  0.672727  0.042128  1
  Ir  Ir22  1  0.333333  0.666667  0.057381  1
  Ir  Ir23  1  0.666667  0.333333  0.557381  1
