# generated using pymatgen
data_YbY4InPd3Pt
_symmetry_space_group_name_H-M   'P 1'
_cell_length_a   7.96089809
_cell_length_b   7.94892608
_cell_length_c   3.68017000
_cell_angle_alpha   90.00000000
_cell_angle_beta   90.00000000
_cell_angle_gamma   90.01676036
_symmetry_Int_Tables_number   1
_chemical_formula_structural   YbY4InPd3Pt
_chemical_formula_sum   'Yb1 Y4 In1 Pd3 Pt1'
_cell_volume   232.88332059
_cell_formula_units_Z   1
loop_
 _symmetry_equiv_pos_site_id
 _symmetry_equiv_pos_as_xyz
  1  'x, y, z'
loop_
 _atom_site_type_symbol
 _atom_site_label
 _atom_site_symmetry_multiplicity
 _atom_site_fract_x
 _atom_site_fract_y
 _atom_site_fract_z
 _atom_site_occupancy
  Yb  Yb0  1  0.498268  0.500371  0.000000  1
  Y  Y1  1  0.683629  0.139306  0.500000  1
  Y  Y2  1  0.313683  0.856752  0.500000  1
  Y  Y3  1  0.141052  0.320063  0.500000  1
  Y  Y4  1  0.863693  0.683716  0.500000  1
  In  In5  1  0.000111  0.001600  0.000000  1
  Pd  Pd6  1  0.854790  0.377845  0.000000  1
  Pd  Pd7  1  0.621782  0.856632  0.000000  1
  Pd  Pd8  1  0.379354  0.143434  0.000000  1
  Pt  Pt9  1  0.143638  0.620283  0.000000  1
