# generated using pymatgen
data_Eu3Pd4PbO14
_symmetry_space_group_name_H-M   'P 1'
_cell_length_a   7.33457298
_cell_length_b   7.33457394
_cell_length_c   7.39116748
_cell_angle_alpha   60.25297591
_cell_angle_beta   60.25297365
_cell_angle_gamma   60.00000081
_symmetry_Int_Tables_number   1
_chemical_formula_structural   Eu3Pd4PbO14
_chemical_formula_sum   'Eu3 Pd4 Pb1 O14'
_cell_volume   282.22653941
_cell_formula_units_Z   1
loop_
 _symmetry_equiv_pos_site_id
 _symmetry_equiv_pos_as_xyz
  1  'x, y, z'
loop_
 _atom_site_type_symbol
 _atom_site_label
 _atom_site_symmetry_multiplicity
 _atom_site_fract_x
 _atom_site_fract_y
 _atom_site_fract_z
 _atom_site_occupancy
  Eu  Eu0  1  0.625000  0.125000  0.125000  1
  Eu  Eu1  1  0.125000  0.625000  0.125000  1
  Eu  Eu2  1  0.125000  0.125000  0.125000  1
  Pd  Pd3  1  0.125000  0.625000  0.625000  1
  Pd  Pd4  1  0.625000  0.125000  0.625000  1
  Pd  Pd5  1  0.625000  0.625000  0.125000  1
  Pd  Pd6  1  0.625000  0.625000  0.625000  1
  Pb  Pb7  1  0.125000  0.125000  0.625000  1
  O  O8  1  0.243940  0.243940  0.268179  1
  O  O9  1  0.006060  0.006060  0.981821  1
  O  O10  1  0.711747  0.711747  0.289332  1
  O  O11  1  0.289983  0.289983  0.706615  1
  O  O12  1  0.713420  0.289983  0.706615  1
  O  O13  1  0.287174  0.711747  0.289332  1
  O  O14  1  0.289983  0.713420  0.706615  1
  O  O15  1  0.711747  0.287174  0.289332  1
  O  O16  1  0.538253  0.538253  0.960668  1
  O  O17  1  0.960017  0.960017  0.543385  1
  O  O18  1  0.536580  0.960017  0.543385  1
  O  O19  1  0.962826  0.538253  0.960668  1
  O  O20  1  0.960017  0.536580  0.543385  1
  O  O21  1  0.538253  0.962826  0.960668  1
