# generated using pymatgen
data_TbCeErP4Pd7
_symmetry_space_group_name_H-M   'P 1'
_cell_length_a   7.96070529
_cell_length_b   7.96070725
_cell_length_c   9.49197856
_cell_angle_alpha   55.58456414
_cell_angle_beta   55.58455577
_cell_angle_gamma   29.18257555
_symmetry_Int_Tables_number   1
_chemical_formula_structural   TbCeErP4Pd7
_chemical_formula_sum   'Tb1 Ce1 Er1 P4 Pd7'
_cell_volume   238.08544202
_cell_formula_units_Z   1
loop_
 _symmetry_equiv_pos_site_id
 _symmetry_equiv_pos_as_xyz
  1  'x, y, z'
loop_
 _atom_site_type_symbol
 _atom_site_label
 _atom_site_symmetry_multiplicity
 _atom_site_fract_x
 _atom_site_fract_y
 _atom_site_fract_z
 _atom_site_occupancy
  Tb  Tb0  1  0.819962  0.819962  0.177178  1
  Ce  Ce1  1  0.499881  0.499881  0.500112  1
  Er  Er2  1  0.179839  0.179839  0.823181  1
  P  P3  1  0.394467  0.394467  0.319879  1
  P  P4  1  0.606196  0.606196  0.680575  1
  P  P5  1  0.840394  0.840394  0.753081  1
  P  P6  1  0.158519  0.158519  0.248152  1
  Pd  Pd7  1  0.668711  0.668711  0.072507  1
  Pd  Pd8  1  0.010216  0.010216  0.211689  1
  Pd  Pd9  1  0.990241  0.990241  0.787616  1
  Pd  Pd10  1  0.501236  0.501236  0.998730  1
  Pd  Pd11  1  0.194216  0.194216  0.471826  1
  Pd  Pd12  1  0.805244  0.805244  0.530169  1
  Pd  Pd13  1  0.330879  0.330879  0.925307  1
