# generated using pymatgen
data_Sc12Mn2CdI16
_symmetry_space_group_name_H-M   'P 1'
_cell_length_a   9.16021221
_cell_length_b   12.00736924
_cell_length_c   12.71144530
_cell_angle_alpha   117.07187854
_cell_angle_beta   101.12736843
_cell_angle_gamma   100.63047145
_symmetry_Int_Tables_number   1
_chemical_formula_structural   Sc12Mn2CdI16
_chemical_formula_sum   'Sc12 Mn2 Cd1 I16'
_cell_volume   1160.69874591
_cell_formula_units_Z   1
loop_
 _symmetry_equiv_pos_site_id
 _symmetry_equiv_pos_as_xyz
  1  'x, y, z'
loop_
 _atom_site_type_symbol
 _atom_site_label
 _atom_site_symmetry_multiplicity
 _atom_site_fract_x
 _atom_site_fract_y
 _atom_site_fract_z
 _atom_site_occupancy
  Sc  Sc0  1  0.106531  0.264172  0.355507  1
  Sc  Sc1  1  0.893469  0.735828  0.644493  1
  Sc  Sc2  1  0.760522  0.537359  0.326205  1
  Sc  Sc3  1  0.239478  0.462641  0.673795  1
  Sc  Sc4  1  0.297828  0.736185  0.643799  1
  Sc  Sc5  1  0.702172  0.263815  0.356201  1
  Sc  Sc6  1  0.164743  0.537501  0.325503  1
  Sc  Sc7  1  0.835257  0.462499  0.674497  1
  Sc  Sc8  1  0.414603  0.372262  0.295166  1
  Sc  Sc9  1  0.585397  0.627738  0.704834  1
  Sc  Sc10  1  0.462088  0.323279  0.519409  1
  Sc  Sc11  1  0.537912  0.676721  0.480591  1
  Mn  Mn12  1  0.329384  0.500247  0.499682  1
  Mn  Mn13  1  0.670617  0.499753  0.500318  1
  Cd  Cd14  1  0.000000  0.500000  0.500000  1
  I  I15  1  0.395333  0.738186  0.881393  1
  I  I16  1  0.604667  0.261814  0.118607  1
  I  I17  1  0.184955  0.957628  0.777727  1
  I  I18  1  0.815045  0.042372  0.222273  1
  I  I19  1  0.336756  0.097201  0.253083  1
  I  I20  1  0.663244  0.902799  0.746917  1
  I  I21  1  0.563315  0.436976  0.797782  1
  I  I22  1  0.436685  0.563024  0.202218  1
  I  I23  1  0.309137  0.827770  0.463363  1
  I  I24  1  0.690863  0.172230  0.536637  1
  I  I25  1  0.168759  0.172781  0.535619  1
  I  I26  1  0.831241  0.827219  0.464381  1
  I  I27  1  0.927692  0.575693  0.165116  1
  I  I28  1  0.072308  0.424307  0.834884  1
  I  I29  1  0.922655  0.737690  0.881986  1
  I  I30  1  0.077345  0.262310  0.118014  1
