# generated using pymatgen
data_Th7AgRh12
_symmetry_space_group_name_H-M   'P 1'
_cell_length_a   5.91363900
_cell_length_b   7.82711508
_cell_length_c   9.04752600
_cell_angle_alpha   90.85087610
_cell_angle_beta   90.00000000
_cell_angle_gamma   90.00000000
_symmetry_Int_Tables_number   1
_chemical_formula_structural   Th7AgRh12
_chemical_formula_sum   'Th7 Ag1 Rh12'
_cell_volume   418.73424216
_cell_formula_units_Z   1
loop_
 _symmetry_equiv_pos_site_id
 _symmetry_equiv_pos_as_xyz
  1  'x, y, z'
loop_
 _atom_site_type_symbol
 _atom_site_label
 _atom_site_symmetry_multiplicity
 _atom_site_fract_x
 _atom_site_fract_y
 _atom_site_fract_z
 _atom_site_occupancy
  Th  Th0  1  0.750000  0.898238  0.863841  1
  Th  Th1  1  0.750000  0.411165  0.644531  1
  Th  Th2  1  0.250000  0.099143  0.134252  1
  Th  Th3  1  0.250000  0.588748  0.353121  1
  Th  Th4  1  0.750000  0.929270  0.395883  1
  Th  Th5  1  0.750000  0.455810  0.067694  1
  Th  Th6  1  0.250000  0.076042  0.614483  1
  Ag  Ag7  1  0.250000  0.540689  0.932166  1
  Rh  Rh8  1  0.750000  0.572453  0.358889  1
  Rh  Rh9  1  0.750000  0.110061  0.135583  1
  Rh  Rh10  1  0.250000  0.424004  0.641196  1
  Rh  Rh11  1  0.250000  0.883590  0.869412  1
  Rh  Rh12  1  0.998355  0.256092  0.385226  1
  Rh  Rh13  1  0.500487  0.770579  0.128866  1
  Rh  Rh14  1  0.495747  0.749565  0.609852  1
  Rh  Rh15  1  0.001842  0.229157  0.870530  1
  Rh  Rh16  1  0.004253  0.749565  0.609852  1
  Rh  Rh17  1  0.498158  0.229157  0.870530  1
  Rh  Rh18  1  0.501645  0.256092  0.385226  1
  Rh  Rh19  1  0.999513  0.770579  0.128866  1
