# generated using pymatgen
data_DyY3Al4IrPt3
_symmetry_space_group_name_H-M   'P 1'
_cell_length_a   4.43342100
_cell_length_b   6.85369194
_cell_length_c   7.79872200
_cell_angle_alpha   90.05282179
_cell_angle_beta   90.00000000
_cell_angle_gamma   90.00000000
_symmetry_Int_Tables_number   1
_chemical_formula_structural   DyY3Al4IrPt3
_chemical_formula_sum   'Dy1 Y3 Al4 Ir1 Pt3'
_cell_volume   236.96642059
_cell_formula_units_Z   1
loop_
 _symmetry_equiv_pos_site_id
 _symmetry_equiv_pos_as_xyz
  1  'x, y, z'
loop_
 _atom_site_type_symbol
 _atom_site_label
 _atom_site_symmetry_multiplicity
 _atom_site_fract_x
 _atom_site_fract_y
 _atom_site_fract_z
 _atom_site_occupancy
  Dy  Dy0  1  0.250000  0.966963  0.321301  1
  Y  Y1  1  0.250000  0.470118  0.180886  1
  Y  Y2  1  0.750000  0.531621  0.816982  1
  Y  Y3  1  0.750000  0.024537  0.680496  1
  Al  Al4  1  0.250000  0.853261  0.935765  1
  Al  Al5  1  0.750000  0.145783  0.061745  1
  Al  Al6  1  0.750000  0.645342  0.438825  1
  Al  Al7  1  0.250000  0.359723  0.563568  1
  Ir  Ir8  1  0.250000  0.730972  0.617137  1
  Pt  Pt9  1  0.750000  0.271762  0.381739  1
  Pt  Pt10  1  0.750000  0.773707  0.118898  1
  Pt  Pt11  1  0.250000  0.226211  0.882657  1
