# generated using pymatgen
data_Cs4InICl12
_symmetry_space_group_name_H-M   'P 1'
_cell_length_a   7.66671200
_cell_length_b   7.66671200
_cell_length_c   10.82065000
_cell_angle_alpha   90.00000000
_cell_angle_beta   90.00000000
_cell_angle_gamma   90.00000000
_symmetry_Int_Tables_number   1
_chemical_formula_structural   Cs4InICl12
_chemical_formula_sum   'Cs4 In1 I1 Cl12'
_cell_volume   636.02128269
_cell_formula_units_Z   1
loop_
 _symmetry_equiv_pos_site_id
 _symmetry_equiv_pos_as_xyz
  1  'x, y, z'
loop_
 _atom_site_type_symbol
 _atom_site_label
 _atom_site_symmetry_multiplicity
 _atom_site_fract_x
 _atom_site_fract_y
 _atom_site_fract_z
 _atom_site_occupancy
  Cs  Cs0  1  0.500000  0.000000  0.783107  1
  Cs  Cs1  1  0.000000  0.500000  0.216893  1
  Cs  Cs2  1  0.500000  0.000000  0.216893  1
  Cs  Cs3  1  0.000000  0.500000  0.783107  1
  In  In4  1  0.000000  0.000000  0.000000  1
  I  I5  1  0.500000  0.500000  0.500000  1
  Cl  Cl6  1  0.000000  0.000000  0.763007  1
  Cl  Cl7  1  0.500000  0.500000  0.267330  1
  Cl  Cl8  1  0.731512  0.731512  0.500000  1
  Cl  Cl9  1  0.237411  0.237411  0.000000  1
  Cl  Cl10  1  0.731512  0.268488  0.500000  1
  Cl  Cl11  1  0.237411  0.762589  0.000000  1
  Cl  Cl12  1  0.000000  0.000000  0.236993  1
  Cl  Cl13  1  0.500000  0.500000  0.732670  1
  Cl  Cl14  1  0.268488  0.268488  0.500000  1
  Cl  Cl15  1  0.762589  0.762589  0.000000  1
  Cl  Cl16  1  0.268488  0.731512  0.500000  1
  Cl  Cl17  1  0.762589  0.237411  0.000000  1
