# generated using pymatgen
data_Y16Sc4(Ir3Os)3
_symmetry_space_group_name_H-M   'P 1'
_cell_length_a   10.78220200
_cell_length_b   10.78220200
_cell_length_c   6.32589300
_cell_angle_alpha   90.00000000
_cell_angle_beta   90.00000000
_cell_angle_gamma   90.00000000
_symmetry_Int_Tables_number   1
_chemical_formula_structural   Y16Sc4(Ir3Os)3
_chemical_formula_sum   'Y16 Sc4 Ir9 Os3'
_cell_volume   735.42225730
_cell_formula_units_Z   1
loop_
 _symmetry_equiv_pos_site_id
 _symmetry_equiv_pos_as_xyz
  1  'x, y, z'
loop_
 _atom_site_type_symbol
 _atom_site_label
 _atom_site_symmetry_multiplicity
 _atom_site_fract_x
 _atom_site_fract_y
 _atom_site_fract_z
 _atom_site_occupancy
  Y  Y0  1  0.290158  0.085303  0.376953  1
  Y  Y1  1  0.290228  0.914919  0.876989  1
  Y  Y2  1  0.709772  0.085081  0.876989  1
  Y  Y3  1  0.709842  0.914697  0.376953  1
  Y  Y4  1  0.585081  0.790228  0.876989  1
  Y  Y5  1  0.585303  0.209842  0.376953  1
  Y  Y6  1  0.414697  0.790158  0.376953  1
  Y  Y7  1  0.414919  0.209772  0.876989  1
  Y  Y8  1  0.211531  0.414246  0.624501  1
  Y  Y9  1  0.211140  0.585759  0.120990  1
  Y  Y10  1  0.788860  0.414241  0.120990  1
  Y  Y11  1  0.788469  0.585754  0.624501  1
  Y  Y12  1  0.914241  0.711140  0.120990  1
  Y  Y13  1  0.914246  0.288469  0.624501  1
  Y  Y14  1  0.085754  0.711531  0.624501  1
  Y  Y15  1  0.085759  0.288860  0.120990  1
  Sc  Sc16  1  0.000000  0.000000  0.499809  1
  Sc  Sc17  1  0.000000  0.000000  0.999918  1
  Sc  Sc18  1  0.500000  0.500000  0.999918  1
  Sc  Sc19  1  0.500000  0.500000  0.499809  1
  Ir  Ir20  1  0.855028  0.146104  0.250297  1
  Ir  Ir21  1  0.854780  0.854088  0.749875  1
  Ir  Ir22  1  0.145220  0.145912  0.749875  1
  Ir  Ir23  1  0.144972  0.853896  0.250297  1
  Ir  Ir24  1  0.645912  0.354780  0.749875  1
  Ir  Ir25  1  0.646104  0.644972  0.250297  1
  Ir  Ir26  1  0.353896  0.355028  0.250297  1
  Ir  Ir27  1  0.354088  0.645220  0.749875  1
  Ir  Ir28  1  0.000000  0.500000  0.376286  1
  Os  Os29  1  0.500000  0.000000  0.125737  1
  Os  Os30  1  0.500000  0.000000  0.625176  1
  Os  Os31  1  0.000000  0.500000  0.874930  1
