# generated using pymatgen
data_Sc4TcB8Mo2Ru7
_symmetry_space_group_name_H-M   'P 1'
_cell_length_a   3.04513100
_cell_length_b   8.62253350
_cell_length_c   10.01975675
_cell_angle_alpha   90.17634527
_cell_angle_beta   90.00000000
_cell_angle_gamma   90.00000000
_symmetry_Int_Tables_number   1
_chemical_formula_structural   Sc4TcB8Mo2Ru7
_chemical_formula_sum   'Sc4 Tc1 B8 Mo2 Ru7'
_cell_volume   263.08494248
_cell_formula_units_Z   1
loop_
 _symmetry_equiv_pos_site_id
 _symmetry_equiv_pos_as_xyz
  1  'x, y, z'
loop_
 _atom_site_type_symbol
 _atom_site_label
 _atom_site_symmetry_multiplicity
 _atom_site_fract_x
 _atom_site_fract_y
 _atom_site_fract_z
 _atom_site_occupancy
  Sc  Sc0  1  0.500000  0.838247  0.180140  1
  Sc  Sc1  1  0.500000  0.156976  0.819863  1
  Sc  Sc2  1  0.500000  0.656229  0.682611  1
  Sc  Sc3  1  0.500000  0.339540  0.317044  1
  Tc  Tc4  1  0.000000  0.662104  0.950259  1
  B  B5  1  0.500000  0.967606  0.589335  1
  B  B6  1  0.500000  0.036665  0.413550  1
  B  B7  1  0.500000  0.851574  0.900967  1
  B  B8  1  0.500000  0.149181  0.100526  1
  B  B9  1  0.500000  0.648719  0.398897  1
  B  B10  1  0.500000  0.352349  0.600077  1
  B  B11  1  0.500000  0.469838  0.911013  1
  B  B12  1  0.500000  0.540259  0.084242  1
  Mo  Mo13  1  0.000000  0.339563  0.046868  1
  Mo  Mo14  1  0.000000  0.840689  0.453992  1
  Ru  Ru15  1  0.000000  0.163119  0.549799  1
  Ru  Ru16  1  0.000000  0.998135  0.001209  1
  Ru  Ru17  1  0.000000  0.402899  0.760408  1
  Ru  Ru18  1  0.000000  0.592883  0.238774  1
  Ru  Ru19  1  0.000000  0.496452  0.499194  1
  Ru  Ru20  1  0.000000  0.904540  0.738485  1
  Ru  Ru21  1  0.000000  0.092439  0.262751  1
