# generated using pymatgen
data_LaPr9Mg3AlRu6
_symmetry_space_group_name_H-M   'P 1'
_cell_length_a   8.74083636
_cell_length_b   8.69360668
_cell_length_c   8.65455731
_cell_angle_alpha   108.95884934
_cell_angle_beta   109.60723508
_cell_angle_gamma   109.54146742
_symmetry_Int_Tables_number   1
_chemical_formula_structural   LaPr9Mg3AlRu6
_chemical_formula_sum   'La1 Pr9 Mg3 Al1 Ru6'
_cell_volume   508.15150079
_cell_formula_units_Z   1
loop_
 _symmetry_equiv_pos_site_id
 _symmetry_equiv_pos_as_xyz
  1  'x, y, z'
loop_
 _atom_site_type_symbol
 _atom_site_label
 _atom_site_symmetry_multiplicity
 _atom_site_fract_x
 _atom_site_fract_y
 _atom_site_fract_z
 _atom_site_occupancy
  La  La0  1  0.246285  0.684464  0.439260  1
  Pr  Pr1  1  0.751434  0.821995  0.074837  1
  Pr  Pr2  1  0.425025  0.248338  0.677182  1
  Pr  Pr3  1  0.686546  0.434482  0.254151  1
  Pr  Pr4  1  0.066493  0.747330  0.813753  1
  Pr  Pr5  1  0.825011  0.071417  0.750720  1
  Pr  Pr6  1  0.211992  0.210849  0.211659  1
  Pr  Pr7  1  0.500496  0.000852  0.289490  1
  Pr  Pr8  1  0.289964  0.502962  0.000870  1
  Pr  Pr9  1  0.997447  0.279798  0.498246  1
  Mg  Mg10  1  0.595029  0.595631  0.593036  1
  Mg  Mg11  1  0.500619  0.002896  0.908551  1
  Mg  Mg12  1  0.904428  0.497962  0.998884  1
  Al  Al13  1  0.000587  0.909346  0.501654  1
  Ru  Ru14  1  0.235759  0.122199  0.862968  1
  Ru  Ru15  1  0.747713  0.366945  0.614975  1
  Ru  Ru16  1  0.880890  0.244744  0.130414  1
  Ru  Ru17  1  0.130671  0.878384  0.268723  1
  Ru  Ru18  1  0.642375  0.760793  0.371709  1
  Ru  Ru19  1  0.361233  0.618611  0.738919  1
