# generated using pymatgen
data_Ca6PrPbN4
_symmetry_space_group_name_H-M   'P 1'
_cell_length_a   3.66222000
_cell_length_b   11.95396600
_cell_length_c   11.49894500
_cell_angle_alpha   90.00000000
_cell_angle_beta   90.00000000
_cell_angle_gamma   90.00000000
_symmetry_Int_Tables_number   1
_chemical_formula_structural   Ca6PrPbN4
_chemical_formula_sum   'Ca12 Pr2 Pb2 N8'
_cell_volume   503.40142785
_cell_formula_units_Z   2
loop_
 _symmetry_equiv_pos_site_id
 _symmetry_equiv_pos_as_xyz
  1  'x, y, z'
loop_
 _atom_site_type_symbol
 _atom_site_label
 _atom_site_symmetry_multiplicity
 _atom_site_fract_x
 _atom_site_fract_y
 _atom_site_fract_z
 _atom_site_occupancy
  Ca  Ca0  1  0.500714  0.669209  0.241383  1
  Ca  Ca1  1  0.500714  0.330791  0.758617  1
  Ca  Ca2  1  0.499286  0.169209  0.258617  1
  Ca  Ca3  1  0.499286  0.830791  0.741383  1
  Ca  Ca4  1  0.999138  0.926535  0.252470  1
  Ca  Ca5  1  0.999138  0.073465  0.747530  1
  Ca  Ca6  1  0.000862  0.426535  0.247530  1
  Ca  Ca7  1  0.000862  0.573465  0.752470  1
  Ca  Ca8  1  0.001895  0.754678  0.477267  1
  Ca  Ca9  1  0.001895  0.245322  0.522733  1
  Ca  Ca10  1  0.998105  0.254678  0.022733  1
  Ca  Ca11  1  0.998105  0.745322  0.977267  1
  Pr  Pr12  1  0.497653  0.500000  0.000000  1
  Pr  Pr13  1  0.502347  0.000000  0.500000  1
  Pb  Pb14  1  0.517128  0.500000  0.500000  1
  Pb  Pb15  1  0.482872  0.000000  0.000000  1
  N  N16  1  0.000942  0.600460  0.126032  1
  N  N17  1  0.000942  0.399540  0.873968  1
  N  N18  1  0.999058  0.100460  0.373968  1
  N  N19  1  0.999058  0.899540  0.626032  1
  N  N20  1  0.499394  0.835423  0.357529  1
  N  N21  1  0.499394  0.164577  0.642471  1
  N  N22  1  0.500606  0.335423  0.142471  1
  N  N23  1  0.500606  0.664577  0.857529  1
