# generated using pymatgen
data_Zr4Al24Pt7Rh2
_symmetry_space_group_name_H-M   'P 1'
_cell_length_a   7.45890839
_cell_length_b   7.46200145
_cell_length_c   12.94166140
_cell_angle_alpha   84.43010812
_cell_angle_beta   101.08432399
_cell_angle_gamma   119.93618020
_symmetry_Int_Tables_number   1
_chemical_formula_structural   Zr4Al24Pt7Rh2
_chemical_formula_sum   'Zr4 Al24 Pt7 Rh2'
_cell_volume   612.56428272
_cell_formula_units_Z   1
loop_
 _symmetry_equiv_pos_site_id
 _symmetry_equiv_pos_as_xyz
  1  'x, y, z'
loop_
 _atom_site_type_symbol
 _atom_site_label
 _atom_site_symmetry_multiplicity
 _atom_site_fract_x
 _atom_site_fract_y
 _atom_site_fract_z
 _atom_site_occupancy
  Zr  Zr0  1  0.731641  0.999614  0.188737  1
  Zr  Zr1  1  0.269278  0.002488  0.811033  1
  Zr  Zr2  1  0.059404  0.667598  0.188646  1
  Zr  Zr3  1  0.938597  0.331267  0.811468  1
  Al  Al4  1  0.815890  0.875908  0.818218  1
  Al  Al5  1  0.184593  0.123462  0.181753  1
  Al  Al6  1  0.988902  0.670018  0.943423  1
  Al  Al7  1  0.018302  0.333834  0.055787  1
  Al  Al8  1  0.390978  0.663134  0.819718  1
  Al  Al9  1  0.605189  0.336150  0.182381  1
  Al  Al10  1  0.886656  0.665133  0.677436  1
  Al  Al11  1  0.114155  0.334768  0.322228  1
  Al  Al12  1  0.602911  0.454751  0.816901  1
  Al  Al13  1  0.397215  0.549888  0.180957  1
  Al  Al14  1  0.230153  0.337986  0.675650  1
  Al  Al15  1  0.769975  0.662018  0.324391  1
  Al  Al16  1  0.852767  0.332677  0.561199  1
  Al  Al17  1  0.187161  0.999606  0.560949  1
  Al  Al18  1  0.813553  0.000222  0.439051  1
  Al  Al19  1  0.348743  0.992216  0.056430  1
  Al  Al20  1  0.647656  0.000274  0.944180  1
  Al  Al21  1  0.558184  0.994295  0.677825  1
  Al  Al22  1  0.442009  0.004636  0.322587  1
  Al  Al23  1  0.521543  0.667192  0.563608  1
  Al  Al24  1  0.478660  0.332686  0.436277  1
  Al  Al25  1  0.686088  0.674009  0.046767  1
  Al  Al26  1  0.310462  0.329552  0.953228  1
  Al  Al27  1  0.147354  0.666580  0.438984  1
  Pt  Pt28  1  0.545672  0.323103  0.637585  1
  Pt  Pt29  1  0.454670  0.676443  0.362155  1
  Pt  Pt30  1  0.888808  0.008891  0.639280  1
  Pt  Pt31  1  0.111519  0.990595  0.360777  1
  Pt  Pt32  1  0.672348  0.327330  0.999693  1
  Pt  Pt33  1  0.203495  0.666306  0.639267  1
  Pt  Pt34  1  0.797277  0.333185  0.361109  1
  Rh  Rh35  1  0.328187  0.672188  0.000305  1
  Rh  Rh36  1  0.000006  0.999997  0.000019  1
