# generated using pymatgen
data_Tb6Zn18AsIr5
_symmetry_space_group_name_H-M   'P 1'
_cell_length_a   8.98864776
_cell_length_b   8.98864598
_cell_length_c   8.98864700
_cell_angle_alpha   60.01337276
_cell_angle_beta   60.01337195
_cell_angle_gamma   60.01337648
_symmetry_Int_Tables_number   1
_chemical_formula_structural   Tb6Zn18AsIr5
_chemical_formula_sum   'Tb6 Zn18 As1 Ir5'
_cell_volume   513.68823518
_cell_formula_units_Z   1
loop_
 _symmetry_equiv_pos_site_id
 _symmetry_equiv_pos_as_xyz
  1  'x, y, z'
loop_
 _atom_site_type_symbol
 _atom_site_label
 _atom_site_symmetry_multiplicity
 _atom_site_fract_x
 _atom_site_fract_y
 _atom_site_fract_z
 _atom_site_occupancy
  Tb  Tb0  1  0.714295  0.278296  0.278296  1
  Tb  Tb1  1  0.285705  0.721704  0.721704  1
  Tb  Tb2  1  0.278296  0.714295  0.278296  1
  Tb  Tb3  1  0.721704  0.285705  0.721704  1
  Tb  Tb4  1  0.278296  0.278296  0.714295  1
  Tb  Tb5  1  0.721704  0.721704  0.285705  1
  Zn  Zn6  1  0.123406  0.123406  0.624904  1
  Zn  Zn7  1  0.123406  0.624904  0.123406  1
  Zn  Zn8  1  0.876594  0.876594  0.375096  1
  Zn  Zn9  1  0.876594  0.375096  0.876594  1
  Zn  Zn10  1  0.624904  0.123406  0.123406  1
  Zn  Zn11  1  0.375096  0.876594  0.876594  1
  Zn  Zn12  1  0.500000  0.000000  0.000000  1
  Zn  Zn13  1  0.000000  0.500000  0.000000  1
  Zn  Zn14  1  0.000000  0.000000  0.500000  1
  Zn  Zn15  1  0.328838  0.328838  0.328838  1
  Zn  Zn16  1  0.671162  0.671162  0.671162  1
  Zn  Zn17  1  0.328316  0.328316  0.007217  1
  Zn  Zn18  1  0.328316  0.007217  0.328316  1
  Zn  Zn19  1  0.671684  0.671684  0.992783  1
  Zn  Zn20  1  0.671684  0.992783  0.671684  1
  Zn  Zn21  1  0.007217  0.328316  0.328316  1
  Zn  Zn22  1  0.992783  0.671684  0.671684  1
  Zn  Zn23  1  0.000000  0.000000  0.000000  1
  As  As24  1  0.500000  0.500000  0.500000  1
  Ir  Ir25  1  0.121751  0.121751  0.121751  1
  Ir  Ir26  1  0.878249  0.878249  0.878249  1
  Ir  Ir27  1  0.000000  0.500000  0.500000  1
  Ir  Ir28  1  0.500000  0.000000  0.500000  1
  Ir  Ir29  1  0.500000  0.500000  0.000000  1
