# generated using pymatgen
data_SrY6IrI12
_symmetry_space_group_name_H-M   'P 1'
_cell_length_a   9.88447847
_cell_length_b   9.88447800
_cell_length_c   9.88447802
_cell_angle_alpha   106.64495102
_cell_angle_beta   106.64494635
_cell_angle_gamma   106.64494947
_symmetry_Int_Tables_number   1
_chemical_formula_structural   SrY6IrI12
_chemical_formula_sum   'Sr1 Y6 Ir1 I12'
_cell_volume   811.94323353
_cell_formula_units_Z   1
loop_
 _symmetry_equiv_pos_site_id
 _symmetry_equiv_pos_as_xyz
  1  'x, y, z'
loop_
 _atom_site_type_symbol
 _atom_site_label
 _atom_site_symmetry_multiplicity
 _atom_site_fract_x
 _atom_site_fract_y
 _atom_site_fract_z
 _atom_site_occupancy
  Sr  Sr0  1  0.500000  0.500000  0.500000  1
  Y  Y1  1  0.705270  0.981822  0.908682  1
  Y  Y2  1  0.981822  0.908682  0.705270  1
  Y  Y3  1  0.091318  0.294730  0.018178  1
  Y  Y4  1  0.294730  0.018178  0.091318  1
  Y  Y5  1  0.908682  0.705270  0.981822  1
  Y  Y6  1  0.018178  0.091318  0.294730  1
  Ir  Ir7  1  0.000000  0.000000  0.000000  1
  I  I8  1  0.073776  0.223307  0.677145  1
  I  I9  1  0.367162  0.135660  0.446642  1
  I  I10  1  0.632838  0.864340  0.553358  1
  I  I11  1  0.223307  0.677145  0.073776  1
  I  I12  1  0.776693  0.322855  0.926224  1
  I  I13  1  0.677145  0.073776  0.223307  1
  I  I14  1  0.553358  0.632838  0.864340  1
  I  I15  1  0.864340  0.553358  0.632838  1
  I  I16  1  0.926224  0.776693  0.322855  1
  I  I17  1  0.322855  0.926224  0.776693  1
  I  I18  1  0.446642  0.367162  0.135660  1
  I  I19  1  0.135660  0.446642  0.367162  1
