# generated using pymatgen
data_NdDy7(Ho3Sn4)4
_symmetry_space_group_name_H-M   'P 1'
_cell_length_a   8.02170800
_cell_length_b   8.16043102
_cell_length_c   15.42572700
_cell_angle_alpha   90.00035106
_cell_angle_beta   89.99893575
_cell_angle_gamma   90.00435313
_symmetry_Int_Tables_number   1
_chemical_formula_structural   NdDy7(Ho3Sn4)4
_chemical_formula_sum   'Nd1 Dy7 Ho12 Sn16'
_cell_volume   1009.77726211
_cell_formula_units_Z   1
loop_
 _symmetry_equiv_pos_site_id
 _symmetry_equiv_pos_as_xyz
  1  'x, y, z'
loop_
 _atom_site_type_symbol
 _atom_site_label
 _atom_site_symmetry_multiplicity
 _atom_site_fract_x
 _atom_site_fract_y
 _atom_site_fract_z
 _atom_site_occupancy
  Nd  Nd0  1  0.517386  0.320498  0.903824  1
  Dy  Dy1  1  0.020200  0.178876  0.596267  1
  Dy  Dy2  1  0.479547  0.679097  0.402691  1
  Dy  Dy3  1  0.979925  0.820766  0.097567  1
  Dy  Dy4  1  0.480251  0.679956  0.097658  1
  Dy  Dy5  1  0.979691  0.820807  0.402701  1
  Dy  Dy6  1  0.521050  0.320619  0.597557  1
  Dy  Dy7  1  0.020310  0.178205  0.902726  1
  Ho  Ho8  1  0.367123  0.837092  0.877471  1
  Ho  Ho9  1  0.867533  0.662964  0.622061  1
  Ho  Ho10  1  0.632820  0.162812  0.377636  1
  Ho  Ho11  1  0.133850  0.336786  0.123084  1
  Ho  Ho12  1  0.633765  0.162632  0.122824  1
  Ho  Ho13  1  0.132732  0.337329  0.377490  1
  Ho  Ho14  1  0.367132  0.836665  0.621674  1
  Ho  Ho15  1  0.866577  0.663157  0.877087  1
  Ho  Ho16  1  0.198402  0.503633  0.749319  1
  Ho  Ho17  1  0.698549  0.996793  0.749494  1
  Ho  Ho18  1  0.801846  0.496848  0.250279  1
  Ho  Ho19  1  0.301647  0.003148  0.250154  1
  Sn  Sn20  1  0.293349  0.036764  0.041789  1
  Sn  Sn21  1  0.793426  0.462599  0.458432  1
  Sn  Sn22  1  0.706403  0.962548  0.541371  1
  Sn  Sn23  1  0.201551  0.541461  0.959823  1
  Sn  Sn24  1  0.707625  0.960336  0.959039  1
  Sn  Sn25  1  0.206838  0.536627  0.541423  1
  Sn  Sn26  1  0.293476  0.037395  0.458206  1
  Sn  Sn27  1  0.797200  0.464686  0.043129  1
  Sn  Sn28  1  0.565027  0.620595  0.749434  1
  Sn  Sn29  1  0.064490  0.880625  0.749837  1
  Sn  Sn30  1  0.435755  0.381022  0.250302  1
  Sn  Sn31  1  0.935584  0.118510  0.250300  1
  Sn  Sn32  1  0.326783  0.145861  0.747905  1
  Sn  Sn33  1  0.831319  0.352134  0.749078  1
  Sn  Sn34  1  0.670298  0.851997  0.250249  1
  Sn  Sn35  1  0.170536  0.648156  0.250120  1
