# generated using pymatgen
data_Li2Y3Si3Pt
_symmetry_space_group_name_H-M   'P 1'
_cell_length_a   6.85411100
_cell_length_b   7.08625291
_cell_length_c   4.12380600
_cell_angle_alpha   90.00000000
_cell_angle_beta   90.00000000
_cell_angle_gamma   118.92211069
_symmetry_Int_Tables_number   1
_chemical_formula_structural   Li2Y3Si3Pt
_chemical_formula_sum   'Li2 Y3 Si3 Pt1'
_cell_volume   175.31214414
_cell_formula_units_Z   1
loop_
 _symmetry_equiv_pos_site_id
 _symmetry_equiv_pos_as_xyz
  1  'x, y, z'
loop_
 _atom_site_type_symbol
 _atom_site_label
 _atom_site_symmetry_multiplicity
 _atom_site_fract_x
 _atom_site_fract_y
 _atom_site_fract_z
 _atom_site_occupancy
  Li  Li0  1  0.775306  0.763308  0.500000  1
  Li  Li1  1  0.011998  0.236692  0.500000  1
  Y  Y2  1  0.987733  0.575812  0.000000  1
  Y  Y3  1  0.576750  0.000000  0.000000  1
  Y  Y4  1  0.411921  0.424188  0.000000  1
  Si  Si5  1  0.325517  0.682645  0.500000  1
  Si  Si6  1  0.642873  0.317355  0.500000  1
  Si  Si7  1  0.029299  0.000000  0.000000  1
  Pt  Pt8  1  0.238603  0.000000  0.500000  1
