# generated using pymatgen
data_TmLu3(As4O9)2
_symmetry_space_group_name_H-M   'P 1'
_cell_length_a   6.62463475
_cell_length_b   7.46948432
_cell_length_c   9.78726122
_cell_angle_alpha   94.49035309
_cell_angle_beta   104.12239860
_cell_angle_gamma   104.78179938
_symmetry_Int_Tables_number   1
_chemical_formula_structural   TmLu3(As4O9)2
_chemical_formula_sum   'Tm1 Lu3 As8 O18'
_cell_volume   448.98844298
_cell_formula_units_Z   1
loop_
 _symmetry_equiv_pos_site_id
 _symmetry_equiv_pos_as_xyz
  1  'x, y, z'
loop_
 _atom_site_type_symbol
 _atom_site_label
 _atom_site_symmetry_multiplicity
 _atom_site_fract_x
 _atom_site_fract_y
 _atom_site_fract_z
 _atom_site_occupancy
  Tm  Tm0  1  0.240852  0.939338  0.611925  1
  Lu  Lu1  1  0.759628  0.059961  0.388163  1
  Lu  Lu2  1  0.720104  0.525594  0.409533  1
  Lu  Lu3  1  0.279658  0.473394  0.589663  1
  As  As4  1  0.686517  0.775576  0.085508  1
  As  As5  1  0.312755  0.225735  0.914913  1
  As  As6  1  0.167933  0.750485  0.910552  1
  As  As7  1  0.830943  0.249680  0.088966  1
  As  As8  1  0.741308  0.915432  0.710023  1
  As  As9  1  0.260337  0.083567  0.289627  1
  As  As10  1  0.810832  0.351745  0.700321  1
  As  As11  1  0.189581  0.647721  0.299400  1
  O  O12  1  0.718170  0.746964  0.265542  1
  O  O13  1  0.281213  0.254157  0.734838  1
  O  O14  1  0.313889  0.977374  0.863352  1
  O  O15  1  0.686769  0.023999  0.139043  1
  O  O16  1  0.606351  0.326641  0.986129  1
  O  O17  1  0.392805  0.674280  0.014243  1
  O  O18  1  0.123696  0.638332  0.737092  1
  O  O19  1  0.876838  0.364960  0.261466  1
  O  O20  1  0.850424  0.881977  0.560502  1
  O  O21  1  0.146624  0.118826  0.436769  1
  O  O22  1  0.476776  0.765311  0.664279  1
  O  O23  1  0.525665  0.232937  0.336594  1
  O  O24  1  0.371626  0.528226  0.382316  1
  O  O25  1  0.628022  0.470013  0.616594  1
  O  O26  1  0.086876  0.669593  0.455468  1
  O  O27  1  0.912621  0.327735  0.543989  1
  O  O28  1  0.385437  0.900016  0.361632  1
  O  O29  1  0.615750  0.100432  0.641557  1
