# generated using pymatgen
data_Y16Cd4IrPdRu2
_symmetry_space_group_name_H-M   'P 1'
_cell_length_a   9.67817495
_cell_length_b   9.67521013
_cell_length_c   9.67520940
_cell_angle_alpha   60.15019945
_cell_angle_beta   60.09852757
_cell_angle_gamma   60.09852687
_symmetry_Int_Tables_number   1
_chemical_formula_structural   Y16Cd4IrPdRu2
_chemical_formula_sum   'Y16 Cd4 Ir1 Pd1 Ru2'
_cell_volume   642.29780730
_cell_formula_units_Z   1
loop_
 _symmetry_equiv_pos_site_id
 _symmetry_equiv_pos_as_xyz
  1  'x, y, z'
loop_
 _atom_site_type_symbol
 _atom_site_label
 _atom_site_symmetry_multiplicity
 _atom_site_fract_x
 _atom_site_fract_y
 _atom_site_fract_z
 _atom_site_occupancy
  Y  Y0  1  0.347164  0.347290  0.347290  1
  Y  Y1  1  0.351792  0.352832  0.950418  1
  Y  Y2  1  0.351792  0.950418  0.352832  1
  Y  Y3  1  0.951731  0.351556  0.351556  1
  Y  Y4  1  0.804938  0.190837  0.190837  1
  Y  Y5  1  0.188508  0.811402  0.811402  1
  Y  Y6  1  0.189862  0.804401  0.189903  1
  Y  Y7  1  0.811807  0.189343  0.809500  1
  Y  Y8  1  0.189862  0.189903  0.804401  1
  Y  Y9  1  0.811807  0.809500  0.189343  1
  Y  Y10  1  0.938807  0.561796  0.561796  1
  Y  Y11  1  0.564998  0.937467  0.937467  1
  Y  Y12  1  0.560996  0.938736  0.563441  1
  Y  Y13  1  0.937492  0.565864  0.937727  1
  Y  Y14  1  0.560996  0.563441  0.938736  1
  Y  Y15  1  0.937492  0.937727  0.565864  1
  Cd  Cd16  1  0.580810  0.581143  0.581143  1
  Cd  Cd17  1  0.580313  0.580395  0.258059  1
  Cd  Cd18  1  0.580313  0.258059  0.580395  1
  Cd  Cd19  1  0.257547  0.580508  0.580508  1
  Ir  Ir20  1  0.575587  0.139948  0.139948  1
  Pd  Pd21  1  0.143347  0.141639  0.141639  1
  Ru  Ru22  1  0.141020  0.139945  0.575853  1
  Ru  Ru23  1  0.141020  0.575853  0.139945  1
