# generated using pymatgen
data_La3YNi2Sn5
_symmetry_space_group_name_H-M   'P 1'
_cell_length_a   4.54848400
_cell_length_b   8.98042700
_cell_length_c   14.22590300
_cell_angle_alpha   90.00000000
_cell_angle_beta   90.00000000
_cell_angle_gamma   90.00000000
_symmetry_Int_Tables_number   1
_chemical_formula_structural   La3YNi2Sn5
_chemical_formula_sum   'La6 Y2 Ni4 Sn10'
_cell_volume   581.09013337
_cell_formula_units_Z   2
loop_
 _symmetry_equiv_pos_site_id
 _symmetry_equiv_pos_as_xyz
  1  'x, y, z'
loop_
 _atom_site_type_symbol
 _atom_site_label
 _atom_site_symmetry_multiplicity
 _atom_site_fract_x
 _atom_site_fract_y
 _atom_site_fract_z
 _atom_site_occupancy
  La  La0  1  0.500000  0.783953  0.739771  1
  La  La1  1  0.000000  0.216047  0.760229  1
  La  La2  1  0.000000  0.216047  0.239771  1
  La  La3  1  0.500000  0.135366  0.000000  1
  La  La4  1  0.000000  0.864634  0.500000  1
  La  La5  1  0.500000  0.783953  0.260229  1
  Y  Y6  1  0.500000  0.685931  0.000000  1
  Y  Y7  1  0.000000  0.314069  0.500000  1
  Ni  Ni8  1  0.500000  0.393571  0.644140  1
  Ni  Ni9  1  0.000000  0.606429  0.855860  1
  Ni  Ni10  1  0.000000  0.606429  0.144140  1
  Ni  Ni11  1  0.500000  0.393571  0.355860  1
  Sn  Sn12  1  0.500000  0.102154  0.395889  1
  Sn  Sn13  1  0.000000  0.553250  0.664781  1
  Sn  Sn14  1  0.000000  0.413046  0.000000  1
  Sn  Sn15  1  0.500000  0.446750  0.164781  1
  Sn  Sn16  1  0.500000  0.586954  0.500000  1
  Sn  Sn17  1  0.500000  0.446750  0.835219  1
  Sn  Sn18  1  0.000000  0.897846  0.895889  1
  Sn  Sn19  1  0.000000  0.553250  0.335219  1
  Sn  Sn20  1  0.500000  0.102154  0.604111  1
  Sn  Sn21  1  0.000000  0.897846  0.104111  1
