# generated using pymatgen
data_MgMnGaPt5
_symmetry_space_group_name_H-M   'P 1'
_cell_length_a   5.53478501
_cell_length_b   5.53478438
_cell_length_c   4.02329900
_cell_angle_alpha   90.00000000
_cell_angle_beta   90.00000000
_cell_angle_gamma   95.51015647
_symmetry_Int_Tables_number   1
_chemical_formula_structural   MgMnGaPt5
_chemical_formula_sum   'Mg1 Mn1 Ga1 Pt5'
_cell_volume   122.67959380
_cell_formula_units_Z   1
loop_
 _symmetry_equiv_pos_site_id
 _symmetry_equiv_pos_as_xyz
  1  'x, y, z'
loop_
 _atom_site_type_symbol
 _atom_site_label
 _atom_site_symmetry_multiplicity
 _atom_site_fract_x
 _atom_site_fract_y
 _atom_site_fract_z
 _atom_site_occupancy
  Mg  Mg0  1  0.725198  0.274802  0.500000  1
  Mn  Mn1  1  0.274314  0.725686  0.500000  1
  Ga  Ga2  1  0.001732  0.998268  0.000000  1
  Pt  Pt3  1  0.498623  0.501377  0.000000  1
  Pt  Pt4  1  0.003282  0.502887  0.000000  1
  Pt  Pt5  1  0.497113  0.996718  0.000000  1
  Pt  Pt6  1  0.221634  0.221896  0.500000  1
  Pt  Pt7  1  0.778104  0.778366  0.500000  1
