# generated using pymatgen
data_Er4CI6
_symmetry_space_group_name_H-M   'P 1'
_cell_length_a   4.01162800
_cell_length_b   13.72291700
_cell_length_c   14.21682500
_cell_angle_alpha   90.00000000
_cell_angle_beta   90.00000000
_cell_angle_gamma   90.00000000
_symmetry_Int_Tables_number   1
_chemical_formula_structural   Er4CI6
_chemical_formula_sum   'Er8 C2 I12'
_cell_volume   782.65381780
_cell_formula_units_Z   2
loop_
 _symmetry_equiv_pos_site_id
 _symmetry_equiv_pos_as_xyz
  1  'x, y, z'
loop_
 _atom_site_type_symbol
 _atom_site_label
 _atom_site_symmetry_multiplicity
 _atom_site_fract_x
 _atom_site_fract_y
 _atom_site_fract_z
 _atom_site_occupancy
  Er  Er0  1  0.000000  0.092017  0.073287  1
  Er  Er1  1  0.000000  0.907983  0.926713  1
  Er  Er2  1  0.000000  0.592017  0.426713  1
  Er  Er3  1  0.000000  0.407983  0.573287  1
  Er  Er4  1  0.500000  0.112858  0.867593  1
  Er  Er5  1  0.500000  0.887142  0.132407  1
  Er  Er6  1  0.500000  0.612858  0.632407  1
  Er  Er7  1  0.500000  0.387142  0.367593  1
  C  C8  1  0.500000  0.000000  0.000000  1
  C  C9  1  0.500000  0.500000  0.500000  1
  I  I10  1  0.500000  0.270416  0.680162  1
  I  I11  1  0.500000  0.729584  0.319838  1
  I  I12  1  0.500000  0.770416  0.819838  1
  I  I13  1  0.500000  0.229584  0.180162  1
  I  I14  1  0.000000  0.263601  0.933632  1
  I  I15  1  0.000000  0.736399  0.066368  1
  I  I16  1  0.000000  0.482808  0.236952  1
  I  I17  1  0.000000  0.517192  0.763048  1
  I  I18  1  0.000000  0.982808  0.263048  1
  I  I19  1  0.000000  0.017192  0.736952  1
  I  I20  1  0.000000  0.236399  0.433632  1
  I  I21  1  0.000000  0.763601  0.566368  1
