# generated using pymatgen
data_Cs2Pu(TeO4)3
_symmetry_space_group_name_H-M   'P 1'
_cell_length_a   7.68387042
_cell_length_b   7.68411904
_cell_length_c   7.68352302
_cell_angle_alpha   57.73469913
_cell_angle_beta   57.73727166
_cell_angle_gamma   57.73520019
_symmetry_Int_Tables_number   1
_chemical_formula_structural   Cs2Pu(TeO4)3
_chemical_formula_sum   'Cs2 Pu1 Te3 O12'
_cell_volume   304.10379531
_cell_formula_units_Z   1
loop_
 _symmetry_equiv_pos_site_id
 _symmetry_equiv_pos_as_xyz
  1  'x, y, z'
loop_
 _atom_site_type_symbol
 _atom_site_label
 _atom_site_symmetry_multiplicity
 _atom_site_fract_x
 _atom_site_fract_y
 _atom_site_fract_z
 _atom_site_occupancy
  Cs  Cs0  1  0.124188  0.124176  0.124171  1
  Cs  Cs1  1  0.875812  0.875824  0.875829  1
  Pu  Pu2  1  0.500000  0.500000  0.500000  1
  Te  Te3  1  0.000000  0.500000  0.500000  1
  Te  Te4  1  0.500000  0.500000  0.000000  1
  Te  Te5  1  0.500000  0.000000  0.500000  1
  O  O6  1  0.432459  0.837883  0.432534  1
  O  O7  1  0.817866  0.425114  0.817900  1
  O  O8  1  0.425113  0.817870  0.817895  1
  O  O9  1  0.837851  0.432583  0.432436  1
  O  O10  1  0.817875  0.817862  0.425120  1
  O  O11  1  0.432544  0.432449  0.837863  1
  O  O12  1  0.567541  0.162117  0.567466  1
  O  O13  1  0.182134  0.574886  0.182100  1
  O  O14  1  0.574887  0.182130  0.182105  1
  O  O15  1  0.162149  0.567417  0.567564  1
  O  O16  1  0.182125  0.182138  0.574880  1
  O  O17  1  0.567456  0.567551  0.162137  1
