# generated using pymatgen
data_LiTi9(NbSn3)3
_symmetry_space_group_name_H-M   'P 1'
_cell_length_a   9.31978000
_cell_length_b   9.31978066
_cell_length_c   5.68580700
_cell_angle_alpha   90.00000000
_cell_angle_beta   90.00000000
_cell_angle_gamma   119.99999766
_symmetry_Int_Tables_number   1
_chemical_formula_structural   LiTi9(NbSn3)3
_chemical_formula_sum   'Li1 Ti9 Nb3 Sn9'
_cell_volume   427.69493570
_cell_formula_units_Z   1
loop_
 _symmetry_equiv_pos_site_id
 _symmetry_equiv_pos_as_xyz
  1  'x, y, z'
loop_
 _atom_site_type_symbol
 _atom_site_label
 _atom_site_symmetry_multiplicity
 _atom_site_fract_x
 _atom_site_fract_y
 _atom_site_fract_z
 _atom_site_occupancy
  Li  Li0  1  0.000000  0.000000  0.500000  1
  Ti  Ti1  1  0.841117  0.682234  0.773826  1
  Ti  Ti2  1  0.158883  0.841117  0.226174  1
  Ti  Ti3  1  0.682234  0.841117  0.226174  1
  Ti  Ti4  1  0.317766  0.158883  0.773826  1
  Ti  Ti5  1  0.841117  0.158883  0.773826  1
  Ti  Ti6  1  0.158883  0.317766  0.226174  1
  Ti  Ti7  1  0.500000  0.000000  0.500000  1
  Ti  Ti8  1  0.000000  0.500000  0.500000  1
  Ti  Ti9  1  0.500000  0.500000  0.500000  1
  Nb  Nb10  1  0.500000  0.500000  0.000000  1
  Nb  Nb11  1  0.000000  0.500000  0.000000  1
  Nb  Nb12  1  0.500000  0.000000  0.000000  1
  Sn  Sn13  1  0.196299  0.392599  0.732088  1
  Sn  Sn14  1  0.803701  0.196299  0.267912  1
  Sn  Sn15  1  0.392599  0.196299  0.267912  1
  Sn  Sn16  1  0.607401  0.803701  0.732088  1
  Sn  Sn17  1  0.196299  0.803701  0.732088  1
  Sn  Sn18  1  0.803701  0.607401  0.267912  1
  Sn  Sn19  1  0.666667  0.333333  0.758160  1
  Sn  Sn20  1  0.333333  0.666667  0.241840  1
  Sn  Sn21  1  0.000000  0.000000  0.000000  1
