# generated using pymatgen
data_Th4Cu3Hg2Rh
_symmetry_space_group_name_H-M   'P 1'
_cell_length_a   7.75075847
_cell_length_b   7.75075847
_cell_length_c   3.84516900
_cell_angle_alpha   90.00000000
_cell_angle_beta   90.00000000
_cell_angle_gamma   89.92941850
_symmetry_Int_Tables_number   1
_chemical_formula_structural   Th4Cu3Hg2Rh
_chemical_formula_sum   'Th4 Cu3 Hg2 Rh1'
_cell_volume   230.99549492
_cell_formula_units_Z   1
loop_
 _symmetry_equiv_pos_site_id
 _symmetry_equiv_pos_as_xyz
  1  'x, y, z'
loop_
 _atom_site_type_symbol
 _atom_site_label
 _atom_site_symmetry_multiplicity
 _atom_site_fract_x
 _atom_site_fract_y
 _atom_site_fract_z
 _atom_site_occupancy
  Th  Th0  1  0.322049  0.166939  0.500001  1
  Th  Th1  1  0.827501  0.327501  0.500001  1
  Th  Th2  1  0.182026  0.682026  0.500001  1
  Th  Th3  1  0.666939  0.822049  0.500001  1
  Cu  Cu4  1  0.626927  0.126929  0.000000  1
  Cu  Cu5  1  0.121064  0.384201  0.000000  1
  Cu  Cu6  1  0.884201  0.621062  0.000000  1
  Hg  Hg7  1  0.989679  0.000622  0.000000  1
  Hg  Hg8  1  0.500622  0.489679  0.000000  1
  Rh  Rh9  1  0.378994  0.878994  0.000000  1
