# generated using pymatgen
data_DyNi4Ir
_symmetry_space_group_name_H-M   'P 1'
_cell_length_a   5.02409075
_cell_length_b   5.02409134
_cell_length_c   4.00171200
_cell_angle_alpha   90.00000000
_cell_angle_beta   90.00000000
_cell_angle_gamma   122.12366672
_symmetry_Int_Tables_number   1
_chemical_formula_structural   DyNi4Ir
_chemical_formula_sum   'Dy1 Ni4 Ir1'
_cell_volume   85.54490905
_cell_formula_units_Z   1
loop_
 _symmetry_equiv_pos_site_id
 _symmetry_equiv_pos_as_xyz
  1  'x, y, z'
loop_
 _atom_site_type_symbol
 _atom_site_label
 _atom_site_symmetry_multiplicity
 _atom_site_fract_x
 _atom_site_fract_y
 _atom_site_fract_z
 _atom_site_occupancy
  Dy  Dy0  1  0.000000  0.000000  0.000000  1
  Ni  Ni1  1  0.000000  0.500000  0.500000  1
  Ni  Ni2  1  0.326540  0.673460  0.000000  1
  Ni  Ni3  1  0.673460  0.326540  0.000000  1
  Ni  Ni4  1  0.500000  0.000000  0.500000  1
  Ir  Ir5  1  0.500000  0.500000  0.500000  1
