# generated using pymatgen
data_Nd8Zn8CuIr5Rh2
_symmetry_space_group_name_H-M   'P 1'
_cell_length_a   4.04070800
_cell_length_b   7.33242094
_cell_length_c   16.64987901
_cell_angle_alpha   90.37531117
_cell_angle_beta   90.00000000
_cell_angle_gamma   90.00000000
_symmetry_Int_Tables_number   1
_chemical_formula_structural   Nd8Zn8CuIr5Rh2
_chemical_formula_sum   'Nd8 Zn8 Cu1 Ir5 Rh2'
_cell_volume   493.29489459
_cell_formula_units_Z   1
loop_
 _symmetry_equiv_pos_site_id
 _symmetry_equiv_pos_as_xyz
  1  'x, y, z'
loop_
 _atom_site_type_symbol
 _atom_site_label
 _atom_site_symmetry_multiplicity
 _atom_site_fract_x
 _atom_site_fract_y
 _atom_site_fract_z
 _atom_site_occupancy
  Nd  Nd0  1  0.250000  0.168542  0.938920  1
  Nd  Nd1  1  0.250000  0.664594  0.565117  1
  Nd  Nd2  1  0.750000  0.328771  0.439994  1
  Nd  Nd3  1  0.750000  0.955571  0.281137  1
  Nd  Nd4  1  0.750000  0.831469  0.061180  1
  Nd  Nd5  1  0.750000  0.450354  0.215611  1
  Nd  Nd6  1  0.250000  0.050332  0.715317  1
  Nd  Nd7  1  0.250000  0.547209  0.785052  1
  Zn  Zn8  1  0.750000  0.002657  0.562001  1
  Zn  Zn9  1  0.250000  0.625564  0.348050  1
  Zn  Zn10  1  0.750000  0.378786  0.651158  1
  Zn  Zn11  1  0.250000  0.498168  0.060531  1
  Zn  Zn12  1  0.750000  0.501705  0.939771  1
  Zn  Zn13  1  0.250000  0.998177  0.438078  1
  Zn  Zn14  1  0.250000  0.123329  0.150346  1
  Zn  Zn15  1  0.750000  0.876985  0.848340  1
  Cu  Cu16  1  0.750000  0.760716  0.434534  1
  Ir  Ir17  1  0.250000  0.247480  0.315112  1
  Ir  Ir18  1  0.750000  0.252076  0.814100  1
  Ir  Ir19  1  0.750000  0.753359  0.684100  1
  Ir  Ir20  1  0.250000  0.241238  0.563732  1
  Ir  Ir21  1  0.250000  0.745072  0.187907  1
  Rh  Rh22  1  0.750000  0.254452  0.064897  1
  Rh  Rh23  1  0.250000  0.743396  0.935017  1
