# generated using pymatgen
data_Li3Sm3GePb2
_symmetry_space_group_name_H-M   'P 1'
_cell_length_a   7.44367200
_cell_length_b   7.44367282
_cell_length_c   4.57381000
_cell_angle_alpha   90.00000000
_cell_angle_beta   90.00000000
_cell_angle_gamma   119.99999634
_symmetry_Int_Tables_number   1
_chemical_formula_structural   Li3Sm3GePb2
_chemical_formula_sum   'Li3 Sm3 Ge1 Pb2'
_cell_volume   219.47409730
_cell_formula_units_Z   1
loop_
 _symmetry_equiv_pos_site_id
 _symmetry_equiv_pos_as_xyz
  1  'x, y, z'
loop_
 _atom_site_type_symbol
 _atom_site_label
 _atom_site_symmetry_multiplicity
 _atom_site_fract_x
 _atom_site_fract_y
 _atom_site_fract_z
 _atom_site_occupancy
  Li  Li0  1  0.243966  0.007922  0.500000  1
  Li  Li1  1  0.763956  0.756034  0.500000  1
  Li  Li2  1  0.992078  0.236044  0.500000  1
  Sm  Sm3  1  0.989009  0.558559  0.000000  1
  Sm  Sm4  1  0.569550  0.010991  0.000000  1
  Sm  Sm5  1  0.441441  0.430450  0.000000  1
  Ge  Ge6  1  0.666667  0.333333  0.500000  1
  Pb  Pb7  1  0.333333  0.666667  0.500000  1
  Pb  Pb8  1  0.000000  0.000000  0.000000  1
