# generated using pymatgen
data_Ho4TiRe5Si8
_symmetry_space_group_name_H-M   'P 1'
_cell_length_a   6.77448600
_cell_length_b   6.77448537
_cell_length_c   12.99999800
_cell_angle_alpha   90.00000000
_cell_angle_beta   90.00000000
_cell_angle_gamma   91.30137040
_symmetry_Int_Tables_number   1
_chemical_formula_structural   Ho4TiRe5Si8
_chemical_formula_sum   'Ho8 Ti2 Re10 Si16'
_cell_volume   596.46355215
_cell_formula_units_Z   2
loop_
 _symmetry_equiv_pos_site_id
 _symmetry_equiv_pos_as_xyz
  1  'x, y, z'
loop_
 _atom_site_type_symbol
 _atom_site_label
 _atom_site_symmetry_multiplicity
 _atom_site_fract_x
 _atom_site_fract_y
 _atom_site_fract_z
 _atom_site_occupancy
  Ho  Ho0  1  0.317880  0.985022  0.465853  1
  Ho  Ho1  1  0.682122  0.014977  0.965853  1
  Ho  Ho2  1  0.838052  0.500154  0.275841  1
  Ho  Ho3  1  0.161948  0.499845  0.775841  1
  Ho  Ho4  1  0.014977  0.682122  0.034147  1
  Ho  Ho5  1  0.985022  0.317880  0.534147  1
  Ho  Ho6  1  0.499845  0.161948  0.224158  1
  Ho  Ho7  1  0.500154  0.838052  0.724158  1
  Ti  Ti8  1  0.345681  0.345681  0.000000  1
  Ti  Ti9  1  0.654319  0.654319  0.500000  1
  Re  Re10  1  0.834353  0.165647  0.749999  1
  Re  Re11  1  0.165647  0.834353  0.250000  1
  Re  Re12  1  0.195191  0.030243  0.884827  1
  Re  Re13  1  0.804809  0.969757  0.384826  1
  Re  Re14  1  0.687671  0.524855  0.884619  1
  Re  Re15  1  0.312330  0.475145  0.384619  1
  Re  Re16  1  0.969757  0.804809  0.615174  1
  Re  Re17  1  0.030243  0.195191  0.115174  1
  Re  Re18  1  0.475145  0.312330  0.615381  1
  Re  Re19  1  0.524855  0.687671  0.115381  1
  Si  Si20  1  0.309127  0.974229  0.066276  1
  Si  Si21  1  0.690873  0.025773  0.566276  1
  Si  Si22  1  0.759626  0.514192  0.693991  1
  Si  Si23  1  0.240374  0.485810  0.193992  1
  Si  Si24  1  0.025773  0.690873  0.433723  1
  Si  Si25  1  0.974229  0.309127  0.933723  1
  Si  Si26  1  0.485810  0.240374  0.806008  1
  Si  Si27  1  0.514192  0.759626  0.306008  1
  Si  Si28  1  0.181397  0.096882  0.690357  1
  Si  Si29  1  0.818603  0.903119  0.190357  1
  Si  Si30  1  0.712593  0.383851  0.068334  1
  Si  Si31  1  0.287407  0.616151  0.568334  1
  Si  Si32  1  0.903119  0.818603  0.809644  1
  Si  Si33  1  0.096882  0.181397  0.309644  1
  Si  Si34  1  0.616151  0.287407  0.431665  1
  Si  Si35  1  0.383851  0.712593  0.931665  1
