# generated using pymatgen
data_LiLu12InFe3
_symmetry_space_group_name_H-M   'P 1'
_cell_length_a   8.16490780
_cell_length_b   8.16490914
_cell_length_c   8.16490793
_cell_angle_alpha   106.15389442
_cell_angle_beta   110.14550625
_cell_angle_gamma   112.17125361
_symmetry_Int_Tables_number   1
_chemical_formula_structural   LiLu12InFe3
_chemical_formula_sum   'Li1 Lu12 In1 Fe3'
_cell_volume   417.83267087
_cell_formula_units_Z   1
loop_
 _symmetry_equiv_pos_site_id
 _symmetry_equiv_pos_as_xyz
  1  'x, y, z'
loop_
 _atom_site_type_symbol
 _atom_site_label
 _atom_site_symmetry_multiplicity
 _atom_site_fract_x
 _atom_site_fract_y
 _atom_site_fract_z
 _atom_site_occupancy
  Li  Li0  1  0.500000  0.000000  0.500000  1
  Lu  Lu1  1  0.307089  0.311843  0.618931  1
  Lu  Lu2  1  0.692911  0.688157  0.381069  1
  Lu  Lu3  1  0.692911  0.311843  0.004754  1
  Lu  Lu4  1  0.307089  0.688157  0.995246  1
  Lu  Lu5  1  0.190595  0.421294  0.230699  1
  Lu  Lu6  1  0.809405  0.578706  0.769301  1
  Lu  Lu7  1  0.190595  0.959895  0.769301  1
  Lu  Lu8  1  0.949903  0.192511  0.757392  1
  Lu  Lu9  1  0.809405  0.040105  0.230699  1
  Lu  Lu10  1  0.050097  0.807489  0.242608  1
  Lu  Lu11  1  0.435119  0.192511  0.242608  1
  Lu  Lu12  1  0.564881  0.807489  0.757392  1
  In  In13  1  0.000000  0.500000  0.500000  1
  Fe  Fe14  1  0.380917  0.380917  0.000000  1
  Fe  Fe15  1  0.619083  0.619083  0.000000  1
  Fe  Fe16  1  0.000000  0.000000  0.000000  1
