# generated using pymatgen
data_TbYb(Zn10Cu)2
_symmetry_space_group_name_H-M   'P 1'
_cell_length_a   8.19297607
_cell_length_b   8.19297439
_cell_length_c   8.17765044
_cell_angle_alpha   99.84447486
_cell_angle_beta   99.84447247
_cell_angle_gamma   131.16415102
_symmetry_Int_Tables_number   1
_chemical_formula_structural   TbYb(Zn10Cu)2
_chemical_formula_sum   'Tb1 Yb1 Zn20 Cu2'
_cell_volume   376.24351746
_cell_formula_units_Z   1
loop_
 _symmetry_equiv_pos_site_id
 _symmetry_equiv_pos_as_xyz
  1  'x, y, z'
loop_
 _atom_site_type_symbol
 _atom_site_label
 _atom_site_symmetry_multiplicity
 _atom_site_fract_x
 _atom_site_fract_y
 _atom_site_fract_z
 _atom_site_occupancy
  Tb  Tb0  1  0.500542  0.499458  0.000000  1
  Yb  Yb1  1  0.750081  0.249919  0.500000  1
  Zn  Zn2  1  0.405642  0.079352  0.086177  1
  Zn  Zn3  1  0.991260  0.314902  0.918547  1
  Zn  Zn4  1  0.262615  0.673294  0.828264  1
  Zn  Zn5  1  0.852878  0.430891  0.176905  1
  Zn  Zn6  1  0.920648  0.594358  0.913823  1
  Zn  Zn7  1  0.685098  0.008740  0.081453  1
  Zn  Zn8  1  0.326706  0.737385  0.171736  1
  Zn  Zn9  1  0.569109  0.147122  0.823095  1
  Zn  Zn10  1  0.843440  0.670975  0.413708  1
  Zn  Zn11  1  0.259107  0.434213  0.581489  1
  Zn  Zn12  1  0.987805  0.077171  0.673078  1
  Zn  Zn13  1  0.396216  0.318393  0.322095  1
  Zn  Zn14  1  0.329025  0.156560  0.586292  1
  Zn  Zn15  1  0.565787  0.740893  0.418511  1
  Zn  Zn16  1  0.922829  0.012195  0.326922  1
  Zn  Zn17  1  0.681607  0.603784  0.677905  1
  Zn  Zn18  1  0.254357  0.745643  0.500000  1
  Zn  Zn19  1  0.995506  0.004494  0.000000  1
  Zn  Zn20  1  0.125394  0.875118  0.749642  1
  Zn  Zn21  1  0.124882  0.874606  0.250358  1
  Cu  Cu22  1  0.125243  0.375774  0.250571  1
  Cu  Cu23  1  0.624226  0.874757  0.749429  1
