# generated using pymatgen
data_CePrSm6(Si3Pd)4
_symmetry_space_group_name_H-M   'P 1'
_cell_length_a   8.20930700
_cell_length_b   8.20930776
_cell_length_c   8.37763500
_cell_angle_alpha   90.00000000
_cell_angle_beta   90.00000000
_cell_angle_gamma   120.00000096
_symmetry_Int_Tables_number   1
_chemical_formula_structural   CePrSm6(Si3Pd)4
_chemical_formula_sum   'Ce1 Pr1 Sm6 Si12 Pd4'
_cell_volume   488.95072778
_cell_formula_units_Z   1
loop_
 _symmetry_equiv_pos_site_id
 _symmetry_equiv_pos_as_xyz
  1  'x, y, z'
loop_
 _atom_site_type_symbol
 _atom_site_label
 _atom_site_symmetry_multiplicity
 _atom_site_fract_x
 _atom_site_fract_y
 _atom_site_fract_z
 _atom_site_occupancy
  Ce  Ce0  1  0.000000  0.000000  0.750000  1
  Pr  Pr1  1  0.000000  0.000000  0.250000  1
  Sm  Sm2  1  0.499575  0.500425  0.750000  1
  Sm  Sm3  1  0.500430  0.499570  0.250000  1
  Sm  Sm4  1  0.000851  0.500425  0.750000  1
  Sm  Sm5  1  0.999139  0.499570  0.250000  1
  Sm  Sm6  1  0.499575  0.999149  0.750000  1
  Sm  Sm7  1  0.500430  0.000861  0.250000  1
  Si  Si8  1  0.834345  0.165655  0.997461  1
  Si  Si9  1  0.165664  0.834336  0.997424  1
  Si  Si10  1  0.331310  0.165655  0.997461  1
  Si  Si11  1  0.165664  0.834336  0.502576  1
  Si  Si12  1  0.668672  0.834336  0.997424  1
  Si  Si13  1  0.834345  0.165655  0.502539  1
  Si  Si14  1  0.834345  0.668690  0.997461  1
  Si  Si15  1  0.668672  0.834336  0.502576  1
  Si  Si16  1  0.165664  0.331328  0.997424  1
  Si  Si17  1  0.331310  0.165655  0.502539  1
  Si  Si18  1  0.165664  0.331328  0.502576  1
  Si  Si19  1  0.834345  0.668690  0.502539  1
  Pd  Pd20  1  0.666667  0.333333  0.999914  1
  Pd  Pd21  1  0.333333  0.666667  0.002510  1
  Pd  Pd22  1  0.333333  0.666667  0.497490  1
  Pd  Pd23  1  0.666667  0.333333  0.500086  1
