# generated using pymatgen
data_Er2Sc3In4PtRh
_symmetry_space_group_name_H-M   'P 1'
_cell_length_a   3.53456900
_cell_length_b   7.82788876
_cell_length_c   17.68751719
_cell_angle_alpha   90.15040571
_cell_angle_beta   90.00000000
_cell_angle_gamma   90.00000000
_symmetry_Int_Tables_number   1
_chemical_formula_structural   Er2Sc3In4PtRh
_chemical_formula_sum   'Er4 Sc6 In8 Pt2 Rh2'
_cell_volume   489.38030613
_cell_formula_units_Z   2
loop_
 _symmetry_equiv_pos_site_id
 _symmetry_equiv_pos_as_xyz
  1  'x, y, z'
loop_
 _atom_site_type_symbol
 _atom_site_label
 _atom_site_symmetry_multiplicity
 _atom_site_fract_x
 _atom_site_fract_y
 _atom_site_fract_z
 _atom_site_occupancy
  Er  Er0  1  0.000000  0.240655  0.220262  1
  Er  Er1  1  0.000000  0.759345  0.779738  1
  Er  Er2  1  0.000000  0.253073  0.719077  1
  Er  Er3  1  0.000000  0.746927  0.280923  1
  Sc  Sc4  1  0.000000  0.115203  0.413820  1
  Sc  Sc5  1  0.000000  0.884797  0.586180  1
  Sc  Sc6  1  0.000000  0.383670  0.915746  1
  Sc  Sc7  1  0.000000  0.616330  0.084254  1
  Sc  Sc8  1  0.000000  0.000000  0.000000  1
  Sc  Sc9  1  0.000000  0.500000  0.500000  1
  In  In10  1  0.500000  0.418307  0.355511  1
  In  In11  1  0.500000  0.581693  0.644489  1
  In  In12  1  0.500000  0.079150  0.854826  1
  In  In13  1  0.500000  0.920850  0.145174  1
  In  In14  1  0.500000  0.294056  0.060950  1
  In  In15  1  0.500000  0.705944  0.939050  1
  In  In16  1  0.500000  0.204464  0.561770  1
  In  In17  1  0.500000  0.795536  0.438230  1
  Pt  Pt18  1  0.500000  0.470447  0.807972  1
  Pt  Pt19  1  0.500000  0.529553  0.192028  1
  Rh  Rh20  1  0.500000  0.029548  0.308579  1
  Rh  Rh21  1  0.500000  0.970452  0.691421  1
