# generated using pymatgen
data_Nd4Hg2RhAu3
_symmetry_space_group_name_H-M   'P 1'
_cell_length_a   8.07797597
_cell_length_b   8.07797607
_cell_length_c   3.86094600
_cell_angle_alpha   90.00000000
_cell_angle_beta   90.00000000
_cell_angle_gamma   90.20888761
_symmetry_Int_Tables_number   1
_chemical_formula_structural   Nd4Hg2RhAu3
_chemical_formula_sum   'Nd4 Hg2 Rh1 Au3'
_cell_volume   251.93932427
_cell_formula_units_Z   1
loop_
 _symmetry_equiv_pos_site_id
 _symmetry_equiv_pos_as_xyz
  1  'x, y, z'
loop_
 _atom_site_type_symbol
 _atom_site_label
 _atom_site_symmetry_multiplicity
 _atom_site_fract_x
 _atom_site_fract_y
 _atom_site_fract_z
 _atom_site_occupancy
  Nd  Nd0  1  0.846995  0.680912  0.500000  1
  Nd  Nd1  1  0.312143  0.812143  0.500000  1
  Nd  Nd2  1  0.671858  0.171858  0.500000  1
  Nd  Nd3  1  0.180912  0.346995  0.500000  1
  Hg  Hg4  1  0.001551  0.995989  0.000000  1
  Hg  Hg5  1  0.495989  0.501551  0.000000  1
  Rh  Rh6  1  0.124634  0.624634  0.000000  1
  Au  Au7  1  0.875205  0.375205  0.000000  1
  Au  Au8  1  0.369360  0.121354  0.000000  1
  Au  Au9  1  0.621354  0.869360  0.000000  1
