# generated using pymatgen
data_Tb3ZrZn2Ir3
_symmetry_space_group_name_H-M   'P 1'
_cell_length_a   7.11188100
_cell_length_b   7.20877420
_cell_length_c   4.13968500
_cell_angle_alpha   90.00000000
_cell_angle_beta   90.00000000
_cell_angle_gamma   119.55635763
_symmetry_Int_Tables_number   1
_chemical_formula_structural   Tb3ZrZn2Ir3
_chemical_formula_sum   'Tb3 Zr1 Zn2 Ir3'
_cell_volume   184.61543529
_cell_formula_units_Z   1
loop_
 _symmetry_equiv_pos_site_id
 _symmetry_equiv_pos_as_xyz
  1  'x, y, z'
loop_
 _atom_site_type_symbol
 _atom_site_label
 _atom_site_symmetry_multiplicity
 _atom_site_fract_x
 _atom_site_fract_y
 _atom_site_fract_z
 _atom_site_occupancy
  Tb  Tb0  1  0.612923  0.000000  0.000000  1
  Tb  Tb1  1  0.985609  0.568554  0.000000  1
  Tb  Tb2  1  0.417055  0.431446  0.000000  1
  Zr  Zr3  1  0.239805  0.000000  0.500000  1
  Zn  Zn4  1  0.001257  0.249576  0.500000  1
  Zn  Zn5  1  0.751681  0.750424  0.500000  1
  Ir  Ir6  1  0.325827  0.671965  0.500000  1
  Ir  Ir7  1  0.653864  0.328035  0.500000  1
  Ir  Ir8  1  0.011978  0.000000  0.000000  1
