# generated using pymatgen
data_Eu5Ge2BiF
_symmetry_space_group_name_H-M   'P 1'
_cell_length_a   9.54955240
_cell_length_b   9.54955413
_cell_length_c   9.54955300
_cell_angle_alpha   129.19408484
_cell_angle_beta   129.19408555
_cell_angle_gamma   74.69847687
_symmetry_Int_Tables_number   1
_chemical_formula_structural   Eu5Ge2BiF
_chemical_formula_sum   'Eu10 Ge4 Bi2 F2'
_cell_volume   509.59825604
_cell_formula_units_Z   2
loop_
 _symmetry_equiv_pos_site_id
 _symmetry_equiv_pos_as_xyz
  1  'x, y, z'
loop_
 _atom_site_type_symbol
 _atom_site_label
 _atom_site_symmetry_multiplicity
 _atom_site_fract_x
 _atom_site_fract_y
 _atom_site_fract_z
 _atom_site_occupancy
  Eu  Eu0  1  0.500000  0.500000  0.000000  1
  Eu  Eu1  1  0.000000  0.000000  0.000000  1
  Eu  Eu2  1  0.521162  0.021162  0.823634  1
  Eu  Eu3  1  0.197528  0.697528  0.176366  1
  Eu  Eu4  1  0.021162  0.197528  0.500000  1
  Eu  Eu5  1  0.697528  0.521162  0.500000  1
  Eu  Eu6  1  0.478838  0.978838  0.176366  1
  Eu  Eu7  1  0.802472  0.302472  0.823634  1
  Eu  Eu8  1  0.978838  0.802472  0.500000  1
  Eu  Eu9  1  0.302472  0.478838  0.500000  1
  Ge  Ge10  1  0.878147  0.378147  0.256295  1
  Ge  Ge11  1  0.121853  0.621853  0.743706  1
  Ge  Ge12  1  0.378147  0.121853  0.500000  1
  Ge  Ge13  1  0.621853  0.878147  0.500000  1
  Bi  Bi14  1  0.250000  0.250000  0.000000  1
  Bi  Bi15  1  0.750000  0.750000  0.000000  1
  F  F16  1  0.250000  0.750000  0.500000  1
  F  F17  1  0.750000  0.250000  0.500000  1
