# generated using pymatgen
data_Hg4Ir3PtO14
_symmetry_space_group_name_H-M   'P 1'
_cell_length_a   7.29866266
_cell_length_b   7.29866232
_cell_length_c   7.29866300
_cell_angle_alpha   60.33099818
_cell_angle_beta   60.33099970
_cell_angle_gamma   60.33100886
_symmetry_Int_Tables_number   1
_chemical_formula_structural   Hg4Ir3PtO14
_chemical_formula_sum   'Hg4 Ir3 Pt1 O14'
_cell_volume   276.98427545
_cell_formula_units_Z   1
loop_
 _symmetry_equiv_pos_site_id
 _symmetry_equiv_pos_as_xyz
  1  'x, y, z'
loop_
 _atom_site_type_symbol
 _atom_site_label
 _atom_site_symmetry_multiplicity
 _atom_site_fract_x
 _atom_site_fract_y
 _atom_site_fract_z
 _atom_site_occupancy
  Hg  Hg0  1  0.125000  0.125000  0.125000  1
  Hg  Hg1  1  0.625000  0.125000  0.125000  1
  Hg  Hg2  1  0.125000  0.625000  0.125000  1
  Hg  Hg3  1  0.125000  0.125000  0.625000  1
  Ir  Ir4  1  0.625000  0.625000  0.125000  1
  Ir  Ir5  1  0.625000  0.125000  0.625000  1
  Ir  Ir6  1  0.125000  0.625000  0.625000  1
  Pt  Pt7  1  0.625000  0.625000  0.625000  1
  O  O8  1  0.701039  0.309045  0.309045  1
  O  O9  1  0.703348  0.292966  0.703348  1
  O  O10  1  0.001985  0.001985  0.001985  1
  O  O11  1  0.309045  0.701039  0.309045  1
  O  O12  1  0.703348  0.703348  0.292966  1
  O  O13  1  0.957034  0.546652  0.546652  1
  O  O14  1  0.292966  0.703348  0.703348  1
  O  O15  1  0.248015  0.248015  0.248015  1
  O  O16  1  0.940955  0.548961  0.940955  1
  O  O17  1  0.546652  0.957034  0.546652  1
  O  O18  1  0.546652  0.546652  0.957034  1
  O  O19  1  0.940955  0.940955  0.548961  1
  O  O20  1  0.548961  0.940955  0.940955  1
  O  O21  1  0.309045  0.309045  0.701039  1
