# generated using pymatgen
data_SmTiCo4P3
_symmetry_space_group_name_H-M   'P 1'
_cell_length_a   3.68257900
_cell_length_b   10.53036700
_cell_length_c   12.01085600
_cell_angle_alpha   90.00000000
_cell_angle_beta   90.00000000
_cell_angle_gamma   90.00000000
_symmetry_Int_Tables_number   1
_chemical_formula_structural   SmTiCo4P3
_chemical_formula_sum   'Sm4 Ti4 Co16 P12'
_cell_volume   465.76788435
_cell_formula_units_Z   4
loop_
 _symmetry_equiv_pos_site_id
 _symmetry_equiv_pos_as_xyz
  1  'x, y, z'
loop_
 _atom_site_type_symbol
 _atom_site_label
 _atom_site_symmetry_multiplicity
 _atom_site_fract_x
 _atom_site_fract_y
 _atom_site_fract_z
 _atom_site_occupancy
  Sm  Sm0  1  0.250000  0.917790  0.205306  1
  Sm  Sm1  1  0.750000  0.082210  0.794694  1
  Sm  Sm2  1  0.750000  0.417790  0.294694  1
  Sm  Sm3  1  0.250000  0.582210  0.705306  1
  Ti  Ti4  1  0.250000  0.798725  0.491047  1
  Ti  Ti5  1  0.750000  0.201275  0.508953  1
  Ti  Ti6  1  0.750000  0.298725  0.008953  1
  Ti  Ti7  1  0.250000  0.701275  0.991047  1
  Co  Co8  1  0.250000  0.093806  0.991069  1
  Co  Co9  1  0.750000  0.906194  0.008931  1
  Co  Co10  1  0.750000  0.593806  0.508931  1
  Co  Co11  1  0.250000  0.406194  0.491069  1
  Co  Co12  1  0.250000  0.278214  0.675135  1
  Co  Co13  1  0.750000  0.721786  0.324865  1
  Co  Co14  1  0.750000  0.778214  0.824865  1
  Co  Co15  1  0.250000  0.221786  0.175135  1
  Co  Co16  1  0.250000  0.615452  0.199780  1
  Co  Co17  1  0.750000  0.384548  0.800220  1
  Co  Co18  1  0.750000  0.115452  0.300220  1
  Co  Co19  1  0.250000  0.884548  0.699780  1
  Co  Co20  1  0.250000  0.035171  0.433559  1
  Co  Co21  1  0.750000  0.964829  0.566441  1
  Co  Co22  1  0.750000  0.535171  0.066441  1
  Co  Co23  1  0.250000  0.464829  0.933559  1
  P  P24  1  0.250000  0.078361  0.614086  1
  P  P25  1  0.750000  0.921639  0.385914  1
  P  P26  1  0.750000  0.578361  0.885914  1
  P  P27  1  0.250000  0.421639  0.114086  1
  P  P28  1  0.250000  0.227949  0.361994  1
  P  P29  1  0.750000  0.772051  0.638006  1
  P  P30  1  0.750000  0.727949  0.138006  1
  P  P31  1  0.250000  0.272051  0.861994  1
  P  P32  1  0.250000  0.905042  0.891736  1
  P  P33  1  0.750000  0.094958  0.108264  1
  P  P34  1  0.750000  0.405042  0.608264  1
  P  P35  1  0.250000  0.594958  0.391736  1
