# generated using pymatgen
data_Np3TiGe5
_symmetry_space_group_name_H-M   'P 1'
_cell_length_a   8.52192500
_cell_length_b   8.52067537
_cell_length_c   5.69924400
_cell_angle_alpha   90.00001543
_cell_angle_beta   90.00000000
_cell_angle_gamma   120.00591459
_symmetry_Int_Tables_number   1
_chemical_formula_structural   Np3TiGe5
_chemical_formula_sum   'Np6 Ti2 Ge10'
_cell_volume   358.37171321
_cell_formula_units_Z   2
loop_
 _symmetry_equiv_pos_site_id
 _symmetry_equiv_pos_as_xyz
  1  'x, y, z'
loop_
 _atom_site_type_symbol
 _atom_site_label
 _atom_site_symmetry_multiplicity
 _atom_site_fract_x
 _atom_site_fract_y
 _atom_site_fract_z
 _atom_site_occupancy
  Np  Np0  1  0.611445  0.000013  0.249998  1
  Np  Np1  1  0.611423  0.611415  0.750001  1
  Np  Np2  1  0.999994  0.388572  0.750003  1
  Np  Np3  1  0.000006  0.611428  0.249997  1
  Np  Np4  1  0.388577  0.388585  0.249999  1
  Np  Np5  1  0.388555  0.999987  0.750002  1
  Ti  Ti6  1  0.000000  0.000000  0.000000  1
  Ti  Ti7  1  0.000000  0.000000  0.500000  1
  Ge  Ge8  1  0.262397  0.999996  0.249986  1
  Ge  Ge9  1  0.262485  0.262597  0.750015  1
  Ge  Ge10  1  0.999896  0.737390  0.750014  1
  Ge  Ge11  1  0.000104  0.262610  0.249986  1
  Ge  Ge12  1  0.737515  0.737403  0.249985  1
  Ge  Ge13  1  0.737603  0.000004  0.750014  1
  Ge  Ge14  1  0.333258  0.666523  0.999999  1
  Ge  Ge15  1  0.666742  0.333477  0.499999  1
  Ge  Ge16  1  0.666742  0.333477  0.000001  1
  Ge  Ge17  1  0.333258  0.666523  0.500001  1
