# generated using pymatgen
data_Tl2RuRh3Pb2O13
_symmetry_space_group_name_H-M   'P 1'
_cell_length_a   7.28942378
_cell_length_b   7.28442032
_cell_length_c   7.28442162
_cell_angle_alpha   60.05859307
_cell_angle_beta   60.17709592
_cell_angle_gamma   60.17709402
_symmetry_Int_Tables_number   1
_chemical_formula_structural   Tl2RuRh3Pb2O13
_chemical_formula_sum   'Tl2 Ru1 Rh3 Pb2 O13'
_cell_volume   274.35860368
_cell_formula_units_Z   1
loop_
 _symmetry_equiv_pos_site_id
 _symmetry_equiv_pos_as_xyz
  1  'x, y, z'
loop_
 _atom_site_type_symbol
 _atom_site_label
 _atom_site_symmetry_multiplicity
 _atom_site_fract_x
 _atom_site_fract_y
 _atom_site_fract_z
 _atom_site_occupancy
  Tl  Tl0  1  0.877577  0.374277  0.374277  1
  Tl  Tl1  1  0.372540  0.372289  0.372289  1
  Ru  Ru2  1  0.372608  0.875881  0.875881  1
  Rh  Rh3  1  0.875876  0.372301  0.876095  1
  Rh  Rh4  1  0.875876  0.876095  0.372301  1
  Rh  Rh5  1  0.875719  0.875658  0.875658  1
  Pb  Pb6  1  0.374770  0.374511  0.877602  1
  Pb  Pb7  1  0.374770  0.877602  0.374511  1
  O  O8  1  0.202833  0.799480  0.799480  1
  O  O9  1  0.201902  0.804149  0.195295  1
  O  O10  1  0.549094  0.949040  0.949040  1
  O  O11  1  0.548755  0.946146  0.554354  1
  O  O12  1  0.958380  0.954402  0.543906  1
  O  O13  1  0.794004  0.795548  0.204434  1
  O  O14  1  0.548755  0.554354  0.946146  1
  O  O15  1  0.794004  0.204434  0.795548  1
  O  O16  1  0.793076  0.203687  0.203687  1
  O  O17  1  0.958380  0.543906  0.954402  1
  O  O18  1  0.957559  0.545053  0.545053  1
  O  O19  1  0.201902  0.195295  0.804149  1
  O  O20  1  0.491618  0.505895  0.505895  1
