# generated using pymatgen
data_LiNd2Dy(Co4P3)2
_symmetry_space_group_name_H-M   'P 1'
_cell_length_a   3.75859100
_cell_length_b   10.65955600
_cell_length_c   12.31793600
_cell_angle_alpha   90.00000000
_cell_angle_beta   90.00000000
_cell_angle_gamma   90.00000000
_symmetry_Int_Tables_number   1
_chemical_formula_structural   LiNd2Dy(Co4P3)2
_chemical_formula_sum   'Li2 Nd4 Dy2 Co16 P12'
_cell_volume   493.51701257
_cell_formula_units_Z   2
loop_
 _symmetry_equiv_pos_site_id
 _symmetry_equiv_pos_as_xyz
  1  'x, y, z'
loop_
 _atom_site_type_symbol
 _atom_site_label
 _atom_site_symmetry_multiplicity
 _atom_site_fract_x
 _atom_site_fract_y
 _atom_site_fract_z
 _atom_site_occupancy
  Li  Li0  1  0.500000  0.500000  0.150820  1
  Li  Li1  1  0.000000  0.000000  0.849557  1
  Nd  Nd2  1  0.000000  0.500000  0.522320  1
  Nd  Nd3  1  0.500000  0.000000  0.475896  1
  Nd  Nd4  1  0.000000  0.681424  0.793993  1
  Nd  Nd5  1  0.000000  0.318576  0.793993  1
  Dy  Dy6  1  0.500000  0.819314  0.205805  1
  Dy  Dy7  1  0.500000  0.180686  0.205805  1
  Co  Co8  1  0.500000  0.500000  0.705685  1
  Co  Co9  1  0.000000  0.000000  0.293025  1
  Co  Co10  1  0.000000  0.500000  0.990101  1
  Co  Co11  1  0.500000  0.000000  0.015402  1
  Co  Co12  1  0.500000  0.331771  0.999385  1
  Co  Co13  1  0.500000  0.668229  0.999385  1
  Co  Co14  1  0.000000  0.165947  0.005116  1
  Co  Co15  1  0.000000  0.834053  0.005116  1
  Co  Co16  1  0.500000  0.295969  0.428079  1
  Co  Co17  1  0.500000  0.704031  0.428079  1
  Co  Co18  1  0.000000  0.202615  0.567607  1
  Co  Co19  1  0.000000  0.797385  0.567607  1
  Co  Co20  1  0.500000  0.880639  0.706789  1
  Co  Co21  1  0.500000  0.119361  0.706789  1
  Co  Co22  1  0.000000  0.621066  0.291052  1
  Co  Co23  1  0.000000  0.378934  0.291052  1
  P  P24  1  0.500000  0.500000  0.889653  1
  P  P25  1  0.000000  0.000000  0.115654  1
  P  P26  1  0.500000  0.500000  0.341437  1
  P  P27  1  0.000000  0.000000  0.657518  1
  P  P28  1  0.500000  0.304698  0.612725  1
  P  P29  1  0.500000  0.695302  0.612725  1
  P  P30  1  0.000000  0.193394  0.382051  1
  P  P31  1  0.000000  0.806606  0.382051  1
  P  P32  1  0.500000  0.845544  0.897553  1
  P  P33  1  0.500000  0.154456  0.897553  1
  P  P34  1  0.000000  0.657591  0.106309  1
  P  P35  1  0.000000  0.342409  0.106309  1
