# generated using pymatgen
data_Tm3Lu9(OsRh)2
_symmetry_space_group_name_H-M   'P 1'
_cell_length_a   7.18824970
_cell_length_b   8.92256217
_cell_length_c   6.25782516
_cell_angle_alpha   90.05389007
_cell_angle_beta   90.04461270
_cell_angle_gamma   89.97675808
_symmetry_Int_Tables_number   1
_chemical_formula_structural   Tm3Lu9(OsRh)2
_chemical_formula_sum   'Tm3 Lu9 Os2 Rh2'
_cell_volume   401.36158513
_cell_formula_units_Z   1
loop_
 _symmetry_equiv_pos_site_id
 _symmetry_equiv_pos_as_xyz
  1  'x, y, z'
loop_
 _atom_site_type_symbol
 _atom_site_label
 _atom_site_symmetry_multiplicity
 _atom_site_fract_x
 _atom_site_fract_y
 _atom_site_fract_z
 _atom_site_occupancy
  Tm  Tm0  1  0.676758  0.056712  0.331038  1
  Tm  Tm1  1  0.536598  0.250610  0.874814  1
  Tm  Tm2  1  0.039640  0.250005  0.625895  1
  Lu  Lu3  1  0.176248  0.443341  0.167917  1
  Lu  Lu4  1  0.321211  0.565956  0.676183  1
  Lu  Lu5  1  0.821374  0.934095  0.824009  1
  Lu  Lu6  1  0.321302  0.933774  0.676870  1
  Lu  Lu7  1  0.821252  0.565431  0.824530  1
  Lu  Lu8  1  0.676698  0.443156  0.332043  1
  Lu  Lu9  1  0.176127  0.056936  0.167934  1
  Lu  Lu10  1  0.465393  0.749277  0.122074  1
  Lu  Lu11  1  0.965144  0.749774  0.378660  1
  Os  Os12  1  0.113599  0.750160  0.967493  1
  Os  Os13  1  0.613804  0.749291  0.533482  1
  Rh  Rh14  1  0.887323  0.250568  0.040215  1
  Rh  Rh15  1  0.387528  0.250915  0.456843  1
