# generated using pymatgen
data_Nd3ZnGaSi4
_symmetry_space_group_name_H-M   'P 1'
_cell_length_a   4.24199027
_cell_length_b   4.19815199
_cell_length_c   21.37078175
_cell_angle_alpha   84.38116199
_cell_angle_beta   95.68308570
_cell_angle_gamma   89.99025806
_symmetry_Int_Tables_number   1
_chemical_formula_structural   Nd3ZnGaSi4
_chemical_formula_sum   'Nd6 Zn2 Ga2 Si8'
_cell_volume   376.87306050
_cell_formula_units_Z   2
loop_
 _symmetry_equiv_pos_site_id
 _symmetry_equiv_pos_as_xyz
  1  'x, y, z'
loop_
 _atom_site_type_symbol
 _atom_site_label
 _atom_site_symmetry_multiplicity
 _atom_site_fract_x
 _atom_site_fract_y
 _atom_site_fract_z
 _atom_site_occupancy
  Nd  Nd0  1  0.374391  0.875850  0.248580  1
  Nd  Nd1  1  0.040301  0.210033  0.580139  1
  Nd  Nd2  1  0.705761  0.544172  0.911560  1
  Nd  Nd3  1  0.293725  0.456480  0.087004  1
  Nd  Nd4  1  0.960015  0.790269  0.419363  1
  Nd  Nd5  1  0.626279  0.124144  0.751662  1
  Zn  Zn6  1  0.903878  0.346372  0.307784  1
  Zn  Zn7  1  0.570114  0.680007  0.640038  1
  Ga  Ga8  1  0.235807  0.014416  0.971299  1
  Ga  Ga9  1  0.763554  0.986126  0.027724  1
  Si  Si10  1  0.430373  0.319186  0.361662  1
  Si  Si11  1  0.096387  0.653212  0.693671  1
  Si  Si12  1  0.847074  0.401980  0.195518  1
  Si  Si13  1  0.513125  0.735910  0.527510  1
  Si  Si14  1  0.178624  0.070627  0.858527  1
  Si  Si15  1  0.821171  0.929467  0.141007  1
  Si  Si16  1  0.486869  0.263814  0.472650  1
  Si  Si17  1  0.152556  0.597934  0.804302  1
