# generated using pymatgen
data_AcTiI5O16
_symmetry_space_group_name_H-M   'P 1'
_cell_length_a   7.52670300
_cell_length_b   10.65299578
_cell_length_c   18.24556900
_cell_angle_alpha   90.00000000
_cell_angle_beta   90.00000000
_cell_angle_gamma   91.65758746
_symmetry_Int_Tables_number   1
_chemical_formula_structural   AcTiI5O16
_chemical_formula_sum   'Ac4 Ti4 I20 O64'
_cell_volume   1462.35285063
_cell_formula_units_Z   4
loop_
 _symmetry_equiv_pos_site_id
 _symmetry_equiv_pos_as_xyz
  1  'x, y, z'
loop_
 _atom_site_type_symbol
 _atom_site_label
 _atom_site_symmetry_multiplicity
 _atom_site_fract_x
 _atom_site_fract_y
 _atom_site_fract_z
 _atom_site_occupancy
  Ac  Ac0  1  0.762204  0.739671  0.765347  1
  Ac  Ac1  1  0.262204  0.239671  0.734653  1
  Ac  Ac2  1  0.237796  0.260329  0.234653  1
  Ac  Ac3  1  0.737796  0.760329  0.265347  1
  Ti  Ti4  1  0.733494  0.235139  0.498209  1
  Ti  Ti5  1  0.766506  0.264861  0.998209  1
  Ti  Ti6  1  0.233494  0.735139  0.001791  1
  Ti  Ti7  1  0.266506  0.764861  0.501791  1
  I  I8  1  0.096906  0.567859  0.378821  1
  I  I9  1  0.429721  0.551102  0.631288  1
  I  I10  1  0.764568  0.751696  0.495550  1
  I  I11  1  0.596906  0.067859  0.121179  1
  I  I12  1  0.768970  0.100101  0.321572  1
  I  I13  1  0.266124  0.936278  0.337782  1
  I  I14  1  0.264568  0.251696  0.004450  1
  I  I15  1  0.903094  0.432141  0.621179  1
  I  I16  1  0.733876  0.063722  0.662218  1
  I  I17  1  0.731030  0.399899  0.821572  1
  I  I18  1  0.231030  0.899899  0.678428  1
  I  I19  1  0.403094  0.932141  0.878821  1
  I  I20  1  0.235432  0.248304  0.504450  1
  I  I21  1  0.268970  0.600101  0.178428  1
  I  I22  1  0.766124  0.436278  0.162218  1
  I  I23  1  0.735432  0.748304  0.995550  1
  I  I24  1  0.233876  0.563722  0.837782  1
  I  I25  1  0.929721  0.051102  0.868712  1
  I  I26  1  0.570279  0.448898  0.368712  1
  I  I27  1  0.070279  0.948898  0.131288  1
  O  O28  1  0.774011  0.984210  0.799114  1
  O  O29  1  0.165692  0.859979  0.582115  1
  O  O30  1  0.302312  0.649208  0.413702  1
  O  O31  1  0.802628  0.805462  0.904827  1
  O  O32  1  0.802312  0.149208  0.086298  1
  O  O33  1  0.993105  0.585763  0.832251  1
  O  O34  1  0.725989  0.515790  0.299114  1
  O  O35  1  0.779700  0.517834  0.694515  1
  O  O36  1  0.279700  0.017834  0.805485  1
  O  O37  1  0.602837  0.544045  0.825055  1
  O  O38  1  0.578450  0.291898  0.774635  1
  O  O39  1  0.274011  0.484210  0.700886  1
  O  O40  1  0.302628  0.305462  0.595173  1
  O  O41  1  0.220300  0.482166  0.305485  1
  O  O42  1  0.921550  0.208102  0.274635  1
  O  O43  1  0.102837  0.044045  0.674945  1
  O  O44  1  0.834308  0.140021  0.417885  1
  O  O45  1  0.978444  0.196963  0.819647  1
  O  O46  1  0.780329  0.885608  0.053432  1
  O  O47  1  0.756730  0.107828  0.931242  1
  O  O48  1  0.197688  0.850792  0.913702  1
  O  O49  1  0.503595  0.208170  0.486581  1
  O  O50  1  0.728485  0.411127  0.062566  1
  O  O51  1  0.397163  0.455955  0.174945  1
  O  O52  1  0.462628  0.807189  0.815743  1
  O  O53  1  0.003595  0.708170  0.013419  1
  O  O54  1  0.506895  0.914237  0.332251  1
  O  O55  1  0.007391  0.696506  0.476246  1
  O  O56  1  0.493105  0.085763  0.667749  1
  O  O57  1  0.492609  0.803494  0.976246  1
  O  O58  1  0.478444  0.696963  0.680353  1
  O  O59  1  0.228485  0.911127  0.437434  1
  O  O60  1  0.006895  0.414237  0.167749  1
  O  O61  1  0.731561  0.893609  0.655199  1
  O  O62  1  0.496405  0.791830  0.513419  1
  O  O63  1  0.996405  0.291830  0.986581  1
  O  O64  1  0.243270  0.892172  0.068758  1
  O  O65  1  0.897163  0.955955  0.325055  1
  O  O66  1  0.507391  0.196506  0.023754  1
  O  O67  1  0.231561  0.393609  0.844801  1
  O  O68  1  0.334308  0.640021  0.082115  1
  O  O69  1  0.665692  0.359979  0.917885  1
  O  O70  1  0.280329  0.385608  0.446568  1
  O  O71  1  0.768439  0.606391  0.155199  1
  O  O72  1  0.537372  0.192811  0.184257  1
  O  O73  1  0.256730  0.607828  0.568758  1
  O  O74  1  0.992609  0.303494  0.523754  1
  O  O75  1  0.037372  0.692811  0.315743  1
  O  O76  1  0.697688  0.350792  0.586298  1
  O  O77  1  0.771515  0.088873  0.562566  1
  O  O78  1  0.743270  0.392172  0.431242  1
  O  O79  1  0.271515  0.588873  0.937434  1
  O  O80  1  0.219671  0.114392  0.946568  1
  O  O81  1  0.197372  0.194538  0.095173  1
  O  O82  1  0.421550  0.708102  0.225365  1
  O  O83  1  0.962628  0.307189  0.684257  1
  O  O84  1  0.697372  0.694538  0.404827  1
  O  O85  1  0.078450  0.791898  0.725365  1
  O  O86  1  0.720300  0.982166  0.194515  1
  O  O87  1  0.719671  0.614392  0.553432  1
  O  O88  1  0.225989  0.015790  0.200886  1
  O  O89  1  0.268439  0.106391  0.344801  1
  O  O90  1  0.021556  0.803037  0.180353  1
  O  O91  1  0.521556  0.303037  0.319647  1
