# generated using pymatgen
data_La3Pa(AsPt)4
_symmetry_space_group_name_H-M   'P 1'
_cell_length_a   4.37046100
_cell_length_b   4.37046017
_cell_length_c   16.19088700
_cell_angle_alpha   90.00000000
_cell_angle_beta   90.00000000
_cell_angle_gamma   120.00001389
_symmetry_Int_Tables_number   1
_chemical_formula_structural   La3Pa(AsPt)4
_chemical_formula_sum   'La3 Pa1 As4 Pt4'
_cell_volume   267.82778404
_cell_formula_units_Z   1
loop_
 _symmetry_equiv_pos_site_id
 _symmetry_equiv_pos_as_xyz
  1  'x, y, z'
loop_
 _atom_site_type_symbol
 _atom_site_label
 _atom_site_symmetry_multiplicity
 _atom_site_fract_x
 _atom_site_fract_y
 _atom_site_fract_z
 _atom_site_occupancy
  La  La0  1  0.000000  0.000000  0.750000  1
  La  La1  1  0.000000  0.000000  0.002707  1
  La  La2  1  0.000000  0.000000  0.497293  1
  Pa  Pa3  1  0.000000  0.000000  0.250000  1
  As  As4  1  0.333333  0.666667  0.623387  1
  As  As5  1  0.666667  0.333333  0.379244  1
  As  As6  1  0.666667  0.333333  0.120756  1
  As  As7  1  0.333333  0.666667  0.876613  1
  Pt  Pt8  1  0.333333  0.666667  0.157689  1
  Pt  Pt9  1  0.666667  0.333333  0.880335  1
  Pt  Pt10  1  0.666667  0.333333  0.619665  1
  Pt  Pt11  1  0.333333  0.666667  0.342311  1
