# generated using pymatgen
data_EuErTc2F14
_symmetry_space_group_name_H-M   'P 1'
_cell_length_a   5.59682900
_cell_length_b   8.90539881
_cell_length_c   12.00466900
_cell_angle_alpha   62.58149457
_cell_angle_beta   90.00000000
_cell_angle_gamma   90.00000000
_symmetry_Int_Tables_number   1
_chemical_formula_structural   EuErTc2F14
_chemical_formula_sum   'Eu2 Er2 Tc4 F28'
_cell_volume   531.12351609
_cell_formula_units_Z   2
loop_
 _symmetry_equiv_pos_site_id
 _symmetry_equiv_pos_as_xyz
  1  'x, y, z'
loop_
 _atom_site_type_symbol
 _atom_site_label
 _atom_site_symmetry_multiplicity
 _atom_site_fract_x
 _atom_site_fract_y
 _atom_site_fract_z
 _atom_site_occupancy
  Eu  Eu0  1  0.760788  0.814699  0.764785  1
  Eu  Eu1  1  0.260788  0.185301  0.735215  1
  Er  Er2  1  0.240477  0.184433  0.234916  1
  Er  Er3  1  0.740477  0.815567  0.265084  1
  Tc  Tc4  1  0.755004  0.270770  0.962052  1
  Tc  Tc5  1  0.255004  0.729230  0.537948  1
  Tc  Tc6  1  0.240854  0.722586  0.050410  1
  Tc  Tc7  1  0.740854  0.277414  0.449590  1
  F  F8  1  0.438707  0.703555  0.925276  1
  F  F9  1  0.938707  0.296445  0.574724  1
  F  F10  1  0.553619  0.291644  0.087695  1
  F  F11  1  0.053619  0.708356  0.412305  1
  F  F12  1  0.449668  0.286364  0.534589  1
  F  F13  1  0.949668  0.713636  0.965411  1
  F  F14  1  0.552671  0.723322  0.450597  1
  F  F15  1  0.052671  0.276678  0.049403  1
  F  F16  1  0.772801  0.514580  0.864709  1
  F  F17  1  0.272801  0.485420  0.635291  1
  F  F18  1  0.230758  0.475198  0.146186  1
  F  F19  1  0.730758  0.524802  0.353814  1
  F  F20  1  0.755829  0.023447  0.056570  1
  F  F21  1  0.255829  0.976553  0.443430  1
  F  F22  1  0.240361  0.967144  0.955977  1
  F  F23  1  0.740361  0.032856  0.544023  1
  F  F24  1  0.967721  0.725762  0.629197  1
  F  F25  1  0.467721  0.274238  0.870803  1
  F  F26  1  0.024246  0.270901  0.355245  1
  F  F27  1  0.524246  0.729099  0.144755  1
  F  F28  1  0.042750  0.743864  0.178045  1
  F  F29  1  0.542750  0.256136  0.321955  1
  F  F30  1  0.944793  0.256197  0.831711  1
  F  F31  1  0.444793  0.743803  0.668289  1
  F  F32  1  0.420632  0.972269  0.232291  1
  F  F33  1  0.920632  0.027731  0.267709  1
  F  F34  1  0.608323  0.041511  0.771371  1
  F  F35  1  0.108323  0.958489  0.728629  1
