# generated using pymatgen
data_Pr4Ga9GeIrRh5
_symmetry_space_group_name_H-M   'P 1'
_cell_length_a   8.66171577
_cell_length_b   8.70739627
_cell_length_c   8.70739607
_cell_angle_alpha   140.93373410
_cell_angle_beta   108.23520456
_cell_angle_gamma   84.94241446
_symmetry_Int_Tables_number   1
_chemical_formula_structural   Pr4Ga9GeIrRh5
_chemical_formula_sum   'Pr4 Ga9 Ge1 Ir1 Rh5'
_cell_volume   379.71986610
_cell_formula_units_Z   1
loop_
 _symmetry_equiv_pos_site_id
 _symmetry_equiv_pos_as_xyz
  1  'x, y, z'
loop_
 _atom_site_type_symbol
 _atom_site_label
 _atom_site_symmetry_multiplicity
 _atom_site_fract_x
 _atom_site_fract_y
 _atom_site_fract_z
 _atom_site_occupancy
  Pr  Pr0  1  0.864131  0.635660  0.228470  1
  Pr  Pr1  1  0.136667  0.365506  0.771159  1
  Pr  Pr2  1  0.405656  0.135433  0.270222  1
  Pr  Pr3  1  0.590352  0.862426  0.727926  1
  Ga  Ga4  1  0.501169  0.750552  0.251216  1
  Ga  Ga5  1  0.501169  0.249953  0.750619  1
  Ga  Ga6  1  0.208902  0.960077  0.749234  1
  Ga  Ga7  1  0.790488  0.540179  0.748710  1
  Ga  Ga8  1  0.790488  0.041778  0.250309  1
  Ga  Ga9  1  0.208902  0.459669  0.248826  1
  Ga  Ga10  1  0.075597  0.906288  0.169309  1
  Ga  Ga11  1  0.922788  0.090287  0.832501  1
  Ga  Ga12  1  0.740094  0.408629  0.331464  1
  Ge  Ge13  1  0.259572  0.592792  0.666779  1
  Ir  Ir14  1  0.547023  0.645682  0.901341  1
  Rh  Rh15  1  0.002760  0.749794  0.752737  1
  Rh  Rh16  1  0.002760  0.250024  0.252966  1
  Rh  Rh17  1  0.260210  0.854687  0.405523  1
  Rh  Rh18  1  0.742811  0.146407  0.596404  1
  Rh  Rh19  1  0.448459  0.354175  0.094284  1
