# generated using pymatgen
data_Tb5Y15Cd6TcRu
_symmetry_space_group_name_H-M   'P 1'
_cell_length_a   9.64085700
_cell_length_b   9.64085718
_cell_length_c   9.93357200
_cell_angle_alpha   90.00000000
_cell_angle_beta   90.00000000
_cell_angle_gamma   120.00000280
_symmetry_Int_Tables_number   1
_chemical_formula_structural   Tb5Y15Cd6TcRu
_chemical_formula_sum   'Tb5 Y15 Cd6 Tc1 Ru1'
_cell_volume   799.58999993
_cell_formula_units_Z   1
loop_
 _symmetry_equiv_pos_site_id
 _symmetry_equiv_pos_as_xyz
  1  'x, y, z'
loop_
 _atom_site_type_symbol
 _atom_site_label
 _atom_site_symmetry_multiplicity
 _atom_site_fract_x
 _atom_site_fract_y
 _atom_site_fract_z
 _atom_site_occupancy
  Tb  Tb0  1  0.000000  0.000000  0.499958  1
  Tb  Tb1  1  0.000000  0.000000  0.000028  1
  Tb  Tb2  1  0.209974  0.790026  0.440715  1
  Tb  Tb3  1  0.209974  0.419949  0.440715  1
  Tb  Tb4  1  0.580051  0.790026  0.440715  1
  Y  Y5  1  0.789893  0.210107  0.559275  1
  Y  Y6  1  0.789893  0.579785  0.559275  1
  Y  Y7  1  0.420215  0.210107  0.559275  1
  Y  Y8  1  0.789941  0.210059  0.940778  1
  Y  Y9  1  0.789941  0.579880  0.940778  1
  Y  Y10  1  0.420120  0.210059  0.940778  1
  Y  Y11  1  0.209726  0.790274  0.058536  1
  Y  Y12  1  0.209726  0.419451  0.058536  1
  Y  Y13  1  0.580549  0.790274  0.058536  1
  Y  Y14  1  0.540143  0.459857  0.249947  1
  Y  Y15  1  0.540143  0.080285  0.249947  1
  Y  Y16  1  0.919715  0.459857  0.249947  1
  Y  Y17  1  0.458764  0.541236  0.750001  1
  Y  Y18  1  0.458764  0.917529  0.750001  1
  Y  Y19  1  0.082471  0.541236  0.750001  1
  Cd  Cd20  1  0.885373  0.114627  0.249868  1
  Cd  Cd21  1  0.885373  0.770747  0.249868  1
  Cd  Cd22  1  0.229253  0.114627  0.249868  1
  Cd  Cd23  1  0.114448  0.885552  0.750198  1
  Cd  Cd24  1  0.114448  0.228896  0.750198  1
  Cd  Cd25  1  0.771104  0.885552  0.750198  1
  Tc  Tc26  1  0.333333  0.666667  0.252341  1
  Ru  Ru27  1  0.666667  0.333333  0.749720  1
