# generated using pymatgen
data_Rb(RuS)2
_symmetry_space_group_name_H-M   'P 1'
_cell_length_a   7.14558723
_cell_length_b   7.14558696
_cell_length_c   7.14558687
_cell_angle_alpha   147.74556519
_cell_angle_beta   147.74556744
_cell_angle_gamma   46.26110144
_symmetry_Int_Tables_number   1
_chemical_formula_structural   Rb(RuS)2
_chemical_formula_sum   'Rb1 Ru2 S2'
_cell_volume   103.55052104
_cell_formula_units_Z   1
loop_
 _symmetry_equiv_pos_site_id
 _symmetry_equiv_pos_as_xyz
  1  'x, y, z'
loop_
 _atom_site_type_symbol
 _atom_site_label
 _atom_site_symmetry_multiplicity
 _atom_site_fract_x
 _atom_site_fract_y
 _atom_site_fract_z
 _atom_site_occupancy
  Rb  Rb0  1  0.000000  0.000000  0.000000  1
  Ru  Ru1  1  0.750000  0.250000  0.500000  1
  Ru  Ru2  1  0.250000  0.750000  0.500000  1
  S  S3  1  0.343036  0.343036  0.000000  1
  S  S4  1  0.656964  0.656964  0.000000  1
