# generated using pymatgen
data_Pr8Ho7Tm5Si16
_symmetry_space_group_name_H-M   'P 1'
_cell_length_a   7.49813441
_cell_length_b   7.78091933
_cell_length_c   14.78216733
_cell_angle_alpha   90.01190398
_cell_angle_beta   89.97895625
_cell_angle_gamma   89.96875631
_symmetry_Int_Tables_number   1
_chemical_formula_structural   Pr8Ho7Tm5Si16
_chemical_formula_sum   'Pr8 Ho7 Tm5 Si16'
_cell_volume   862.42660285
_cell_formula_units_Z   1
loop_
 _symmetry_equiv_pos_site_id
 _symmetry_equiv_pos_as_xyz
  1  'x, y, z'
loop_
 _atom_site_type_symbol
 _atom_site_label
 _atom_site_symmetry_multiplicity
 _atom_site_fract_x
 _atom_site_fract_y
 _atom_site_fract_z
 _atom_site_occupancy
  Pr  Pr0  1  0.975923  0.821240  0.097790  1
  Pr  Pr1  1  0.476004  0.678775  0.402141  1
  Pr  Pr2  1  0.524030  0.321277  0.901904  1
  Pr  Pr3  1  0.023947  0.178773  0.598135  1
  Pr  Pr4  1  0.023852  0.178805  0.901915  1
  Pr  Pr5  1  0.524009  0.321123  0.598173  1
  Pr  Pr6  1  0.476112  0.678735  0.097734  1
  Pr  Pr7  1  0.976037  0.821228  0.402106  1
  Ho  Ho8  1  0.180920  0.678113  0.623366  1
  Ho  Ho9  1  0.819068  0.321942  0.123217  1
  Ho  Ho10  1  0.319066  0.178084  0.376746  1
  Ho  Ho11  1  0.319089  0.177999  0.123187  1
  Ho  Ho12  1  0.819038  0.321905  0.376749  1
  Ho  Ho13  1  0.180893  0.678214  0.876694  1
  Ho  Ho14  1  0.680931  0.821894  0.623416  1
  Tm  Tm15  1  0.649726  0.989877  0.249978  1
  Tm  Tm16  1  0.149691  0.510150  0.249989  1
  Tm  Tm17  1  0.850271  0.490179  0.750138  1
  Tm  Tm18  1  0.350429  0.010036  0.750099  1
  Tm  Tm19  1  0.680853  0.822093  0.876536  1
  Si  Si20  1  0.769522  0.621011  0.249965  1
  Si  Si21  1  0.269494  0.879039  0.249982  1
  Si  Si22  1  0.730242  0.120557  0.750283  1
  Si  Si23  1  0.230348  0.378866  0.750052  1
  Si  Si24  1  0.023481  0.112626  0.249964  1
  Si  Si25  1  0.523477  0.387333  0.249949  1
  Si  Si26  1  0.477155  0.613250  0.750291  1
  Si  Si27  1  0.976001  0.887115  0.750330  1
  Si  Si28  1  0.855348  0.531563  0.959558  1
  Si  Si29  1  0.355985  0.968988  0.540261  1
  Si  Si30  1  0.644369  0.030533  0.039816  1
  Si  Si31  1  0.143990  0.468996  0.459829  1
  Si  Si32  1  0.143992  0.469082  0.040165  1
  Si  Si33  1  0.643977  0.030971  0.459790  1
  Si  Si34  1  0.356661  0.968621  0.959504  1
  Si  Si35  1  0.856067  0.531007  0.540247  1
