# generated using pymatgen
data_K5SrNbP4
_symmetry_space_group_name_H-M   'P 1'
_cell_length_a   10.20265999
_cell_length_b   10.20265989
_cell_length_c   7.80694073
_cell_angle_alpha   88.71077395
_cell_angle_beta   88.71077616
_cell_angle_gamma   120.67498309
_symmetry_Int_Tables_number   1
_chemical_formula_structural   K5SrNbP4
_chemical_formula_sum   'K10 Sr2 Nb2 P8'
_cell_volume   698.22403686
_cell_formula_units_Z   2
loop_
 _symmetry_equiv_pos_site_id
 _symmetry_equiv_pos_as_xyz
  1  'x, y, z'
loop_
 _atom_site_type_symbol
 _atom_site_label
 _atom_site_symmetry_multiplicity
 _atom_site_fract_x
 _atom_site_fract_y
 _atom_site_fract_z
 _atom_site_occupancy
  K  K0  1  0.465086  0.527463  0.498667  1
  K  K1  1  0.059910  0.528608  0.501441  1
  K  K2  1  0.527463  0.465086  0.998667  1
  K  K3  1  0.528608  0.059910  0.001441  1
  K  K4  1  0.863929  0.143742  0.678387  1
  K  K5  1  0.289992  0.151768  0.708472  1
  K  K6  1  0.854512  0.714006  0.662064  1
  K  K7  1  0.143742  0.863929  0.178387  1
  K  K8  1  0.714006  0.854512  0.162064  1
  K  K9  1  0.151768  0.289992  0.208472  1
  Sr  Sr10  1  0.464337  0.936020  0.495747  1
  Sr  Sr11  1  0.936020  0.464337  0.995747  1
  Nb  Nb12  1  0.669967  0.331966  0.393176  1
  Nb  Nb13  1  0.331966  0.669967  0.893176  1
  P  P14  1  0.684993  0.337966  0.703385  1
  P  P15  1  0.337966  0.684993  0.203385  1
  P  P16  1  0.794111  0.198035  0.286372  1
  P  P17  1  0.404032  0.189324  0.317941  1
  P  P18  1  0.801670  0.588560  0.268637  1
  P  P19  1  0.198035  0.794111  0.786372  1
  P  P20  1  0.588560  0.801670  0.768637  1
  P  P21  1  0.189324  0.404032  0.817941  1
