# generated using pymatgen
data_Cs2Mn(HgSe2)2
_symmetry_space_group_name_H-M   'P 1'
_cell_length_a   10.19536557
_cell_length_b   10.19536492
_cell_length_c   10.19536479
_cell_angle_alpha   142.04467683
_cell_angle_beta   108.15239728
_cell_angle_gamma   84.25874711
_symmetry_Int_Tables_number   1
_chemical_formula_structural   Cs2Mn(HgSe2)2
_chemical_formula_sum   'Cs4 Mn2 Hg4 Se8'
_cell_volume   599.83152642
_cell_formula_units_Z   2
loop_
 _symmetry_equiv_pos_site_id
 _symmetry_equiv_pos_as_xyz
  1  'x, y, z'
loop_
 _atom_site_type_symbol
 _atom_site_label
 _atom_site_symmetry_multiplicity
 _atom_site_fract_x
 _atom_site_fract_y
 _atom_site_fract_z
 _atom_site_occupancy
  Cs  Cs0  1  0.623641  0.229495  0.853137  1
  Cs  Cs1  1  0.376359  0.770505  0.146863  1
  Cs  Cs2  1  0.123641  0.270505  0.394146  1
  Cs  Cs3  1  0.876359  0.729495  0.605854  1
  Mn  Mn4  1  0.750000  0.750000  0.000000  1
  Mn  Mn5  1  0.250000  0.250000  0.000000  1
  Hg  Hg6  1  0.080778  0.750000  0.330778  1
  Hg  Hg7  1  0.419222  0.750000  0.669222  1
  Hg  Hg8  1  0.919222  0.250000  0.669222  1
  Hg  Hg9  1  0.580778  0.250000  0.330778  1
  Se  Se10  1  0.979953  0.647825  0.921401  1
  Se  Se11  1  0.726425  0.058552  0.078599  1
  Se  Se12  1  0.773575  0.852175  0.332127  1
  Se  Se13  1  0.520047  0.441448  0.667873  1
  Se  Se14  1  0.020047  0.352175  0.078599  1
  Se  Se15  1  0.273575  0.941448  0.921401  1
  Se  Se16  1  0.226425  0.147825  0.667873  1
  Se  Se17  1  0.479953  0.558552  0.332127  1
