# generated using pymatgen
data_LaPr5(ScBi5)2
_symmetry_space_group_name_H-M   'P 1'
_cell_length_a   9.80808441
_cell_length_b   9.81301997
_cell_length_c   6.60805800
_cell_angle_alpha   90.00000000
_cell_angle_beta   90.00000000
_cell_angle_gamma   120.01665565
_symmetry_Int_Tables_number   1
_chemical_formula_structural   LaPr5(ScBi5)2
_chemical_formula_sum   'La1 Pr5 Sc2 Bi10'
_cell_volume   550.70426778
_cell_formula_units_Z   1
loop_
 _symmetry_equiv_pos_site_id
 _symmetry_equiv_pos_as_xyz
  1  'x, y, z'
loop_
 _atom_site_type_symbol
 _atom_site_label
 _atom_site_symmetry_multiplicity
 _atom_site_fract_x
 _atom_site_fract_y
 _atom_site_fract_z
 _atom_site_occupancy
  La  La0  1  0.000000  0.382203  0.750000  1
  Pr  Pr1  1  0.000000  0.618930  0.250000  1
  Pr  Pr2  1  0.381703  0.381495  0.250000  1
  Pr  Pr3  1  0.381711  0.000204  0.750000  1
  Pr  Pr4  1  0.618289  0.618493  0.750000  1
  Pr  Pr5  1  0.618297  0.999791  0.250000  1
  Sc  Sc6  1  0.000000  0.999772  0.999666  1
  Sc  Sc7  1  0.000000  0.999772  0.500334  1
  Bi  Bi8  1  0.000000  0.261317  0.250000  1
  Bi  Bi9  1  0.333992  0.667389  0.499714  1
  Bi  Bi10  1  0.666008  0.333396  0.000286  1
  Bi  Bi11  1  0.333992  0.667389  0.000286  1
  Bi  Bi12  1  0.262070  0.260829  0.750000  1
  Bi  Bi13  1  0.737930  0.998759  0.750000  1
  Bi  Bi14  1  0.000000  0.738673  0.750000  1
  Bi  Bi15  1  0.738362  0.738276  0.250000  1
  Bi  Bi16  1  0.261638  0.999914  0.250000  1
  Bi  Bi17  1  0.666008  0.333396  0.499714  1
