# generated using pymatgen
data_Ca2Pa(SnRh)3
_symmetry_space_group_name_H-M   'P 1'
_cell_length_a   7.55354033
_cell_length_b   7.77887255
_cell_length_c   3.91352000
_cell_angle_alpha   90.00000000
_cell_angle_beta   90.00000000
_cell_angle_gamma   120.99182831
_symmetry_Int_Tables_number   1
_chemical_formula_structural   Ca2Pa(SnRh)3
_chemical_formula_sum   'Ca2 Pa1 Sn3 Rh3'
_cell_volume   197.12312387
_cell_formula_units_Z   1
loop_
 _symmetry_equiv_pos_site_id
 _symmetry_equiv_pos_as_xyz
  1  'x, y, z'
loop_
 _atom_site_type_symbol
 _atom_site_label
 _atom_site_symmetry_multiplicity
 _atom_site_fract_x
 _atom_site_fract_y
 _atom_site_fract_z
 _atom_site_occupancy
  Ca  Ca0  1  0.595631  0.594047  0.000000  1
  Ca  Ca1  1  0.404369  0.998416  0.000000  1
  Pa  Pa2  1  0.000000  0.412026  0.000000  1
  Sn  Sn3  1  0.272517  0.258095  0.500000  1
  Sn  Sn4  1  0.000000  0.760651  0.500000  1
  Sn  Sn5  1  0.727483  0.985577  0.500000  1
  Rh  Rh6  1  0.717337  0.341668  0.500000  1
  Rh  Rh7  1  0.282663  0.624332  0.500000  1
  Rh  Rh8  1  0.000000  0.025186  0.000000  1
