# generated using pymatgen
data_Dy5Ti3P12(Ir7Rh)2
_symmetry_space_group_name_H-M   'P 1'
_cell_length_a   12.77196809
_cell_length_b   12.76481328
_cell_length_c   3.94870700
_cell_angle_alpha   90.00000000
_cell_angle_beta   90.00000000
_cell_angle_gamma   120.00505644
_symmetry_Int_Tables_number   1
_chemical_formula_structural   Dy5Ti3P12(Ir7Rh)2
_chemical_formula_sum   'Dy5 Ti3 P12 Ir14 Rh2'
_cell_volume   557.48822892
_cell_formula_units_Z   1
loop_
 _symmetry_equiv_pos_site_id
 _symmetry_equiv_pos_as_xyz
  1  'x, y, z'
loop_
 _atom_site_type_symbol
 _atom_site_label
 _atom_site_symmetry_multiplicity
 _atom_site_fract_x
 _atom_site_fract_y
 _atom_site_fract_z
 _atom_site_occupancy
  Dy  Dy0  1  0.333355  0.666545  0.500000  1
  Dy  Dy1  1  0.666674  0.333283  0.500000  1
  Dy  Dy2  1  0.000121  0.812340  0.000000  1
  Dy  Dy3  1  0.187758  0.187833  0.000000  1
  Dy  Dy4  1  0.812234  0.000149  0.000000  1
  Ti  Ti5  1  0.999841  0.446920  0.500000  1
  Ti  Ti6  1  0.551955  0.552186  0.500000  1
  Ti  Ti7  1  0.447070  0.999888  0.500000  1
  P  P8  1  0.999848  0.640473  0.500000  1
  P  P9  1  0.359816  0.359790  0.500000  1
  P  P10  1  0.640609  0.999983  0.500000  1
  P  P11  1  0.517237  0.684798  0.000000  1
  P  P12  1  0.315390  0.832264  0.000000  1
  P  P13  1  0.167732  0.483521  0.000000  1
  P  P14  1  0.483112  0.167194  0.000000  1
  P  P15  1  0.684419  0.517051  0.000000  1
  P  P16  1  0.832762  0.315820  0.000000  1
  P  P17  1  0.999830  0.176483  0.500000  1
  P  P18  1  0.823155  0.823255  0.500000  1
  P  P19  1  0.176526  0.999731  0.500000  1
  Ir  Ir20  1  0.357805  0.490716  0.000000  1
  Ir  Ir21  1  0.491172  0.357540  0.000000  1
  Ir  Ir22  1  0.866939  0.509384  0.000000  1
  Ir  Ir23  1  0.642590  0.133317  0.000000  1
  Ir  Ir24  1  0.000134  0.283020  0.000000  1
  Ir  Ir25  1  0.717211  0.717310  0.000000  1
  Ir  Ir26  1  0.282761  0.000015  0.000000  1
  Ir  Ir27  1  0.625752  0.804371  0.500000  1
  Ir  Ir28  1  0.195629  0.821244  0.500000  1
  Ir  Ir29  1  0.178347  0.373366  0.500000  1
  Ir  Ir30  1  0.373234  0.178493  0.500000  1
  Ir  Ir31  1  0.804830  0.626518  0.500000  1
  Ir  Ir32  1  0.821724  0.195266  0.500000  1
  Ir  Ir33  1  0.999957  0.999845  0.500000  1
  Rh  Rh34  1  0.510098  0.867427  0.000000  1
  Rh  Rh35  1  0.132371  0.642661  0.000000  1
