# generated using pymatgen
data_Dy5Mn3P12Ir3Rh13
_symmetry_space_group_name_H-M   'P 1'
_cell_length_a   12.72737481
_cell_length_b   12.75739821
_cell_length_c   3.91650600
_cell_angle_alpha   90.00000000
_cell_angle_beta   90.00000000
_cell_angle_gamma   120.07806475
_symmetry_Int_Tables_number   1
_chemical_formula_structural   Dy5Mn3P12Ir3Rh13
_chemical_formula_sum   'Dy5 Mn3 P12 Ir3 Rh13'
_cell_volume   550.28567324
_cell_formula_units_Z   1
loop_
 _symmetry_equiv_pos_site_id
 _symmetry_equiv_pos_as_xyz
  1  'x, y, z'
loop_
 _atom_site_type_symbol
 _atom_site_label
 _atom_site_symmetry_multiplicity
 _atom_site_fract_x
 _atom_site_fract_y
 _atom_site_fract_z
 _atom_site_occupancy
  Dy  Dy0  1  0.333156  0.666357  0.500000  1
  Dy  Dy1  1  0.666844  0.333200  0.500000  1
  Dy  Dy2  1  0.000000  0.809568  0.000000  1
  Dy  Dy3  1  0.190240  0.190405  0.000000  1
  Dy  Dy4  1  0.809760  0.000165  0.000000  1
  Mn  Mn5  1  0.000000  0.447832  0.500000  1
  Mn  Mn6  1  0.552009  0.552149  0.500000  1
  Mn  Mn7  1  0.447991  0.000139  0.500000  1
  P  P8  1  0.000000  0.634931  0.500000  1
  P  P9  1  0.365078  0.365289  0.500000  1
  P  P10  1  0.634922  0.000211  0.500000  1
  P  P11  1  0.516350  0.686287  0.000000  1
  P  P12  1  0.313589  0.830075  0.000000  1
  P  P13  1  0.169499  0.483048  0.000000  1
  P  P14  1  0.483650  0.169938  0.000000  1
  P  P15  1  0.686411  0.516486  0.000000  1
  P  P16  1  0.830501  0.313548  0.000000  1
  P  P17  1  0.000000  0.178820  0.500000  1
  P  P18  1  0.821281  0.821384  0.500000  1
  P  P19  1  0.178719  0.000103  0.500000  1
  Ir  Ir20  1  0.716637  0.716652  0.000000  1
  Ir  Ir21  1  0.283363  0.000015  0.000000  1
  Ir  Ir22  1  0.000000  0.999995  0.500000  1
  Rh  Rh23  1  0.510531  0.870138  0.000000  1
  Rh  Rh24  1  0.129772  0.640305  0.000000  1
  Rh  Rh25  1  0.359457  0.489319  0.000000  1
  Rh  Rh26  1  0.489469  0.359606  0.000000  1
  Rh  Rh27  1  0.870228  0.510533  0.000000  1
  Rh  Rh28  1  0.640543  0.129862  0.000000  1
  Rh  Rh29  1  0.000000  0.283346  0.000000  1
  Rh  Rh30  1  0.622643  0.802349  0.500000  1
  Rh  Rh31  1  0.197954  0.820529  0.500000  1
  Rh  Rh32  1  0.178838  0.376987  0.500000  1
  Rh  Rh33  1  0.377357  0.179706  0.500000  1
  Rh  Rh34  1  0.802046  0.622575  0.500000  1
  Rh  Rh35  1  0.821162  0.198148  0.500000  1
