# generated using pymatgen
data_Tm3ThAgIr
_symmetry_space_group_name_H-M   'P 1'
_cell_length_a   9.57015791
_cell_length_b   9.57004455
_cell_length_c   9.55923600
_cell_angle_alpha   60.03792539
_cell_angle_beta   60.03784971
_cell_angle_gamma   60.07334491
_symmetry_Int_Tables_number   1
_chemical_formula_structural   Tm3ThAgIr
_chemical_formula_sum   'Tm12 Th4 Ag4 Ir4'
_cell_volume   619.76942654
_cell_formula_units_Z   4
loop_
 _symmetry_equiv_pos_site_id
 _symmetry_equiv_pos_as_xyz
  1  'x, y, z'
loop_
 _atom_site_type_symbol
 _atom_site_label
 _atom_site_symmetry_multiplicity
 _atom_site_fract_x
 _atom_site_fract_y
 _atom_site_fract_z
 _atom_site_occupancy
  Tm  Tm0  1  0.062455  0.436947  0.438055  1
  Tm  Tm1  1  0.436939  0.062454  0.062552  1
  Tm  Tm2  1  0.436938  0.062456  0.438053  1
  Tm  Tm3  1  0.062447  0.436942  0.062548  1
  Tm  Tm4  1  0.437585  0.437591  0.062413  1
  Tm  Tm5  1  0.062544  0.062548  0.437451  1
  Tm  Tm6  1  0.182981  0.817315  0.816479  1
  Tm  Tm7  1  0.817321  0.182989  0.183217  1
  Tm  Tm8  1  0.817313  0.182981  0.816484  1
  Tm  Tm9  1  0.182990  0.817309  0.183223  1
  Tm  Tm10  1  0.817121  0.817121  0.182880  1
  Tm  Tm11  1  0.183353  0.183353  0.816646  1
  Th  Th12  1  0.602551  0.602551  0.602046  1
  Th  Th13  1  0.602553  0.602552  0.192850  1
  Th  Th14  1  0.603107  0.191819  0.602538  1
  Th  Th15  1  0.191827  0.603103  0.602535  1
  Ag  Ag16  1  0.834412  0.834410  0.835033  1
  Ag  Ag17  1  0.834412  0.834410  0.496142  1
  Ag  Ag18  1  0.833775  0.497326  0.834448  1
  Ag  Ag19  1  0.497329  0.833774  0.834450  1
  Ir  Ir20  1  0.392453  0.392444  0.392577  1
  Ir  Ir21  1  0.392442  0.392447  0.822534  1
  Ir  Ir22  1  0.392353  0.822798  0.392423  1
  Ir  Ir23  1  0.822800  0.392358  0.392422  1
