# generated using pymatgen
data_Tb2Al7Ga2Ir2Pt
_symmetry_space_group_name_H-M   'P 1'
_cell_length_a   7.55569700
_cell_length_b   7.55907301
_cell_length_c   9.55096200
_cell_angle_alpha   90.00000000
_cell_angle_beta   90.00000000
_cell_angle_gamma   119.63025712
_symmetry_Int_Tables_number   1
_chemical_formula_structural   Tb2Al7Ga2Ir2Pt
_chemical_formula_sum   'Tb4 Al14 Ga4 Ir4 Pt2'
_cell_volume   474.16214429
_cell_formula_units_Z   2
loop_
 _symmetry_equiv_pos_site_id
 _symmetry_equiv_pos_as_xyz
  1  'x, y, z'
loop_
 _atom_site_type_symbol
 _atom_site_label
 _atom_site_symmetry_multiplicity
 _atom_site_fract_x
 _atom_site_fract_y
 _atom_site_fract_z
 _atom_site_occupancy
  Tb  Tb0  1  0.998434  0.674694  0.250000  1
  Tb  Tb1  1  0.001566  0.325306  0.750000  1
  Tb  Tb2  1  0.670843  0.994085  0.250000  1
  Tb  Tb3  1  0.329157  0.005915  0.750000  1
  Al  Al4  1  0.000985  0.338069  0.074420  1
  Al  Al5  1  0.999015  0.661931  0.925580  1
  Al  Al6  1  0.999015  0.661931  0.574420  1
  Al  Al7  1  0.338611  0.001893  0.425884  1
  Al  Al8  1  0.000985  0.338069  0.425580  1
  Al  Al9  1  0.661389  0.998107  0.574116  1
  Al  Al10  1  0.661389  0.998107  0.925884  1
  Al  Al11  1  0.338611  0.001893  0.074116  1
  Al  Al12  1  0.337370  0.337870  0.558482  1
  Al  Al13  1  0.662630  0.662130  0.441518  1
  Al  Al14  1  0.662630  0.662130  0.058482  1
  Al  Al15  1  0.337370  0.337870  0.941518  1
  Al  Al16  1  0.550799  0.337335  0.250000  1
  Al  Al17  1  0.449201  0.662665  0.750000  1
  Ga  Ga18  1  0.136462  0.137527  0.250000  1
  Ga  Ga19  1  0.863538  0.862473  0.750000  1
  Ga  Ga20  1  0.337365  0.547159  0.250000  1
  Ga  Ga21  1  0.662635  0.452841  0.750000  1
  Ir  Ir22  1  0.671013  0.328380  0.002146  1
  Ir  Ir23  1  0.328987  0.671620  0.997854  1
  Ir  Ir24  1  0.328987  0.671620  0.502146  1
  Ir  Ir25  1  0.671013  0.328380  0.497854  1
  Pt  Pt26  1  0.000000  0.000000  0.000000  1
  Pt  Pt27  1  0.000000  0.000000  0.500000  1
