# generated using pymatgen
data_HoErTm6Ti4O20
_symmetry_space_group_name_H-M   'P 1'
_cell_length_a   3.65796900
_cell_length_b   10.31153092
_cell_length_c   11.23190791
_cell_angle_alpha   89.93388843
_cell_angle_beta   90.00000000
_cell_angle_gamma   90.00000000
_symmetry_Int_Tables_number   1
_chemical_formula_structural   HoErTm6Ti4O20
_chemical_formula_sum   'Ho1 Er1 Tm6 Ti4 O20'
_cell_volume   423.65897745
_cell_formula_units_Z   1
loop_
 _symmetry_equiv_pos_site_id
 _symmetry_equiv_pos_as_xyz
  1  'x, y, z'
loop_
 _atom_site_type_symbol
 _atom_site_label
 _atom_site_symmetry_multiplicity
 _atom_site_fract_x
 _atom_site_fract_y
 _atom_site_fract_z
 _atom_site_occupancy
  Ho  Ho0  1  0.750000  0.365163  0.443335  1
  Er  Er1  1  0.750000  0.882221  0.724335  1
  Tm  Tm2  1  0.250000  0.117456  0.275160  1
  Tm  Tm3  1  0.250000  0.135978  0.944493  1
  Tm  Tm4  1  0.750000  0.381739  0.775856  1
  Tm  Tm5  1  0.250000  0.618683  0.224064  1
  Tm  Tm6  1  0.250000  0.636106  0.556032  1
  Tm  Tm7  1  0.750000  0.864529  0.056092  1
  Ti  Ti8  1  0.250000  0.172174  0.618628  1
  Ti  Ti9  1  0.750000  0.328034  0.118103  1
  Ti  Ti10  1  0.250000  0.671707  0.881823  1
  Ti  Ti11  1  0.750000  0.827808  0.381122  1
  O  O12  1  0.750000  0.007166  0.895614  1
  O  O13  1  0.250000  0.003248  0.653680  1
  O  O14  1  0.250000  0.222537  0.454862  1
  O  O15  1  0.750000  0.244329  0.270514  1
  O  O16  1  0.750000  0.239108  0.616443  1
  O  O17  1  0.250000  0.260802  0.115513  1
  O  O18  1  0.250000  0.254423  0.771838  1
  O  O19  1  0.750000  0.276214  0.955100  1
  O  O20  1  0.750000  0.496713  0.155076  1
  O  O21  1  0.250000  0.495188  0.394359  1
  O  O22  1  0.750000  0.507274  0.606305  1
  O  O23  1  0.250000  0.502959  0.845990  1
  O  O24  1  0.250000  0.724229  0.045034  1
  O  O25  1  0.750000  0.745603  0.228214  1
  O  O26  1  0.750000  0.739183  0.884972  1
  O  O27  1  0.250000  0.760826  0.384078  1
  O  O28  1  0.250000  0.753262  0.728337  1
  O  O29  1  0.750000  0.775229  0.544317  1
  O  O30  1  0.750000  0.996653  0.345348  1
  O  O31  1  0.250000  0.993455  0.105363  1
