# generated using pymatgen
data_BaMnSb12Ru2Au
_symmetry_space_group_name_H-M   'P 1'
_cell_length_a   8.20264738
_cell_length_b   8.23347088
_cell_length_c   8.19488228
_cell_angle_alpha   109.38709035
_cell_angle_beta   109.37290027
_cell_angle_gamma   109.59125555
_symmetry_Int_Tables_number   1
_chemical_formula_structural   BaMnSb12Ru2Au
_chemical_formula_sum   'Ba1 Mn1 Sb12 Ru2 Au1'
_cell_volume   426.37371708
_cell_formula_units_Z   1
loop_
 _symmetry_equiv_pos_site_id
 _symmetry_equiv_pos_as_xyz
  1  'x, y, z'
loop_
 _atom_site_type_symbol
 _atom_site_label
 _atom_site_symmetry_multiplicity
 _atom_site_fract_x
 _atom_site_fract_y
 _atom_site_fract_z
 _atom_site_occupancy
  Ba  Ba0  1  0.000000  0.000000  0.000000  1
  Mn  Mn1  1  0.000000  0.500000  0.000000  1
  Sb  Sb2  1  0.163329  0.803867  0.660625  1
  Sb  Sb3  1  0.157136  0.498920  0.329960  1
  Sb  Sb4  1  0.500001  0.659429  0.839290  1
  Sb  Sb5  1  0.331231  0.832823  0.172947  1
  Sb  Sb6  1  0.809887  0.637532  0.139113  1
  Sb  Sb7  1  0.640999  0.837022  0.497729  1
  Sb  Sb8  1  0.190113  0.362468  0.860887  1
  Sb  Sb9  1  0.668769  0.167177  0.827053  1
  Sb  Sb10  1  0.359001  0.162978  0.502271  1
  Sb  Sb11  1  0.499999  0.340571  0.160710  1
  Sb  Sb12  1  0.842864  0.501080  0.670040  1
  Sb  Sb13  1  0.836671  0.196133  0.339375  1
  Ru  Ru14  1  0.500000  0.500000  0.500000  1
  Ru  Ru15  1  0.500000  0.000000  0.000000  1
  Au  Au16  1  0.000000  0.000000  0.500000  1
