# generated using pymatgen
data_USb4WO12
_symmetry_space_group_name_H-M   'P 1'
_cell_length_a   5.23854790
_cell_length_b   5.77629316
_cell_length_c   9.48499371
_cell_angle_alpha   83.59714971
_cell_angle_beta   90.44686399
_cell_angle_gamma   90.49614723
_symmetry_Int_Tables_number   1
_chemical_formula_structural   USb4WO12
_chemical_formula_sum   'U1 Sb4 W1 O12'
_cell_volume   285.20240937
_cell_formula_units_Z   1
loop_
 _symmetry_equiv_pos_site_id
 _symmetry_equiv_pos_as_xyz
  1  'x, y, z'
loop_
 _atom_site_type_symbol
 _atom_site_label
 _atom_site_symmetry_multiplicity
 _atom_site_fract_x
 _atom_site_fract_y
 _atom_site_fract_z
 _atom_site_occupancy
  U  U0  1  0.004708  0.250152  0.500024  1
  Sb  Sb1  1  0.447066  0.391717  0.158702  1
  Sb  Sb2  1  0.079794  0.882854  0.167293  1
  Sb  Sb3  1  0.928098  0.617244  0.833952  1
  Sb  Sb4  1  0.560993  0.107474  0.840250  1
  W  W5  1  0.504994  0.750098  0.499980  1
  O  O6  1  0.767580  0.544531  0.442638  1
  O  O7  1  0.719978  0.022470  0.438184  1
  O  O8  1  0.242942  0.955803  0.557186  1
  O  O9  1  0.290736  0.477806  0.561717  1
  O  O10  1  0.855388  0.233276  0.698029  1
  O  O11  1  0.153884  0.266186  0.302052  1
  O  O12  1  0.647981  0.740138  0.689807  1
  O  O13  1  0.361792  0.760783  0.310097  1
  O  O14  1  0.193810  0.615128  0.058369  1
  O  O15  1  0.326394  0.110901  0.059595  1
  O  O16  1  0.679448  0.389130  0.939757  1
  O  O17  1  0.812236  0.884308  0.942369  1
