# generated using pymatgen
data_TbYGa(PRh2)6
_symmetry_space_group_name_H-M   'P 1'
_cell_length_a   9.68257000
_cell_length_b   9.68256985
_cell_length_c   3.89350200
_cell_angle_alpha   90.00000000
_cell_angle_beta   90.00000000
_cell_angle_gamma   119.99999367
_symmetry_Int_Tables_number   1
_chemical_formula_structural   TbYGa(PRh2)6
_chemical_formula_sum   'Tb1 Y1 Ga1 P6 Rh12'
_cell_volume   316.12027105
_cell_formula_units_Z   1
loop_
 _symmetry_equiv_pos_site_id
 _symmetry_equiv_pos_as_xyz
  1  'x, y, z'
loop_
 _atom_site_type_symbol
 _atom_site_label
 _atom_site_symmetry_multiplicity
 _atom_site_fract_x
 _atom_site_fract_y
 _atom_site_fract_z
 _atom_site_occupancy
  Tb  Tb0  1  0.333333  0.666667  0.750957  1
  Y  Y1  1  0.666667  0.333333  0.249050  1
  Ga  Ga2  1  0.000000  0.000000  0.499936  1
  P  P3  1  0.402758  0.285375  0.749436  1
  P  P4  1  0.714625  0.117383  0.749436  1
  P  P5  1  0.882617  0.597242  0.749436  1
  P  P6  1  0.597302  0.714644  0.250560  1
  P  P7  1  0.285356  0.882658  0.250560  1
  P  P8  1  0.117342  0.402698  0.250560  1
  Rh  Rh9  1  0.451627  0.066262  0.750184  1
  Rh  Rh10  1  0.933738  0.385366  0.750184  1
  Rh  Rh11  1  0.614634  0.548373  0.750184  1
  Rh  Rh12  1  0.548533  0.933882  0.249804  1
  Rh  Rh13  1  0.066118  0.614651  0.249804  1
  Rh  Rh14  1  0.385349  0.451467  0.249804  1
  Rh  Rh15  1  0.157498  0.280025  0.752110  1
  Rh  Rh16  1  0.719975  0.877472  0.752110  1
  Rh  Rh17  1  0.122528  0.842502  0.752110  1
  Rh  Rh18  1  0.842559  0.719974  0.247925  1
  Rh  Rh19  1  0.280026  0.122586  0.247925  1
  Rh  Rh20  1  0.877414  0.157441  0.247925  1
