# generated using pymatgen
data_Dy2Zn2PdRh
_symmetry_space_group_name_H-M   'P 1'
_cell_length_a   4.03700300
_cell_length_b   7.03895647
_cell_length_c   8.22071759
_cell_angle_alpha   89.84443437
_cell_angle_beta   90.00000000
_cell_angle_gamma   90.00000000
_symmetry_Int_Tables_number   1
_chemical_formula_structural   Dy2Zn2PdRh
_chemical_formula_sum   'Dy4 Zn4 Pd2 Rh2'
_cell_volume   233.60142085
_cell_formula_units_Z   2
loop_
 _symmetry_equiv_pos_site_id
 _symmetry_equiv_pos_as_xyz
  1  'x, y, z'
loop_
 _atom_site_type_symbol
 _atom_site_label
 _atom_site_symmetry_multiplicity
 _atom_site_fract_x
 _atom_site_fract_y
 _atom_site_fract_z
 _atom_site_occupancy
  Dy  Dy0  1  0.250000  0.540339  0.180936  1
  Dy  Dy1  1  0.750000  0.459661  0.819064  1
  Dy  Dy2  1  0.250000  0.047879  0.307927  1
  Dy  Dy3  1  0.750000  0.952121  0.692073  1
  Zn  Zn4  1  0.250000  0.134904  0.937344  1
  Zn  Zn5  1  0.750000  0.865096  0.062656  1
  Zn  Zn6  1  0.250000  0.638787  0.566941  1
  Zn  Zn7  1  0.750000  0.361213  0.433059  1
  Pd  Pd8  1  0.750000  0.746274  0.378490  1
  Pd  Pd9  1  0.250000  0.253726  0.621510  1
  Rh  Rh10  1  0.750000  0.250343  0.121884  1
  Rh  Rh11  1  0.250000  0.749657  0.878116  1
