# generated using pymatgen
data_Tb4AlZn5Pt8
_symmetry_space_group_name_H-M   'P 1'
_cell_length_a   8.08874233
_cell_length_b   8.08874169
_cell_length_c   7.66877869
_cell_angle_alpha   89.90179149
_cell_angle_beta   90.09820719
_cell_angle_gamma   139.51007139
_symmetry_Int_Tables_number   1
_chemical_formula_structural   Tb4AlZn5Pt8
_chemical_formula_sum   'Tb4 Al1 Zn5 Pt8'
_cell_volume   325.79353759
_cell_formula_units_Z   1
loop_
 _symmetry_equiv_pos_site_id
 _symmetry_equiv_pos_as_xyz
  1  'x, y, z'
loop_
 _atom_site_type_symbol
 _atom_site_label
 _atom_site_symmetry_multiplicity
 _atom_site_fract_x
 _atom_site_fract_y
 _atom_site_fract_z
 _atom_site_occupancy
  Tb  Tb0  1  0.111759  0.888241  0.408750  1
  Tb  Tb1  1  0.888241  0.111759  0.591250  1
  Tb  Tb2  1  0.388929  0.611071  0.911395  1
  Tb  Tb3  1  0.611071  0.388929  0.088605  1
  Al  Al4  1  0.500000  0.500000  0.500000  1
  Zn  Zn5  1  0.000000  0.000000  0.000000  1
  Zn  Zn6  1  0.021921  0.477211  0.250496  1
  Zn  Zn7  1  0.477211  0.021921  0.749504  1
  Zn  Zn8  1  0.978079  0.522789  0.749504  1
  Zn  Zn9  1  0.522789  0.978079  0.250496  1
  Pt  Pt10  1  0.192866  0.305419  0.254568  1
  Pt  Pt11  1  0.305419  0.192866  0.745432  1
  Pt  Pt12  1  0.807134  0.694581  0.745432  1
  Pt  Pt13  1  0.694581  0.807134  0.254568  1
  Pt  Pt14  1  0.178370  0.821630  0.025773  1
  Pt  Pt15  1  0.821630  0.178370  0.974227  1
  Pt  Pt16  1  0.324430  0.675570  0.527184  1
  Pt  Pt17  1  0.675570  0.324430  0.472816  1
