# generated using pymatgen
data_Mg3Sn11Rh6
_symmetry_space_group_name_H-M   'P 1'
_cell_length_a   8.16181337
_cell_length_b   8.16701935
_cell_length_c   8.16754521
_cell_angle_alpha   109.48490443
_cell_angle_beta   109.45908733
_cell_angle_gamma   109.45412864
_symmetry_Int_Tables_number   1
_chemical_formula_structural   Mg3Sn11Rh6
_chemical_formula_sum   'Mg3 Sn11 Rh6'
_cell_volume   419.18250105
_cell_formula_units_Z   1
loop_
 _symmetry_equiv_pos_site_id
 _symmetry_equiv_pos_as_xyz
  1  'x, y, z'
loop_
 _atom_site_type_symbol
 _atom_site_label
 _atom_site_symmetry_multiplicity
 _atom_site_fract_x
 _atom_site_fract_y
 _atom_site_fract_z
 _atom_site_occupancy
  Mg  Mg0  1  0.316837  0.000519  0.000000  1
  Mg  Mg1  1  0.692483  0.004903  0.000000  1
  Mg  Mg2  1  0.996660  0.323118  0.000000  1
  Sn  Sn3  1  0.005200  0.676133  0.000000  1
  Sn  Sn4  1  0.747301  0.483337  0.238570  1
  Sn  Sn5  1  0.493785  0.751013  0.239489  1
  Sn  Sn6  1  0.993869  0.999648  0.326208  1
  Sn  Sn7  1  0.318465  0.321258  0.312788  1
  Sn  Sn8  1  0.745837  0.245276  0.493472  1
  Sn  Sn9  1  0.252365  0.751804  0.506528  1
  Sn  Sn10  1  0.005677  0.008471  0.687212  1
  Sn  Sn11  1  0.667660  0.673440  0.673792  1
  Sn  Sn12  1  0.508731  0.244767  0.761430  1
  Sn  Sn13  1  0.254296  0.511524  0.760511  1
  Rh  Rh14  1  0.348352  0.350066  0.000000  1
  Rh  Rh15  1  0.658714  0.653291  0.000000  1
  Rh  Rh16  1  0.341915  0.004597  0.350487  1
  Rh  Rh17  1  0.008654  0.349806  0.356886  1
  Rh  Rh18  1  0.651768  0.992920  0.643113  1
  Rh  Rh19  1  0.991428  0.654109  0.649512  1
