# generated using pymatgen
data_ErTm7(MoO6)4
_symmetry_space_group_name_H-M   'P 1'
_cell_length_a   5.31872200
_cell_length_b   7.62243726
_cell_length_c   11.34163354
_cell_angle_alpha   75.25600853
_cell_angle_beta   90.00000000
_cell_angle_gamma   90.00000000
_symmetry_Int_Tables_number   1
_chemical_formula_structural   ErTm7(MoO6)4
_chemical_formula_sum   'Er1 Tm7 Mo4 O24'
_cell_volume   444.66797653
_cell_formula_units_Z   1
loop_
 _symmetry_equiv_pos_site_id
 _symmetry_equiv_pos_as_xyz
  1  'x, y, z'
loop_
 _atom_site_type_symbol
 _atom_site_label
 _atom_site_symmetry_multiplicity
 _atom_site_fract_x
 _atom_site_fract_y
 _atom_site_fract_z
 _atom_site_occupancy
  Er  Er0  1  0.318138  0.500000  0.250000  1
  Tm  Tm1  1  0.738387  0.000000  0.750000  1
  Tm  Tm2  1  0.260840  0.000000  0.250000  1
  Tm  Tm3  1  0.182924  0.797637  0.579461  1
  Tm  Tm4  1  0.816884  0.797928  0.079018  1
  Tm  Tm5  1  0.681571  0.500000  0.750000  1
  Tm  Tm6  1  0.182924  0.202363  0.920539  1
  Tm  Tm7  1  0.816884  0.202072  0.420982  1
  Mo  Mo8  1  0.255272  0.721616  0.886530  1
  Mo  Mo9  1  0.744809  0.722047  0.386929  1
  Mo  Mo10  1  0.255272  0.278384  0.613470  1
  Mo  Mo11  1  0.744809  0.277953  0.113071  1
  O  O12  1  0.036406  0.940227  0.896184  1
  O  O13  1  0.531272  0.849223  0.930121  1
  O  O14  1  0.964005  0.940000  0.397044  1
  O  O15  1  0.465408  0.788966  0.724641  1
  O  O16  1  0.468139  0.849011  0.430107  1
  O  O17  1  0.981263  0.711306  0.769265  1
  O  O18  1  0.535211  0.789549  0.224580  1
  O  O19  1  0.847284  0.633447  0.550290  1
  O  O20  1  0.358528  0.488448  0.885908  1
  O  O21  1  0.018231  0.712981  0.268991  1
  O  O22  1  0.358528  0.511552  0.614092  1
  O  O23  1  0.847284  0.366553  0.949710  1
  O  O24  1  0.151545  0.632862  0.049499  1
  O  O25  1  0.643352  0.488568  0.386370  1
  O  O26  1  0.981263  0.288694  0.730735  1
  O  O27  1  0.643352  0.511432  0.113630  1
  O  O28  1  0.151545  0.367138  0.450501  1
  O  O29  1  0.465408  0.211034  0.775359  1
  O  O30  1  0.018231  0.287019  0.231009  1
  O  O31  1  0.531272  0.150777  0.569879  1
  O  O32  1  0.535211  0.210451  0.275420  1
  O  O33  1  0.036406  0.059773  0.603816  1
  O  O34  1  0.468139  0.150989  0.069893  1
  O  O35  1  0.964005  0.060000  0.102956  1
