# generated using pymatgen
data_Ti6SnS12
_symmetry_space_group_name_H-M   'P 1'
_cell_length_a   9.09955168
_cell_length_b   9.09955222
_cell_length_c   5.93542428
_cell_angle_alpha   71.16261833
_cell_angle_beta   71.16262171
_cell_angle_gamma   68.66828214
_symmetry_Int_Tables_number   1
_chemical_formula_structural   Ti6SnS12
_chemical_formula_sum   'Ti6 Sn1 S12'
_cell_volume   421.34682978
_cell_formula_units_Z   1
loop_
 _symmetry_equiv_pos_site_id
 _symmetry_equiv_pos_as_xyz
  1  'x, y, z'
loop_
 _atom_site_type_symbol
 _atom_site_label
 _atom_site_symmetry_multiplicity
 _atom_site_fract_x
 _atom_site_fract_y
 _atom_site_fract_z
 _atom_site_occupancy
  Ti  Ti0  1  0.919350  0.586646  0.253502  1
  Ti  Ti1  1  0.761603  0.761603  0.739813  1
  Ti  Ti2  1  0.586646  0.919350  0.253502  1
  Ti  Ti3  1  0.413354  0.080650  0.746498  1
  Ti  Ti4  1  0.238397  0.238397  0.260187  1
  Ti  Ti5  1  0.080650  0.413354  0.746498  1
  Sn  Sn6  1  0.500000  0.500000  0.000000  1
  S  S7  1  0.973157  0.313850  0.521897  1
  S  S8  1  0.813564  0.484553  0.018306  1
  S  S9  1  0.649143  0.649143  0.521188  1
  S  S10  1  0.856280  0.856280  0.983934  1
  S  S11  1  0.686150  0.026843  0.478103  1
  S  S12  1  0.484553  0.813564  0.018306  1
  S  S13  1  0.313850  0.973157  0.521897  1
  S  S14  1  0.515447  0.186436  0.981694  1
  S  S15  1  0.143720  0.143720  0.016066  1
  S  S16  1  0.350857  0.350857  0.478812  1
  S  S17  1  0.186436  0.515447  0.981694  1
  S  S18  1  0.026843  0.686150  0.478103  1
