# generated using pymatgen
data_Pr5Nd11Cd4Ir3Pd
_symmetry_space_group_name_H-M   'P 1'
_cell_length_a   9.98442816
_cell_length_b   9.98519732
_cell_length_c   9.98519791
_cell_angle_alpha   60.27827793
_cell_angle_beta   60.25816517
_cell_angle_gamma   60.25815451
_symmetry_Int_Tables_number   1
_chemical_formula_structural   Pr5Nd11Cd4Ir3Pd
_chemical_formula_sum   'Pr5 Nd11 Cd4 Ir3 Pd1'
_cell_volume   708.13708786
_cell_formula_units_Z   1
loop_
 _symmetry_equiv_pos_site_id
 _symmetry_equiv_pos_as_xyz
  1  'x, y, z'
loop_
 _atom_site_type_symbol
 _atom_site_label
 _atom_site_symmetry_multiplicity
 _atom_site_fract_x
 _atom_site_fract_y
 _atom_site_fract_z
 _atom_site_occupancy
  Pr  Pr0  1  0.562295  0.939021  0.939021  1
  Pr  Pr1  1  0.562165  0.940133  0.561729  1
  Pr  Pr2  1  0.938995  0.562347  0.938590  1
  Pr  Pr3  1  0.562165  0.561729  0.940133  1
  Pr  Pr4  1  0.938995  0.938590  0.562347  1
  Nd  Nd5  1  0.346772  0.346995  0.346995  1
  Nd  Nd6  1  0.352496  0.352654  0.950235  1
  Nd  Nd7  1  0.352496  0.950235  0.352654  1
  Nd  Nd8  1  0.950145  0.352665  0.352665  1
  Nd  Nd9  1  0.804252  0.190422  0.190422  1
  Nd  Nd10  1  0.188626  0.809841  0.809841  1
  Nd  Nd11  1  0.190277  0.804128  0.190728  1
  Nd  Nd12  1  0.809887  0.188902  0.809648  1
  Nd  Nd13  1  0.190277  0.190728  0.804128  1
  Nd  Nd14  1  0.809887  0.809648  0.188902  1
  Nd  Nd15  1  0.940661  0.561510  0.561510  1
  Cd  Cd16  1  0.580504  0.580075  0.580075  1
  Cd  Cd17  1  0.579679  0.579737  0.260348  1
  Cd  Cd18  1  0.579679  0.260348  0.579737  1
  Cd  Cd19  1  0.259867  0.579709  0.579709  1
  Ir  Ir20  1  0.141615  0.142225  0.573923  1
  Ir  Ir21  1  0.141615  0.573923  0.142225  1
  Ir  Ir22  1  0.573947  0.141806  0.141806  1
  Pd  Pd23  1  0.142703  0.142628  0.142628  1
