# generated using pymatgen
data_CaY2B6OsRh7
_symmetry_space_group_name_H-M   'P 1'
_cell_length_a   9.91987841
_cell_length_b   9.08502998
_cell_length_c   5.57923826
_cell_angle_alpha   81.34139109
_cell_angle_beta   64.87759175
_cell_angle_gamma   33.78099581
_symmetry_Int_Tables_number   1
_chemical_formula_structural   CaY2B6OsRh7
_chemical_formula_sum   'Ca1 Y2 B6 Os1 Rh7'
_cell_volume   231.78414578
_cell_formula_units_Z   1
loop_
 _symmetry_equiv_pos_site_id
 _symmetry_equiv_pos_as_xyz
  1  'x, y, z'
loop_
 _atom_site_type_symbol
 _atom_site_label
 _atom_site_symmetry_multiplicity
 _atom_site_fract_x
 _atom_site_fract_y
 _atom_site_fract_z
 _atom_site_occupancy
  Ca  Ca0  1  0.000000  0.000000  0.000000  1
  Y  Y1  1  0.179224  0.179224  0.820776  1
  Y  Y2  1  0.820776  0.820776  0.179224  1
  B  B3  1  0.818636  0.530723  0.485858  1
  B  B4  1  0.164782  0.485858  0.530723  1
  B  B5  1  0.485858  0.164782  0.818636  1
  B  B6  1  0.670587  0.329413  0.670587  1
  B  B7  1  0.530723  0.818636  0.164782  1
  B  B8  1  0.329413  0.670587  0.329413  1
  Os  Os9  1  0.750000  0.750000  0.750000  1
  Rh  Rh10  1  0.414565  0.414565  0.585435  1
  Rh  Rh11  1  0.584758  0.584758  0.915242  1
  Rh  Rh12  1  0.085787  0.085787  0.414213  1
  Rh  Rh13  1  0.915242  0.915242  0.584758  1
  Rh  Rh14  1  0.585435  0.585435  0.414565  1
  Rh  Rh15  1  0.250000  0.250000  0.250000  1
  Rh  Rh16  1  0.414213  0.414213  0.085787  1
