# generated using pymatgen
data_Pr4LuSi2Hg
_symmetry_space_group_name_H-M   'P 1'
_cell_length_a   7.59835436
_cell_length_b   7.59835373
_cell_length_c   9.45045221
_cell_angle_alpha   113.70389735
_cell_angle_beta   113.70390018
_cell_angle_gamma   90.00000844
_symmetry_Int_Tables_number   1
_chemical_formula_structural   Pr4LuSi2Hg
_chemical_formula_sum   'Pr8 Lu2 Si4 Hg2'
_cell_volume   448.86323152
_cell_formula_units_Z   2
loop_
 _symmetry_equiv_pos_site_id
 _symmetry_equiv_pos_as_xyz
  1  'x, y, z'
loop_
 _atom_site_type_symbol
 _atom_site_label
 _atom_site_symmetry_multiplicity
 _atom_site_fract_x
 _atom_site_fract_y
 _atom_site_fract_z
 _atom_site_occupancy
  Pr  Pr0  1  0.961168  0.813478  0.274646  1
  Pr  Pr1  1  0.313478  0.461168  0.274646  1
  Pr  Pr2  1  0.813478  0.313478  0.274646  1
  Pr  Pr3  1  0.461168  0.961168  0.274646  1
  Pr  Pr4  1  0.038832  0.186522  0.725354  1
  Pr  Pr5  1  0.686522  0.538832  0.725354  1
  Pr  Pr6  1  0.186522  0.686522  0.725354  1
  Pr  Pr7  1  0.538832  0.038832  0.725354  1
  Lu  Lu8  1  0.500000  0.500000  0.000000  1
  Lu  Lu9  1  0.000000  0.000000  0.000000  1
  Si  Si10  1  0.620847  0.879153  0.000000  1
  Si  Si11  1  0.379153  0.120847  0.000000  1
  Si  Si12  1  0.879153  0.379153  0.000000  1
  Si  Si13  1  0.120847  0.620847  0.000000  1
  Hg  Hg14  1  0.750000  0.750000  0.500000  1
  Hg  Hg15  1  0.250000  0.250000  0.500000  1
