# generated using pymatgen
data_Nd2Th(InRh)3
_symmetry_space_group_name_H-M   'P 1'
_cell_length_a   7.85409700
_cell_length_b   7.64960275
_cell_length_c   4.00372600
_cell_angle_alpha   90.00000000
_cell_angle_beta   90.00000000
_cell_angle_gamma   120.88832505
_symmetry_Int_Tables_number   1
_chemical_formula_structural   Nd2Th(InRh)3
_chemical_formula_sum   'Nd2 Th1 In3 Rh3'
_cell_volume   206.42989047
_cell_formula_units_Z   1
loop_
 _symmetry_equiv_pos_site_id
 _symmetry_equiv_pos_as_xyz
  1  'x, y, z'
loop_
 _atom_site_type_symbol
 _atom_site_label
 _atom_site_symmetry_multiplicity
 _atom_site_fract_x
 _atom_site_fract_y
 _atom_site_fract_z
 _atom_site_occupancy
  Nd  Nd0  1  0.410306  0.409971  0.500000  1
  Nd  Nd1  1  0.000335  0.590029  0.500000  1
  Th  Th2  1  0.582555  0.000000  0.500000  1
  In  In3  1  0.239507  0.000000  0.000000  1
  In  In4  1  0.747879  0.739258  0.000000  1
  In  In5  1  0.008621  0.260742  0.000000  1
  Rh  Rh6  1  0.989208  0.000000  0.500000  1
  Rh  Rh7  1  0.357875  0.694163  0.000000  1
  Rh  Rh8  1  0.663713  0.305837  0.000000  1
