# generated using pymatgen
data_LiDySc(H6Ir)2
_symmetry_space_group_name_H-M   'P 1'
_cell_length_a   4.56998900
_cell_length_b   4.56998999
_cell_length_c   7.82229200
_cell_angle_alpha   90.00000000
_cell_angle_beta   90.00000000
_cell_angle_gamma   119.99998560
_symmetry_Int_Tables_number   1
_chemical_formula_structural   LiDySc(H6Ir)2
_chemical_formula_sum   'Li1 Dy1 Sc1 H12 Ir2'
_cell_volume   141.48002307
_cell_formula_units_Z   1
loop_
 _symmetry_equiv_pos_site_id
 _symmetry_equiv_pos_as_xyz
  1  'x, y, z'
loop_
 _atom_site_type_symbol
 _atom_site_label
 _atom_site_symmetry_multiplicity
 _atom_site_fract_x
 _atom_site_fract_y
 _atom_site_fract_z
 _atom_site_occupancy
  Li  Li0  1  0.666667  0.333333  0.363842  1
  Dy  Dy1  1  0.000000  0.000000  0.029384  1
  Sc  Sc2  1  0.333333  0.666667  0.619664  1
  H  H3  1  0.162976  0.837024  0.381202  1
  H  H4  1  0.674049  0.837024  0.381202  1
  H  H5  1  0.162976  0.325951  0.381202  1
  H  H6  1  0.840645  0.159355  0.617147  1
  H  H7  1  0.318709  0.159355  0.617147  1
  H  H8  1  0.840645  0.681291  0.617147  1
  H  H9  1  0.489516  0.979032  0.865575  1
  H  H10  1  0.489516  0.510484  0.865575  1
  H  H11  1  0.020968  0.510484  0.865575  1
  H  H12  1  0.509347  0.018697  0.132184  1
  H  H13  1  0.509347  0.490653  0.132184  1
  H  H14  1  0.981303  0.490653  0.132184  1
  Ir  Ir15  1  0.666667  0.333333  0.743558  1
  Ir  Ir16  1  0.333333  0.666667  0.255225  1
