# generated using pymatgen
data_Ti8V2Si6C
_symmetry_space_group_name_H-M   'P 1'
_cell_length_a   7.38936400
_cell_length_b   7.38936305
_cell_length_c   5.06450800
_cell_angle_alpha   90.00000000
_cell_angle_beta   90.00000000
_cell_angle_gamma   119.99998634
_symmetry_Int_Tables_number   1
_chemical_formula_structural   Ti8V2Si6C
_chemical_formula_sum   'Ti8 V2 Si6 C1'
_cell_volume   239.48704096
_cell_formula_units_Z   1
loop_
 _symmetry_equiv_pos_site_id
 _symmetry_equiv_pos_as_xyz
  1  'x, y, z'
loop_
 _atom_site_type_symbol
 _atom_site_label
 _atom_site_symmetry_multiplicity
 _atom_site_fract_x
 _atom_site_fract_y
 _atom_site_fract_z
 _atom_site_occupancy
  Ti  Ti0  1  0.000000  0.760084  0.256096  1
  Ti  Ti1  1  0.239916  0.239916  0.256096  1
  Ti  Ti2  1  0.760084  0.000000  0.256096  1
  Ti  Ti3  1  0.000000  0.239916  0.743904  1
  Ti  Ti4  1  0.760084  0.760084  0.743904  1
  Ti  Ti5  1  0.239916  0.000000  0.743904  1
  Ti  Ti6  1  0.333333  0.666667  0.000000  1
  Ti  Ti7  1  0.666667  0.333333  0.000000  1
  V  V8  1  0.666667  0.333333  0.500000  1
  V  V9  1  0.333333  0.666667  0.500000  1
  Si  Si10  1  0.000000  0.403594  0.259081  1
  Si  Si11  1  0.596406  0.596406  0.259081  1
  Si  Si12  1  0.403594  0.000000  0.259081  1
  Si  Si13  1  0.000000  0.596406  0.740919  1
  Si  Si14  1  0.403594  0.403594  0.740919  1
  Si  Si15  1  0.596406  0.000000  0.740919  1
  C  C16  1  0.000000  0.000000  0.500000  1
