# generated using pymatgen
data_Sm2Sc2ReB12Os
_symmetry_space_group_name_H-M   'P 1'
_cell_length_a   3.58990000
_cell_length_b   9.01151099
_cell_length_c   11.41541300
_cell_angle_alpha   90.06603489
_cell_angle_beta   90.00000000
_cell_angle_gamma   90.00000000
_symmetry_Int_Tables_number   1
_chemical_formula_structural   Sm2Sc2ReB12Os
_chemical_formula_sum   'Sm4 Sc4 Re2 B24 Os2'
_cell_volume   369.29319726
_cell_formula_units_Z   2
loop_
 _symmetry_equiv_pos_site_id
 _symmetry_equiv_pos_as_xyz
  1  'x, y, z'
loop_
 _atom_site_type_symbol
 _atom_site_label
 _atom_site_symmetry_multiplicity
 _atom_site_fract_x
 _atom_site_fract_y
 _atom_site_fract_z
 _atom_site_occupancy
  Sm  Sm0  1  0.000000  0.319837  0.413847  1
  Sm  Sm1  1  0.000000  0.680163  0.586153  1
  Sm  Sm2  1  0.000000  0.822320  0.085308  1
  Sm  Sm3  1  0.000000  0.177680  0.914692  1
  Sc  Sc4  1  0.000000  0.945661  0.371517  1
  Sc  Sc5  1  0.000000  0.054339  0.628483  1
  Sc  Sc6  1  0.000000  0.443298  0.128234  1
  Sc  Sc7  1  0.000000  0.556702  0.871766  1
  Re  Re8  1  0.000000  0.141098  0.182673  1
  Re  Re9  1  0.000000  0.858902  0.817327  1
  B  B10  1  0.500000  0.555752  0.431319  1
  B  B11  1  0.500000  0.444248  0.568681  1
  B  B12  1  0.500000  0.054993  0.068614  1
  B  B13  1  0.500000  0.945007  0.931386  1
  B  B14  1  0.500000  0.753956  0.416962  1
  B  B15  1  0.500000  0.246044  0.583038  1
  B  B16  1  0.500000  0.254086  0.082693  1
  B  B17  1  0.500000  0.745914  0.917307  1
  B  B18  1  0.500000  0.793548  0.265709  1
  B  B19  1  0.500000  0.206452  0.734291  1
  B  B20  1  0.500000  0.294577  0.234748  1
  B  B21  1  0.500000  0.705423  0.765252  1
  B  B22  1  0.500000  0.628131  0.183587  1
  B  B23  1  0.500000  0.371869  0.816413  1
  B  B24  1  0.500000  0.128458  0.317080  1
  B  B25  1  0.500000  0.871542  0.682920  1
  B  B26  1  0.500000  0.982102  0.215294  1
  B  B27  1  0.500000  0.017898  0.784706  1
  B  B28  1  0.500000  0.482353  0.285427  1
  B  B29  1  0.500000  0.517647  0.714573  1
  B  B30  1  0.500000  0.595791  0.025936  1
  B  B31  1  0.500000  0.404209  0.974064  1
  B  B32  1  0.500000  0.096416  0.474301  1
  B  B33  1  0.500000  0.903584  0.525699  1
  Os  Os34  1  0.000000  0.640325  0.318022  1
  Os  Os35  1  0.000000  0.359675  0.681978  1
