# generated using pymatgen
data_La3DyZr4F28
_symmetry_space_group_name_H-M   'P 1'
_cell_length_a   5.91102875
_cell_length_b   9.38846379
_cell_length_c   12.62003738
_cell_angle_alpha   62.18286010
_cell_angle_beta   90.04138086
_cell_angle_gamma   89.96003294
_symmetry_Int_Tables_number   1
_chemical_formula_structural   La3DyZr4F28
_chemical_formula_sum   'La3 Dy1 Zr4 F28'
_cell_volume   619.42240476
_cell_formula_units_Z   1
loop_
 _symmetry_equiv_pos_site_id
 _symmetry_equiv_pos_as_xyz
  1  'x, y, z'
loop_
 _atom_site_type_symbol
 _atom_site_label
 _atom_site_symmetry_multiplicity
 _atom_site_fract_x
 _atom_site_fract_y
 _atom_site_fract_z
 _atom_site_occupancy
  La  La0  1  0.743377  0.809126  0.266811  1
  La  La1  1  0.242756  0.186234  0.233255  1
  La  La2  1  0.257082  0.181297  0.733776  1
  Dy  Dy3  1  0.758009  0.810538  0.766508  1
  Zr  Zr4  1  0.745750  0.267823  0.458588  1
  Zr  Zr5  1  0.244760  0.726125  0.038293  1
  Zr  Zr6  1  0.256693  0.725893  0.551753  1
  Zr  Zr7  1  0.755656  0.281099  0.951611  1
  F  F8  1  0.467476  0.714973  0.918717  1
  F  F9  1  0.958904  0.288592  0.577147  1
  F  F10  1  0.543446  0.292399  0.074385  1
  F  F11  1  0.043814  0.712794  0.429425  1
  F  F12  1  0.460723  0.282164  0.545523  1
  F  F13  1  0.960306  0.721074  0.944694  1
  F  F14  1  0.535035  0.717191  0.457916  1
  F  F15  1  0.039530  0.287795  0.042284  1
  F  F16  1  0.764134  0.528221  0.857289  1
  F  F17  1  0.266095  0.481457  0.643535  1
  F  F18  1  0.230195  0.482679  0.136433  1
  F  F19  1  0.733071  0.513694  0.363036  1
  F  F20  1  0.760509  0.037024  0.052657  1
  F  F21  1  0.260666  0.969438  0.448543  1
  F  F22  1  0.239535  0.970978  0.944585  1
  F  F23  1  0.740630  0.023987  0.561827  1
  F  F24  1  0.989368  0.736029  0.652309  1
  F  F25  1  0.489069  0.269470  0.853313  1
  F  F26  1  0.013661  0.266938  0.357540  1
  F  F27  1  0.509414  0.731525  0.140439  1
  F  F28  1  0.041193  0.744046  0.164047  1
  F  F29  1  0.544424  0.253343  0.331623  1
  F  F30  1  0.958393  0.259422  0.828069  1
  F  F31  1  0.471109  0.748974  0.672862  1
  F  F32  1  0.418378  0.966563  0.233160  1
  F  F33  1  0.915678  0.030362  0.266944  1
  F  F34  1  0.580347  0.016100  0.765358  1
  F  F35  1  0.060812  0.964636  0.735750  1
