# generated using pymatgen
data_Y5Ge12Ir19
_symmetry_space_group_name_H-M   'P 1'
_cell_length_a   13.17083000
_cell_length_b   13.17083105
_cell_length_c   4.04731500
_cell_angle_alpha   90.00000000
_cell_angle_beta   90.00000000
_cell_angle_gamma   120.00000239
_symmetry_Int_Tables_number   1
_chemical_formula_structural   Y5Ge12Ir19
_chemical_formula_sum   'Y5 Ge12 Ir19'
_cell_volume   608.02852013
_cell_formula_units_Z   1
loop_
 _symmetry_equiv_pos_site_id
 _symmetry_equiv_pos_as_xyz
  1  'x, y, z'
loop_
 _atom_site_type_symbol
 _atom_site_label
 _atom_site_symmetry_multiplicity
 _atom_site_fract_x
 _atom_site_fract_y
 _atom_site_fract_z
 _atom_site_occupancy
  Y  Y0  1  0.333333  0.666667  0.000000  1
  Y  Y1  1  0.666667  0.333333  0.000000  1
  Y  Y2  1  0.814577  0.000000  0.500000  1
  Y  Y3  1  0.000000  0.814577  0.500000  1
  Y  Y4  1  0.185423  0.185423  0.500000  1
  Ge  Ge5  1  0.180319  0.000000  0.000000  1
  Ge  Ge6  1  0.000000  0.180319  0.000000  1
  Ge  Ge7  1  0.819681  0.819681  0.000000  1
  Ge  Ge8  1  0.169533  0.483957  0.500000  1
  Ge  Ge9  1  0.516043  0.685575  0.500000  1
  Ge  Ge10  1  0.314425  0.830467  0.500000  1
  Ge  Ge11  1  0.685575  0.516043  0.500000  1
  Ge  Ge12  1  0.830467  0.314425  0.500000  1
  Ge  Ge13  1  0.483957  0.169533  0.500000  1
  Ge  Ge14  1  0.634553  0.000000  0.000000  1
  Ge  Ge15  1  0.000000  0.634553  0.000000  1
  Ge  Ge16  1  0.365447  0.365447  0.000000  1
  Ir  Ir17  1  0.446244  0.000000  0.000000  1
  Ir  Ir18  1  0.000000  0.446244  0.000000  1
  Ir  Ir19  1  0.553756  0.553756  0.000000  1
  Ir  Ir20  1  0.359902  0.485022  0.500000  1
  Ir  Ir21  1  0.514978  0.874881  0.500000  1
  Ir  Ir22  1  0.125119  0.640098  0.500000  1
  Ir  Ir23  1  0.874881  0.514978  0.500000  1
  Ir  Ir24  1  0.640098  0.125119  0.500000  1
  Ir  Ir25  1  0.485022  0.359902  0.500000  1
  Ir  Ir26  1  0.181678  0.376555  0.000000  1
  Ir  Ir27  1  0.623445  0.805123  0.000000  1
  Ir  Ir28  1  0.194877  0.818322  0.000000  1
  Ir  Ir29  1  0.805123  0.623445  0.000000  1
  Ir  Ir30  1  0.818322  0.194877  0.000000  1
  Ir  Ir31  1  0.376555  0.181678  0.000000  1
  Ir  Ir32  1  0.285205  0.000000  0.500000  1
  Ir  Ir33  1  0.000000  0.285205  0.500000  1
  Ir  Ir34  1  0.714795  0.714795  0.500000  1
  Ir  Ir35  1  0.000000  0.000000  0.000000  1
