# generated using pymatgen
data_Tl2PdPtO7
_symmetry_space_group_name_H-M   'P 1'
_cell_length_a   7.28899605
_cell_length_b   7.28899534
_cell_length_c   7.28469900
_cell_angle_alpha   60.01950077
_cell_angle_beta   60.01950397
_cell_angle_gamma   60.01731431
_symmetry_Int_Tables_number   1
_chemical_formula_structural   Tl2PdPtO7
_chemical_formula_sum   'Tl4 Pd2 Pt2 O14'
_cell_volume   273.78950031
_cell_formula_units_Z   2
loop_
 _symmetry_equiv_pos_site_id
 _symmetry_equiv_pos_as_xyz
  1  'x, y, z'
loop_
 _atom_site_type_symbol
 _atom_site_label
 _atom_site_symmetry_multiplicity
 _atom_site_fract_x
 _atom_site_fract_y
 _atom_site_fract_z
 _atom_site_occupancy
  Tl  Tl0  1  0.625000  0.625000  0.125000  1
  Tl  Tl1  1  0.625000  0.625000  0.625000  1
  Tl  Tl2  1  0.625000  0.125000  0.625000  1
  Tl  Tl3  1  0.125000  0.625000  0.625000  1
  Pd  Pd4  1  0.625000  0.125000  0.125000  1
  Pd  Pd5  1  0.125000  0.625000  0.125000  1
  Pt  Pt6  1  0.125000  0.125000  0.125000  1
  Pt  Pt7  1  0.125000  0.125000  0.625000  1
  O  O8  1  0.040819  0.458160  0.460878  1
  O  O9  1  0.790526  0.790526  0.209474  1
  O  O10  1  0.791840  0.209181  0.209858  1
  O  O11  1  0.458160  0.040819  0.460878  1
  O  O12  1  0.040819  0.458160  0.040142  1
  O  O13  1  0.749783  0.749783  0.750217  1
  O  O14  1  0.040268  0.040268  0.459732  1
  O  O15  1  0.209181  0.791840  0.209858  1
  O  O16  1  0.209732  0.209732  0.790268  1
  O  O17  1  0.500217  0.500217  0.499783  1
  O  O18  1  0.791840  0.209181  0.789122  1
  O  O19  1  0.458160  0.040819  0.040142  1
  O  O20  1  0.459474  0.459474  0.040526  1
  O  O21  1  0.209181  0.791840  0.789122  1
