# generated using pymatgen
data_Pr2Fe5Co3B8
_symmetry_space_group_name_H-M   'P 1'
_cell_length_a   7.08363791
_cell_length_b   7.08967537
_cell_length_c   3.79842776
_cell_angle_alpha   89.95934988
_cell_angle_beta   90.05997895
_cell_angle_gamma   89.89573804
_symmetry_Int_Tables_number   1
_chemical_formula_structural   Pr2Fe5Co3B8
_chemical_formula_sum   'Pr2 Fe5 Co3 B8'
_cell_volume   190.75920677
_cell_formula_units_Z   1
loop_
 _symmetry_equiv_pos_site_id
 _symmetry_equiv_pos_as_xyz
  1  'x, y, z'
loop_
 _atom_site_type_symbol
 _atom_site_label
 _atom_site_symmetry_multiplicity
 _atom_site_fract_x
 _atom_site_fract_y
 _atom_site_fract_z
 _atom_site_occupancy
  Pr  Pr0  1  0.999534  0.000003  0.000045  1
  Pr  Pr1  1  0.500836  0.500885  0.500535  1
  Fe  Fe2  1  0.867965  0.387644  0.103817  1
  Fe  Fe3  1  0.133623  0.613058  0.104825  1
  Fe  Fe4  1  0.887479  0.633954  0.604845  1
  Fe  Fe5  1  0.113396  0.367267  0.604410  1
  Fe  Fe6  1  0.632708  0.113083  0.393578  1
  Co  Co7  1  0.363713  0.886820  0.393709  1
  Co  Co8  1  0.611579  0.861793  0.893812  1
  Co  Co9  1  0.385196  0.136260  0.894077  1
  B  B10  1  0.334911  0.794307  0.897761  1
  B  B11  1  0.666612  0.203590  0.896180  1
  B  B12  1  0.298519  0.166376  0.397061  1
  B  B13  1  0.707151  0.838979  0.397511  1
  B  B14  1  0.163668  0.699667  0.604812  1
  B  B15  1  0.835038  0.296807  0.602835  1
  B  B16  1  0.198576  0.335473  0.104848  1
  B  B17  1  0.799497  0.664033  0.105342  1
