# generated using pymatgen
data_Y20Sn15Te
_symmetry_space_group_name_H-M   'P 1'
_cell_length_a   8.09968770
_cell_length_b   8.19887658
_cell_length_c   15.49695629
_cell_angle_alpha   90.37540801
_cell_angle_beta   91.34009004
_cell_angle_gamma   89.68741981
_symmetry_Int_Tables_number   1
_chemical_formula_structural   Y20Sn15Te
_chemical_formula_sum   'Y20 Sn15 Te1'
_cell_volume   1028.80910735
_cell_formula_units_Z   1
loop_
 _symmetry_equiv_pos_site_id
 _symmetry_equiv_pos_as_xyz
  1  'x, y, z'
loop_
 _atom_site_type_symbol
 _atom_site_label
 _atom_site_symmetry_multiplicity
 _atom_site_fract_x
 _atom_site_fract_y
 _atom_site_fract_z
 _atom_site_occupancy
  Y  Y0  1  0.381397  0.840348  0.880556  1
  Y  Y1  1  0.871368  0.665953  0.622593  1
  Y  Y2  1  0.631534  0.162037  0.376609  1
  Y  Y3  1  0.120774  0.341698  0.121297  1
  Y  Y4  1  0.618992  0.160012  0.118395  1
  Y  Y5  1  0.130364  0.335741  0.376779  1
  Y  Y6  1  0.368750  0.839715  0.622820  1
  Y  Y7  1  0.879445  0.663415  0.879171  1
  Y  Y8  1  0.547360  0.338404  0.891307  1
  Y  Y9  1  0.025435  0.177427  0.597503  1
  Y  Y10  1  0.477178  0.675858  0.402637  1
  Y  Y11  1  0.952922  0.817622  0.105735  1
  Y  Y12  1  0.466130  0.662070  0.103643  1
  Y  Y13  1  0.975564  0.822410  0.401826  1
  Y  Y14  1  0.523425  0.322635  0.598407  1
  Y  Y15  1  0.030188  0.183285  0.896603  1
  Y  Y16  1  0.206459  0.504708  0.748760  1
  Y  Y17  1  0.705602  0.001263  0.749123  1
  Y  Y18  1  0.794724  0.495811  0.250851  1
  Y  Y19  1  0.293433  0.998513  0.255409  1
  Sn  Sn20  1  0.793367  0.461862  0.458860  1
  Sn  Sn21  1  0.707392  0.963988  0.541108  1
  Sn  Sn22  1  0.224135  0.526604  0.956960  1
  Sn  Sn23  1  0.721102  0.975050  0.955666  1
  Sn  Sn24  1  0.207810  0.538292  0.541070  1
  Sn  Sn25  1  0.294476  0.037082  0.458912  1
  Sn  Sn26  1  0.784109  0.466718  0.042317  1
  Sn  Sn27  1  0.572142  0.627147  0.749807  1
  Sn  Sn28  1  0.072084  0.880557  0.753233  1
  Sn  Sn29  1  0.429298  0.374232  0.247956  1
  Sn  Sn30  1  0.928324  0.120753  0.246567  1
  Sn  Sn31  1  0.338371  0.149193  0.749947  1
  Sn  Sn32  1  0.841056  0.356206  0.746368  1
  Sn  Sn33  1  0.657614  0.851131  0.250614  1
  Sn  Sn34  1  0.161347  0.645370  0.251893  1
  Te  Te35  1  0.266330  0.016892  0.048699  1
