# generated using pymatgen
data_HoTm3Lu2(Al3Os)8
_symmetry_space_group_name_H-M   'P 1'
_cell_length_a   8.76539617
_cell_length_b   8.77536393
_cell_length_c   9.58619600
_cell_angle_alpha   90.00000000
_cell_angle_beta   90.00000000
_cell_angle_gamma   119.98524792
_symmetry_Int_Tables_number   1
_chemical_formula_structural   HoTm3Lu2(Al3Os)8
_chemical_formula_sum   'Ho1 Tm3 Lu2 Al24 Os8'
_cell_volume   638.67241956
_cell_formula_units_Z   1
loop_
 _symmetry_equiv_pos_site_id
 _symmetry_equiv_pos_as_xyz
  1  'x, y, z'
loop_
 _atom_site_type_symbol
 _atom_site_label
 _atom_site_symmetry_multiplicity
 _atom_site_fract_x
 _atom_site_fract_y
 _atom_site_fract_z
 _atom_site_occupancy
  Ho  Ho0  1  0.612940  0.806611  0.250000  1
  Tm  Tm1  1  0.388865  0.194294  0.750000  1
  Tm  Tm2  1  0.194647  0.805545  0.250000  1
  Tm  Tm3  1  0.805253  0.194263  0.750000  1
  Lu  Lu4  1  0.195947  0.392007  0.250000  1
  Lu  Lu5  1  0.803917  0.608098  0.750000  1
  Al  Al6  1  0.333300  0.666718  0.021290  1
  Al  Al7  1  0.666536  0.333162  0.978945  1
  Al  Al8  1  0.666536  0.333162  0.521055  1
  Al  Al9  1  0.333300  0.666718  0.478710  1
  Al  Al10  1  0.163411  0.326921  0.576337  1
  Al  Al11  1  0.836611  0.672825  0.423868  1
  Al  Al12  1  0.672910  0.836223  0.577062  1
  Al  Al13  1  0.836611  0.672825  0.076132  1
  Al  Al14  1  0.326839  0.163648  0.423460  1
  Al  Al15  1  0.163411  0.326921  0.923663  1
  Al  Al16  1  0.163160  0.836276  0.576720  1
  Al  Al17  1  0.326839  0.163648  0.076540  1
  Al  Al18  1  0.836857  0.164006  0.423487  1
  Al  Al19  1  0.672910  0.836223  0.922938  1
  Al  Al20  1  0.836857  0.164006  0.076513  1
  Al  Al21  1  0.163160  0.836276  0.923280  1
  Al  Al22  1  0.561628  0.123844  0.250000  1
  Al  Al23  1  0.438063  0.876406  0.750000  1
  Al  Al24  1  0.876985  0.438496  0.250000  1
  Al  Al25  1  0.123002  0.561511  0.750000  1
  Al  Al26  1  0.561386  0.438033  0.250000  1
  Al  Al27  1  0.438284  0.561436  0.750000  1
  Al  Al28  1  0.002470  0.002804  0.250000  1
  Al  Al29  1  0.998844  0.997858  0.750000  1
  Os  Os30  1  0.499849  0.000309  0.999471  1
  Os  Os31  1  0.999709  0.499866  0.999656  1
  Os  Os32  1  0.499849  0.000309  0.500529  1
  Os  Os33  1  0.499898  0.499520  0.999419  1
  Os  Os34  1  0.999709  0.499866  0.500344  1
  Os  Os35  1  0.499898  0.499520  0.500581  1
  Os  Os36  1  0.999805  0.999921  0.000006  1
  Os  Os37  1  0.999805  0.999921  0.499994  1
