# generated using pymatgen
data_LiDy6Ho10Cd3Ir4
_symmetry_space_group_name_H-M   'P 1'
_cell_length_a   9.62775461
_cell_length_b   9.62775513
_cell_length_c   9.62775504
_cell_angle_alpha   59.70966855
_cell_angle_beta   59.70966731
_cell_angle_gamma   59.70966767
_symmetry_Int_Tables_number   1
_chemical_formula_structural   LiDy6Ho10Cd3Ir4
_chemical_formula_sum   'Li1 Dy6 Ho10 Cd3 Ir4'
_cell_volume   626.88323428
_cell_formula_units_Z   1
loop_
 _symmetry_equiv_pos_site_id
 _symmetry_equiv_pos_as_xyz
  1  'x, y, z'
loop_
 _atom_site_type_symbol
 _atom_site_label
 _atom_site_symmetry_multiplicity
 _atom_site_fract_x
 _atom_site_fract_y
 _atom_site_fract_z
 _atom_site_occupancy
  Li  Li0  1  0.821168  0.821168  0.821168  1
  Dy  Dy1  1  0.189422  0.811425  0.811425  1
  Dy  Dy2  1  0.812472  0.186328  0.186328  1
  Dy  Dy3  1  0.811425  0.189422  0.811425  1
  Dy  Dy4  1  0.186328  0.812472  0.186328  1
  Dy  Dy5  1  0.811425  0.811425  0.189422  1
  Dy  Dy6  1  0.186328  0.186328  0.812472  1
  Ho  Ho7  1  0.600006  0.600006  0.600006  1
  Ho  Ho8  1  0.597742  0.597742  0.208030  1
  Ho  Ho9  1  0.597742  0.208030  0.597742  1
  Ho  Ho10  1  0.208030  0.597742  0.597742  1
  Ho  Ho11  1  0.061001  0.439646  0.439646  1
  Ho  Ho12  1  0.434984  0.062441  0.062441  1
  Ho  Ho13  1  0.439646  0.061001  0.439646  1
  Ho  Ho14  1  0.062441  0.434984  0.062441  1
  Ho  Ho15  1  0.439646  0.439646  0.061001  1
  Ho  Ho16  1  0.062441  0.062441  0.434984  1
  Cd  Cd17  1  0.832339  0.832339  0.506822  1
  Cd  Cd18  1  0.832339  0.506822  0.832339  1
  Cd  Cd19  1  0.506822  0.832339  0.832339  1
  Ir  Ir20  1  0.392201  0.392201  0.392201  1
  Ir  Ir21  1  0.393935  0.393935  0.826181  1
  Ir  Ir22  1  0.393935  0.826181  0.393935  1
  Ir  Ir23  1  0.826181  0.393935  0.393935  1
