# generated using pymatgen
data_Cs(PbO2)6
_symmetry_space_group_name_H-M   'P 1'
_cell_length_a   9.61588267
_cell_length_b   9.61588151
_cell_length_c   9.61588252
_cell_angle_alpha   106.83999690
_cell_angle_beta   106.83999301
_cell_angle_gamma   114.87247946
_symmetry_Int_Tables_number   1
_chemical_formula_structural   Cs(PbO2)6
_chemical_formula_sum   'Cs2 Pb12 O24'
_cell_volume   679.85053865
_cell_formula_units_Z   2
loop_
 _symmetry_equiv_pos_site_id
 _symmetry_equiv_pos_as_xyz
  1  'x, y, z'
loop_
 _atom_site_type_symbol
 _atom_site_label
 _atom_site_symmetry_multiplicity
 _atom_site_fract_x
 _atom_site_fract_y
 _atom_site_fract_z
 _atom_site_occupancy
  Cs  Cs0  1  0.713076  0.713076  0.000000  1
  Cs  Cs1  1  0.286924  0.286924  0.000000  1
  Pb  Pb2  1  0.665476  0.848830  0.514305  1
  Pb  Pb3  1  0.818069  0.329367  0.814439  1
  Pb  Pb4  1  0.485072  0.996370  0.814439  1
  Pb  Pb5  1  0.514928  0.003630  0.185561  1
  Pb  Pb6  1  0.670633  0.485072  0.488702  1
  Pb  Pb7  1  0.334524  0.151170  0.485695  1
  Pb  Pb8  1  0.329367  0.514928  0.511298  1
  Pb  Pb9  1  0.996370  0.181931  0.511298  1
  Pb  Pb10  1  0.151170  0.665476  0.816646  1
  Pb  Pb11  1  0.181931  0.670633  0.185561  1
  Pb  Pb12  1  0.848830  0.334524  0.183354  1
  Pb  Pb13  1  0.003630  0.818069  0.488702  1
  O  O14  1  0.662840  0.040620  0.703459  1
  O  O15  1  0.323601  0.959159  0.947174  1
  O  O16  1  0.656007  0.291400  0.947407  1
  O  O17  1  0.707511  0.000242  0.374699  1
  O  O18  1  0.625543  0.332812  0.625301  1
  O  O19  1  0.292489  0.999758  0.625301  1
  O  O20  1  0.676399  0.040841  0.052826  1
  O  O21  1  0.667188  0.292489  0.292731  1
  O  O22  1  0.337160  0.959380  0.296541  1
  O  O23  1  0.623572  0.676399  0.635558  1
  O  O24  1  0.291400  0.343993  0.635392  1
  O  O25  1  0.959159  0.011985  0.635558  1
  O  O26  1  0.376428  0.323601  0.364442  1
  O  O27  1  0.040841  0.988015  0.364442  1
  O  O28  1  0.708600  0.656007  0.364608  1
  O  O29  1  0.332812  0.707511  0.707269  1
  O  O30  1  0.999758  0.374457  0.707269  1
  O  O31  1  0.988015  0.623572  0.947174  1
  O  O32  1  0.374457  0.667188  0.374699  1
  O  O33  1  0.040620  0.337160  0.377780  1
  O  O34  1  0.959380  0.662839  0.622220  1
  O  O35  1  0.343993  0.708600  0.052593  1
  O  O36  1  0.011985  0.376428  0.052826  1
  O  O37  1  0.000242  0.625543  0.292731  1
