# generated using pymatgen
data_Tm2V3O8
_symmetry_space_group_name_H-M   'P 1'
_cell_length_a   5.07012705
_cell_length_b   6.14564001
_cell_length_c   10.27513564
_cell_angle_alpha   89.86887078
_cell_angle_beta   83.74034158
_cell_angle_gamma   90.01225984
_symmetry_Int_Tables_number   1
_chemical_formula_structural   Tm2V3O8
_chemical_formula_sum   'Tm4 V6 O16'
_cell_volume   318.25505708
_cell_formula_units_Z   2
loop_
 _symmetry_equiv_pos_site_id
 _symmetry_equiv_pos_as_xyz
  1  'x, y, z'
loop_
 _atom_site_type_symbol
 _atom_site_label
 _atom_site_symmetry_multiplicity
 _atom_site_fract_x
 _atom_site_fract_y
 _atom_site_fract_z
 _atom_site_occupancy
  Tm  Tm0  1  0.440110  0.501790  0.223918  1
  Tm  Tm1  1  0.938969  0.001457  0.723934  1
  Tm  Tm2  1  0.061044  0.001874  0.275256  1
  Tm  Tm3  1  0.560381  0.501256  0.775479  1
  V  V4  1  0.000180  0.502760  0.499962  1
  V  V5  1  0.500006  0.233942  0.499678  1
  V  V6  1  0.499571  0.754338  0.500025  1
  V  V7  1  0.501220  0.002545  0.000193  1
  V  V8  1  0.000551  0.734338  0.998872  1
  V  V9  1  0.998422  0.254762  0.001327  1
  O  O10  1  0.679320  0.009330  0.397608  1
  O  O11  1  0.177846  0.511801  0.895831  1
  O  O12  1  0.825250  0.505200  0.103057  1
  O  O13  1  0.321418  0.007367  0.602673  1
  O  O14  1  0.687021  0.495793  0.394117  1
  O  O15  1  0.184145  0.998626  0.895485  1
  O  O16  1  0.810874  0.990422  0.107462  1
  O  O17  1  0.312069  0.494389  0.606068  1
  O  O18  1  0.288210  0.225441  0.120713  1
  O  O19  1  0.787832  0.724245  0.620443  1
  O  O20  1  0.277385  0.775986  0.113215  1
  O  O21  1  0.775041  0.275539  0.614191  1
  O  O22  1  0.212070  0.723866  0.379019  1
  O  O23  1  0.710736  0.222696  0.880198  1
  O  O24  1  0.225272  0.275868  0.385898  1
  O  O25  1  0.725056  0.774369  0.885378  1
