# generated using pymatgen
data_YLu2In3Ag2Ir
_symmetry_space_group_name_H-M   'P 1'
_cell_length_a   7.98214244
_cell_length_b   7.95702117
_cell_length_c   3.66111500
_cell_angle_alpha   90.00000000
_cell_angle_beta   90.00000000
_cell_angle_gamma   119.73730654
_symmetry_Int_Tables_number   1
_chemical_formula_structural   YLu2In3Ag2Ir
_chemical_formula_sum   'Y1 Lu2 In3 Ag2 Ir1'
_cell_volume   201.90985811
_cell_formula_units_Z   1
loop_
 _symmetry_equiv_pos_site_id
 _symmetry_equiv_pos_as_xyz
  1  'x, y, z'
loop_
 _atom_site_type_symbol
 _atom_site_label
 _atom_site_symmetry_multiplicity
 _atom_site_fract_x
 _atom_site_fract_y
 _atom_site_fract_z
 _atom_site_occupancy
  Y  Y0  1  0.031727  0.415812  0.000000  1
  Lu  Lu1  1  0.581354  0.618235  0.000000  1
  Lu  Lu2  1  0.382547  0.962808  0.000000  1
  In  In3  1  0.987992  0.719955  0.500000  1
  In  In4  1  0.281667  0.268622  0.500000  1
  In  In5  1  0.730358  0.010959  0.500000  1
  Ag  Ag6  1  0.000471  0.999155  0.000000  1
  Ag  Ag7  1  0.663987  0.333128  0.500000  1
  Ir  Ir8  1  0.339896  0.671328  0.500000  1
