# generated using pymatgen
data_Y12InFe4Hg
_symmetry_space_group_name_H-M   'P 1'
_cell_length_a   8.44883537
_cell_length_b   8.44883612
_cell_length_c   8.44883515
_cell_angle_alpha   111.28082055
_cell_angle_beta   110.33869666
_cell_angle_gamma   106.82752544
_symmetry_Int_Tables_number   1
_chemical_formula_structural   Y12InFe4Hg
_chemical_formula_sum   'Y12 In1 Fe4 Hg1'
_cell_volume   463.49797799
_cell_formula_units_Z   1
loop_
 _symmetry_equiv_pos_site_id
 _symmetry_equiv_pos_as_xyz
  1  'x, y, z'
loop_
 _atom_site_type_symbol
 _atom_site_label
 _atom_site_symmetry_multiplicity
 _atom_site_fract_x
 _atom_site_fract_y
 _atom_site_fract_z
 _atom_site_occupancy
  Y  Y0  1  0.435840  0.227110  0.208730  1
  Y  Y1  1  0.564160  0.772890  0.791270  1
  Y  Y2  1  0.018381  0.227110  0.791270  1
  Y  Y3  1  0.981619  0.772890  0.208730  1
  Y  Y4  1  0.188079  0.289552  0.477632  1
  Y  Y5  1  0.811921  0.710448  0.522368  1
  Y  Y6  1  0.188079  0.710448  0.898527  1
  Y  Y7  1  0.811921  0.289552  0.101473  1
  Y  Y8  1  0.312760  0.612671  0.299911  1
  Y  Y9  1  0.687240  0.387329  0.700089  1
  Y  Y10  1  0.312760  0.012850  0.700089  1
  Y  Y11  1  0.687240  0.987150  0.299911  1
  In  In12  1  0.500000  0.500000  0.000000  1
  Fe  Fe13  1  0.386794  0.000000  0.386794  1
  Fe  Fe14  1  0.613206  0.000000  0.613206  1
  Fe  Fe15  1  0.107115  0.607115  0.500000  1
  Fe  Fe16  1  0.892885  0.392885  0.500000  1
  Hg  Hg17  1  0.000000  0.000000  0.000000  1
