# generated using pymatgen
data_Pr8Ho5Er4Sc3Si15Au
_symmetry_space_group_name_H-M   'P 1'
_cell_length_a   7.38701925
_cell_length_b   7.80000932
_cell_length_c   14.79073140
_cell_angle_alpha   89.99474993
_cell_angle_beta   90.02625151
_cell_angle_gamma   90.54224652
_symmetry_Int_Tables_number   1
_chemical_formula_structural   Pr8Ho5Er4Sc3Si15Au
_chemical_formula_sum   'Pr8 Ho5 Er4 Sc3 Si15 Au1'
_cell_volume   852.18621699
_cell_formula_units_Z   1
loop_
 _symmetry_equiv_pos_site_id
 _symmetry_equiv_pos_as_xyz
  1  'x, y, z'
loop_
 _atom_site_type_symbol
 _atom_site_label
 _atom_site_symmetry_multiplicity
 _atom_site_fract_x
 _atom_site_fract_y
 _atom_site_fract_z
 _atom_site_occupancy
  Pr  Pr0  1  0.020386  0.181610  0.399604  1
  Pr  Pr1  1  0.519021  0.321616  0.399170  1
  Pr  Pr2  1  0.484200  0.668161  0.908095  1
  Pr  Pr3  1  0.484115  0.668174  0.591700  1
  Pr  Pr4  1  0.981843  0.822271  0.593738  1
  Pr  Pr5  1  0.981736  0.822187  0.906081  1
  Pr  Pr6  1  0.518977  0.321626  0.100770  1
  Pr  Pr7  1  0.020372  0.181808  0.100414  1
  Ho  Ho8  1  0.318252  0.183962  0.621799  1
  Ho  Ho9  1  0.681185  0.826151  0.372841  1
  Ho  Ho10  1  0.181737  0.675679  0.374286  1
  Ho  Ho11  1  0.821456  0.321254  0.878353  1
  Ho  Ho12  1  0.821397  0.321158  0.621914  1
  Er  Er13  1  0.646925  0.979400  0.750045  1
  Er  Er14  1  0.318336  0.184127  0.878462  1
  Er  Er15  1  0.181796  0.675430  0.125543  1
  Er  Er16  1  0.681126  0.826139  0.127047  1
  Sc  Sc17  1  0.848110  0.493777  0.250022  1
  Sc  Sc18  1  0.346925  0.011206  0.249911  1
  Sc  Sc19  1  0.154489  0.505674  0.750052  1
  Si  Si20  1  0.481634  0.609880  0.249644  1
  Si  Si21  1  0.023089  0.122183  0.750281  1
  Si  Si22  1  0.525106  0.390644  0.750194  1
  Si  Si23  1  0.145203  0.470531  0.539282  1
  Si  Si24  1  0.985301  0.889203  0.249588  1
  Si  Si25  1  0.719841  0.129636  0.249819  1
  Si  Si26  1  0.849772  0.533790  0.042043  1
  Si  Si27  1  0.352117  0.967122  0.040216  1
  Si  Si28  1  0.145721  0.470582  0.960879  1
  Si  Si29  1  0.645008  0.032276  0.537665  1
  Si  Si30  1  0.352260  0.967408  0.459797  1
  Si  Si31  1  0.849723  0.533343  0.458129  1
  Si  Si32  1  0.777667  0.615246  0.750069  1
  Si  Si33  1  0.222636  0.375149  0.249835  1
  Si  Si34  1  0.644798  0.032143  0.962517  1
  Au  Au35  1  0.267745  0.869455  0.750196  1
