# generated using pymatgen
data_Pr5Nd11MgCd3Rh4
_symmetry_space_group_name_H-M   'P 1'
_cell_length_a   9.99282046
_cell_length_b   9.96620910
_cell_length_c   9.96719200
_cell_angle_alpha   59.40964546
_cell_angle_beta   59.75982237
_cell_angle_gamma   59.76480538
_symmetry_Int_Tables_number   1
_chemical_formula_structural   Pr5Nd11MgCd3Rh4
_chemical_formula_sum   'Pr5 Nd11 Mg1 Cd3 Rh4'
_cell_volume   696.21756901
_cell_formula_units_Z   1
loop_
 _symmetry_equiv_pos_site_id
 _symmetry_equiv_pos_as_xyz
  1  'x, y, z'
loop_
 _atom_site_type_symbol
 _atom_site_label
 _atom_site_symmetry_multiplicity
 _atom_site_fract_x
 _atom_site_fract_y
 _atom_site_fract_z
 _atom_site_occupancy
  Pr  Pr0  1  0.556494  0.940350  0.940308  1
  Pr  Pr1  1  0.563010  0.938175  0.562509  1
  Pr  Pr2  1  0.940372  0.561719  0.934363  1
  Pr  Pr3  1  0.563027  0.562493  0.938215  1
  Pr  Pr4  1  0.940350  0.934411  0.561725  1
  Nd  Nd5  1  0.348827  0.347893  0.347942  1
  Nd  Nd6  1  0.348936  0.350935  0.954486  1
  Nd  Nd7  1  0.348949  0.954486  0.350865  1
  Nd  Nd8  1  0.948573  0.349456  0.349462  1
  Nd  Nd9  1  0.810145  0.189726  0.189726  1
  Nd  Nd10  1  0.187245  0.811762  0.811834  1
  Nd  Nd11  1  0.188091  0.810877  0.189731  1
  Nd  Nd12  1  0.805972  0.190364  0.808572  1
  Nd  Nd13  1  0.188099  0.189747  0.810847  1
  Nd  Nd14  1  0.805985  0.808510  0.190366  1
  Nd  Nd15  1  0.939761  0.559458  0.559451  1
  Mg  Mg16  1  0.277282  0.573711  0.573631  1
  Cd  Cd17  1  0.580798  0.581088  0.581098  1
  Cd  Cd18  1  0.581630  0.580365  0.256682  1
  Cd  Cd19  1  0.581570  0.256722  0.580380  1
  Rh  Rh20  1  0.142581  0.142051  0.141956  1
  Rh  Rh21  1  0.139545  0.146773  0.574710  1
  Rh  Rh22  1  0.139538  0.574698  0.146890  1
  Rh  Rh23  1  0.573221  0.144232  0.144249  1
