# generated using pymatgen
data_Pa2PbSe6
_symmetry_space_group_name_H-M   'P 1'
_cell_length_a   7.89004500
_cell_length_b   7.89004490
_cell_length_c   4.12097600
_cell_angle_alpha   90.00000000
_cell_angle_beta   90.00000000
_cell_angle_gamma   119.99999736
_symmetry_Int_Tables_number   1
_chemical_formula_structural   Pa2PbSe6
_chemical_formula_sum   'Pa2 Pb1 Se6'
_cell_volume   222.17218346
_cell_formula_units_Z   1
loop_
 _symmetry_equiv_pos_site_id
 _symmetry_equiv_pos_as_xyz
  1  'x, y, z'
loop_
 _atom_site_type_symbol
 _atom_site_label
 _atom_site_symmetry_multiplicity
 _atom_site_fract_x
 _atom_site_fract_y
 _atom_site_fract_z
 _atom_site_occupancy
  Pa  Pa0  1  0.666667  0.333333  0.500000  1
  Pa  Pa1  1  0.000000  0.000000  0.000000  1
  Pb  Pb2  1  0.333333  0.666667  0.500000  1
  Se  Se3  1  0.743687  0.746415  0.500000  1
  Se  Se4  1  0.253585  0.997271  0.500000  1
  Se  Se5  1  0.002729  0.256313  0.500000  1
  Se  Se6  1  0.417519  0.376559  0.000000  1
  Se  Se7  1  0.623441  0.040959  0.000000  1
  Se  Se8  1  0.959041  0.582481  0.000000  1
