# generated using pymatgen
data_Sr2NbH9
_symmetry_space_group_name_H-M   'P 1'
_cell_length_a   9.18823000
_cell_length_b   9.18822862
_cell_length_c   5.25914200
_cell_angle_alpha   90.00000000
_cell_angle_beta   90.00000000
_cell_angle_gamma   120.00000498
_symmetry_Int_Tables_number   1
_chemical_formula_structural   Sr2NbH9
_chemical_formula_sum   'Sr6 Nb3 H27'
_cell_volume   384.51134453
_cell_formula_units_Z   3
loop_
 _symmetry_equiv_pos_site_id
 _symmetry_equiv_pos_as_xyz
  1  'x, y, z'
loop_
 _atom_site_type_symbol
 _atom_site_label
 _atom_site_symmetry_multiplicity
 _atom_site_fract_x
 _atom_site_fract_y
 _atom_site_fract_z
 _atom_site_occupancy
  Sr  Sr0  1  0.000000  0.267195  0.500000  1
  Sr  Sr1  1  0.732805  0.732805  0.500000  1
  Sr  Sr2  1  0.267195  0.000000  0.500000  1
  Sr  Sr3  1  0.000000  0.601033  0.000000  1
  Sr  Sr4  1  0.398967  0.398967  0.000000  1
  Sr  Sr5  1  0.601033  0.000000  0.000000  1
  Nb  Nb6  1  0.666667  0.333333  0.500000  1
  Nb  Nb7  1  0.333333  0.666667  0.500000  1
  Nb  Nb8  1  0.000000  0.000000  0.000000  1
  H  H9  1  0.808857  0.331344  0.757496  1
  H  H10  1  0.668656  0.477511  0.757496  1
  H  H11  1  0.522489  0.191143  0.757496  1
  H  H12  1  0.191143  0.522489  0.242504  1
  H  H13  1  0.522489  0.191143  0.242504  1
  H  H14  1  0.808857  0.331344  0.242504  1
  H  H15  1  0.668656  0.477511  0.242504  1
  H  H16  1  0.331344  0.808857  0.757496  1
  H  H17  1  0.477511  0.668656  0.757496  1
  H  H18  1  0.201708  0.000000  0.000000  1
  H  H19  1  0.798292  0.798292  0.000000  1
  H  H20  1  0.000000  0.201708  0.000000  1
  H  H21  1  0.854121  0.000000  0.248233  1
  H  H22  1  0.145879  0.145879  0.751767  1
  H  H23  1  0.000000  0.854121  0.751767  1
  H  H24  1  0.000000  0.854121  0.248233  1
  H  H25  1  0.145879  0.145879  0.248233  1
  H  H26  1  0.854121  0.000000  0.751767  1
  H  H27  1  0.136506  0.672275  0.500000  1
  H  H28  1  0.535769  0.863494  0.500000  1
  H  H29  1  0.327725  0.464231  0.500000  1
  H  H30  1  0.464231  0.327725  0.500000  1
  H  H31  1  0.863494  0.535769  0.500000  1
  H  H32  1  0.672275  0.136506  0.500000  1
  H  H33  1  0.191143  0.522489  0.757496  1
  H  H34  1  0.331344  0.808857  0.242504  1
  H  H35  1  0.477511  0.668656  0.242504  1
