# generated using pymatgen
data_CaTbIr2O7
_symmetry_space_group_name_H-M   'P 1'
_cell_length_a   7.23558590
_cell_length_b   7.23558491
_cell_length_c   7.23617200
_cell_angle_alpha   59.99731591
_cell_angle_beta   59.99732043
_cell_angle_gamma   59.98492347
_symmetry_Int_Tables_number   1
_chemical_formula_structural   CaTbIr2O7
_chemical_formula_sum   'Ca2 Tb2 Ir4 O14'
_cell_volume   267.83918926
_cell_formula_units_Z   2
loop_
 _symmetry_equiv_pos_site_id
 _symmetry_equiv_pos_as_xyz
  1  'x, y, z'
loop_
 _atom_site_type_symbol
 _atom_site_label
 _atom_site_symmetry_multiplicity
 _atom_site_fract_x
 _atom_site_fract_y
 _atom_site_fract_z
 _atom_site_occupancy
  Ca  Ca0  1  0.125000  0.125000  0.125000  1
  Ca  Ca1  1  0.125000  0.125000  0.625000  1
  Tb  Tb2  1  0.625000  0.125000  0.125000  1
  Tb  Tb3  1  0.125000  0.625000  0.125000  1
  Ir  Ir4  1  0.625000  0.625000  0.625000  1
  Ir  Ir5  1  0.125000  0.625000  0.625000  1
  Ir  Ir6  1  0.625000  0.625000  0.125000  1
  Ir  Ir7  1  0.625000  0.125000  0.625000  1
  O  O8  1  0.996140  0.996141  0.003859  1
  O  O9  1  0.253860  0.253859  0.246141  1
  O  O10  1  0.298269  0.298171  0.701780  1
  O  O11  1  0.542074  0.542070  0.957928  1
  O  O12  1  0.699543  0.295315  0.711013  1
  O  O13  1  0.699543  0.295315  0.294128  1
  O  O14  1  0.295276  0.699587  0.711046  1
  O  O15  1  0.295276  0.699587  0.294091  1
  O  O16  1  0.707926  0.707930  0.292072  1
  O  O17  1  0.954724  0.550413  0.538954  1
  O  O18  1  0.550457  0.954685  0.955872  1
  O  O19  1  0.951731  0.951829  0.548220  1
  O  O20  1  0.954724  0.550413  0.955909  1
  O  O21  1  0.550457  0.954685  0.538987  1
