# generated using pymatgen
data_CaLa2Al4(Si2Ge)2
_symmetry_space_group_name_H-M   'P 1'
_cell_length_a   4.18760600
_cell_length_b   4.18760585
_cell_length_c   18.58522000
_cell_angle_alpha   90.00000000
_cell_angle_beta   90.00000000
_cell_angle_gamma   120.00000121
_symmetry_Int_Tables_number   1
_chemical_formula_structural   CaLa2Al4(Si2Ge)2
_chemical_formula_sum   'Ca1 La2 Al4 Si4 Ge2'
_cell_volume   282.24739587
_cell_formula_units_Z   1
loop_
 _symmetry_equiv_pos_site_id
 _symmetry_equiv_pos_as_xyz
  1  'x, y, z'
loop_
 _atom_site_type_symbol
 _atom_site_label
 _atom_site_symmetry_multiplicity
 _atom_site_fract_x
 _atom_site_fract_y
 _atom_site_fract_z
 _atom_site_occupancy
  Ca  Ca0  1  0.000000  0.000000  0.500000  1
  La  La1  1  0.000000  0.000000  0.112807  1
  La  La2  1  0.000000  0.000000  0.887193  1
  Al  Al3  1  0.333333  0.666667  0.742873  1
  Al  Al4  1  0.666667  0.333333  0.257127  1
  Al  Al5  1  0.333333  0.666667  0.357202  1
  Al  Al6  1  0.666667  0.333333  0.642798  1
  Si  Si7  1  0.333333  0.666667  0.996613  1
  Si  Si8  1  0.666667  0.333333  0.003387  1
  Si  Si9  1  0.333333  0.666667  0.219119  1
  Si  Si10  1  0.666667  0.333333  0.780881  1
  Ge  Ge11  1  0.333333  0.666667  0.601328  1
  Ge  Ge12  1  0.666667  0.333333  0.398672  1
