# generated using pymatgen
data_Tb3Sn3Pd2Pt
_symmetry_space_group_name_H-M   'P 1'
_cell_length_a   7.56561100
_cell_length_b   7.56561097
_cell_length_c   4.03905800
_cell_angle_alpha   90.00000000
_cell_angle_beta   90.00000000
_cell_angle_gamma   120.00000450
_symmetry_Int_Tables_number   1
_chemical_formula_structural   Tb3Sn3Pd2Pt
_chemical_formula_sum   'Tb3 Sn3 Pd2 Pt1'
_cell_volume   200.21596973
_cell_formula_units_Z   1
loop_
 _symmetry_equiv_pos_site_id
 _symmetry_equiv_pos_as_xyz
  1  'x, y, z'
loop_
 _atom_site_type_symbol
 _atom_site_label
 _atom_site_symmetry_multiplicity
 _atom_site_fract_x
 _atom_site_fract_y
 _atom_site_fract_z
 _atom_site_occupancy
  Tb  Tb0  1  0.406687  0.410159  0.500000  1
  Tb  Tb1  1  0.589841  0.996528  0.500000  1
  Tb  Tb2  1  0.003472  0.593313  0.500000  1
  Sn  Sn3  1  0.743892  0.741762  0.000000  1
  Sn  Sn4  1  0.258238  0.002130  0.000000  1
  Sn  Sn5  1  0.997870  0.256108  0.000000  1
  Pd  Pd6  1  0.666667  0.333333  0.000000  1
  Pd  Pd7  1  0.000000  0.000000  0.500000  1
  Pt  Pt8  1  0.333333  0.666667  0.000000  1
