# generated using pymatgen
data_Sc22IrRu7
_symmetry_space_group_name_H-M   'P 1'
_cell_length_a   9.47542192
_cell_length_b   9.45224495
_cell_length_c   9.47542181
_cell_angle_alpha   60.08088607
_cell_angle_beta   59.99577370
_cell_angle_gamma   60.08088398
_symmetry_Int_Tables_number   1
_chemical_formula_structural   Sc22IrRu7
_chemical_formula_sum   'Sc22 Ir1 Ru7'
_cell_volume   600.80432387
_cell_formula_units_Z   1
loop_
 _symmetry_equiv_pos_site_id
 _symmetry_equiv_pos_as_xyz
  1  'x, y, z'
loop_
 _atom_site_type_symbol
 _atom_site_label
 _atom_site_symmetry_multiplicity
 _atom_site_fract_x
 _atom_site_fract_y
 _atom_site_fract_z
 _atom_site_occupancy
  Sc  Sc0  1  0.802063  0.802133  0.197937  1
  Sc  Sc1  1  0.197832  0.802168  0.197832  1
  Sc  Sc2  1  0.802063  0.197867  0.197937  1
  Sc  Sc3  1  0.197937  0.197867  0.802063  1
  Sc  Sc4  1  0.802168  0.197832  0.802168  1
  Sc  Sc5  1  0.197937  0.802133  0.802063  1
  Sc  Sc6  1  0.615936  0.616801  0.150461  1
  Sc  Sc7  1  0.616544  0.150090  0.616544  1
  Sc  Sc8  1  0.150461  0.616801  0.615936  1
  Sc  Sc9  1  0.616544  0.616822  0.616544  1
  Sc  Sc10  1  0.384064  0.383199  0.849539  1
  Sc  Sc11  1  0.383456  0.849910  0.383456  1
  Sc  Sc12  1  0.849539  0.383199  0.384064  1
  Sc  Sc13  1  0.383456  0.383178  0.383456  1
  Sc  Sc14  1  0.843740  0.843187  0.469885  1
  Sc  Sc15  1  0.842892  0.470270  0.842892  1
  Sc  Sc16  1  0.469885  0.843187  0.843740  1
  Sc  Sc17  1  0.842892  0.843945  0.842892  1
  Sc  Sc18  1  0.156260  0.156813  0.530115  1
  Sc  Sc19  1  0.157108  0.529730  0.157108  1
  Sc  Sc20  1  0.530115  0.156813  0.156260  1
  Sc  Sc21  1  0.157108  0.156055  0.157108  1
  Ir  Ir22  1  0.000000  0.500000  0.000000  1
  Ru  Ru23  1  0.000000  0.000000  0.000000  1
  Ru  Ru24  1  0.500000  0.500000  0.500000  1
  Ru  Ru25  1  0.000000  0.000000  0.500000  1
  Ru  Ru26  1  0.500000  0.000000  0.500000  1
  Ru  Ru27  1  0.000000  0.500000  0.500000  1
  Ru  Ru28  1  0.500000  0.500000  0.000000  1
  Ru  Ru29  1  0.500000  0.000000  0.000000  1
