# generated using pymatgen
data_Zr8Cd2In2Cu7Pd
_symmetry_space_group_name_H-M   'P 1'
_cell_length_a   7.29216404
_cell_length_b   7.28863452
_cell_length_c   6.88454078
_cell_angle_alpha   89.96920923
_cell_angle_beta   89.90075551
_cell_angle_gamma   89.93257928
_symmetry_Int_Tables_number   1
_chemical_formula_structural   Zr8Cd2In2Cu7Pd
_chemical_formula_sum   'Zr8 Cd2 In2 Cu7 Pd1'
_cell_volume   365.91192763
_cell_formula_units_Z   1
loop_
 _symmetry_equiv_pos_site_id
 _symmetry_equiv_pos_as_xyz
  1  'x, y, z'
loop_
 _atom_site_type_symbol
 _atom_site_label
 _atom_site_symmetry_multiplicity
 _atom_site_fract_x
 _atom_site_fract_y
 _atom_site_fract_z
 _atom_site_occupancy
  Zr  Zr0  1  0.649148  0.649244  0.497522  1
  Zr  Zr1  1  0.805386  0.192804  0.500033  1
  Zr  Zr2  1  0.693264  0.693020  0.000580  1
  Zr  Zr3  1  0.848349  0.150986  0.999653  1
  Zr  Zr4  1  0.193312  0.805565  0.500390  1
  Zr  Zr5  1  0.308983  0.308854  0.001026  1
  Zr  Zr6  1  0.150980  0.848845  0.999494  1
  Zr  Zr7  1  0.351451  0.351302  0.499736  1
  Cd  Cd8  1  0.000238  0.499756  0.249848  1
  Cd  Cd9  1  0.503880  0.997846  0.750847  1
  In  In10  1  0.499899  0.999783  0.249487  1
  In  In11  1  0.997881  0.503749  0.750115  1
  Cu  Cu12  1  0.624816  0.377590  0.202916  1
  Cu  Cu13  1  0.377699  0.624627  0.797517  1
  Cu  Cu14  1  0.870654  0.871232  0.701023  1
  Cu  Cu15  1  0.623080  0.376218  0.797486  1
  Cu  Cu16  1  0.375821  0.623637  0.202615  1
  Cu  Cu17  1  0.123110  0.124391  0.294304  1
  Cu  Cu18  1  0.877250  0.875464  0.296764  1
  Pd  Pd19  1  0.124800  0.125085  0.708644  1
