# generated using pymatgen
data_Sm2Cr3Fe9P7
_symmetry_space_group_name_H-M   'P 1'
_cell_length_a   9.08674400
_cell_length_b   9.08674438
_cell_length_c   3.65401200
_cell_angle_alpha   90.00000000
_cell_angle_beta   90.00000000
_cell_angle_gamma   120.00000591
_symmetry_Int_Tables_number   1
_chemical_formula_structural   Sm2Cr3Fe9P7
_chemical_formula_sum   'Sm2 Cr3 Fe9 P7'
_cell_volume   261.28662483
_cell_formula_units_Z   1
loop_
 _symmetry_equiv_pos_site_id
 _symmetry_equiv_pos_as_xyz
  1  'x, y, z'
loop_
 _atom_site_type_symbol
 _atom_site_label
 _atom_site_symmetry_multiplicity
 _atom_site_fract_x
 _atom_site_fract_y
 _atom_site_fract_z
 _atom_site_occupancy
  Sm  Sm0  1  0.333333  0.666667  0.000000  1
  Sm  Sm1  1  0.666667  0.333333  0.500000  1
  Cr  Cr2  1  0.214970  0.114097  0.500000  1
  Cr  Cr3  1  0.885903  0.100874  0.500000  1
  Cr  Cr4  1  0.899126  0.785030  0.500000  1
  Fe  Fe5  1  0.426773  0.373337  0.000000  1
  Fe  Fe6  1  0.626663  0.053437  0.000000  1
  Fe  Fe7  1  0.946563  0.573227  0.000000  1
  Fe  Fe8  1  0.153212  0.879601  0.000000  1
  Fe  Fe9  1  0.120399  0.273611  0.000000  1
  Fe  Fe10  1  0.726389  0.846788  0.000000  1
  Fe  Fe11  1  0.385044  0.952709  0.500000  1
  Fe  Fe12  1  0.047291  0.432334  0.500000  1
  Fe  Fe13  1  0.567666  0.614956  0.500000  1
  P  P14  1  0.406893  0.110126  0.000000  1
  P  P15  1  0.889874  0.296768  0.000000  1
  P  P16  1  0.703232  0.593107  0.000000  1
  P  P17  1  0.113064  0.710982  0.500000  1
  P  P18  1  0.289018  0.402081  0.500000  1
  P  P19  1  0.597919  0.886936  0.500000  1
  P  P20  1  0.000000  0.000000  0.000000  1
