# generated using pymatgen
data_TmScTcB6
_symmetry_space_group_name_H-M   'P 1'
_cell_length_a   3.56395900
_cell_length_b   8.97683400
_cell_length_c   11.33324200
_cell_angle_alpha   90.00000000
_cell_angle_beta   90.00000000
_cell_angle_gamma   90.00000000
_symmetry_Int_Tables_number   1
_chemical_formula_structural   TmScTcB6
_chemical_formula_sum   'Tm4 Sc4 Tc4 B24'
_cell_volume   362.58518566
_cell_formula_units_Z   4
loop_
 _symmetry_equiv_pos_site_id
 _symmetry_equiv_pos_as_xyz
  1  'x, y, z'
loop_
 _atom_site_type_symbol
 _atom_site_label
 _atom_site_symmetry_multiplicity
 _atom_site_fract_x
 _atom_site_fract_y
 _atom_site_fract_z
 _atom_site_occupancy
  Tm  Tm0  1  0.500000  0.322420  0.413948  1
  Tm  Tm1  1  0.500000  0.677580  0.586052  1
  Tm  Tm2  1  0.500000  0.177580  0.913948  1
  Tm  Tm3  1  0.500000  0.822420  0.086052  1
  Sc  Sc4  1  0.500000  0.444013  0.129951  1
  Sc  Sc5  1  0.500000  0.555987  0.870049  1
  Sc  Sc6  1  0.500000  0.055987  0.629951  1
  Sc  Sc7  1  0.500000  0.944013  0.370049  1
  Tc  Tc8  1  0.500000  0.140678  0.181443  1
  Tc  Tc9  1  0.500000  0.859322  0.818557  1
  Tc  Tc10  1  0.500000  0.359322  0.681443  1
  Tc  Tc11  1  0.500000  0.640678  0.318557  1
  B  B12  1  0.000000  0.096519  0.473513  1
  B  B13  1  0.000000  0.903481  0.526487  1
  B  B14  1  0.000000  0.403481  0.973513  1
  B  B15  1  0.000000  0.596519  0.026487  1
  B  B16  1  0.000000  0.130011  0.317213  1
  B  B17  1  0.000000  0.869989  0.682787  1
  B  B18  1  0.000000  0.369989  0.817213  1
  B  B19  1  0.000000  0.630011  0.182787  1
  B  B20  1  0.000000  0.053808  0.066978  1
  B  B21  1  0.000000  0.946192  0.933022  1
  B  B22  1  0.000000  0.446192  0.566978  1
  B  B23  1  0.000000  0.553808  0.433022  1
  B  B24  1  0.000000  0.481272  0.286424  1
  B  B25  1  0.000000  0.518728  0.713576  1
  B  B26  1  0.000000  0.018728  0.786424  1
  B  B27  1  0.000000  0.981272  0.213576  1
  B  B28  1  0.000000  0.253860  0.080772  1
  B  B29  1  0.000000  0.746140  0.919228  1
  B  B30  1  0.000000  0.246140  0.580772  1
  B  B31  1  0.000000  0.753860  0.419228  1
  B  B32  1  0.000000  0.295601  0.235161  1
  B  B33  1  0.000000  0.704399  0.764839  1
  B  B34  1  0.000000  0.204399  0.735161  1
  B  B35  1  0.000000  0.795601  0.264839  1
