# generated using pymatgen
data_La4HoTl3
_symmetry_space_group_name_H-M   'P 1'
_cell_length_a   9.45104873
_cell_length_b   9.45104920
_cell_length_c   9.45104841
_cell_angle_alpha   96.92474010
_cell_angle_beta   96.92472911
_cell_angle_gamma   139.36459909
_symmetry_Int_Tables_number   1
_chemical_formula_structural   La4HoTl3
_chemical_formula_sum   'La8 Ho2 Tl6'
_cell_volume   515.56688796
_cell_formula_units_Z   2
loop_
 _symmetry_equiv_pos_site_id
 _symmetry_equiv_pos_as_xyz
  1  'x, y, z'
loop_
 _atom_site_type_symbol
 _atom_site_label
 _atom_site_symmetry_multiplicity
 _atom_site_fract_x
 _atom_site_fract_y
 _atom_site_fract_z
 _atom_site_occupancy
  La  La0  1  0.910711  0.220954  0.131665  1
  La  La1  1  0.220954  0.089289  0.310244  1
  La  La2  1  0.779046  0.910711  0.689756  1
  La  La3  1  0.089289  0.779046  0.868335  1
  La  La4  1  0.720954  0.410711  0.131665  1
  La  La5  1  0.279046  0.589289  0.868335  1
  La  La6  1  0.589289  0.720954  0.310244  1
  La  La7  1  0.410711  0.279046  0.689756  1
  Ho  Ho8  1  0.750000  0.250000  0.500000  1
  Ho  Ho9  1  0.250000  0.750000  0.500000  1
  Tl  Tl10  1  0.750000  0.750000  0.000000  1
  Tl  Tl11  1  0.250000  0.250000  0.000000  1
  Tl  Tl12  1  0.845017  0.654983  0.500000  1
  Tl  Tl13  1  0.654983  0.154983  0.809967  1
  Tl  Tl14  1  0.345017  0.845017  0.190033  1
  Tl  Tl15  1  0.154983  0.345017  0.500000  1
