# generated using pymatgen
data_Zr2Ta2Ni10P7
_symmetry_space_group_name_H-M   'P 1'
_cell_length_a   9.17821413
_cell_length_b   9.15098052
_cell_length_c   3.64534800
_cell_angle_alpha   90.00000000
_cell_angle_beta   90.00000000
_cell_angle_gamma   120.23080749
_symmetry_Int_Tables_number   1
_chemical_formula_structural   Zr2Ta2Ni10P7
_chemical_formula_sum   'Zr2 Ta2 Ni10 P7'
_cell_volume   264.53349369
_cell_formula_units_Z   1
loop_
 _symmetry_equiv_pos_site_id
 _symmetry_equiv_pos_as_xyz
  1  'x, y, z'
loop_
 _atom_site_type_symbol
 _atom_site_label
 _atom_site_symmetry_multiplicity
 _atom_site_fract_x
 _atom_site_fract_y
 _atom_site_fract_z
 _atom_site_occupancy
  Zr  Zr0  1  0.995378  0.002268  0.000000  1
  Zr  Zr1  1  0.335761  0.669312  0.500000  1
  Ta  Ta2  1  0.889263  0.456551  0.500000  1
  Ta  Ta3  1  0.543163  0.430773  0.500000  1
  Ni  Ni4  1  0.292444  0.393220  0.000000  1
  Ni  Ni5  1  0.101778  0.707970  0.000000  1
  Ni  Ni6  1  0.378989  0.166756  0.000000  1
  Ni  Ni7  1  0.795067  0.626726  0.000000  1
  Ni  Ni8  1  0.827206  0.208521  0.000000  1
  Ni  Ni9  1  0.233081  0.945431  0.500000  1
  Ni  Ni10  1  0.053273  0.277373  0.500000  1
  Ni  Ni11  1  0.720029  0.778349  0.500000  1
  Ni  Ni12  1  0.570581  0.105023  0.500000  1
  Ni  Ni13  1  0.602031  0.898104  0.000000  1
  P  P14  1  0.660729  0.322300  0.000000  1
  P  P15  1  0.089195  0.455066  0.000000  1
  P  P16  1  0.247156  0.203651  0.500000  1
  P  P17  1  0.785223  0.046045  0.500000  1
  P  P18  1  0.959144  0.754109  0.500000  1
  P  P19  1  0.548146  0.633623  0.000000  1
  P  P20  1  0.372362  0.918830  0.000000  1
