# generated using pymatgen
data_SmY4Zr3(As3Rh4)4
_symmetry_space_group_name_H-M   'P 1'
_cell_length_a   13.31698400
_cell_length_b   13.31698361
_cell_length_c   4.01319500
_cell_angle_alpha   90.00000000
_cell_angle_beta   90.00000000
_cell_angle_gamma   120.00000096
_symmetry_Int_Tables_number   1
_chemical_formula_structural   SmY4Zr3(As3Rh4)4
_chemical_formula_sum   'Sm1 Y4 Zr3 As12 Rh16'
_cell_volume   616.35742669
_cell_formula_units_Z   1
loop_
 _symmetry_equiv_pos_site_id
 _symmetry_equiv_pos_as_xyz
  1  'x, y, z'
loop_
 _atom_site_type_symbol
 _atom_site_label
 _atom_site_symmetry_multiplicity
 _atom_site_fract_x
 _atom_site_fract_y
 _atom_site_fract_z
 _atom_site_occupancy
  Sm  Sm0  1  0.333333  0.666667  0.000000  1
  Y  Y1  1  0.187463  0.187573  0.500000  1
  Y  Y2  1  0.812427  0.999890  0.500000  1
  Y  Y3  1  0.000110  0.812537  0.500000  1
  Y  Y4  1  0.666667  0.333333  0.000000  1
  Zr  Zr5  1  0.556467  0.556332  0.000000  1
  Zr  Zr6  1  0.443668  0.000135  0.000000  1
  Zr  Zr7  1  0.999865  0.443533  0.000000  1
  As  As8  1  0.824672  0.824625  0.000000  1
  As  As9  1  0.175375  0.000047  0.000000  1
  As  As10  1  0.999953  0.175328  0.000000  1
  As  As11  1  0.169596  0.484483  0.500000  1
  As  As12  1  0.515517  0.685113  0.500000  1
  As  As13  1  0.314887  0.830404  0.500000  1
  As  As14  1  0.685067  0.514488  0.500000  1
  As  As15  1  0.829420  0.314933  0.500000  1
  As  As16  1  0.485512  0.170580  0.500000  1
  As  As17  1  0.354489  0.354518  0.000000  1
  As  As18  1  0.645482  0.999971  0.000000  1
  As  As19  1  0.000029  0.645511  0.000000  1
  Rh  Rh20  1  0.719304  0.719166  0.500000  1
  Rh  Rh21  1  0.280834  0.000138  0.500000  1
  Rh  Rh22  1  0.999862  0.280696  0.500000  1
  Rh  Rh23  1  0.176242  0.373561  0.000000  1
  Rh  Rh24  1  0.626439  0.802681  0.000000  1
  Rh  Rh25  1  0.197319  0.823758  0.000000  1
  Rh  Rh26  1  0.802510  0.626131  0.000000  1
  Rh  Rh27  1  0.823620  0.197490  0.000000  1
  Rh  Rh28  1  0.373869  0.176380  0.000000  1
  Rh  Rh29  1  0.354857  0.481562  0.500000  1
  Rh  Rh30  1  0.518438  0.873296  0.500000  1
  Rh  Rh31  1  0.126704  0.645143  0.500000  1
  Rh  Rh32  1  0.872330  0.517499  0.500000  1
  Rh  Rh33  1  0.645170  0.127670  0.500000  1
  Rh  Rh34  1  0.482501  0.354830  0.500000  1
  Rh  Rh35  1  0.000000  0.000000  0.000000  1
