# generated using pymatgen
data_TbLu7(BBr6)2
_symmetry_space_group_name_H-M   'P 1'
_cell_length_a   3.88440800
_cell_length_b   12.94254556
_cell_length_c   13.39274086
_cell_angle_alpha   90.34218040
_cell_angle_beta   90.00000000
_cell_angle_gamma   90.00000000
_symmetry_Int_Tables_number   1
_chemical_formula_structural   TbLu7(BBr6)2
_chemical_formula_sum   'Tb1 Lu7 B2 Br12'
_cell_volume   673.29635425
_cell_formula_units_Z   1
loop_
 _symmetry_equiv_pos_site_id
 _symmetry_equiv_pos_as_xyz
  1  'x, y, z'
loop_
 _atom_site_type_symbol
 _atom_site_label
 _atom_site_symmetry_multiplicity
 _atom_site_fract_x
 _atom_site_fract_y
 _atom_site_fract_z
 _atom_site_occupancy
  Tb  Tb0  1  0.500000  0.123253  0.855238  1
  Lu  Lu1  1  0.000000  0.099106  0.079881  1
  Lu  Lu2  1  0.000000  0.899957  0.921198  1
  Lu  Lu3  1  0.000000  0.599609  0.420802  1
  Lu  Lu4  1  0.000000  0.401431  0.578271  1
  Lu  Lu5  1  0.500000  0.878405  0.142866  1
  Lu  Lu6  1  0.500000  0.621541  0.642432  1
  Lu  Lu7  1  0.500000  0.378769  0.357290  1
  B  B8  1  0.500000  0.998955  0.001200  1
  B  B9  1  0.500000  0.500696  0.499456  1
  Br  Br10  1  0.500000  0.271405  0.678596  1
  Br  Br11  1  0.500000  0.730711  0.318334  1
  Br  Br12  1  0.500000  0.767673  0.817970  1
  Br  Br13  1  0.500000  0.231026  0.183405  1
  Br  Br14  1  0.000000  0.264710  0.936653  1
  Br  Br15  1  0.000000  0.738976  0.069347  1
  Br  Br16  1  0.000000  0.479390  0.239868  1
  Br  Br17  1  0.000000  0.520784  0.759861  1
  Br  Br18  1  0.000000  0.979841  0.261097  1
  Br  Br19  1  0.000000  0.013650  0.736685  1
  Br  Br20  1  0.000000  0.240044  0.430104  1
  Br  Br21  1  0.000000  0.760070  0.569447  1
