# generated using pymatgen
data_Pr6Dy9Ho(CdPt)4
_symmetry_space_group_name_H-M   'P 1'
_cell_length_a   9.81927080
_cell_length_b   9.81927073
_cell_length_c   9.80209200
_cell_angle_alpha   60.05784914
_cell_angle_beta   60.05784935
_cell_angle_gamma   60.09756938
_symmetry_Int_Tables_number   1
_chemical_formula_structural   Pr6Dy9Ho(CdPt)4
_chemical_formula_sum   'Pr6 Dy9 Ho1 Cd4 Pt4'
_cell_volume   669.36224956
_cell_formula_units_Z   1
loop_
 _symmetry_equiv_pos_site_id
 _symmetry_equiv_pos_as_xyz
  1  'x, y, z'
loop_
 _atom_site_type_symbol
 _atom_site_label
 _atom_site_symmetry_multiplicity
 _atom_site_fract_x
 _atom_site_fract_y
 _atom_site_fract_z
 _atom_site_occupancy
  Pr  Pr0  1  0.938926  0.561179  0.561749  1
  Pr  Pr1  1  0.561179  0.938926  0.938146  1
  Pr  Pr2  1  0.561179  0.938926  0.561749  1
  Pr  Pr3  1  0.938926  0.561179  0.938146  1
  Pr  Pr4  1  0.561386  0.561386  0.938614  1
  Pr  Pr5  1  0.938603  0.938603  0.561397  1
  Dy  Dy6  1  0.350084  0.350084  0.349887  1
  Dy  Dy7  1  0.350084  0.350084  0.949946  1
  Dy  Dy8  1  0.350965  0.948500  0.350268  1
  Dy  Dy9  1  0.948500  0.350965  0.350268  1
  Dy  Dy10  1  0.812385  0.187431  0.188182  1
  Dy  Dy11  1  0.187431  0.812385  0.812002  1
  Dy  Dy12  1  0.187431  0.812385  0.188182  1
  Dy  Dy13  1  0.812385  0.187431  0.812002  1
  Dy  Dy14  1  0.187909  0.187909  0.812091  1
  Ho  Ho15  1  0.812092  0.812092  0.187908  1
  Cd  Cd16  1  0.579552  0.579552  0.579171  1
  Cd  Cd17  1  0.579552  0.579552  0.261726  1
  Cd  Cd18  1  0.579525  0.261481  0.579497  1
  Cd  Cd19  1  0.261481  0.579525  0.579497  1
  Pt  Pt20  1  0.142913  0.142913  0.142933  1
  Pt  Pt21  1  0.142913  0.142913  0.571242  1
  Pt  Pt22  1  0.142214  0.572388  0.142699  1
  Pt  Pt23  1  0.572388  0.142214  0.142699  1
