# generated using pymatgen
data_Li3Zr8Co(Si7Rh2)2
_symmetry_space_group_name_H-M   'P 1'
_cell_length_a   9.74439804
_cell_length_b   9.71446730
_cell_length_c   9.79610949
_cell_angle_alpha   94.10385567
_cell_angle_beta   94.26546510
_cell_angle_gamma   148.54547879
_symmetry_Int_Tables_number   1
_chemical_formula_structural   Li3Zr8Co(Si7Rh2)2
_chemical_formula_sum   'Li3 Zr8 Co1 Si14 Rh4'
_cell_volume   466.02851151
_cell_formula_units_Z   1
loop_
 _symmetry_equiv_pos_site_id
 _symmetry_equiv_pos_as_xyz
  1  'x, y, z'
loop_
 _atom_site_type_symbol
 _atom_site_label
 _atom_site_symmetry_multiplicity
 _atom_site_fract_x
 _atom_site_fract_y
 _atom_site_fract_z
 _atom_site_occupancy
  Li  Li0  1  0.603200  0.394795  0.501606  1
  Li  Li1  1  0.898467  0.106864  0.501598  1
  Li  Li2  1  0.898664  0.398657  0.797366  1
  Zr  Zr3  1  0.134392  0.134394  0.268794  1
  Zr  Zr4  1  0.863925  0.863925  0.727856  1
  Zr  Zr5  1  0.869693  0.139978  0.999396  1
  Zr  Zr6  1  0.129707  0.859426  0.999399  1
  Zr  Zr7  1  0.506040  0.310646  0.806517  1
  Zr  Zr8  1  0.508883  0.703434  0.191503  1
  Zr  Zr9  1  0.682618  0.488073  0.191497  1
  Zr  Zr10  1  0.300473  0.495868  0.806515  1
  Co  Co11  1  0.615243  0.115246  0.230505  1
  Si  Si12  1  0.458948  0.047591  0.589089  1
  Si  Si13  1  0.463631  0.881918  0.405339  1
  Si  Si14  1  0.941713  0.523429  0.405344  1
  Si  Si15  1  0.130126  0.541475  0.589091  1
  Si  Si16  1  0.746846  0.746751  0.998921  1
  Si  Si17  1  0.252078  0.252174  0.998917  1
  Si  Si18  1  0.296172  0.296174  0.592348  1
  Si  Si19  1  0.701645  0.701649  0.403314  1
  Si  Si20  1  0.680834  0.266933  0.007583  1
  Si  Si21  1  0.326744  0.740643  0.007574  1
  Si  Si22  1  0.010462  0.304278  0.287740  1
  Si  Si23  1  0.013107  0.724539  0.711302  1
  Si  Si24  1  0.698173  0.986738  0.711298  1
  Si  Si25  1  0.277281  0.983462  0.287747  1
  Rh  Rh26  1  0.399746  0.899748  0.799508  1
  Rh  Rh27  1  0.094098  0.594100  0.188212  1
  Rh  Rh28  1  0.094666  0.894074  0.497065  1
  Rh  Rh29  1  0.402424  0.603020  0.497056  1
