# generated using pymatgen
data_Tb2GeP(Ru2C)2
_symmetry_space_group_name_H-M   'P 1'
_cell_length_a   3.84061300
_cell_length_b   5.87476249
_cell_length_c   7.21886900
_cell_angle_alpha   90.00000000
_cell_angle_beta   90.00000000
_cell_angle_gamma   70.92086207
_symmetry_Int_Tables_number   1
_chemical_formula_structural   Tb2GeP(Ru2C)2
_chemical_formula_sum   'Tb2 Ge1 P1 Ru4 C2'
_cell_volume   153.92993181
_cell_formula_units_Z   1
loop_
 _symmetry_equiv_pos_site_id
 _symmetry_equiv_pos_as_xyz
  1  'x, y, z'
loop_
 _atom_site_type_symbol
 _atom_site_label
 _atom_site_symmetry_multiplicity
 _atom_site_fract_x
 _atom_site_fract_y
 _atom_site_fract_z
 _atom_site_occupancy
  Tb  Tb0  1  0.954530  0.090937  0.250000  1
  Tb  Tb1  1  0.045551  0.908900  0.750000  1
  Ge  Ge2  1  0.231449  0.537101  0.250000  1
  P  P3  1  0.768137  0.463725  0.750000  1
  Ru  Ru4  1  0.664403  0.671192  0.044929  1
  Ru  Ru5  1  0.664403  0.671192  0.455070  1
  Ru  Ru6  1  0.336763  0.326477  0.564075  1
  Ru  Ru7  1  0.336763  0.326477  0.935926  1
  C  C8  1  0.499002  0.001999  0.000948  1
  C  C9  1  0.499002  0.001999  0.499052  1
