# generated using pymatgen
data_Sc22CoOs6Ru
_symmetry_space_group_name_H-M   'P 1'
_cell_length_a   9.44233973
_cell_length_b   9.44234033
_cell_length_c   9.44233900
_cell_angle_alpha   60.00000115
_cell_angle_beta   59.99999906
_cell_angle_gamma   60.00000551
_symmetry_Int_Tables_number   1
_chemical_formula_structural   Sc22CoOs6Ru
_chemical_formula_sum   'Sc22 Co1 Os6 Ru1'
_cell_volume   595.28354936
_cell_formula_units_Z   1
loop_
 _symmetry_equiv_pos_site_id
 _symmetry_equiv_pos_as_xyz
  1  'x, y, z'
loop_
 _atom_site_type_symbol
 _atom_site_label
 _atom_site_symmetry_multiplicity
 _atom_site_fract_x
 _atom_site_fract_y
 _atom_site_fract_z
 _atom_site_occupancy
  Sc  Sc0  1  0.843583  0.843583  0.843583  1
  Sc  Sc1  1  0.530747  0.156417  0.156417  1
  Sc  Sc2  1  0.156417  0.156417  0.530747  1
  Sc  Sc3  1  0.156417  0.530747  0.156417  1
  Sc  Sc4  1  0.843583  0.843583  0.469253  1
  Sc  Sc5  1  0.843583  0.469253  0.843583  1
  Sc  Sc6  1  0.469253  0.843583  0.843583  1
  Sc  Sc7  1  0.156417  0.156417  0.156417  1
  Sc  Sc8  1  0.198395  0.801605  0.198395  1
  Sc  Sc9  1  0.198395  0.801605  0.801605  1
  Sc  Sc10  1  0.801605  0.198395  0.198395  1
  Sc  Sc11  1  0.801605  0.801605  0.198395  1
  Sc  Sc12  1  0.198395  0.198395  0.801605  1
  Sc  Sc13  1  0.801605  0.198395  0.801605  1
  Sc  Sc14  1  0.384119  0.384119  0.384119  1
  Sc  Sc15  1  0.152358  0.615881  0.615881  1
  Sc  Sc16  1  0.615881  0.152358  0.615881  1
  Sc  Sc17  1  0.615881  0.615881  0.152358  1
  Sc  Sc18  1  0.384119  0.847642  0.384119  1
  Sc  Sc19  1  0.384119  0.384119  0.847642  1
  Sc  Sc20  1  0.847642  0.384119  0.384119  1
  Sc  Sc21  1  0.615881  0.615881  0.615881  1
  Co  Co22  1  0.500000  0.500000  0.500000  1
  Os  Os23  1  0.500000  0.500000  0.000000  1
  Os  Os24  1  0.000000  0.000000  0.500000  1
  Os  Os25  1  0.500000  0.000000  0.500000  1
  Os  Os26  1  0.000000  0.500000  0.500000  1
  Os  Os27  1  0.500000  0.000000  0.000000  1
  Os  Os28  1  0.000000  0.500000  0.000000  1
  Ru  Ru29  1  0.000000  0.000000  0.000000  1
