# generated using pymatgen
data_TbHf7Ti10(ReSi8)2
_symmetry_space_group_name_H-M   'P 1'
_cell_length_a   6.79120976
_cell_length_b   6.79006339
_cell_length_c   12.47221250
_cell_angle_alpha   89.92138087
_cell_angle_beta   89.90979285
_cell_angle_gamma   89.95077235
_symmetry_Int_Tables_number   1
_chemical_formula_structural   TbHf7Ti10(ReSi8)2
_chemical_formula_sum   'Tb1 Hf7 Ti10 Re2 Si16'
_cell_volume   575.12648594
_cell_formula_units_Z   1
loop_
 _symmetry_equiv_pos_site_id
 _symmetry_equiv_pos_as_xyz
  1  'x, y, z'
loop_
 _atom_site_type_symbol
 _atom_site_label
 _atom_site_symmetry_multiplicity
 _atom_site_fract_x
 _atom_site_fract_y
 _atom_site_fract_z
 _atom_site_occupancy
  Tb  Tb0  1  0.998652  0.659930  0.030654  1
  Hf  Hf1  1  0.341994  0.998576  0.469768  1
  Hf  Hf2  1  0.499683  0.842454  0.719070  1
  Hf  Hf3  1  0.498766  0.159411  0.222521  1
  Hf  Hf4  1  0.840148  0.499380  0.280568  1
  Hf  Hf5  1  0.158479  0.497932  0.779564  1
  Hf  Hf6  1  0.656204  0.002083  0.969642  1
  Hf  Hf7  1  0.000625  0.342497  0.529369  1
  Ti  Ti8  1  0.829116  0.171850  0.749721  1
  Ti  Ti9  1  0.670523  0.671723  0.498664  1
  Ti  Ti10  1  0.153962  0.001603  0.871543  1
  Ti  Ti11  1  0.498102  0.652429  0.122719  1
  Ti  Ti12  1  0.503249  0.348700  0.623289  1
  Ti  Ti13  1  0.653026  0.492257  0.876198  1
  Ti  Ti14  1  0.348847  0.502010  0.377591  1
  Ti  Ti15  1  0.846722  0.996617  0.373009  1
  Ti  Ti16  1  0.003880  0.153151  0.129737  1
  Ti  Ti17  1  0.996763  0.849186  0.625083  1
  Re  Re18  1  0.330767  0.326152  0.001832  1
  Re  Re19  1  0.173338  0.832184  0.250410  1
  Si  Si20  1  0.205718  0.135533  0.676702  1
  Si  Si21  1  0.370705  0.705107  0.924309  1
  Si  Si22  1  0.635951  0.294222  0.428358  1
  Si  Si23  1  0.701819  0.360963  0.073232  1
  Si  Si24  1  0.293611  0.635273  0.572760  1
  Si  Si25  1  0.789159  0.869862  0.179909  1
  Si  Si26  1  0.134553  0.205451  0.325362  1
  Si  Si27  1  0.861840  0.796378  0.818066  1
  Si  Si28  1  0.296679  0.958652  0.065461  1
  Si  Si29  1  0.541824  0.794595  0.315943  1
  Si  Si30  1  0.453342  0.205280  0.814318  1
  Si  Si31  1  0.796099  0.545124  0.684110  1
  Si  Si32  1  0.208704  0.454008  0.187333  1
  Si  Si33  1  0.704018  0.045654  0.564560  1
  Si  Si34  1  0.956764  0.287959  0.934111  1
  Si  Si35  1  0.046367  0.705819  0.434522  1
