# generated using pymatgen
data_Tb2Y2Ga18Co5Pt
_symmetry_space_group_name_H-M   'P 1'
_cell_length_a   7.43613579
_cell_length_b   7.43613697
_cell_length_c   9.45725533
_cell_angle_alpha   90.13231240
_cell_angle_beta   90.13230869
_cell_angle_gamma   119.73346620
_symmetry_Int_Tables_number   1
_chemical_formula_structural   Tb2Y2Ga18Co5Pt
_chemical_formula_sum   'Tb2 Y2 Ga18 Co5 Pt1'
_cell_volume   454.09425268
_cell_formula_units_Z   1
loop_
 _symmetry_equiv_pos_site_id
 _symmetry_equiv_pos_as_xyz
  1  'x, y, z'
loop_
 _atom_site_type_symbol
 _atom_site_label
 _atom_site_symmetry_multiplicity
 _atom_site_fract_x
 _atom_site_fract_y
 _atom_site_fract_z
 _atom_site_occupancy
  Tb  Tb0  1  0.672498  0.996976  0.748913  1
  Tb  Tb1  1  0.003024  0.327502  0.251087  1
  Y  Y2  1  0.327442  0.003026  0.251110  1
  Y  Y3  1  0.996974  0.672558  0.748890  1
  Ga  Ga4  1  0.344621  0.999978  0.923973  1
  Ga  Ga5  1  0.000022  0.655379  0.076027  1
  Ga  Ga6  1  0.335518  0.998385  0.571547  1
  Ga  Ga7  1  0.001615  0.664482  0.428453  1
  Ga  Ga8  1  0.655188  0.999921  0.076006  1
  Ga  Ga9  1  0.000079  0.344812  0.923994  1
  Ga  Ga10  1  0.664249  0.001519  0.428528  1
  Ga  Ga11  1  0.998481  0.335751  0.571472  1
  Ga  Ga12  1  0.656098  0.656057  0.937602  1
  Ga  Ga13  1  0.343943  0.343902  0.062398  1
  Ga  Ga14  1  0.666499  0.666405  0.556841  1
  Ga  Ga15  1  0.333595  0.333501  0.443159  1
  Ga  Ga16  1  0.131023  0.131023  0.741138  1
  Ga  Ga17  1  0.868977  0.868977  0.258862  1
  Ga  Ga18  1  0.447063  0.664311  0.251566  1
  Ga  Ga19  1  0.335689  0.552937  0.748434  1
  Ga  Ga20  1  0.552886  0.335567  0.748404  1
  Ga  Ga21  1  0.664433  0.447114  0.251596  1
  Co  Co22  1  0.999983  0.000017  0.500000  1
  Co  Co23  1  0.329532  0.670468  0.000000  1
  Co  Co24  1  0.329312  0.670688  0.500000  1
  Co  Co25  1  0.670501  0.329499  0.000000  1
  Co  Co26  1  0.670760  0.329240  0.500000  1
  Pt  Pt27  1  0.999996  0.000004  0.000000  1
