# generated using pymatgen
data_RbBa(PrI4)2
_symmetry_space_group_name_H-M   'P 1'
_cell_length_a   9.30221107
_cell_length_b   9.30221106
_cell_length_c   7.56060433
_cell_angle_alpha   72.68708442
_cell_angle_beta   72.68707821
_cell_angle_gamma   111.09975762
_symmetry_Int_Tables_number   1
_chemical_formula_structural   RbBa(PrI4)2
_chemical_formula_sum   'Rb1 Ba1 Pr2 I8'
_cell_volume   519.08067721
_cell_formula_units_Z   1
loop_
 _symmetry_equiv_pos_site_id
 _symmetry_equiv_pos_as_xyz
  1  'x, y, z'
loop_
 _atom_site_type_symbol
 _atom_site_label
 _atom_site_symmetry_multiplicity
 _atom_site_fract_x
 _atom_site_fract_y
 _atom_site_fract_z
 _atom_site_occupancy
  Rb  Rb0  1  0.637547  0.362453  0.250000  1
  Ba  Ba1  1  0.366972  0.633028  0.750000  1
  Pr  Pr2  1  0.000281  0.999719  0.750000  1
  Pr  Pr3  1  0.999965  0.000035  0.250000  1
  I  I4  1  0.649505  0.781141  0.213732  1
  I  I5  1  0.218859  0.350495  0.286268  1
  I  I6  1  0.350066  0.227506  0.791657  1
  I  I7  1  0.772494  0.649934  0.708343  1
  I  I8  1  0.717055  0.050496  0.588404  1
  I  I9  1  0.949504  0.282945  0.911596  1
  I  I10  1  0.272538  0.934783  0.427371  1
  I  I11  1  0.065217  0.727462  0.072629  1
