# generated using pymatgen
data_Ba2SbPt4Pb3
_symmetry_space_group_name_H-M   'P 1'
_cell_length_a   4.98786697
_cell_length_b   4.74939600
_cell_length_c   10.85395500
_cell_angle_alpha   90.00000000
_cell_angle_beta   93.48370418
_cell_angle_gamma   90.00000000
_symmetry_Int_Tables_number   1
_chemical_formula_structural   Ba2SbPt4Pb3
_chemical_formula_sum   'Ba2 Sb1 Pt4 Pb3'
_cell_volume   256.64806556
_cell_formula_units_Z   1
loop_
 _symmetry_equiv_pos_site_id
 _symmetry_equiv_pos_as_xyz
  1  'x, y, z'
loop_
 _atom_site_type_symbol
 _atom_site_label
 _atom_site_symmetry_multiplicity
 _atom_site_fract_x
 _atom_site_fract_y
 _atom_site_fract_z
 _atom_site_occupancy
  Ba  Ba0  1  0.734036  0.249999  0.243250  1
  Ba  Ba1  1  0.254861  0.749999  0.756821  1
  Sb  Sb2  1  0.811320  0.249999  0.891512  1
  Pt  Pt3  1  0.325337  0.249999  0.992204  1
  Pt  Pt4  1  0.232039  0.749999  0.367681  1
  Pt  Pt5  1  0.766378  0.249999  0.644770  1
  Pt  Pt6  1  0.680569  0.749999  0.986050  1
  Pb  Pb7  1  0.198344  0.749999  0.113355  1
  Pb  Pb8  1  0.745853  0.749999  0.498302  1
  Pb  Pb9  1  0.251263  0.249999  0.506051  1
