# generated using pymatgen
data_LaPr7(AsBr6)2
_symmetry_space_group_name_H-M   'P 1'
_cell_length_a   4.27075200
_cell_length_b   13.63677661
_cell_length_c   14.55592900
_cell_angle_alpha   90.46681565
_cell_angle_beta   90.00000000
_cell_angle_gamma   90.00000000
_symmetry_Int_Tables_number   1
_chemical_formula_structural   LaPr7(AsBr6)2
_chemical_formula_sum   'La1 Pr7 As2 Br12'
_cell_volume   847.69884813
_cell_formula_units_Z   1
loop_
 _symmetry_equiv_pos_site_id
 _symmetry_equiv_pos_as_xyz
  1  'x, y, z'
loop_
 _atom_site_type_symbol
 _atom_site_label
 _atom_site_symmetry_multiplicity
 _atom_site_fract_x
 _atom_site_fract_y
 _atom_site_fract_z
 _atom_site_occupancy
  La  La0  1  0.500000  0.377841  0.836959  1
  Pr  Pr1  1  0.500000  0.120690  0.340062  1
  Pr  Pr2  1  0.500000  0.880271  0.660043  1
  Pr  Pr3  1  0.500000  0.620774  0.160617  1
  Pr  Pr4  1  0.000000  0.117303  0.577884  1
  Pr  Pr5  1  0.000000  0.881180  0.421507  1
  Pr  Pr6  1  0.000000  0.619425  0.923412  1
  Pr  Pr7  1  0.000000  0.382718  0.079524  1
  As  As8  1  0.500000  0.999682  0.499472  1
  As  As9  1  0.500000  0.499635  0.999462  1
  Br  Br10  1  0.500000  0.242644  0.160250  1
  Br  Br11  1  0.500000  0.755645  0.837763  1
  Br  Br12  1  0.500000  0.743133  0.339447  1
  Br  Br13  1  0.500000  0.255483  0.659757  1
  Br  Br14  1  0.000000  0.257135  0.412148  1
  Br  Br15  1  0.000000  0.743418  0.588466  1
  Br  Br16  1  0.000000  0.757677  0.090592  1
  Br  Br17  1  0.000000  0.241762  0.911877  1
  Br  Br18  1  0.000000  0.001787  0.243759  1
  Br  Br19  1  0.000000  0.998778  0.756872  1
  Br  Br20  1  0.000000  0.503548  0.257687  1
  Br  Br21  1  0.000000  0.499475  0.742438  1
