# generated using pymatgen
data_Eu5Ho3(Si3Au)4
_symmetry_space_group_name_H-M   'P 1'
_cell_length_a   8.42895600
_cell_length_b   8.42895598
_cell_length_c   8.57360700
_cell_angle_alpha   90.00000000
_cell_angle_beta   90.00000000
_cell_angle_gamma   120.00000008
_symmetry_Int_Tables_number   1
_chemical_formula_structural   Eu5Ho3(Si3Au)4
_chemical_formula_sum   'Eu5 Ho3 Si12 Au4'
_cell_volume   527.52345737
_cell_formula_units_Z   1
loop_
 _symmetry_equiv_pos_site_id
 _symmetry_equiv_pos_as_xyz
  1  'x, y, z'
loop_
 _atom_site_type_symbol
 _atom_site_label
 _atom_site_symmetry_multiplicity
 _atom_site_fract_x
 _atom_site_fract_y
 _atom_site_fract_z
 _atom_site_occupancy
  Eu  Eu0  1  0.999996  0.000004  0.250000  1
  Eu  Eu1  1  0.000000  0.000000  0.750000  1
  Eu  Eu2  1  0.500409  0.499591  0.250000  1
  Eu  Eu3  1  0.500414  0.000832  0.250000  1
  Eu  Eu4  1  0.999168  0.499586  0.250000  1
  Ho  Ho5  1  0.499231  0.500769  0.750000  1
  Ho  Ho6  1  0.499236  0.998469  0.750000  1
  Ho  Ho7  1  0.001531  0.500764  0.750000  1
  Si  Si8  1  0.163715  0.836285  0.508165  1
  Si  Si9  1  0.163795  0.327500  0.508264  1
  Si  Si10  1  0.672500  0.836205  0.508264  1
  Si  Si11  1  0.836335  0.163665  0.506730  1
  Si  Si12  1  0.836267  0.672610  0.506844  1
  Si  Si13  1  0.327390  0.163733  0.506844  1
  Si  Si14  1  0.836335  0.163665  0.993270  1
  Si  Si15  1  0.836267  0.672610  0.993156  1
  Si  Si16  1  0.327390  0.163733  0.993156  1
  Si  Si17  1  0.163715  0.836285  0.991835  1
  Si  Si18  1  0.163795  0.327500  0.991736  1
  Si  Si19  1  0.672500  0.836205  0.991736  1
  Au  Au20  1  0.333323  0.666677  0.519079  1
  Au  Au21  1  0.666682  0.333318  0.522275  1
  Au  Au22  1  0.666682  0.333318  0.977725  1
  Au  Au23  1  0.333323  0.666677  0.980921  1
