# generated using pymatgen
data_HfZr3Co4Si3Ge
_symmetry_space_group_name_H-M   'P 1'
_cell_length_a   3.87973200
_cell_length_b   6.50608223
_cell_length_c   7.16649533
_cell_angle_alpha   90.05542893
_cell_angle_beta   90.00000000
_cell_angle_gamma   90.00000000
_symmetry_Int_Tables_number   1
_chemical_formula_structural   HfZr3Co4Si3Ge
_chemical_formula_sum   'Hf1 Zr3 Co4 Si3 Ge1'
_cell_volume   180.89555418
_cell_formula_units_Z   1
loop_
 _symmetry_equiv_pos_site_id
 _symmetry_equiv_pos_as_xyz
  1  'x, y, z'
loop_
 _atom_site_type_symbol
 _atom_site_label
 _atom_site_symmetry_multiplicity
 _atom_site_fract_x
 _atom_site_fract_y
 _atom_site_fract_z
 _atom_site_occupancy
  Hf  Hf0  1  0.250000  0.005019  0.302741  1
  Zr  Zr1  1  0.250000  0.507123  0.192914  1
  Zr  Zr2  1  0.750000  0.988162  0.695978  1
  Zr  Zr3  1  0.750000  0.494951  0.806116  1
  Co  Co4  1  0.250000  0.140076  0.941024  1
  Co  Co5  1  0.250000  0.651741  0.567031  1
  Co  Co6  1  0.750000  0.858055  0.071289  1
  Co  Co7  1  0.750000  0.358854  0.422382  1
  Si  Si8  1  0.250000  0.781963  0.897722  1
  Si  Si9  1  0.750000  0.719232  0.393034  1
  Si  Si10  1  0.750000  0.217474  0.105158  1
  Ge  Ge11  1  0.250000  0.277349  0.604611  1
