# generated using pymatgen
data_Pr3CoO6
_symmetry_space_group_name_H-M   'P 1'
_cell_length_a   7.49446849
_cell_length_b   7.49446821
_cell_length_c   5.68349500
_cell_angle_alpha   90.00000000
_cell_angle_beta   90.00000000
_cell_angle_gamma   102.92451094
_symmetry_Int_Tables_number   1
_chemical_formula_structural   Pr3CoO6
_chemical_formula_sum   'Pr6 Co2 O12'
_cell_volume   311.13780258
_cell_formula_units_Z   2
loop_
 _symmetry_equiv_pos_site_id
 _symmetry_equiv_pos_as_xyz
  1  'x, y, z'
loop_
 _atom_site_type_symbol
 _atom_site_label
 _atom_site_symmetry_multiplicity
 _atom_site_fract_x
 _atom_site_fract_y
 _atom_site_fract_z
 _atom_site_occupancy
  Pr  Pr0  1  0.086735  0.297337  0.471252  1
  Pr  Pr1  1  0.297337  0.086735  0.971252  1
  Pr  Pr2  1  0.604032  0.395968  0.428999  1
  Pr  Pr3  1  0.395968  0.604032  0.928999  1
  Pr  Pr4  1  0.702663  0.913265  0.471252  1
  Pr  Pr5  1  0.913265  0.702663  0.971252  1
  Co  Co6  1  0.804338  0.195662  0.005837  1
  Co  Co7  1  0.195662  0.804338  0.505837  1
  O  O8  1  0.327730  0.353599  0.202530  1
  O  O9  1  0.353599  0.327730  0.702530  1
  O  O10  1  0.586706  0.109585  0.179272  1
  O  O11  1  0.109585  0.586706  0.679272  1
  O  O12  1  0.957004  0.042996  0.137319  1
  O  O13  1  0.786938  0.213062  0.680537  1
  O  O14  1  0.042996  0.957004  0.637319  1
  O  O15  1  0.213062  0.786938  0.180537  1
  O  O16  1  0.890415  0.413294  0.179272  1
  O  O17  1  0.413294  0.890415  0.679272  1
  O  O18  1  0.646401  0.672270  0.202530  1
  O  O19  1  0.672270  0.646401  0.702530  1
