# generated using pymatgen
data_Dy5Tc5P12Ir11Rh3
_symmetry_space_group_name_H-M   'P 1'
_cell_length_a   12.63983570
_cell_length_b   12.73030596
_cell_length_c   3.96939400
_cell_angle_alpha   90.00000000
_cell_angle_beta   90.00000000
_cell_angle_gamma   120.21924918
_symmetry_Int_Tables_number   1
_chemical_formula_structural   Dy5Tc5P12Ir11Rh3
_chemical_formula_sum   'Dy5 Tc5 P12 Ir11 Rh3'
_cell_volume   551.91395881
_cell_formula_units_Z   1
loop_
 _symmetry_equiv_pos_site_id
 _symmetry_equiv_pos_as_xyz
  1  'x, y, z'
loop_
 _atom_site_type_symbol
 _atom_site_label
 _atom_site_symmetry_multiplicity
 _atom_site_fract_x
 _atom_site_fract_y
 _atom_site_fract_z
 _atom_site_occupancy
  Dy  Dy0  1  0.333954  0.667802  0.500000  1
  Dy  Dy1  1  0.666322  0.333374  0.500000  1
  Dy  Dy2  1  0.999561  0.811131  0.000000  1
  Dy  Dy3  1  0.186481  0.184815  0.000000  1
  Dy  Dy4  1  0.810393  0.998531  0.000000  1
  Tc  Tc5  1  0.997058  0.449496  0.500000  1
  Tc  Tc6  1  0.550243  0.545319  0.500000  1
  Tc  Tc7  1  0.457561  0.010767  0.500000  1
  Tc  Tc8  1  0.620139  0.798637  0.500000  1
  Tc  Tc9  1  0.201480  0.821930  0.500000  1
  P  P10  1  0.006495  0.638664  0.500000  1
  P  P11  1  0.364991  0.366285  0.500000  1
  P  P12  1  0.632530  0.993520  0.500000  1
  P  P13  1  0.520050  0.693134  0.000000  1
  P  P14  1  0.308380  0.830291  0.000000  1
  P  P15  1  0.168892  0.482498  0.000000  1
  P  P16  1  0.483046  0.168950  0.000000  1
  P  P17  1  0.684930  0.516492  0.000000  1
  P  P18  1  0.833598  0.316054  0.000000  1
  P  P19  1  0.998457  0.176085  0.500000  1
  P  P20  1  0.817096  0.820850  0.500000  1
  P  P21  1  0.177097  0.993350  0.500000  1
  Ir  Ir22  1  0.507893  0.874811  0.000000  1
  Ir  Ir23  1  0.127031  0.635839  0.000000  1
  Ir  Ir24  1  0.361453  0.492371  0.000000  1
  Ir  Ir25  1  0.488327  0.358098  0.000000  1
  Ir  Ir26  1  0.866751  0.508017  0.000000  1
  Ir  Ir27  1  0.644175  0.137322  0.000000  1
  Ir  Ir28  1  0.000190  0.283982  0.000000  1
  Ir  Ir29  1  0.718060  0.712172  0.000000  1
  Ir  Ir30  1  0.286492  0.005505  0.000000  1
  Ir  Ir31  1  0.819176  0.192378  0.500000  1
  Ir  Ir32  1  0.000139  0.999437  0.500000  1
  Rh  Rh33  1  0.180105  0.375751  0.500000  1
  Rh  Rh34  1  0.373695  0.183710  0.500000  1
  Rh  Rh35  1  0.807759  0.622630  0.500000  1
