# generated using pymatgen
data_Ho13Tm3MgIn3Rh4
_symmetry_space_group_name_H-M   'P 1'
_cell_length_a   9.60682606
_cell_length_b   9.60425753
_cell_length_c   9.61829961
_cell_angle_alpha   59.94149937
_cell_angle_beta   60.09149918
_cell_angle_gamma   59.96655197
_symmetry_Int_Tables_number   1
_chemical_formula_structural   Ho13Tm3MgIn3Rh4
_chemical_formula_sum   'Ho13 Tm3 Mg1 In3 Rh4'
_cell_volume   627.51461188
_cell_formula_units_Z   1
loop_
 _symmetry_equiv_pos_site_id
 _symmetry_equiv_pos_as_xyz
  1  'x, y, z'
loop_
 _atom_site_type_symbol
 _atom_site_label
 _atom_site_symmetry_multiplicity
 _atom_site_fract_x
 _atom_site_fract_y
 _atom_site_fract_z
 _atom_site_occupancy
  Ho  Ho0  1  0.061395  0.060873  0.438836  1
  Ho  Ho1  1  0.435438  0.064024  0.435943  1
  Ho  Ho2  1  0.060732  0.439663  0.060215  1
  Ho  Ho3  1  0.048283  0.649697  0.649513  1
  Ho  Ho4  1  0.435527  0.436376  0.063272  1
  Ho  Ho5  1  0.649810  0.046621  0.650885  1
  Ho  Ho6  1  0.188024  0.812084  0.187850  1
  Ho  Ho7  1  0.187746  0.187678  0.812221  1
  Ho  Ho8  1  0.808846  0.808685  0.191376  1
  Ho  Ho9  1  0.438287  0.061479  0.061386  1
  Ho  Ho10  1  0.811462  0.188689  0.188504  1
  Ho  Ho11  1  0.064422  0.435652  0.435409  1
  Ho  Ho12  1  0.809546  0.190979  0.809236  1
  Tm  Tm13  1  0.191251  0.809149  0.808917  1
  Tm  Tm14  1  0.649471  0.650663  0.046188  1
  Tm  Tm15  1  0.651819  0.652021  0.652454  1
  Mg  Mg16  1  0.424046  0.423486  0.422245  1
  In  In17  1  0.748088  0.418247  0.417682  1
  In  In18  1  0.418624  0.747921  0.417544  1
  In  In19  1  0.418340  0.418238  0.747567  1
  Rh  Rh20  1  0.857907  0.858255  0.426199  1
  Rh  Rh21  1  0.858050  0.855575  0.858328  1
  Rh  Rh22  1  0.425688  0.856864  0.858851  1
  Rh  Rh23  1  0.857199  0.427083  0.859378  1
