# generated using pymatgen
data_Tb2Ho3Lu7Os4
_symmetry_space_group_name_H-M   'P 1'
_cell_length_a   6.23055244
_cell_length_b   7.38747664
_cell_length_c   8.86643887
_cell_angle_alpha   89.95718448
_cell_angle_beta   89.75591937
_cell_angle_gamma   89.95229849
_symmetry_Int_Tables_number   1
_chemical_formula_structural   Tb2Ho3Lu7Os4
_chemical_formula_sum   'Tb2 Ho3 Lu7 Os4'
_cell_volume   408.10102836
_cell_formula_units_Z   1
loop_
 _symmetry_equiv_pos_site_id
 _symmetry_equiv_pos_as_xyz
  1  'x, y, z'
loop_
 _atom_site_type_symbol
 _atom_site_label
 _atom_site_symmetry_multiplicity
 _atom_site_fract_x
 _atom_site_fract_y
 _atom_site_fract_z
 _atom_site_occupancy
  Tb  Tb0  1  0.127079  0.461323  0.748537  1
  Tb  Tb1  1  0.372183  0.960353  0.748746  1
  Ho  Ho2  1  0.164222  0.174635  0.063043  1
  Ho  Ho3  1  0.871174  0.539993  0.250641  1
  Ho  Ho4  1  0.629649  0.039101  0.251321  1
  Lu  Lu5  1  0.337372  0.673306  0.063245  1
  Lu  Lu6  1  0.162913  0.172920  0.438245  1
  Lu  Lu7  1  0.662092  0.326557  0.562787  1
  Lu  Lu8  1  0.835630  0.825449  0.936120  1
  Lu  Lu9  1  0.663415  0.326861  0.936564  1
  Lu  Lu10  1  0.836624  0.825927  0.562452  1
  Lu  Lu11  1  0.337108  0.674480  0.436557  1
  Os  Os12  1  0.044077  0.880590  0.251418  1
  Os  Os13  1  0.458120  0.382202  0.251928  1
  Os  Os14  1  0.953685  0.117957  0.747479  1
  Os  Os15  1  0.544658  0.618346  0.750920  1
