# generated using pymatgen
data_Tb3Ce5(Si3Ir)4
_symmetry_space_group_name_H-M   'P 1'
_cell_length_a   8.19296400
_cell_length_b   8.19296317
_cell_length_c   8.16500600
_cell_angle_alpha   90.00000000
_cell_angle_beta   90.00000000
_cell_angle_gamma   120.00000334
_symmetry_Int_Tables_number   1
_chemical_formula_structural   Tb3Ce5(Si3Ir)4
_chemical_formula_sum   'Tb3 Ce5 Si12 Ir4'
_cell_volume   474.64528876
_cell_formula_units_Z   1
loop_
 _symmetry_equiv_pos_site_id
 _symmetry_equiv_pos_as_xyz
  1  'x, y, z'
loop_
 _atom_site_type_symbol
 _atom_site_label
 _atom_site_symmetry_multiplicity
 _atom_site_fract_x
 _atom_site_fract_y
 _atom_site_fract_z
 _atom_site_occupancy
  Tb  Tb0  1  0.499019  0.500981  0.750000  1
  Tb  Tb1  1  0.499019  0.998037  0.750000  1
  Tb  Tb2  1  0.001963  0.500981  0.750000  1
  Ce  Ce3  1  0.000000  0.000000  0.250000  1
  Ce  Ce4  1  0.000000  0.000000  0.750000  1
  Ce  Ce5  1  0.500714  0.499286  0.250000  1
  Ce  Ce6  1  0.500714  0.001430  0.250000  1
  Ce  Ce7  1  0.998570  0.499286  0.250000  1
  Si  Si8  1  0.165837  0.834163  0.501297  1
  Si  Si9  1  0.165837  0.331672  0.501297  1
  Si  Si10  1  0.668328  0.834163  0.501297  1
  Si  Si11  1  0.834085  0.165915  0.501071  1
  Si  Si12  1  0.834085  0.668170  0.501071  1
  Si  Si13  1  0.331830  0.165915  0.501071  1
  Si  Si14  1  0.834085  0.165915  0.998929  1
  Si  Si15  1  0.834085  0.668170  0.998929  1
  Si  Si16  1  0.331830  0.165915  0.998929  1
  Si  Si17  1  0.165837  0.834163  0.998703  1
  Si  Si18  1  0.165837  0.331672  0.998703  1
  Si  Si19  1  0.668328  0.834163  0.998703  1
  Ir  Ir20  1  0.333333  0.666667  0.498694  1
  Ir  Ir21  1  0.666667  0.333333  0.504417  1
  Ir  Ir22  1  0.666667  0.333333  0.995583  1
  Ir  Ir23  1  0.333333  0.666667  0.001306  1
