# generated using pymatgen
data_Yb4Tm4B24Ir3Ru
_symmetry_space_group_name_H-M   'P 1'
_cell_length_a   3.61840700
_cell_length_b   9.10574900
_cell_length_c   11.49139426
_cell_angle_alpha   90.05361724
_cell_angle_beta   90.00000000
_cell_angle_gamma   90.00000000
_symmetry_Int_Tables_number   1
_chemical_formula_structural   Yb4Tm4B24Ir3Ru
_chemical_formula_sum   'Yb4 Tm4 B24 Ir3 Ru1'
_cell_volume   378.62180756
_cell_formula_units_Z   1
loop_
 _symmetry_equiv_pos_site_id
 _symmetry_equiv_pos_as_xyz
  1  'x, y, z'
loop_
 _atom_site_type_symbol
 _atom_site_label
 _atom_site_symmetry_multiplicity
 _atom_site_fract_x
 _atom_site_fract_y
 _atom_site_fract_z
 _atom_site_occupancy
  Yb  Yb0  1  0.000000  0.322664  0.415558  1
  Yb  Yb1  1  0.000000  0.679254  0.588142  1
  Yb  Yb2  1  0.000000  0.823381  0.082277  1
  Yb  Yb3  1  0.000000  0.174690  0.913170  1
  Tm  Tm4  1  0.000000  0.943662  0.372699  1
  Tm  Tm5  1  0.000000  0.053762  0.629121  1
  Tm  Tm6  1  0.000000  0.443389  0.126937  1
  Tm  Tm7  1  0.000000  0.559112  0.872429  1
  B  B8  1  0.500000  0.554716  0.433337  1
  B  B9  1  0.500000  0.445444  0.567163  1
  B  B10  1  0.500000  0.054141  0.066663  1
  B  B11  1  0.500000  0.945664  0.932190  1
  B  B12  1  0.500000  0.749421  0.419658  1
  B  B13  1  0.500000  0.250721  0.580700  1
  B  B14  1  0.500000  0.248838  0.080351  1
  B  B15  1  0.500000  0.751736  0.918136  1
  B  B16  1  0.500000  0.790359  0.264774  1
  B  B17  1  0.500000  0.209110  0.734889  1
  B  B18  1  0.500000  0.290710  0.235116  1
  B  B19  1  0.500000  0.709509  0.765462  1
  B  B20  1  0.500000  0.631070  0.183124  1
  B  B21  1  0.500000  0.368765  0.816047  1
  B  B22  1  0.500000  0.131527  0.316935  1
  B  B23  1  0.500000  0.868904  0.685039  1
  B  B24  1  0.500000  0.983819  0.212486  1
  B  B25  1  0.500000  0.016126  0.787633  1
  B  B26  1  0.500000  0.483654  0.287600  1
  B  B27  1  0.500000  0.516875  0.712518  1
  B  B28  1  0.500000  0.602548  0.028366  1
  B  B29  1  0.500000  0.396715  0.971816  1
  B  B30  1  0.500000  0.102879  0.471835  1
  B  B31  1  0.500000  0.897013  0.527784  1
  Ir  Ir32  1  0.000000  0.638159  0.320207  1
  Ir  Ir33  1  0.000000  0.361730  0.679478  1
  Ir  Ir34  1  0.000000  0.138510  0.180224  1
  Ru  Ru35  1  0.000000  0.861423  0.820136  1
