# generated using pymatgen
data_Sm2Y2TcB12Os
_symmetry_space_group_name_H-M   'P 1'
_cell_length_a   3.70504900
_cell_length_b   9.22802830
_cell_length_c   11.64991601
_cell_angle_alpha   89.92062572
_cell_angle_beta   90.00000000
_cell_angle_gamma   90.00000000
_symmetry_Int_Tables_number   1
_chemical_formula_structural   Sm2Y2TcB12Os
_chemical_formula_sum   'Sm4 Y4 Tc2 B24 Os2'
_cell_volume   398.31370670
_cell_formula_units_Z   2
loop_
 _symmetry_equiv_pos_site_id
 _symmetry_equiv_pos_as_xyz
  1  'x, y, z'
loop_
 _atom_site_type_symbol
 _atom_site_label
 _atom_site_symmetry_multiplicity
 _atom_site_fract_x
 _atom_site_fract_y
 _atom_site_fract_z
 _atom_site_occupancy
  Sm  Sm0  1  0.000000  0.324948  0.415016  1
  Sm  Sm1  1  0.000000  0.675052  0.584984  1
  Sm  Sm2  1  0.000000  0.821802  0.087179  1
  Sm  Sm3  1  0.000000  0.178198  0.912821  1
  Y  Y4  1  0.000000  0.941662  0.370848  1
  Y  Y5  1  0.000000  0.058338  0.629152  1
  Y  Y6  1  0.000000  0.443887  0.130115  1
  Y  Y7  1  0.000000  0.556113  0.869885  1
  Tc  Tc8  1  0.000000  0.639000  0.319630  1
  Tc  Tc9  1  0.000000  0.361000  0.680370  1
  B  B10  1  0.500000  0.554165  0.431492  1
  B  B11  1  0.500000  0.445835  0.568508  1
  B  B12  1  0.500000  0.054707  0.068544  1
  B  B13  1  0.500000  0.945293  0.931456  1
  B  B14  1  0.500000  0.748174  0.417546  1
  B  B15  1  0.500000  0.251826  0.582454  1
  B  B16  1  0.500000  0.248593  0.082616  1
  B  B17  1  0.500000  0.751407  0.917384  1
  B  B18  1  0.500000  0.790540  0.266147  1
  B  B19  1  0.500000  0.209460  0.733853  1
  B  B20  1  0.500000  0.289925  0.233608  1
  B  B21  1  0.500000  0.710075  0.766392  1
  B  B22  1  0.500000  0.630947  0.186017  1
  B  B23  1  0.500000  0.369053  0.813983  1
  B  B24  1  0.500000  0.130401  0.313352  1
  B  B25  1  0.500000  0.869599  0.686648  1
  B  B26  1  0.500000  0.984180  0.212490  1
  B  B27  1  0.500000  0.015820  0.787510  1
  B  B28  1  0.500000  0.484318  0.287130  1
  B  B29  1  0.500000  0.515682  0.712870  1
  B  B30  1  0.500000  0.601872  0.027967  1
  B  B31  1  0.500000  0.398128  0.972033  1
  B  B32  1  0.500000  0.101598  0.471572  1
  B  B33  1  0.500000  0.898402  0.528428  1
  Os  Os34  1  0.000000  0.138081  0.179197  1
  Os  Os35  1  0.000000  0.861919  0.820803  1
