# generated using pymatgen
data_Zr8Si16(OsRu3)3
_symmetry_space_group_name_H-M   'P 1'
_cell_length_a   9.94725620
_cell_length_b   9.94607290
_cell_length_c   13.42380457
_cell_angle_alpha   53.81340730
_cell_angle_beta   53.80252862
_cell_angle_gamma   31.50462851
_symmetry_Int_Tables_number   1
_chemical_formula_structural   Zr8Si16(OsRu3)3
_chemical_formula_sum   'Zr8 Si16 Os3 Ru9'
_cell_volume   548.04608138
_cell_formula_units_Z   1
loop_
 _symmetry_equiv_pos_site_id
 _symmetry_equiv_pos_as_xyz
  1  'x, y, z'
loop_
 _atom_site_type_symbol
 _atom_site_label
 _atom_site_symmetry_multiplicity
 _atom_site_fract_x
 _atom_site_fract_y
 _atom_site_fract_z
 _atom_site_occupancy
  Zr  Zr0  1  0.039012  0.293831  0.636502  1
  Zr  Zr1  1  0.706166  0.960722  0.863665  1
  Zr  Zr2  1  0.961763  0.706265  0.363136  1
  Zr  Zr3  1  0.293521  0.040110  0.136345  1
  Zr  Zr4  1  0.301731  0.551872  0.648197  1
  Zr  Zr5  1  0.447768  0.698352  0.851900  1
  Zr  Zr6  1  0.698091  0.447830  0.351694  1
  Zr  Zr7  1  0.552476  0.300587  0.148455  1
  Si  Si8  1  0.973104  0.253914  0.894629  1
  Si  Si9  1  0.746206  0.025806  0.606478  1
  Si  Si10  1  0.027875  0.746226  0.106277  1
  Si  Si11  1  0.254262  0.973741  0.393328  1
  Si  Si12  1  0.141389  0.388771  0.895132  1
  Si  Si13  1  0.610413  0.858426  0.605478  1
  Si  Si14  1  0.858378  0.610772  0.105260  1
  Si  Si15  1  0.389493  0.141384  0.394986  1
  Si  Si16  1  0.087574  0.570995  0.565749  1
  Si  Si17  1  0.428146  0.912228  0.934757  1
  Si  Si18  1  0.912510  0.429006  0.434162  1
  Si  Si19  1  0.571682  0.087489  0.065515  1
  Si  Si20  1  0.622037  0.377757  0.750469  1
  Si  Si21  1  0.378441  0.621314  0.248985  1
  Si  Si22  1  0.130658  0.869344  0.749891  1
  Si  Si23  1  0.869202  0.130487  0.249476  1
  Os  Os24  1  0.910003  0.132136  0.584406  1
  Os  Os25  1  0.869617  0.088577  0.915272  1
  Os  Os26  1  0.090191  0.867881  0.414815  1
  Ru  Ru27  1  0.130594  0.912998  0.084295  1
  Ru  Ru28  1  0.828853  0.646560  0.779792  1
  Ru  Ru29  1  0.353578  0.171385  0.720318  1
  Ru  Ru30  1  0.171382  0.353505  0.220135  1
  Ru  Ru31  1  0.646927  0.828387  0.279884  1
  Ru  Ru32  1  0.233030  0.517501  0.933717  1
  Ru  Ru33  1  0.483044  0.765839  0.566216  1
  Ru  Ru34  1  0.764118  0.484045  0.066111  1
  Ru  Ru35  1  0.516765  0.233954  0.434571  1
