# generated using pymatgen
data_Tm2(AlAu3)3
_symmetry_space_group_name_H-M   'P 1'
_cell_length_a   7.91985139
_cell_length_b   7.91985237
_cell_length_c   10.74591595
_cell_angle_alpha   68.47598486
_cell_angle_beta   68.47598129
_cell_angle_gamma   60.04011193
_symmetry_Int_Tables_number   1
_chemical_formula_structural   Tm2(AlAu3)3
_chemical_formula_sum   'Tm4 Al6 Au18'
_cell_volume   528.94347108
_cell_formula_units_Z   2
loop_
 _symmetry_equiv_pos_site_id
 _symmetry_equiv_pos_as_xyz
  1  'x, y, z'
loop_
 _atom_site_type_symbol
 _atom_site_label
 _atom_site_symmetry_multiplicity
 _atom_site_fract_x
 _atom_site_fract_y
 _atom_site_fract_z
 _atom_site_occupancy
  Tm  Tm0  1  0.415226  0.248467  0.748341  1
  Tm  Tm1  1  0.584774  0.751533  0.251659  1
  Tm  Tm2  1  0.751533  0.584774  0.751659  1
  Tm  Tm3  1  0.248467  0.415226  0.248341  1
  Al  Al4  1  0.651875  0.175175  0.998821  1
  Al  Al5  1  0.824825  0.348125  0.501179  1
  Al  Al6  1  0.348125  0.824825  0.001179  1
  Al  Al7  1  0.000000  0.500000  0.000000  1
  Al  Al8  1  0.175175  0.651875  0.498821  1
  Al  Al9  1  0.500000  0.000000  0.500000  1
  Au  Au10  1  0.480401  0.639510  0.572223  1
  Au  Au11  1  0.360490  0.519599  0.927777  1
  Au  Au12  1  0.856293  0.688814  0.433389  1
  Au  Au13  1  0.847143  0.152857  0.750000  1
  Au  Au14  1  0.519599  0.360490  0.427777  1
  Au  Au15  1  0.688814  0.856293  0.933389  1
  Au  Au16  1  0.917747  0.310674  0.254120  1
  Au  Au17  1  0.977350  0.794928  0.079666  1
  Au  Au18  1  0.310674  0.917747  0.754120  1
  Au  Au19  1  0.143707  0.311186  0.566611  1
  Au  Au20  1  0.794928  0.977350  0.579666  1
  Au  Au21  1  0.311186  0.143707  0.066611  1
  Au  Au22  1  0.152857  0.847143  0.250000  1
  Au  Au23  1  0.022650  0.205072  0.920334  1
  Au  Au24  1  0.082253  0.689326  0.745880  1
  Au  Au25  1  0.639510  0.480401  0.072223  1
  Au  Au26  1  0.205072  0.022650  0.420334  1
  Au  Au27  1  0.689326  0.082253  0.245880  1
