# generated using pymatgen
data_Tb2Th2Al24PdPt8
_symmetry_space_group_name_H-M   'P 1'
_cell_length_a   7.59153647
_cell_length_b   7.60954058
_cell_length_c   13.20829911
_cell_angle_alpha   84.48874285
_cell_angle_beta   78.94282434
_cell_angle_gamma   59.94167009
_symmetry_Int_Tables_number   1
_chemical_formula_structural   Tb2Th2Al24PdPt8
_chemical_formula_sum   'Tb2 Th2 Al24 Pd1 Pt8'
_cell_volume   648.14502490
_cell_formula_units_Z   1
loop_
 _symmetry_equiv_pos_site_id
 _symmetry_equiv_pos_as_xyz
  1  'x, y, z'
loop_
 _atom_site_type_symbol
 _atom_site_label
 _atom_site_symmetry_multiplicity
 _atom_site_fract_x
 _atom_site_fract_y
 _atom_site_fract_z
 _atom_site_occupancy
  Tb  Tb0  1  0.733554  0.498475  0.807204  1
  Tb  Tb1  1  0.266446  0.501525  0.192796  1
  Th  Th2  1  0.394841  0.168099  0.806614  1
  Th  Th3  1  0.605159  0.831901  0.193386  1
  Al  Al4  1  0.688075  0.830602  0.944091  1
  Al  Al5  1  0.311925  0.169398  0.055909  1
  Al  Al6  1  0.145752  0.832888  0.561501  1
  Al  Al7  1  0.854248  0.167112  0.438499  1
  Al  Al8  1  0.480803  0.167196  0.557639  1
  Al  Al9  1  0.519197  0.832804  0.442361  1
  Al  Al10  1  0.212757  0.168692  0.333354  1
  Al  Al11  1  0.787243  0.831308  0.666646  1
  Al  Al12  1  0.438506  0.510170  0.667026  1
  Al  Al13  1  0.561494  0.489830  0.332974  1
  Al  Al14  1  0.107787  0.159957  0.665430  1
  Al  Al15  1  0.892213  0.840043  0.334570  1
  Al  Al16  1  0.351762  0.502385  0.945860  1
  Al  Al17  1  0.648238  0.497615  0.054140  1
  Al  Al18  1  0.012682  0.167494  0.954595  1
  Al  Al19  1  0.987318  0.832506  0.045405  1
  Al  Al20  1  0.186163  0.500004  0.441003  1
  Al  Al21  1  0.813837  0.499996  0.558997  1
  Al  Al22  1  0.735169  0.166923  0.183656  1
  Al  Al23  1  0.264831  0.833077  0.816344  1
  Al  Al24  1  0.059642  0.634013  0.814986  1
  Al  Al25  1  0.940358  0.365987  0.185014  1
  Al  Al26  1  0.859702  0.040564  0.815791  1
  Al  Al27  1  0.140298  0.959436  0.184210  1
  Pd  Pd28  1  0.000000  0.500000  0.000000  1
  Pt  Pt29  1  0.121077  0.491600  0.638279  1
  Pt  Pt30  1  0.878923  0.508400  0.361721  1
  Pt  Pt31  1  0.656586  0.171001  0.999871  1
  Pt  Pt32  1  0.343414  0.828999  0.000129  1
  Pt  Pt33  1  0.537879  0.165839  0.361464  1
  Pt  Pt34  1  0.462121  0.834161  0.638536  1
  Pt  Pt35  1  0.778498  0.174946  0.637408  1
  Pt  Pt36  1  0.221502  0.825054  0.362592  1
