# generated using pymatgen
data_Mn2Be7Al2Si
_symmetry_space_group_name_H-M   'P 1'
_cell_length_a   4.32746900
_cell_length_b   4.32746917
_cell_length_c   7.08988500
_cell_angle_alpha   90.00000000
_cell_angle_beta   90.00000000
_cell_angle_gamma   120.00000632
_symmetry_Int_Tables_number   1
_chemical_formula_structural   Mn2Be7Al2Si
_chemical_formula_sum   'Mn2 Be7 Al2 Si1'
_cell_volume   114.98408756
_cell_formula_units_Z   1
loop_
 _symmetry_equiv_pos_site_id
 _symmetry_equiv_pos_as_xyz
  1  'x, y, z'
loop_
 _atom_site_type_symbol
 _atom_site_label
 _atom_site_symmetry_multiplicity
 _atom_site_fract_x
 _atom_site_fract_y
 _atom_site_fract_z
 _atom_site_occupancy
  Mn  Mn0  1  0.666667  0.333333  0.945480  1
  Mn  Mn1  1  0.333333  0.666667  0.440070  1
  Be  Be2  1  0.000000  0.000000  0.491909  1
  Be  Be3  1  0.829996  0.659990  0.257906  1
  Be  Be4  1  0.171118  0.828882  0.739150  1
  Be  Be5  1  0.657762  0.828882  0.739150  1
  Be  Be6  1  0.340010  0.170004  0.257906  1
  Be  Be7  1  0.829996  0.170004  0.257906  1
  Be  Be8  1  0.171118  0.342238  0.739150  1
  Al  Al9  1  0.333333  0.666667  0.072440  1
  Al  Al10  1  0.666667  0.333333  0.567904  1
  Si  Si11  1  0.000000  0.000000  0.991028  1
