# generated using pymatgen
data_Yb10BiIr4Pb
_symmetry_space_group_name_H-M   'P 1'
_cell_length_a   8.90776360
_cell_length_b   8.90776469
_cell_length_c   8.90776400
_cell_angle_alpha   129.58113722
_cell_angle_beta   129.58113469
_cell_angle_gamma   74.07727865
_symmetry_Int_Tables_number   1
_chemical_formula_structural   Yb10BiIr4Pb
_chemical_formula_sum   'Yb10 Bi1 Ir4 Pb1'
_cell_volume   409.41781920
_cell_formula_units_Z   1
loop_
 _symmetry_equiv_pos_site_id
 _symmetry_equiv_pos_as_xyz
  1  'x, y, z'
loop_
 _atom_site_type_symbol
 _atom_site_label
 _atom_site_symmetry_multiplicity
 _atom_site_fract_x
 _atom_site_fract_y
 _atom_site_fract_z
 _atom_site_occupancy
  Yb  Yb0  1  0.000282  0.000282  0.000000  1
  Yb  Yb1  1  0.499718  0.499718  0.000000  1
  Yb  Yb2  1  0.794506  0.293118  0.831117  1
  Yb  Yb3  1  0.206882  0.705494  0.168883  1
  Yb  Yb4  1  0.462000  0.963389  0.168883  1
  Yb  Yb5  1  0.293118  0.462000  0.498611  1
  Yb  Yb6  1  0.038000  0.206882  0.501389  1
  Yb  Yb7  1  0.536611  0.038000  0.831117  1
  Yb  Yb8  1  0.705494  0.536611  0.498611  1
  Yb  Yb9  1  0.963389  0.794506  0.501389  1
  Bi  Bi10  1  0.750000  0.750000  0.000000  1
  Ir  Ir11  1  0.130339  0.630339  0.760680  1
  Ir  Ir12  1  0.869661  0.369661  0.239320  1
  Ir  Ir13  1  0.630339  0.869661  0.500000  1
  Ir  Ir14  1  0.369661  0.130339  0.500000  1
  Pb  Pb15  1  0.250000  0.250000  0.000000  1
