# generated using pymatgen
data_YMnFeB6
_symmetry_space_group_name_H-M   'P 1'
_cell_length_a   5.39879422
_cell_length_b   5.39879376
_cell_length_c   5.39879366
_cell_angle_alpha   146.26587078
_cell_angle_beta   109.64281857
_cell_angle_gamma   80.34128471
_symmetry_Int_Tables_number   1
_chemical_formula_structural   YMnFeB6
_chemical_formula_sum   'Y1 Mn1 Fe1 B6'
_cell_volume   80.40064657
_cell_formula_units_Z   1
loop_
 _symmetry_equiv_pos_site_id
 _symmetry_equiv_pos_as_xyz
  1  'x, y, z'
loop_
 _atom_site_type_symbol
 _atom_site_label
 _atom_site_symmetry_multiplicity
 _atom_site_fract_x
 _atom_site_fract_y
 _atom_site_fract_z
 _atom_site_occupancy
  Y  Y0  1  0.502357  0.002357  0.500000  1
  Mn  Mn1  1  0.844600  0.844600  0.000000  1
  Fe  Fe2  1  0.152146  0.152146  0.000000  1
  B  B3  1  0.858358  0.500038  0.358320  1
  B  B4  1  0.141717  0.500038  0.641680  1
  B  B5  1  0.962291  0.696705  0.265586  1
  B  B6  1  0.043386  0.303706  0.739680  1
  B  B7  1  0.564026  0.303706  0.260320  1
  B  B8  1  0.431118  0.696705  0.734414  1
