# generated using pymatgen
data_Sc4FeCo15(P3W)4
_symmetry_space_group_name_H-M   'P 1'
_cell_length_a   3.63758000
_cell_length_b   10.29384722
_cell_length_c   11.73078425
_cell_angle_alpha   90.02345747
_cell_angle_beta   90.00000000
_cell_angle_gamma   90.00000000
_symmetry_Int_Tables_number   1
_chemical_formula_structural   Sc4FeCo15(P3W)4
_chemical_formula_sum   'Sc4 Fe1 Co15 P12 W4'
_cell_volume   439.25557504
_cell_formula_units_Z   1
loop_
 _symmetry_equiv_pos_site_id
 _symmetry_equiv_pos_as_xyz
  1  'x, y, z'
loop_
 _atom_site_type_symbol
 _atom_site_label
 _atom_site_symmetry_multiplicity
 _atom_site_fract_x
 _atom_site_fract_y
 _atom_site_fract_z
 _atom_site_occupancy
  Sc  Sc0  1  0.250000  0.581409  0.704205  1
  Sc  Sc1  1  0.250000  0.917519  0.205611  1
  Sc  Sc2  1  0.750000  0.417478  0.295856  1
  Sc  Sc3  1  0.750000  0.082880  0.794211  1
  Fe  Fe4  1  0.250000  0.406403  0.487279  1
  Co  Co5  1  0.250000  0.093030  0.986275  1
  Co  Co6  1  0.750000  0.595051  0.514601  1
  Co  Co7  1  0.750000  0.906987  0.013501  1
  Co  Co8  1  0.250000  0.221764  0.178471  1
  Co  Co9  1  0.250000  0.276672  0.678784  1
  Co  Co10  1  0.750000  0.777946  0.821890  1
  Co  Co11  1  0.750000  0.722483  0.321070  1
  Co  Co12  1  0.250000  0.887857  0.701174  1
  Co  Co13  1  0.250000  0.612354  0.201345  1
  Co  Co14  1  0.750000  0.112310  0.299020  1
  Co  Co15  1  0.750000  0.388457  0.797965  1
  Co  Co16  1  0.250000  0.465126  0.932774  1
  Co  Co17  1  0.250000  0.034941  0.432197  1
  Co  Co18  1  0.750000  0.534918  0.067309  1
  Co  Co19  1  0.750000  0.964290  0.567210  1
  P  P20  1  0.250000  0.420249  0.119363  1
  P  P21  1  0.250000  0.079423  0.618419  1
  P  P22  1  0.750000  0.579557  0.880988  1
  P  P23  1  0.750000  0.920314  0.381095  1
  P  P24  1  0.250000  0.264011  0.863772  1
  P  P25  1  0.250000  0.237610  0.364691  1
  P  P26  1  0.750000  0.736100  0.136038  1
  P  P27  1  0.750000  0.764003  0.636305  1
  P  P28  1  0.250000  0.590006  0.389255  1
  P  P29  1  0.250000  0.908694  0.888553  1
  P  P30  1  0.750000  0.409326  0.609453  1
  P  P31  1  0.750000  0.091591  0.111516  1
  W  W32  1  0.250000  0.710640  0.987346  1
  W  W33  1  0.250000  0.789272  0.486970  1
  W  W34  1  0.750000  0.289398  0.012573  1
  W  W35  1  0.750000  0.209930  0.512917  1
