# generated using pymatgen
data_Tb4Co16SiP11Ru4
_symmetry_space_group_name_H-M   'P 1'
_cell_length_a   3.69672500
_cell_length_b   10.40991689
_cell_length_c   11.78702653
_cell_angle_alpha   90.11105154
_cell_angle_beta   90.00000000
_cell_angle_gamma   90.00000000
_symmetry_Int_Tables_number   1
_chemical_formula_structural   Tb4Co16SiP11Ru4
_chemical_formula_sum   'Tb4 Co16 Si1 P11 Ru4'
_cell_volume   453.59457544
_cell_formula_units_Z   1
loop_
 _symmetry_equiv_pos_site_id
 _symmetry_equiv_pos_as_xyz
  1  'x, y, z'
loop_
 _atom_site_type_symbol
 _atom_site_label
 _atom_site_symmetry_multiplicity
 _atom_site_fract_x
 _atom_site_fract_y
 _atom_site_fract_z
 _atom_site_occupancy
  Tb  Tb0  1  0.250000  0.586730  0.702866  1
  Tb  Tb1  1  0.250000  0.913515  0.203758  1
  Tb  Tb2  1  0.750000  0.413963  0.297959  1
  Tb  Tb3  1  0.750000  0.086556  0.796523  1
  Co  Co4  1  0.250000  0.408639  0.490425  1
  Co  Co5  1  0.250000  0.091283  0.989796  1
  Co  Co6  1  0.750000  0.591842  0.510438  1
  Co  Co7  1  0.750000  0.908738  0.009960  1
  Co  Co8  1  0.250000  0.213627  0.178079  1
  Co  Co9  1  0.250000  0.278990  0.676269  1
  Co  Co10  1  0.750000  0.779298  0.823558  1
  Co  Co11  1  0.750000  0.721230  0.324396  1
  Co  Co12  1  0.250000  0.887625  0.702628  1
  Co  Co13  1  0.250000  0.614709  0.202739  1
  Co  Co14  1  0.750000  0.111090  0.298558  1
  Co  Co15  1  0.750000  0.386422  0.797338  1
  Co  Co16  1  0.250000  0.467953  0.926038  1
  Co  Co17  1  0.250000  0.034453  0.431137  1
  Co  Co18  1  0.750000  0.537479  0.066094  1
  Co  Co19  1  0.750000  0.965528  0.569561  1
  Si  Si20  1  0.250000  0.416145  0.109763  1
  P  P21  1  0.250000  0.080390  0.611851  1
  P  P22  1  0.750000  0.580683  0.886708  1
  P  P23  1  0.750000  0.919525  0.388641  1
  P  P24  1  0.250000  0.273184  0.867025  1
  P  P25  1  0.250000  0.227116  0.366986  1
  P  P26  1  0.750000  0.727199  0.134118  1
  P  P27  1  0.750000  0.772734  0.633121  1
  P  P28  1  0.250000  0.596357  0.390298  1
  P  P29  1  0.250000  0.904210  0.890378  1
  P  P30  1  0.750000  0.404042  0.609463  1
  P  P31  1  0.750000  0.096109  0.110062  1
  Ru  Ru32  1  0.250000  0.718184  0.993019  1
  Ru  Ru33  1  0.250000  0.783452  0.492559  1
  Ru  Ru34  1  0.750000  0.284271  0.009765  1
  Ru  Ru35  1  0.750000  0.216728  0.508126  1
