# generated using pymatgen
data_TbNd2Al12RuRh3
_symmetry_space_group_name_H-M   'P 1'
_cell_length_a   8.89079258
_cell_length_b   8.87353995
_cell_length_c   9.61174800
_cell_angle_alpha   90.00000000
_cell_angle_beta   90.00000000
_cell_angle_gamma   119.93582690
_symmetry_Int_Tables_number   1
_chemical_formula_structural   TbNd2Al12RuRh3
_chemical_formula_sum   'Tb2 Nd4 Al24 Ru2 Rh6'
_cell_volume   657.12935528
_cell_formula_units_Z   2
loop_
 _symmetry_equiv_pos_site_id
 _symmetry_equiv_pos_as_xyz
  1  'x, y, z'
loop_
 _atom_site_type_symbol
 _atom_site_label
 _atom_site_symmetry_multiplicity
 _atom_site_fract_x
 _atom_site_fract_y
 _atom_site_fract_z
 _atom_site_occupancy
  Tb  Tb0  1  0.191140  0.807927  0.750000  1
  Tb  Tb1  1  0.191140  0.383214  0.750000  1
  Nd  Nd2  1  0.379328  0.189664  0.250000  1
  Nd  Nd3  1  0.809978  0.190124  0.250000  1
  Nd  Nd4  1  0.809978  0.619852  0.250000  1
  Nd  Nd5  1  0.620008  0.810005  0.750000  1
  Al  Al6  1  0.436179  0.873194  0.250000  1
  Al  Al7  1  0.126449  0.563225  0.250000  1
  Al  Al8  1  0.436179  0.562986  0.250000  1
  Al  Al9  1  0.561368  0.124968  0.750000  1
  Al  Al10  1  0.876880  0.438440  0.750000  1
  Al  Al11  1  0.561368  0.436400  0.750000  1
  Al  Al12  1  0.164458  0.836513  0.426703  1
  Al  Al13  1  0.164458  0.327947  0.426703  1
  Al  Al14  1  0.671807  0.835905  0.425750  1
  Al  Al15  1  0.837488  0.164272  0.577284  1
  Al  Al16  1  0.837488  0.673214  0.577284  1
  Al  Al17  1  0.325836  0.162917  0.577353  1
  Al  Al18  1  0.837488  0.164272  0.922716  1
  Al  Al19  1  0.837488  0.673214  0.922716  1
  Al  Al20  1  0.325836  0.162917  0.922647  1
  Al  Al21  1  0.164458  0.836513  0.073297  1
  Al  Al22  1  0.164458  0.327947  0.073297  1
  Al  Al23  1  0.671807  0.835905  0.074250  1
  Al  Al24  1  0.331963  0.665982  0.528013  1
  Al  Al25  1  0.666446  0.333223  0.477839  1
  Al  Al26  1  0.666446  0.333223  0.022161  1
  Al  Al27  1  0.331963  0.665982  0.971987  1
  Al  Al28  1  0.000368  0.000184  0.250000  1
  Al  Al29  1  0.003137  0.001569  0.750000  1
  Ru  Ru30  1  0.000232  0.000116  0.501018  1
  Ru  Ru31  1  0.000232  0.000116  0.998982  1
  Rh  Rh32  1  0.498446  0.998836  0.501461  1
  Rh  Rh33  1  0.001180  0.500590  0.502028  1
  Rh  Rh34  1  0.498446  0.499611  0.501461  1
  Rh  Rh35  1  0.498446  0.998836  0.998539  1
  Rh  Rh36  1  0.001180  0.500590  0.997972  1
  Rh  Rh37  1  0.498446  0.499611  0.998539  1
