# generated using pymatgen
data_Ta6Zn6C
_symmetry_space_group_name_H-M   'P 1'
_cell_length_a   8.19348958
_cell_length_b   8.19349011
_cell_length_c   8.19349000
_cell_angle_alpha   60.00000045
_cell_angle_beta   59.99999830
_cell_angle_gamma   60.00000568
_symmetry_Int_Tables_number   1
_chemical_formula_structural   Ta6Zn6C
_chemical_formula_sum   'Ta12 Zn12 C2'
_cell_volume   388.94821641
_cell_formula_units_Z   2
loop_
 _symmetry_equiv_pos_site_id
 _symmetry_equiv_pos_as_xyz
  1  'x, y, z'
loop_
 _atom_site_type_symbol
 _atom_site_label
 _atom_site_symmetry_multiplicity
 _atom_site_fract_x
 _atom_site_fract_y
 _atom_site_fract_z
 _atom_site_occupancy
  Ta  Ta0  1  0.189318  0.810682  0.189318  1
  Ta  Ta1  1  0.439318  0.060682  0.439318  1
  Ta  Ta2  1  0.439318  0.060682  0.060682  1
  Ta  Ta3  1  0.439318  0.439318  0.060682  1
  Ta  Ta4  1  0.189318  0.810682  0.810682  1
  Ta  Ta5  1  0.060682  0.439318  0.060682  1
  Ta  Ta6  1  0.810682  0.810682  0.189318  1
  Ta  Ta7  1  0.060682  0.439318  0.439318  1
  Ta  Ta8  1  0.189318  0.189318  0.810682  1
  Ta  Ta9  1  0.810682  0.189318  0.189318  1
  Ta  Ta10  1  0.810682  0.189318  0.810682  1
  Ta  Ta11  1  0.060682  0.060682  0.439318  1
  Zn  Zn12  1  0.833541  0.499378  0.833541  1
  Zn  Zn13  1  0.416459  0.416459  0.750622  1
  Zn  Zn14  1  0.750622  0.416459  0.416459  1
  Zn  Zn15  1  0.416459  0.416459  0.416459  1
  Zn  Zn16  1  0.833541  0.833541  0.499378  1
  Zn  Zn17  1  0.416459  0.750622  0.416459  1
  Zn  Zn18  1  0.833541  0.833541  0.833541  1
  Zn  Zn19  1  0.499378  0.833541  0.833541  1
  Zn  Zn20  1  0.625000  0.125000  0.625000  1
  Zn  Zn21  1  0.625000  0.625000  0.125000  1
  Zn  Zn22  1  0.125000  0.625000  0.625000  1
  Zn  Zn23  1  0.625000  0.625000  0.625000  1
  C  C24  1  0.000000  0.000000  0.000000  1
  C  C25  1  0.250000  0.250000  0.250000  1
