# generated using pymatgen
data_Ho3TmFe12(P3Ru2)4
_symmetry_space_group_name_H-M   'P 1'
_cell_length_a   3.75035200
_cell_length_b   10.44647953
_cell_length_c   11.97307283
_cell_angle_alpha   90.03963090
_cell_angle_beta   90.00000000
_cell_angle_gamma   90.00000000
_symmetry_Int_Tables_number   1
_chemical_formula_structural   Ho3TmFe12(P3Ru2)4
_chemical_formula_sum   'Ho3 Tm1 Fe12 P12 Ru8'
_cell_volume   469.08064068
_cell_formula_units_Z   1
loop_
 _symmetry_equiv_pos_site_id
 _symmetry_equiv_pos_as_xyz
  1  'x, y, z'
loop_
 _atom_site_type_symbol
 _atom_site_label
 _atom_site_symmetry_multiplicity
 _atom_site_fract_x
 _atom_site_fract_y
 _atom_site_fract_z
 _atom_site_occupancy
  Ho  Ho0  1  0.250000  0.583082  0.709609  1
  Ho  Ho1  1  0.250000  0.917049  0.209745  1
  Ho  Ho2  1  0.750000  0.417222  0.290312  1
  Tm  Tm3  1  0.750000  0.082721  0.790383  1
  Fe  Fe4  1  0.250000  0.223973  0.175294  1
  Fe  Fe5  1  0.250000  0.275152  0.675348  1
  Fe  Fe6  1  0.750000  0.775771  0.824571  1
  Fe  Fe7  1  0.750000  0.724553  0.324679  1
  Fe  Fe8  1  0.250000  0.880932  0.699701  1
  Fe  Fe9  1  0.250000  0.619407  0.198833  1
  Fe  Fe10  1  0.750000  0.119477  0.300830  1
  Fe  Fe11  1  0.750000  0.380101  0.800939  1
  Fe  Fe12  1  0.250000  0.462110  0.934226  1
  Fe  Fe13  1  0.250000  0.038196  0.434926  1
  Fe  Fe14  1  0.750000  0.537607  0.065201  1
  Fe  Fe15  1  0.750000  0.962181  0.566302  1
  P  P16  1  0.250000  0.425057  0.112941  1
  P  P17  1  0.250000  0.074781  0.614007  1
  P  P18  1  0.750000  0.574765  0.886815  1
  P  P19  1  0.750000  0.925181  0.387221  1
  P  P20  1  0.250000  0.271794  0.860852  1
  P  P21  1  0.250000  0.227367  0.361309  1
  P  P22  1  0.750000  0.727560  0.138707  1
  P  P23  1  0.750000  0.772682  0.638871  1
  P  P24  1  0.250000  0.606043  0.385115  1
  P  P25  1  0.250000  0.894597  0.884941  1
  P  P26  1  0.750000  0.394151  0.614697  1
  P  P27  1  0.750000  0.105841  0.114759  1
  Ru  Ru28  1  0.250000  0.702577  0.984366  1
  Ru  Ru29  1  0.250000  0.797813  0.484754  1
  Ru  Ru30  1  0.750000  0.297452  0.015453  1
  Ru  Ru31  1  0.750000  0.202410  0.515435  1
  Ru  Ru32  1  0.250000  0.403200  0.485403  1
  Ru  Ru33  1  0.250000  0.096928  0.984465  1
  Ru  Ru34  1  0.750000  0.596919  0.514556  1
  Ru  Ru35  1  0.750000  0.903351  0.014435  1
