# generated using pymatgen
data_Zr4Mn7Al
_symmetry_space_group_name_H-M   'P 1'
_cell_length_a   4.94532000
_cell_length_b   4.94531848
_cell_length_c   8.30577000
_cell_angle_alpha   90.00000000
_cell_angle_beta   90.00000000
_cell_angle_gamma   120.00001014
_symmetry_Int_Tables_number   1
_chemical_formula_structural   Zr4Mn7Al
_chemical_formula_sum   'Zr4 Mn7 Al1'
_cell_volume   175.91349329
_cell_formula_units_Z   1
loop_
 _symmetry_equiv_pos_site_id
 _symmetry_equiv_pos_as_xyz
  1  'x, y, z'
loop_
 _atom_site_type_symbol
 _atom_site_label
 _atom_site_symmetry_multiplicity
 _atom_site_fract_x
 _atom_site_fract_y
 _atom_site_fract_z
 _atom_site_occupancy
  Zr  Zr0  1  0.333333  0.666667  0.063820  1
  Zr  Zr1  1  0.666667  0.333333  0.569682  1
  Zr  Zr2  1  0.666667  0.333333  0.936180  1
  Zr  Zr3  1  0.333333  0.666667  0.430318  1
  Mn  Mn4  1  0.000000  0.000000  0.000000  1
  Mn  Mn5  1  0.171612  0.343222  0.754584  1
  Mn  Mn6  1  0.828388  0.171612  0.245416  1
  Mn  Mn7  1  0.828388  0.656778  0.245416  1
  Mn  Mn8  1  0.171612  0.828388  0.754584  1
  Mn  Mn9  1  0.656778  0.828388  0.754584  1
  Mn  Mn10  1  0.343222  0.171612  0.245416  1
  Al  Al11  1  0.000000  0.000000  0.500000  1
