# generated using pymatgen
data_Hf2Si(PRu2)6
_symmetry_space_group_name_H-M   'P 1'
_cell_length_a   9.36217800
_cell_length_b   9.36217751
_cell_length_c   3.90317100
_cell_angle_alpha   90.00000000
_cell_angle_beta   90.00000000
_cell_angle_gamma   119.99999465
_symmetry_Int_Tables_number   1
_chemical_formula_structural   Hf2Si(PRu2)6
_chemical_formula_sum   'Hf2 Si1 P6 Ru12'
_cell_volume   296.27977006
_cell_formula_units_Z   1
loop_
 _symmetry_equiv_pos_site_id
 _symmetry_equiv_pos_as_xyz
  1  'x, y, z'
loop_
 _atom_site_type_symbol
 _atom_site_label
 _atom_site_symmetry_multiplicity
 _atom_site_fract_x
 _atom_site_fract_y
 _atom_site_fract_z
 _atom_site_occupancy
  Hf  Hf0  1  0.666667  0.333333  0.500000  1
  Hf  Hf1  1  0.333333  0.666667  0.000000  1
  Si  Si2  1  0.000000  0.000000  0.000000  1
  P  P3  1  0.598859  0.720645  0.500000  1
  P  P4  1  0.279355  0.878214  0.500000  1
  P  P5  1  0.121786  0.401141  0.500000  1
  P  P6  1  0.883762  0.574101  0.000000  1
  P  P7  1  0.425899  0.309660  0.000000  1
  P  P8  1  0.690340  0.116238  0.000000  1
  Ru  Ru9  1  0.548680  0.944371  0.500000  1
  Ru  Ru10  1  0.395693  0.451320  0.500000  1
  Ru  Ru11  1  0.910549  0.121872  0.500000  1
  Ru  Ru12  1  0.211324  0.089451  0.500000  1
  Ru  Ru13  1  0.878128  0.788676  0.500000  1
  Ru  Ru14  1  0.717119  0.885033  0.000000  1
  Ru  Ru15  1  0.114967  0.832086  0.000000  1
  Ru  Ru16  1  0.167914  0.282881  0.000000  1
  Ru  Ru17  1  0.430589  0.073306  0.000000  1
  Ru  Ru18  1  0.926694  0.357285  0.000000  1
  Ru  Ru19  1  0.642715  0.569411  0.000000  1
  Ru  Ru20  1  0.055629  0.604307  0.500000  1
