# generated using pymatgen
data_TcMo3H4
_symmetry_space_group_name_H-M   'P 1'
_cell_length_a   2.88814400
_cell_length_b   4.58621400
_cell_length_c   4.97881400
_cell_angle_alpha   89.99866324
_cell_angle_beta   89.99849229
_cell_angle_gamma   90.00006243
_symmetry_Int_Tables_number   1
_chemical_formula_structural   TcMo3H4
_chemical_formula_sum   'Tc1 Mo3 H4'
_cell_volume   65.94760997
_cell_formula_units_Z   1
loop_
 _symmetry_equiv_pos_site_id
 _symmetry_equiv_pos_as_xyz
  1  'x, y, z'
loop_
 _atom_site_type_symbol
 _atom_site_label
 _atom_site_symmetry_multiplicity
 _atom_site_fract_x
 _atom_site_fract_y
 _atom_site_fract_z
 _atom_site_occupancy
  Tc  Tc0  1  0.124972  0.478630  0.657535  1
  Mo  Mo1  1  0.125004  0.978636  0.991458  1
  Mo  Mo2  1  0.624994  0.978651  0.493603  1
  Mo  Mo3  1  0.624958  0.478636  0.160148  1
  H  H4  1  0.124979  0.229171  0.324275  1
  H  H5  1  0.624990  0.723919  0.826910  1
  H  H6  1  0.124977  0.728059  0.324280  1
  H  H7  1  0.624991  0.233203  0.826940  1
