# generated using pymatgen
data_Ba4Ga7PIr8
_symmetry_space_group_name_H-M   'P 1'
_cell_length_a   6.27588545
_cell_length_b   8.51699304
_cell_length_c   8.51211035
_cell_angle_alpha   76.92702057
_cell_angle_beta   89.55784119
_cell_angle_gamma   89.49468930
_symmetry_Int_Tables_number   1
_chemical_formula_structural   Ba4Ga7PIr8
_chemical_formula_sum   'Ba4 Ga7 P1 Ir8'
_cell_volume   443.16965202
_cell_formula_units_Z   1
loop_
 _symmetry_equiv_pos_site_id
 _symmetry_equiv_pos_as_xyz
  1  'x, y, z'
loop_
 _atom_site_type_symbol
 _atom_site_label
 _atom_site_symmetry_multiplicity
 _atom_site_fract_x
 _atom_site_fract_y
 _atom_site_fract_z
 _atom_site_occupancy
  Ba  Ba0  1  0.374962  0.999040  0.250722  1
  Ba  Ba1  1  0.875280  0.500648  0.751188  1
  Ba  Ba2  1  0.118298  0.500883  0.250825  1
  Ba  Ba3  1  0.631512  0.998704  0.749290  1
  Ga  Ga4  1  0.375326  0.318302  0.930759  1
  Ga  Ga5  1  0.133018  0.177172  0.570920  1
  Ga  Ga6  1  0.623842  0.323894  0.431534  1
  Ga  Ga7  1  0.874766  0.822826  0.426578  1
  Ga  Ga8  1  0.874803  0.178904  0.071175  1
  Ga  Ga9  1  0.616797  0.678658  0.074103  1
  Ga  Ga10  1  0.127872  0.818860  0.925750  1
  P  P11  1  0.374243  0.673007  0.577144  1
  Ir  Ir12  1  0.366824  0.393548  0.628343  1
  Ir  Ir13  1  0.604957  0.627863  0.383056  1
  Ir  Ir14  1  0.144320  0.867959  0.621530  1
  Ir  Ir15  1  0.127428  0.119334  0.870621  1
  Ir  Ir16  1  0.621575  0.379146  0.130643  1
  Ir  Ir17  1  0.872994  0.877697  0.126569  1
  Ir  Ir18  1  0.383533  0.621015  0.856869  1
  Ir  Ir19  1  0.877652  0.122537  0.372379  1
