# generated using pymatgen
data_RbS8Br3
_symmetry_space_group_name_H-M   'P 1'
_cell_length_a   8.31631351
_cell_length_b   11.59756380
_cell_length_c   10.76750266
_cell_angle_alpha   98.34287911
_cell_angle_beta   101.75092169
_cell_angle_gamma   110.85179902
_symmetry_Int_Tables_number   1
_chemical_formula_structural   RbS8Br3
_chemical_formula_sum   'Rb2 S16 Br6'
_cell_volume   922.89538893
_cell_formula_units_Z   2
loop_
 _symmetry_equiv_pos_site_id
 _symmetry_equiv_pos_as_xyz
  1  'x, y, z'
loop_
 _atom_site_type_symbol
 _atom_site_label
 _atom_site_symmetry_multiplicity
 _atom_site_fract_x
 _atom_site_fract_y
 _atom_site_fract_z
 _atom_site_occupancy
  Rb  Rb0  1  0.117828  0.855950  0.096636  1
  Rb  Rb1  1  0.882172  0.144041  0.903355  1
  S  S2  1  0.772136  0.514903  0.124213  1
  S  S3  1  0.939292  0.423888  0.179746  1
  S  S4  1  0.201223  0.550150  0.214329  1
  S  S5  1  0.699864  0.578122  0.284028  1
  S  S6  1  0.866676  0.766725  0.366415  1
  S  S7  1  0.311705  0.627343  0.412031  1
  S  S8  1  0.296564  0.801816  0.456749  1
  S  S9  1  0.928650  0.220913  0.479951  1
  S  S10  1  0.071324  0.779026  0.520019  1
  S  S11  1  0.703421  0.198144  0.543234  1
  S  S12  1  0.688264  0.372608  0.587930  1
  S  S13  1  0.133312  0.233253  0.633556  1
  S  S14  1  0.300107  0.421878  0.715895  1
  S  S15  1  0.798758  0.449817  0.785632  1
  S  S16  1  0.060669  0.576089  0.820203  1
  S  S17  1  0.227882  0.485107  0.875734  1
  Br  Br18  1  0.677361  0.840877  0.978002  1
  Br  Br19  1  0.543310  0.862433  0.169060  1
  Br  Br20  1  0.163872  0.170782  0.206325  1
  Br  Br21  1  0.836118  0.829172  0.793745  1
  Br  Br22  1  0.456806  0.137759  0.831081  1
  Br  Br23  1  0.322685  0.159206  0.022131  1
