# generated using pymatgen
data_Sm4Zn4Ir3Au
_symmetry_space_group_name_H-M   'P 1'
_cell_length_a   4.39708700
_cell_length_b   7.00165601
_cell_length_c   7.98762200
_cell_angle_alpha   90.00216854
_cell_angle_beta   90.00000000
_cell_angle_gamma   90.00000000
_symmetry_Int_Tables_number   1
_chemical_formula_structural   Sm4Zn4Ir3Au
_chemical_formula_sum   'Sm4 Zn4 Ir3 Au1'
_cell_volume   245.91404448
_cell_formula_units_Z   1
loop_
 _symmetry_equiv_pos_site_id
 _symmetry_equiv_pos_as_xyz
  1  'x, y, z'
loop_
 _atom_site_type_symbol
 _atom_site_label
 _atom_site_symmetry_multiplicity
 _atom_site_fract_x
 _atom_site_fract_y
 _atom_site_fract_z
 _atom_site_occupancy
  Sm  Sm0  1  0.250000  0.019917  0.320363  1
  Sm  Sm1  1  0.250000  0.538524  0.191542  1
  Sm  Sm2  1  0.750000  0.975695  0.690578  1
  Sm  Sm3  1  0.750000  0.483447  0.799665  1
  Zn  Zn4  1  0.250000  0.148672  0.923802  1
  Zn  Zn5  1  0.250000  0.654019  0.569232  1
  Zn  Zn6  1  0.750000  0.834806  0.069788  1
  Zn  Zn7  1  0.750000  0.349715  0.434869  1
  Ir  Ir8  1  0.250000  0.267589  0.609845  1
  Ir  Ir9  1  0.250000  0.766027  0.890301  1
  Ir  Ir10  1  0.750000  0.733891  0.391059  1
  Au  Au11  1  0.750000  0.227697  0.108955  1
