# generated using pymatgen
data_Lu2VIr3
_symmetry_space_group_name_H-M   'P 1'
_cell_length_a   5.08647067
_cell_length_b   5.08647121
_cell_length_c   5.08647266
_cell_angle_alpha   65.68424290
_cell_angle_beta   65.68422373
_cell_angle_gamma   65.68424051
_symmetry_Int_Tables_number   1
_chemical_formula_structural   Lu2VIr3
_chemical_formula_sum   'Lu2 V1 Ir3'
_cell_volume   104.53389055
_cell_formula_units_Z   1
loop_
 _symmetry_equiv_pos_site_id
 _symmetry_equiv_pos_as_xyz
  1  'x, y, z'
loop_
 _atom_site_type_symbol
 _atom_site_label
 _atom_site_symmetry_multiplicity
 _atom_site_fract_x
 _atom_site_fract_y
 _atom_site_fract_z
 _atom_site_occupancy
  Lu  Lu0  1  0.627858  0.627858  0.627858  1
  Lu  Lu1  1  0.372142  0.372142  0.372142  1
  V  V2  1  0.000000  0.000000  0.000000  1
  Ir  Ir3  1  0.000000  0.500000  0.000000  1
  Ir  Ir4  1  0.500000  0.000000  0.000000  1
  Ir  Ir5  1  0.000000  0.000000  0.500000  1
