# generated using pymatgen
data_Mn5PtCl18
_symmetry_space_group_name_H-M   'P 1'
_cell_length_a   6.30890629
_cell_length_b   6.13622138
_cell_length_c   20.04478573
_cell_angle_alpha   88.24117453
_cell_angle_beta   90.85523906
_cell_angle_gamma   119.09860397
_symmetry_Int_Tables_number   1
_chemical_formula_structural   Mn5PtCl18
_chemical_formula_sum   'Mn5 Pt1 Cl18'
_cell_volume   677.72886518
_cell_formula_units_Z   1
loop_
 _symmetry_equiv_pos_site_id
 _symmetry_equiv_pos_as_xyz
  1  'x, y, z'
loop_
 _atom_site_type_symbol
 _atom_site_label
 _atom_site_symmetry_multiplicity
 _atom_site_fract_x
 _atom_site_fract_y
 _atom_site_fract_z
 _atom_site_occupancy
  Mn  Mn0  1  0.881630  0.440815  0.000000  1
  Mn  Mn1  1  0.554592  0.113758  0.333996  1
  Mn  Mn2  1  0.891463  0.778609  0.332833  1
  Mn  Mn3  1  0.891464  0.112855  0.667168  1
  Mn  Mn4  1  0.554592  0.440836  0.666005  1
  Pt  Pt5  1  0.222672  0.111336  0.000000  1
  Cl  Cl6  1  0.529933  0.400918  0.068688  1
  Cl  Cl7  1  0.208126  0.785195  0.068030  1
  Cl  Cl8  1  0.925068  0.114666  0.068713  1
  Cl  Cl9  1  0.886136  0.072854  0.263691  1
  Cl  Cl10  1  0.271093  0.831575  0.265029  1
  Cl  Cl11  1  0.606165  0.455947  0.266135  1
  Cl  Cl12  1  0.840154  0.436747  0.400605  1
  Cl  Cl13  1  0.560010  0.819961  0.403169  1
  Cl  Cl14  1  0.175111  0.060739  0.401679  1
  Cl  Cl15  1  0.175112  0.114372  0.598322  1
  Cl  Cl16  1  0.560009  0.740050  0.596831  1
  Cl  Cl17  1  0.840155  0.403407  0.599395  1
  Cl  Cl18  1  0.606165  0.150218  0.733865  1
  Cl  Cl19  1  0.271091  0.439517  0.734971  1
  Cl  Cl20  1  0.886137  0.813281  0.736310  1
  Cl  Cl21  1  0.925067  0.810401  0.931287  1
  Cl  Cl22  1  0.208126  0.422930  0.931971  1
  Cl  Cl23  1  0.529934  0.129016  0.931312  1
