# generated using pymatgen
data_Ti12Re5MoIr6
_symmetry_space_group_name_H-M   'P 1'
_cell_length_a   4.39751300
_cell_length_b   6.22706900
_cell_length_c   13.22800100
_cell_angle_alpha   90.00000000
_cell_angle_beta   89.99993059
_cell_angle_gamma   90.00000000
_symmetry_Int_Tables_number   1
_chemical_formula_structural   Ti12Re5MoIr6
_chemical_formula_sum   'Ti12 Re5 Mo1 Ir6'
_cell_volume   362.23051146
_cell_formula_units_Z   1
loop_
 _symmetry_equiv_pos_site_id
 _symmetry_equiv_pos_as_xyz
  1  'x, y, z'
loop_
 _atom_site_type_symbol
 _atom_site_label
 _atom_site_symmetry_multiplicity
 _atom_site_fract_x
 _atom_site_fract_y
 _atom_site_fract_z
 _atom_site_occupancy
  Ti  Ti0  1  0.500000  0.249823  0.000000  1
  Ti  Ti1  1  0.500000  0.750179  0.000000  1
  Ti  Ti2  1  0.000199  0.249371  0.166264  1
  Ti  Ti3  1  0.000199  0.750629  0.166264  1
  Ti  Ti4  1  0.500192  0.250001  0.333018  1
  Ti  Ti5  1  0.500192  0.749997  0.333018  1
  Ti  Ti6  1  0.000000  0.249687  0.500000  1
  Ti  Ti7  1  0.000000  0.750313  0.500000  1
  Ti  Ti8  1  0.499807  0.250001  0.666982  1
  Ti  Ti9  1  0.499807  0.749997  0.666982  1
  Ti  Ti10  1  0.999801  0.249371  0.833736  1
  Ti  Ti11  1  0.999801  0.750629  0.833736  1
  Re  Re12  1  0.500042  0.499999  0.167131  1
  Re  Re13  1  0.000037  0.000000  0.333898  1
  Re  Re14  1  0.500000  0.499999  0.500000  1
  Re  Re15  1  0.999963  0.000000  0.666102  1
  Re  Re16  1  0.499957  0.499999  0.832869  1
  Mo  Mo17  1  0.000000  0.000000  0.000000  1
  Ir  Ir18  1  0.000000  0.499999  0.000000  1
  Ir  Ir19  1  0.500000  0.000000  0.167410  1
  Ir  Ir20  1  0.999998  0.499999  0.333536  1
  Ir  Ir21  1  0.500000  0.000000  0.500000  1
  Ir  Ir22  1  0.000002  0.499999  0.666464  1
  Ir  Ir23  1  0.499999  0.000000  0.832589  1
