# generated using pymatgen
data_DyZr3(SiRh2)8
_symmetry_space_group_name_H-M   'P 1'
_cell_length_a   4.09691500
_cell_length_b   8.95947050
_cell_length_c   11.26164839
_cell_angle_alpha   89.58153481
_cell_angle_beta   90.00000000
_cell_angle_gamma   90.00000000
_symmetry_Int_Tables_number   1
_chemical_formula_structural   DyZr3(SiRh2)8
_chemical_formula_sum   'Dy1 Zr3 Si8 Rh16'
_cell_volume   413.36117019
_cell_formula_units_Z   1
loop_
 _symmetry_equiv_pos_site_id
 _symmetry_equiv_pos_as_xyz
  1  'x, y, z'
loop_
 _atom_site_type_symbol
 _atom_site_label
 _atom_site_symmetry_multiplicity
 _atom_site_fract_x
 _atom_site_fract_y
 _atom_site_fract_z
 _atom_site_occupancy
  Dy  Dy0  1  0.750000  0.647522  0.674620  1
  Zr  Zr1  1  0.250000  0.145849  0.825262  1
  Zr  Zr2  1  0.250000  0.354412  0.323902  1
  Zr  Zr3  1  0.750000  0.856397  0.176375  1
  Si  Si4  1  0.250000  0.409638  0.636802  1
  Si  Si5  1  0.250000  0.087409  0.138875  1
  Si  Si6  1  0.750000  0.586372  0.362609  1
  Si  Si7  1  0.750000  0.914514  0.861960  1
  Si  Si8  1  0.250000  0.614974  0.057520  1
  Si  Si9  1  0.250000  0.881697  0.558490  1
  Si  Si10  1  0.750000  0.384165  0.941561  1
  Si  Si11  1  0.750000  0.116123  0.440514  1
  Rh  Rh12  1  0.250000  0.610746  0.494630  1
  Rh  Rh13  1  0.250000  0.884068  0.006756  1
  Rh  Rh14  1  0.750000  0.381000  0.498367  1
  Rh  Rh15  1  0.750000  0.115207  0.998171  1
  Rh  Rh16  1  0.250000  0.694830  0.262324  1
  Rh  Rh17  1  0.250000  0.821184  0.771646  1
  Rh  Rh18  1  0.750000  0.304562  0.735027  1
  Rh  Rh19  1  0.750000  0.191550  0.233352  1
  Rh  Rh20  1  0.250000  0.169720  0.556417  1
  Rh  Rh21  1  0.250000  0.328754  0.059895  1
  Rh  Rh22  1  0.750000  0.829490  0.439551  1
  Rh  Rh23  1  0.750000  0.672425  0.944393  1
  Rh  Rh24  1  0.250000  0.006644  0.340355  1
  Rh  Rh25  1  0.250000  0.488774  0.842457  1
  Rh  Rh26  1  0.750000  0.996506  0.656966  1
  Rh  Rh27  1  0.750000  0.505468  0.161203  1
