# generated using pymatgen
data_La12HoErRh6
_symmetry_space_group_name_H-M   'P 1'
_cell_length_a   10.23905200
_cell_length_b   10.23905324
_cell_length_c   6.43531900
_cell_angle_alpha   90.00000000
_cell_angle_beta   90.00000000
_cell_angle_gamma   120.00000245
_symmetry_Int_Tables_number   1
_chemical_formula_structural   La12HoErRh6
_chemical_formula_sum   'La12 Ho1 Er1 Rh6'
_cell_volume   584.27896428
_cell_formula_units_Z   1
loop_
 _symmetry_equiv_pos_site_id
 _symmetry_equiv_pos_as_xyz
  1  'x, y, z'
loop_
 _atom_site_type_symbol
 _atom_site_label
 _atom_site_symmetry_multiplicity
 _atom_site_fract_x
 _atom_site_fract_y
 _atom_site_fract_z
 _atom_site_occupancy
  La  La0  1  0.873596  0.747193  0.764490  1
  La  La1  1  0.252807  0.126404  0.764490  1
  La  La2  1  0.873596  0.126404  0.764490  1
  La  La3  1  0.126471  0.252942  0.264484  1
  La  La4  1  0.747058  0.873529  0.264484  1
  La  La5  1  0.126471  0.873529  0.264484  1
  La  La6  1  0.457520  0.915042  0.594167  1
  La  La7  1  0.084958  0.542480  0.594167  1
  La  La8  1  0.457520  0.542480  0.594167  1
  La  La9  1  0.542416  0.084830  0.094198  1
  La  La10  1  0.915170  0.457584  0.094198  1
  La  La11  1  0.542416  0.457584  0.094198  1
  Ho  Ho12  1  0.666667  0.333333  0.567396  1
  Er  Er13  1  0.333333  0.666667  0.066837  1
  Rh  Rh14  1  0.190614  0.381229  0.854847  1
  Rh  Rh15  1  0.618771  0.809386  0.854847  1
  Rh  Rh16  1  0.190614  0.809386  0.854847  1
  Rh  Rh17  1  0.809453  0.618907  0.354752  1
  Rh  Rh18  1  0.381093  0.190547  0.354752  1
  Rh  Rh19  1  0.809453  0.190547  0.354752  1
