# generated using pymatgen
data_Pr2Ga(SiIr2)3
_symmetry_space_group_name_H-M   'P 1'
_cell_length_a   6.76394310
_cell_length_b   6.75920142
_cell_length_c   6.76394383
_cell_angle_alpha   130.43823929
_cell_angle_beta   113.99999884
_cell_angle_gamma   86.85009811
_symmetry_Int_Tables_number   1
_chemical_formula_structural   Pr2Ga(SiIr2)3
_chemical_formula_sum   'Pr2 Ga1 Si3 Ir6'
_cell_volume   205.08467120
_cell_formula_units_Z   1
loop_
 _symmetry_equiv_pos_site_id
 _symmetry_equiv_pos_as_xyz
  1  'x, y, z'
loop_
 _atom_site_type_symbol
 _atom_site_label
 _atom_site_symmetry_multiplicity
 _atom_site_fract_x
 _atom_site_fract_y
 _atom_site_fract_z
 _atom_site_occupancy
  Pr  Pr0  1  0.249209  0.967956  0.718747  1
  Pr  Pr1  1  0.751547  0.021565  0.270018  1
  Ga  Ga2  1  0.088740  0.300231  0.211491  1
  Si  Si3  1  0.932477  0.725970  0.793493  1
  Si  Si4  1  0.403684  0.619371  0.215687  1
  Si  Si5  1  0.573935  0.366683  0.792748  1
  Ir  Ir6  1  0.525111  0.503970  0.524751  1
  Ir  Ir7  1  0.979220  0.503970  0.978860  1
  Ir  Ir8  1  0.283436  0.996374  0.278263  1
  Ir  Ir9  1  0.718111  0.996374  0.712938  1
  Ir  Ir10  1  0.233633  0.498767  0.737870  1
  Ir  Ir11  1  0.760897  0.498767  0.265134  1
