# generated using pymatgen
data_Tb5HoMnCo17P12
_symmetry_space_group_name_H-M   'P 1'
_cell_length_a   3.70261100
_cell_length_b   10.54325203
_cell_length_c   12.21532003
_cell_angle_alpha   90.00826317
_cell_angle_beta   90.00000000
_cell_angle_gamma   90.00000000
_symmetry_Int_Tables_number   1
_chemical_formula_structural   Tb5HoMnCo17P12
_chemical_formula_sum   'Tb5 Ho1 Mn1 Co17 P12'
_cell_volume   476.85629509
_cell_formula_units_Z   1
loop_
 _symmetry_equiv_pos_site_id
 _symmetry_equiv_pos_as_xyz
  1  'x, y, z'
loop_
 _atom_site_type_symbol
 _atom_site_label
 _atom_site_symmetry_multiplicity
 _atom_site_fract_x
 _atom_site_fract_y
 _atom_site_fract_z
 _atom_site_occupancy
  Tb  Tb0  1  0.000000  0.500079  0.522919  1
  Tb  Tb1  1  0.500000  0.999927  0.477923  1
  Tb  Tb2  1  0.500000  0.181792  0.206061  1
  Tb  Tb3  1  0.000000  0.682812  0.794951  1
  Tb  Tb4  1  0.000000  0.317146  0.795095  1
  Ho  Ho5  1  0.500000  0.817882  0.206206  1
  Mn  Mn6  1  0.500000  0.500124  0.159021  1
  Co  Co7  1  0.000000  0.999996  0.840704  1
  Co  Co8  1  0.500000  0.500038  0.702967  1
  Co  Co9  1  0.000000  0.999327  0.296388  1
  Co  Co10  1  0.000000  0.500284  0.986161  1
  Co  Co11  1  0.500000  0.999779  0.014227  1
  Co  Co12  1  0.500000  0.333299  0.994352  1
  Co  Co13  1  0.500000  0.666909  0.994645  1
  Co  Co14  1  0.000000  0.166201  0.005534  1
  Co  Co15  1  0.000000  0.833532  0.005899  1
  Co  Co16  1  0.500000  0.296812  0.430088  1
  Co  Co17  1  0.500000  0.703332  0.429711  1
  Co  Co18  1  0.000000  0.203223  0.569175  1
  Co  Co19  1  0.000000  0.796748  0.568934  1
  Co  Co20  1  0.500000  0.879677  0.709205  1
  Co  Co21  1  0.500000  0.120324  0.709260  1
  Co  Co22  1  0.000000  0.620825  0.289864  1
  Co  Co23  1  0.000000  0.379913  0.290167  1
  P  P24  1  0.500000  0.500049  0.883067  1
  P  P25  1  0.000000  0.999440  0.116934  1
  P  P26  1  0.500000  0.499987  0.345295  1
  P  P27  1  0.000000  0.000018  0.657087  1
  P  P28  1  0.500000  0.310017  0.615936  1
  P  P29  1  0.500000  0.690059  0.615797  1
  P  P30  1  0.000000  0.189235  0.384312  1
  P  P31  1  0.000000  0.810729  0.383637  1
  P  P32  1  0.500000  0.848363  0.893045  1
  P  P33  1  0.500000  0.151591  0.893206  1
  P  P34  1  0.000000  0.653730  0.106324  1
  P  P35  1  0.000000  0.346799  0.105901  1
