# generated using pymatgen
data_La10Tc3Pd
_symmetry_space_group_name_H-M   'P 1'
_cell_length_a   9.08681902
_cell_length_b   9.15230168
_cell_length_c   7.49374463
_cell_angle_alpha   84.55008036
_cell_angle_beta   84.57439327
_cell_angle_gamma   43.45325659
_symmetry_Int_Tables_number   1
_chemical_formula_structural   La10Tc3Pd
_chemical_formula_sum   'La10 Tc3 Pd1'
_cell_volume   426.39099015
_cell_formula_units_Z   1
loop_
 _symmetry_equiv_pos_site_id
 _symmetry_equiv_pos_as_xyz
  1  'x, y, z'
loop_
 _atom_site_type_symbol
 _atom_site_label
 _atom_site_symmetry_multiplicity
 _atom_site_fract_x
 _atom_site_fract_y
 _atom_site_fract_z
 _atom_site_occupancy
  La  La0  1  0.009575  0.808451  0.921007  1
  La  La1  1  0.204940  0.984946  0.597151  1
  La  La2  1  0.982253  0.205094  0.096921  1
  La  La3  1  0.784035  0.032505  0.399266  1
  La  La4  1  0.366503  0.200788  0.823290  1
  La  La5  1  0.779486  0.641874  0.679984  1
  La  La6  1  0.644722  0.785587  0.183011  1
  La  La7  1  0.210528  0.352699  0.312665  1
  La  La8  1  0.582785  0.418876  0.749713  1
  La  La9  1  0.424474  0.582260  0.242074  1
  Tc  Tc10  1  0.389734  0.828403  0.917875  1
  Tc  Tc11  1  0.831527  0.388697  0.425861  1
  Tc  Tc12  1  0.612027  0.167934  0.077744  1
  Pd  Pd13  1  0.177410  0.601885  0.573439  1
