# generated using pymatgen
data_Dy2Lu6Re(B8Os)3
_symmetry_space_group_name_H-M   'P 1'
_cell_length_a   3.61708400
_cell_length_b   9.06004464
_cell_length_c   11.44280106
_cell_angle_alpha   90.08951921
_cell_angle_beta   90.00000000
_cell_angle_gamma   90.00000000
_symmetry_Int_Tables_number   1
_chemical_formula_structural   Dy2Lu6Re(B8Os)3
_chemical_formula_sum   'Dy2 Lu6 Re1 B24 Os3'
_cell_volume   374.99091808
_cell_formula_units_Z   1
loop_
 _symmetry_equiv_pos_site_id
 _symmetry_equiv_pos_as_xyz
  1  'x, y, z'
loop_
 _atom_site_type_symbol
 _atom_site_label
 _atom_site_symmetry_multiplicity
 _atom_site_fract_x
 _atom_site_fract_y
 _atom_site_fract_z
 _atom_site_occupancy
  Dy  Dy0  1  0.000000  0.321618  0.414619  1
  Dy  Dy1  1  0.000000  0.680971  0.588244  1
  Lu  Lu2  1  0.000000  0.821493  0.083025  1
  Lu  Lu3  1  0.000000  0.177192  0.913363  1
  Lu  Lu4  1  0.000000  0.943529  0.371772  1
  Lu  Lu5  1  0.000000  0.055780  0.628174  1
  Lu  Lu6  1  0.000000  0.443020  0.126762  1
  Lu  Lu7  1  0.000000  0.556616  0.873606  1
  Re  Re8  1  0.000000  0.863102  0.821956  1
  B  B9  1  0.500000  0.554278  0.432780  1
  B  B10  1  0.500000  0.445952  0.567591  1
  B  B11  1  0.500000  0.053139  0.066454  1
  B  B12  1  0.500000  0.947609  0.934124  1
  B  B13  1  0.500000  0.750105  0.418734  1
  B  B14  1  0.500000  0.250054  0.581087  1
  B  B15  1  0.500000  0.248792  0.079707  1
  B  B16  1  0.500000  0.750677  0.920306  1
  B  B17  1  0.500000  0.791742  0.264678  1
  B  B18  1  0.500000  0.208022  0.734505  1
  B  B19  1  0.500000  0.291267  0.233381  1
  B  B20  1  0.500000  0.708194  0.766711  1
  B  B21  1  0.500000  0.630672  0.183836  1
  B  B22  1  0.500000  0.368782  0.815809  1
  B  B23  1  0.500000  0.130213  0.314859  1
  B  B24  1  0.500000  0.870140  0.685549  1
  B  B25  1  0.500000  0.981446  0.212315  1
  B  B26  1  0.500000  0.019500  0.787681  1
  B  B27  1  0.500000  0.482389  0.286468  1
  B  B28  1  0.500000  0.517558  0.714082  1
  B  B29  1  0.500000  0.604187  0.029381  1
  B  B30  1  0.500000  0.394016  0.971103  1
  B  B31  1  0.500000  0.103220  0.471155  1
  B  B32  1  0.500000  0.897407  0.527887  1
  Os  Os33  1  0.000000  0.638355  0.319712  1
  Os  Os34  1  0.000000  0.361723  0.679765  1
  Os  Os35  1  0.000000  0.137244  0.178816  1
