# generated using pymatgen
data_Dy8Cu3Si12Pt
_symmetry_space_group_name_H-M   'P 1'
_cell_length_a   8.03840500
_cell_length_b   8.03840517
_cell_length_c   8.11774300
_cell_angle_alpha   90.00000000
_cell_angle_beta   90.00000000
_cell_angle_gamma   119.99998695
_symmetry_Int_Tables_number   1
_chemical_formula_structural   Dy8Cu3Si12Pt
_chemical_formula_sum   'Dy8 Cu3 Si12 Pt1'
_cell_volume   454.26132463
_cell_formula_units_Z   1
loop_
 _symmetry_equiv_pos_site_id
 _symmetry_equiv_pos_as_xyz
  1  'x, y, z'
loop_
 _atom_site_type_symbol
 _atom_site_label
 _atom_site_symmetry_multiplicity
 _atom_site_fract_x
 _atom_site_fract_y
 _atom_site_fract_z
 _atom_site_occupancy
  Dy  Dy0  1  0.000000  0.000000  0.248491  1
  Dy  Dy1  1  0.000000  0.000000  0.751296  1
  Dy  Dy2  1  0.001067  0.500533  0.249547  1
  Dy  Dy3  1  0.499467  0.500533  0.249547  1
  Dy  Dy4  1  0.500696  0.001393  0.750429  1
  Dy  Dy5  1  0.499467  0.998933  0.249547  1
  Dy  Dy6  1  0.500696  0.499304  0.750429  1
  Dy  Dy7  1  0.998607  0.499304  0.750429  1
  Cu  Cu8  1  0.333333  0.666667  0.996811  1
  Cu  Cu9  1  0.333333  0.666667  0.502554  1
  Cu  Cu10  1  0.666667  0.333333  0.003117  1
  Si  Si11  1  0.169064  0.338127  0.999968  1
  Si  Si12  1  0.661873  0.830936  0.999968  1
  Si  Si13  1  0.169238  0.338475  0.500553  1
  Si  Si14  1  0.339040  0.169521  0.999920  1
  Si  Si15  1  0.169064  0.830936  0.999968  1
  Si  Si16  1  0.661525  0.830762  0.500553  1
  Si  Si17  1  0.830479  0.660960  0.999920  1
  Si  Si18  1  0.331105  0.165553  0.499230  1
  Si  Si19  1  0.169238  0.830762  0.500553  1
  Si  Si20  1  0.834447  0.668895  0.499230  1
  Si  Si21  1  0.830479  0.169521  0.999920  1
  Si  Si22  1  0.834447  0.165553  0.499230  1
  Pt  Pt23  1  0.666667  0.333333  0.498789  1
