# generated using pymatgen
data_AcGdSb5
_symmetry_space_group_name_H-M   'P 1'
_cell_length_a   4.41441700
_cell_length_b   13.85864323
_cell_length_c   15.33492900
_cell_angle_alpha   78.44445595
_cell_angle_beta   90.00000000
_cell_angle_gamma   90.00000000
_symmetry_Int_Tables_number   1
_chemical_formula_structural   AcGdSb5
_chemical_formula_sum   'Ac4 Gd4 Sb20'
_cell_volume   919.14213907
_cell_formula_units_Z   4
loop_
 _symmetry_equiv_pos_site_id
 _symmetry_equiv_pos_as_xyz
  1  'x, y, z'
loop_
 _atom_site_type_symbol
 _atom_site_label
 _atom_site_symmetry_multiplicity
 _atom_site_fract_x
 _atom_site_fract_y
 _atom_site_fract_z
 _atom_site_occupancy
  Ac  Ac0  1  0.250000  0.666026  0.580465  1
  Ac  Ac1  1  0.750000  0.333974  0.419535  1
  Ac  Ac2  1  0.250000  0.948424  0.362800  1
  Ac  Ac3  1  0.750000  0.051576  0.637200  1
  Gd  Gd4  1  0.250000  0.398366  0.778521  1
  Gd  Gd5  1  0.750000  0.601634  0.221479  1
  Gd  Gd6  1  0.250000  0.661756  0.860862  1
  Gd  Gd7  1  0.750000  0.338244  0.139138  1
  Sb  Sb8  1  0.250000  0.146056  0.788685  1
  Sb  Sb9  1  0.750000  0.853944  0.211315  1
  Sb  Sb10  1  0.250000  0.145303  0.470282  1
  Sb  Sb11  1  0.750000  0.854697  0.529718  1
  Sb  Sb12  1  0.250000  0.153458  0.171594  1
  Sb  Sb13  1  0.750000  0.846542  0.828406  1
  Sb  Sb14  1  0.250000  0.421615  0.976818  1
  Sb  Sb15  1  0.750000  0.578385  0.023182  1
  Sb  Sb16  1  0.750000  0.032987  0.889837  1
  Sb  Sb17  1  0.250000  0.967013  0.110163  1
  Sb  Sb18  1  0.750000  0.143479  0.310237  1
  Sb  Sb19  1  0.250000  0.856521  0.689763  1
  Sb  Sb20  1  0.750000  0.291679  0.939558  1
  Sb  Sb21  1  0.250000  0.708321  0.060442  1
  Sb  Sb22  1  0.750000  0.298582  0.654035  1
  Sb  Sb23  1  0.250000  0.701418  0.345965  1
  Sb  Sb24  1  0.750000  0.570822  0.749913  1
  Sb  Sb25  1  0.250000  0.429178  0.250087  1
  Sb  Sb26  1  0.750000  0.578871  0.432970  1
  Sb  Sb27  1  0.250000  0.421129  0.567030  1
