# generated using pymatgen
data_SmEr3(LuPt)4
_symmetry_space_group_name_H-M   'P 1'
_cell_length_a   4.74074400
_cell_length_b   7.09340547
_cell_length_c   8.62192105
_cell_angle_alpha   90.03058559
_cell_angle_beta   90.00000000
_cell_angle_gamma   90.00000000
_symmetry_Int_Tables_number   1
_chemical_formula_structural   SmEr3(LuPt)4
_chemical_formula_sum   'Sm1 Er3 Lu4 Pt4'
_cell_volume   289.93808735
_cell_formula_units_Z   1
loop_
 _symmetry_equiv_pos_site_id
 _symmetry_equiv_pos_as_xyz
  1  'x, y, z'
loop_
 _atom_site_type_symbol
 _atom_site_label
 _atom_site_symmetry_multiplicity
 _atom_site_fract_x
 _atom_site_fract_y
 _atom_site_fract_z
 _atom_site_occupancy
  Sm  Sm0  1  0.750000  0.513154  0.827113  1
  Er  Er1  1  0.250000  0.985991  0.328616  1
  Er  Er2  1  0.250000  0.486072  0.171922  1
  Er  Er3  1  0.750000  0.014078  0.669620  1
  Lu  Lu4  1  0.250000  0.354838  0.574187  1
  Lu  Lu5  1  0.250000  0.856551  0.923686  1
  Lu  Lu6  1  0.750000  0.644554  0.422728  1
  Lu  Lu7  1  0.750000  0.143919  0.076914  1
  Pt  Pt8  1  0.250000  0.250702  0.907212  1
  Pt  Pt9  1  0.250000  0.756140  0.593566  1
  Pt  Pt10  1  0.750000  0.748074  0.099274  1
  Pt  Pt11  1  0.750000  0.245926  0.405162  1
