# generated using pymatgen
data_Dy5Si5P7Ru5Rh14
_symmetry_space_group_name_H-M   'P 1'
_cell_length_a   12.74770096
_cell_length_b   12.71955790
_cell_length_c   3.94239700
_cell_angle_alpha   90.00000000
_cell_angle_beta   90.00000000
_cell_angle_gamma   120.21709275
_symmetry_Int_Tables_number   1
_chemical_formula_structural   Dy5Si5P7Ru5Rh14
_chemical_formula_sum   'Dy5 Si5 P7 Ru5 Rh14'
_cell_volume   552.38345068
_cell_formula_units_Z   1
loop_
 _symmetry_equiv_pos_site_id
 _symmetry_equiv_pos_as_xyz
  1  'x, y, z'
loop_
 _atom_site_type_symbol
 _atom_site_label
 _atom_site_symmetry_multiplicity
 _atom_site_fract_x
 _atom_site_fract_y
 _atom_site_fract_z
 _atom_site_occupancy
  Dy  Dy0  1  0.665680  0.331331  0.000000  1
  Dy  Dy1  1  0.333824  0.668135  0.000000  1
  Dy  Dy2  1  0.814273  0.003535  0.500000  1
  Dy  Dy3  1  0.182027  0.183526  0.500000  1
  Dy  Dy4  1  0.998276  0.814282  0.500000  1
  Si  Si5  1  0.630290  0.999530  0.000000  1
  Si  Si6  1  0.369336  0.368235  0.000000  1
  Si  Si7  1  0.998761  0.629264  0.000000  1
  Si  Si8  1  0.685111  0.523337  0.500000  1
  Si  Si9  1  0.836763  0.311741  0.500000  1
  P  P10  1  0.312164  0.831635  0.500000  1
  P  P11  1  0.521447  0.695352  0.500000  1
  P  P12  1  0.178851  0.997116  0.000000  1
  P  P13  1  0.817907  0.819980  0.000000  1
  P  P14  1  0.998137  0.182038  0.000000  1
  P  P15  1  0.476438  0.163649  0.500000  1
  P  P16  1  0.172708  0.480478  0.500000  1
  Ru  Ru17  1  0.508646  0.872435  0.500000  1
  Ru  Ru18  1  0.718044  0.723788  0.500000  1
  Ru  Ru19  1  0.007756  0.284444  0.500000  1
  Ru  Ru20  1  0.819871  0.192616  0.000000  1
  Ru  Ru21  1  0.280011  0.997284  0.500000  1
  Rh  Rh22  1  0.620402  0.802308  0.000000  1
  Rh  Rh23  1  0.185741  0.380839  0.000000  1
  Rh  Rh24  1  0.372667  0.177912  0.000000  1
  Rh  Rh25  1  0.194726  0.817325  0.000000  1
  Rh  Rh26  1  0.808637  0.628970  0.000000  1
  Rh  Rh27  1  0.872241  0.513575  0.500000  1
  Rh  Rh28  1  0.483919  0.354129  0.500000  1
  Rh  Rh29  1  0.635771  0.127906  0.500000  1
  Rh  Rh30  1  0.128881  0.636808  0.500000  1
  Rh  Rh31  1  0.367478  0.493227  0.500000  1
  Rh  Rh32  1  0.000455  0.000802  0.000000  1
  Rh  Rh33  1  0.446203  0.001167  0.000000  1
  Rh  Rh34  1  0.558740  0.546904  0.000000  1
  Rh  Rh35  1  0.997821  0.444395  0.000000  1
