# generated using pymatgen
data_Dy2Th3P12Ru19
_symmetry_space_group_name_H-M   'P 1'
_cell_length_a   12.62181300
_cell_length_b   12.62181351
_cell_length_c   4.00075700
_cell_angle_alpha   90.00000000
_cell_angle_beta   90.00000000
_cell_angle_gamma   120.00000128
_symmetry_Int_Tables_number   1
_chemical_formula_structural   Dy2Th3P12Ru19
_chemical_formula_sum   'Dy2 Th3 P12 Ru19'
_cell_volume   551.97105028
_cell_formula_units_Z   1
loop_
 _symmetry_equiv_pos_site_id
 _symmetry_equiv_pos_as_xyz
  1  'x, y, z'
loop_
 _atom_site_type_symbol
 _atom_site_label
 _atom_site_symmetry_multiplicity
 _atom_site_fract_x
 _atom_site_fract_y
 _atom_site_fract_z
 _atom_site_occupancy
  Dy  Dy0  1  0.666667  0.333333  0.000000  1
  Dy  Dy1  1  0.333333  0.666667  0.000000  1
  Th  Th2  1  0.813219  0.000000  0.500000  1
  Th  Th3  1  0.186781  0.186781  0.500000  1
  Th  Th4  1  0.000000  0.813219  0.500000  1
  P  P5  1  0.623545  0.000000  0.000000  1
  P  P6  1  0.376455  0.376455  0.000000  1
  P  P7  1  0.000000  0.623545  0.000000  1
  P  P8  1  0.695002  0.520494  0.500000  1
  P  P9  1  0.825493  0.304998  0.500000  1
  P  P10  1  0.304998  0.825493  0.500000  1
  P  P11  1  0.520494  0.695002  0.500000  1
  P  P12  1  0.188454  0.000000  0.000000  1
  P  P13  1  0.811546  0.811546  0.000000  1
  P  P14  1  0.000000  0.188454  0.000000  1
  P  P15  1  0.479506  0.174507  0.500000  1
  P  P16  1  0.174507  0.479506  0.500000  1
  Ru  Ru17  1  0.621241  0.806452  0.000000  1
  Ru  Ru18  1  0.185210  0.378759  0.000000  1
  Ru  Ru19  1  0.378759  0.185210  0.000000  1
  Ru  Ru20  1  0.193548  0.814790  0.000000  1
  Ru  Ru21  1  0.806452  0.621241  0.000000  1
  Ru  Ru22  1  0.874314  0.506826  0.500000  1
  Ru  Ru23  1  0.493174  0.367490  0.500000  1
  Ru  Ru24  1  0.632510  0.125686  0.500000  1
  Ru  Ru25  1  0.125686  0.632510  0.500000  1
  Ru  Ru26  1  0.367490  0.493174  0.500000  1
  Ru  Ru27  1  0.506826  0.874314  0.500000  1
  Ru  Ru28  1  0.000000  0.000000  0.000000  1
  Ru  Ru29  1  0.713547  0.713547  0.500000  1
  Ru  Ru30  1  0.000000  0.286453  0.500000  1
  Ru  Ru31  1  0.444337  0.000000  0.000000  1
  Ru  Ru32  1  0.555663  0.555663  0.000000  1
  Ru  Ru33  1  0.000000  0.444337  0.000000  1
  Ru  Ru34  1  0.814790  0.193548  0.000000  1
  Ru  Ru35  1  0.286453  0.000000  0.500000  1
