# generated using pymatgen
data_Ba3EuGa2(SbTe5)2
_symmetry_space_group_name_H-M   'P 1'
_cell_length_a   9.69448964
_cell_length_b   10.05047577
_cell_length_c   13.60228500
_cell_angle_alpha   90.00000000
_cell_angle_beta   90.00000000
_cell_angle_gamma   90.08488429
_symmetry_Int_Tables_number   1
_chemical_formula_structural   Ba3EuGa2(SbTe5)2
_chemical_formula_sum   'Ba6 Eu2 Ga4 Sb4 Te20'
_cell_volume   1325.32675573
_cell_formula_units_Z   2
loop_
 _symmetry_equiv_pos_site_id
 _symmetry_equiv_pos_as_xyz
  1  'x, y, z'
loop_
 _atom_site_type_symbol
 _atom_site_label
 _atom_site_symmetry_multiplicity
 _atom_site_fract_x
 _atom_site_fract_y
 _atom_site_fract_z
 _atom_site_occupancy
  Ba  Ba0  1  0.505016  0.871842  0.171157  1
  Ba  Ba1  1  0.994984  0.628158  0.671157  1
  Ba  Ba2  1  0.993918  0.871203  0.173474  1
  Ba  Ba3  1  0.506082  0.628797  0.673474  1
  Ba  Ba4  1  0.495469  0.130595  0.827221  1
  Ba  Ba5  1  0.004531  0.369405  0.327221  1
  Eu  Eu6  1  0.004878  0.132264  0.826959  1
  Eu  Eu7  1  0.495122  0.367736  0.326959  1
  Ga  Ga8  1  0.250135  0.336063  0.600555  1
  Ga  Ga9  1  0.249865  0.163937  0.100555  1
  Ga  Ga10  1  0.744818  0.661660  0.399060  1
  Ga  Ga11  1  0.755182  0.838340  0.899060  1
  Sb  Sb12  1  0.247385  0.989877  0.526397  1
  Sb  Sb13  1  0.252615  0.510123  0.026397  1
  Sb  Sb14  1  0.748407  0.014237  0.474177  1
  Sb  Sb15  1  0.751593  0.485763  0.974177  1
  Te  Te16  1  0.030251  0.178601  0.568274  1
  Te  Te17  1  0.469749  0.321399  0.068274  1
  Te  Te18  1  0.531485  0.822762  0.440055  1
  Te  Te19  1  0.968515  0.677238  0.940055  1
  Te  Te20  1  0.963287  0.820572  0.436955  1
  Te  Te21  1  0.536713  0.679428  0.936955  1
  Te  Te22  1  0.467166  0.181048  0.556442  1
  Te  Te23  1  0.032834  0.318952  0.056442  1
  Te  Te24  1  0.245062  0.895575  0.725566  1
  Te  Te25  1  0.254938  0.604425  0.225566  1
  Te  Te26  1  0.742357  0.116395  0.276789  1
  Te  Te27  1  0.757643  0.383605  0.776789  1
  Te  Te28  1  0.245898  0.401946  0.789060  1
  Te  Te29  1  0.254102  0.098054  0.289060  1
  Te  Te30  1  0.740260  0.584584  0.213764  1
  Te  Te31  1  0.759740  0.915416  0.713764  1
  Te  Te32  1  0.242426  0.959433  0.983108  1
  Te  Te33  1  0.257574  0.540567  0.483108  1
  Te  Te34  1  0.758719  0.048108  0.010987  1
  Te  Te35  1  0.741281  0.451892  0.510987  1
