# generated using pymatgen
data_Er4Tm8TlCo4Os
_symmetry_space_group_name_H-M   'P 1'
_cell_length_a   8.18819156
_cell_length_b   8.18441796
_cell_length_c   8.18637644
_cell_angle_alpha   111.39484891
_cell_angle_beta   110.80583853
_cell_angle_gamma   106.26727617
_symmetry_Int_Tables_number   1
_chemical_formula_structural   Er4Tm8TlCo4Os
_chemical_formula_sum   'Er4 Tm8 Tl1 Co4 Os1'
_cell_volume   421.29120035
_cell_formula_units_Z   1
loop_
 _symmetry_equiv_pos_site_id
 _symmetry_equiv_pos_as_xyz
  1  'x, y, z'
loop_
 _atom_site_type_symbol
 _atom_site_label
 _atom_site_symmetry_multiplicity
 _atom_site_fract_x
 _atom_site_fract_y
 _atom_site_fract_z
 _atom_site_occupancy
  Er  Er0  1  0.580496  0.274718  0.305330  1
  Er  Er1  1  0.179848  0.224025  0.404460  1
  Er  Er2  1  0.180582  0.775693  0.956053  1
  Er  Er3  1  0.684900  0.491068  0.806807  1
  Tm  Tm4  1  0.684465  0.877399  0.193454  1
  Tm  Tm5  1  0.969285  0.274191  0.694680  1
  Tm  Tm6  1  0.031043  0.725241  0.306153  1
  Tm  Tm7  1  0.315315  0.122113  0.806527  1
  Tm  Tm8  1  0.315517  0.509163  0.193249  1
  Tm  Tm9  1  0.819851  0.224447  0.044303  1
  Tm  Tm10  1  0.819912  0.775861  0.594980  1
  Tm  Tm11  1  0.419889  0.725716  0.694520  1
  Tl  Tl12  1  0.499962  0.999426  0.500062  1
  Co  Co13  1  0.887244  0.887870  0.999678  1
  Co  Co14  1  0.373301  0.499942  0.873908  1
  Co  Co15  1  0.626539  0.500214  0.126856  1
  Co  Co16  1  0.111298  0.112482  0.998648  1
  Os  Os17  1  0.000551  0.500429  0.500331  1
