# generated using pymatgen
data_Zr6Ti2Al15Ru(PtRh)3
_symmetry_space_group_name_H-M   'P 1'
_cell_length_a   8.85900606
_cell_length_b   8.83505389
_cell_length_c   8.85900500
_cell_angle_alpha   119.97996378
_cell_angle_beta   119.97323045
_cell_angle_gamma   90.11826519
_symmetry_Int_Tables_number   1
_chemical_formula_structural   Zr6Ti2Al15Ru(PtRh)3
_chemical_formula_sum   'Zr6 Ti2 Al15 Ru1 Pt3 Rh3'
_cell_volume   490.14191845
_cell_formula_units_Z   1
loop_
 _symmetry_equiv_pos_site_id
 _symmetry_equiv_pos_as_xyz
  1  'x, y, z'
loop_
 _atom_site_type_symbol
 _atom_site_label
 _atom_site_symmetry_multiplicity
 _atom_site_fract_x
 _atom_site_fract_y
 _atom_site_fract_z
 _atom_site_occupancy
  Zr  Zr0  1  0.790904  0.290823  0.076088  1
  Zr  Zr1  1  0.215517  0.292813  0.499657  1
  Zr  Zr2  1  0.209148  0.707276  0.500988  1
  Zr  Zr3  1  0.212257  0.715057  0.920864  1
  Zr  Zr4  1  0.793755  0.713238  0.502730  1
  Zr  Zr5  1  0.784273  0.286824  0.499557  1
  Ti  Ti6  1  0.380501  0.122119  0.742227  1
  Ti  Ti7  1  0.379448  0.636009  0.263042  1
  Al  Al8  1  0.996585  0.494814  0.498646  1
  Al  Al9  1  0.159774  0.338021  0.177469  1
  Al  Al10  1  0.161189  0.987056  0.825975  1
  Al  Al11  1  0.156774  0.341647  0.820002  1
  Al  Al12  1  0.519423  0.340217  0.182632  1
  Al  Al13  1  0.838085  0.659060  0.820424  1
  Al  Al14  1  0.842248  0.020139  0.178602  1
  Al  Al15  1  0.840513  0.658982  0.175155  1
  Al  Al16  1  0.485777  0.659748  0.819978  1
  Al  Al17  1  0.377525  0.125155  0.263235  1
  Al  Al18  1  0.860683  0.123035  0.745675  1
  Al  Al19  1  0.618434  0.877837  0.259321  1
  Al  Al20  1  0.620451  0.362531  0.738342  1
  Al  Al21  1  0.621240  0.874601  0.737179  1
  Al  Al22  1  0.138652  0.876168  0.254239  1
  Ru  Ru23  1  0.497267  0.500188  0.496624  1
  Pt  Pt24  1  0.000377  0.999108  0.499306  1
  Pt  Pt25  1  0.500208  0.999059  0.998732  1
  Pt  Pt26  1  0.499006  0.500809  0.001867  1
  Rh  Rh27  1  0.001826  0.499675  0.001700  1
  Rh  Rh28  1  0.000110  0.999817  0.999027  1
  Rh  Rh29  1  0.498046  0.998169  0.500719  1
