# generated using pymatgen
data_Tm4CrFe12P12Ir7
_symmetry_space_group_name_H-M   'P 1'
_cell_length_a   3.76761000
_cell_length_b   10.25115767
_cell_length_c   12.16456620
_cell_angle_alpha   90.14054162
_cell_angle_beta   90.00000000
_cell_angle_gamma   90.00000000
_symmetry_Int_Tables_number   1
_chemical_formula_structural   Tm4CrFe12P12Ir7
_chemical_formula_sum   'Tm4 Cr1 Fe12 P12 Ir7'
_cell_volume   469.82289194
_cell_formula_units_Z   1
loop_
 _symmetry_equiv_pos_site_id
 _symmetry_equiv_pos_as_xyz
  1  'x, y, z'
loop_
 _atom_site_type_symbol
 _atom_site_label
 _atom_site_symmetry_multiplicity
 _atom_site_fract_x
 _atom_site_fract_y
 _atom_site_fract_z
 _atom_site_occupancy
  Tm  Tm0  1  0.250000  0.580318  0.714807  1
  Tm  Tm1  1  0.250000  0.918459  0.211313  1
  Tm  Tm2  1  0.750000  0.419336  0.286995  1
  Tm  Tm3  1  0.750000  0.079319  0.787737  1
  Cr  Cr4  1  0.250000  0.702738  0.990061  1
  Fe  Fe5  1  0.250000  0.223402  0.169912  1
  Fe  Fe6  1  0.250000  0.276393  0.670309  1
  Fe  Fe7  1  0.750000  0.778870  0.829270  1
  Fe  Fe8  1  0.750000  0.723490  0.328816  1
  Fe  Fe9  1  0.250000  0.877547  0.695357  1
  Fe  Fe10  1  0.250000  0.623444  0.196541  1
  Fe  Fe11  1  0.750000  0.122464  0.303975  1
  Fe  Fe12  1  0.750000  0.378372  0.804582  1
  Fe  Fe13  1  0.250000  0.459524  0.936936  1
  Fe  Fe14  1  0.250000  0.041775  0.436556  1
  Fe  Fe15  1  0.750000  0.538257  0.064312  1
  Fe  Fe16  1  0.750000  0.958263  0.562399  1
  P  P17  1  0.250000  0.430006  0.114118  1
  P  P18  1  0.250000  0.071099  0.613902  1
  P  P19  1  0.750000  0.575919  0.888428  1
  P  P20  1  0.750000  0.927999  0.384920  1
  P  P21  1  0.250000  0.273223  0.851476  1
  P  P22  1  0.250000  0.227640  0.351224  1
  P  P23  1  0.750000  0.727074  0.143772  1
  P  P24  1  0.750000  0.772627  0.648207  1
  P  P25  1  0.250000  0.603517  0.375204  1
  P  P26  1  0.250000  0.893408  0.877329  1
  P  P27  1  0.750000  0.396798  0.625308  1
  P  P28  1  0.750000  0.104363  0.124132  1
  Ir  Ir29  1  0.250000  0.791870  0.483829  1
  Ir  Ir30  1  0.750000  0.292207  0.015022  1
  Ir  Ir31  1  0.750000  0.208156  0.516380  1
  Ir  Ir32  1  0.250000  0.405276  0.475855  1
  Ir  Ir33  1  0.250000  0.096587  0.973416  1
  Ir  Ir34  1  0.750000  0.594469  0.524855  1
  Ir  Ir35  1  0.750000  0.905790  0.022746  1
