# generated using pymatgen
data_Li2Ac3AlIr3
_symmetry_space_group_name_H-M   'P 1'
_cell_length_a   7.50368100
_cell_length_b   7.50368022
_cell_length_c   4.27385500
_cell_angle_alpha   90.00000000
_cell_angle_beta   90.00000000
_cell_angle_gamma   120.64516418
_symmetry_Int_Tables_number   1
_chemical_formula_structural   Li2Ac3AlIr3
_chemical_formula_sum   'Li2 Ac3 Al1 Ir3'
_cell_volume   207.03264578
_cell_formula_units_Z   1
loop_
 _symmetry_equiv_pos_site_id
 _symmetry_equiv_pos_as_xyz
  1  'x, y, z'
loop_
 _atom_site_type_symbol
 _atom_site_label
 _atom_site_symmetry_multiplicity
 _atom_site_fract_x
 _atom_site_fract_y
 _atom_site_fract_z
 _atom_site_occupancy
  Li  Li0  1  0.226703  0.997871  0.000000  1
  Li  Li1  1  0.997871  0.226702  0.000000  1
  Ac  Ac2  1  0.588389  0.006132  0.500000  1
  Ac  Ac3  1  0.410061  0.410061  0.500000  1
  Ac  Ac4  1  0.006132  0.588388  0.500000  1
  Al  Al5  1  0.771562  0.771563  0.000000  1
  Ir  Ir6  1  0.674946  0.362842  0.000000  1
  Ir  Ir7  1  0.362842  0.674946  0.000000  1
  Ir  Ir8  1  0.961497  0.961497  0.500000  1
