# generated using pymatgen
data_TbY3TmIr2
_symmetry_space_group_name_H-M   'P 1'
_cell_length_a   6.51282426
_cell_length_b   7.22188301
_cell_length_c   8.52460570
_cell_angle_alpha   96.62202032
_cell_angle_beta   112.45771806
_cell_angle_gamma   89.99999470
_symmetry_Int_Tables_number   1
_chemical_formula_structural   TbY3TmIr2
_chemical_formula_sum   'Tb2 Y6 Tm2 Ir4'
_cell_volume   367.64982091
_cell_formula_units_Z   2
loop_
 _symmetry_equiv_pos_site_id
 _symmetry_equiv_pos_as_xyz
  1  'x, y, z'
loop_
 _atom_site_type_symbol
 _atom_site_label
 _atom_site_symmetry_multiplicity
 _atom_site_fract_x
 _atom_site_fract_y
 _atom_site_fract_z
 _atom_site_occupancy
  Tb  Tb0  1  0.969715  0.917767  0.181276  1
  Tb  Tb1  1  0.788438  0.582233  0.818724  1
  Y  Y2  1  0.030625  0.080945  0.818809  1
  Y  Y3  1  0.211818  0.419055  0.181191  1
  Y  Y4  1  0.653295  0.817568  0.440926  1
  Y  Y5  1  0.212369  0.682432  0.559074  1
  Y  Y6  1  0.346836  0.182479  0.559633  1
  Y  Y7  1  0.787204  0.317521  0.440367  1
  Tm  Tm8  1  0.429184  0.750000  0.000000  1
  Tm  Tm9  1  0.570638  0.250000  0.000000  1
  Ir  Ir10  1  0.821304  0.572549  0.215310  1
  Ir  Ir11  1  0.605994  0.927451  0.784690  1
  Ir  Ir12  1  0.178573  0.428311  0.784563  1
  Ir  Ir13  1  0.394009  0.071689  0.215437  1
