# generated using pymatgen
data_Tb3ErAl18(PdRh2)2
_symmetry_space_group_name_H-M   'P 1'
_cell_length_a   7.57996504
_cell_length_b   7.58376275
_cell_length_c   9.47457318
_cell_angle_alpha   89.98285695
_cell_angle_beta   89.95531419
_cell_angle_gamma   119.55102295
_symmetry_Int_Tables_number   1
_chemical_formula_structural   Tb3ErAl18(PdRh2)2
_chemical_formula_sum   'Tb3 Er1 Al18 Pd2 Rh4'
_cell_volume   473.79346476
_cell_formula_units_Z   1
loop_
 _symmetry_equiv_pos_site_id
 _symmetry_equiv_pos_as_xyz
  1  'x, y, z'
loop_
 _atom_site_type_symbol
 _atom_site_label
 _atom_site_symmetry_multiplicity
 _atom_site_fract_x
 _atom_site_fract_y
 _atom_site_fract_z
 _atom_site_occupancy
  Tb  Tb0  1  0.995393  0.670083  0.750496  1
  Tb  Tb1  1  0.004923  0.329949  0.249454  1
  Tb  Tb2  1  0.669899  0.995200  0.750519  1
  Er  Er3  1  0.329598  0.004793  0.249268  1
  Al  Al4  1  0.127104  0.126937  0.750989  1
  Al  Al5  1  0.873778  0.873260  0.249001  1
  Al  Al6  1  0.001835  0.331115  0.577557  1
  Al  Al7  1  0.999076  0.669700  0.421744  1
  Al  Al8  1  0.000878  0.665986  0.075081  1
  Al  Al9  1  0.334766  0.999874  0.926444  1
  Al  Al10  1  0.999921  0.334802  0.925616  1
  Al  Al11  1  0.664306  0.000126  0.075147  1
  Al  Al12  1  0.668018  0.998245  0.421746  1
  Al  Al13  1  0.331185  0.001750  0.576747  1
  Al  Al14  1  0.332410  0.331770  0.049666  1
  Al  Al15  1  0.667604  0.667562  0.951271  1
  Al  Al16  1  0.668847  0.668817  0.555836  1
  Al  Al17  1  0.331217  0.330467  0.443143  1
  Al  Al18  1  0.340287  0.547117  0.753996  1
  Al  Al19  1  0.658914  0.451835  0.246068  1
  Al  Al20  1  0.546975  0.340100  0.753981  1
  Al  Al21  1  0.452593  0.660295  0.246087  1
  Pd  Pd22  1  0.672147  0.327567  0.499741  1
  Pd  Pd23  1  0.327684  0.672406  0.499770  1
  Rh  Rh24  1  0.328305  0.672073  0.000323  1
  Rh  Rh25  1  0.671419  0.327894  0.000345  1
  Rh  Rh26  1  0.000472  0.000159  0.499477  1
  Rh  Rh27  1  0.000449  0.000120  0.000486  1
