# generated using pymatgen
data_Sm8Dy12Si15Pt
_symmetry_space_group_name_H-M   'P 1'
_cell_length_a   7.43469013
_cell_length_b   7.81957373
_cell_length_c   14.76322900
_cell_angle_alpha   90.00000000
_cell_angle_beta   90.00000000
_cell_angle_gamma   90.02737634
_symmetry_Int_Tables_number   1
_chemical_formula_structural   Sm8Dy12Si15Pt
_chemical_formula_sum   'Sm8 Dy12 Si15 Pt1'
_cell_volume   858.27657152
_cell_formula_units_Z   1
loop_
 _symmetry_equiv_pos_site_id
 _symmetry_equiv_pos_as_xyz
  1  'x, y, z'
loop_
 _atom_site_type_symbol
 _atom_site_label
 _atom_site_symmetry_multiplicity
 _atom_site_fract_x
 _atom_site_fract_y
 _atom_site_fract_z
 _atom_site_occupancy
  Sm  Sm0  1  0.021150  0.182942  0.097114  1
  Sm  Sm1  1  0.981452  0.819751  0.906189  1
  Sm  Sm2  1  0.479721  0.680019  0.904980  1
  Sm  Sm3  1  0.981452  0.819751  0.593811  1
  Sm  Sm4  1  0.520365  0.319341  0.096572  1
  Sm  Sm5  1  0.021150  0.182942  0.402886  1
  Sm  Sm6  1  0.520365  0.319341  0.403428  1
  Sm  Sm7  1  0.479721  0.680019  0.595020  1
  Dy  Dy8  1  0.151068  0.517210  0.750000  1
  Dy  Dy9  1  0.844873  0.486881  0.250000  1
  Dy  Dy10  1  0.345531  0.015423  0.250000  1
  Dy  Dy11  1  0.661525  0.987639  0.750000  1
  Dy  Dy12  1  0.316265  0.175448  0.624685  1
  Dy  Dy13  1  0.679297  0.822835  0.375921  1
  Dy  Dy14  1  0.178361  0.680568  0.376368  1
  Dy  Dy15  1  0.679297  0.822835  0.124079  1
  Dy  Dy16  1  0.825077  0.319447  0.624163  1
  Dy  Dy17  1  0.316265  0.175448  0.875315  1
  Dy  Dy18  1  0.825077  0.319447  0.875837  1
  Dy  Dy19  1  0.178361  0.680568  0.123632  1
  Si  Si20  1  0.973057  0.893764  0.250000  1
  Si  Si21  1  0.472824  0.608618  0.250000  1
  Si  Si22  1  0.525283  0.394440  0.750000  1
  Si  Si23  1  0.275258  0.870465  0.750000  1
  Si  Si24  1  0.727856  0.125218  0.250000  1
  Si  Si25  1  0.227557  0.376339  0.250000  1
  Si  Si26  1  0.764826  0.620479  0.750000  1
  Si  Si27  1  0.150368  0.470928  0.538253  1
  Si  Si28  1  0.851054  0.530878  0.461113  1
  Si  Si29  1  0.351991  0.970213  0.460993  1
  Si  Si30  1  0.851054  0.530878  0.038887  1
  Si  Si31  1  0.648739  0.029931  0.538779  1
  Si  Si32  1  0.150368  0.470928  0.961747  1
  Si  Si33  1  0.648739  0.029931  0.961221  1
  Si  Si34  1  0.351991  0.970213  0.039007  1
  Pt  Pt35  1  0.022661  0.098922  0.750000  1
