# generated using pymatgen
data_ThAl10ReTc
_symmetry_space_group_name_H-M   'P 1'
_cell_length_a   6.94401127
_cell_length_b   6.93553793
_cell_length_c   9.24955800
_cell_angle_alpha   90.00000000
_cell_angle_beta   90.00000000
_cell_angle_gamma   96.89805510
_symmetry_Int_Tables_number   1
_chemical_formula_structural   ThAl10ReTc
_chemical_formula_sum   'Th2 Al20 Re2 Tc2'
_cell_volume   442.23838938
_cell_formula_units_Z   2
loop_
 _symmetry_equiv_pos_site_id
 _symmetry_equiv_pos_as_xyz
  1  'x, y, z'
loop_
 _atom_site_type_symbol
 _atom_site_label
 _atom_site_symmetry_multiplicity
 _atom_site_fract_x
 _atom_site_fract_y
 _atom_site_fract_z
 _atom_site_occupancy
  Th  Th0  1  0.873747  0.128306  0.750000  1
  Th  Th1  1  0.126253  0.871694  0.250000  1
  Al  Al2  1  0.520119  0.779497  0.750000  1
  Al  Al3  1  0.479881  0.220503  0.250000  1
  Al  Al4  1  0.593205  0.862515  0.250000  1
  Al  Al5  1  0.771940  0.773433  0.000327  1
  Al  Al6  1  0.159373  0.841199  0.600412  1
  Al  Al7  1  0.228060  0.226567  0.999673  1
  Al  Al8  1  0.138052  0.404477  0.250000  1
  Al  Al9  1  0.621412  0.377940  0.954493  1
  Al  Al10  1  0.840627  0.158801  0.100412  1
  Al  Al11  1  0.378588  0.622060  0.454493  1
  Al  Al12  1  0.159373  0.841199  0.899588  1
  Al  Al13  1  0.218178  0.480035  0.750000  1
  Al  Al14  1  0.378588  0.622060  0.045507  1
  Al  Al15  1  0.840627  0.158801  0.399588  1
  Al  Al16  1  0.621412  0.377940  0.545507  1
  Al  Al17  1  0.406795  0.137485  0.750000  1
  Al  Al18  1  0.781822  0.519965  0.250000  1
  Al  Al19  1  0.771940  0.773433  0.499673  1
  Al  Al20  1  0.228060  0.226567  0.500327  1
  Al  Al21  1  0.861948  0.595523  0.750000  1
  Re  Re22  1  0.000000  0.500000  0.500000  1
  Re  Re23  1  0.000000  0.500000  0.000000  1
  Tc  Tc24  1  0.500000  0.000000  0.000000  1
  Tc  Tc25  1  0.500000  0.000000  0.500000  1
