# generated using pymatgen
data_Yb2IrPdO7
_symmetry_space_group_name_H-M   'P 1'
_cell_length_a   7.31792306
_cell_length_b   7.22708995
_cell_length_c   7.22708946
_cell_angle_alpha   59.45870078
_cell_angle_beta   59.58335889
_cell_angle_gamma   59.58335721
_symmetry_Int_Tables_number   1
_chemical_formula_structural   Yb2IrPdO7
_chemical_formula_sum   'Yb4 Ir2 Pd2 O14'
_cell_volume   267.45465697
_cell_formula_units_Z   2
loop_
 _symmetry_equiv_pos_site_id
 _symmetry_equiv_pos_as_xyz
  1  'x, y, z'
loop_
 _atom_site_type_symbol
 _atom_site_label
 _atom_site_symmetry_multiplicity
 _atom_site_fract_x
 _atom_site_fract_y
 _atom_site_fract_z
 _atom_site_occupancy
  Yb  Yb0  1  0.125000  0.125000  0.625000  1
  Yb  Yb1  1  0.125000  0.125000  0.125000  1
  Yb  Yb2  1  0.625000  0.125000  0.125000  1
  Yb  Yb3  1  0.125000  0.625000  0.125000  1
  Ir  Ir4  1  0.625000  0.625000  0.625000  1
  Ir  Ir5  1  0.125000  0.625000  0.625000  1
  Pd  Pd6  1  0.625000  0.125000  0.625000  1
  Pd  Pd7  1  0.625000  0.625000  0.125000  1
  O  O8  1  0.947217  0.552783  0.552783  1
  O  O9  1  0.289754  0.300609  0.695225  1
  O  O10  1  0.960246  0.554775  0.949391  1
  O  O11  1  0.716010  0.283990  0.283990  1
  O  O12  1  0.535588  0.554775  0.949391  1
  O  O13  1  0.535588  0.949391  0.554775  1
  O  O14  1  0.533990  0.966010  0.966010  1
  O  O15  1  0.250023  0.249977  0.249977  1
  O  O16  1  0.302783  0.697217  0.697217  1
  O  O17  1  0.714412  0.300609  0.695225  1
  O  O18  1  0.999977  0.000023  0.000023  1
  O  O19  1  0.960246  0.949391  0.554775  1
  O  O20  1  0.289754  0.695225  0.300609  1
  O  O21  1  0.714412  0.695225  0.300609  1
