# generated using pymatgen
data_RbFe2(Sb6Pt)2
_symmetry_space_group_name_H-M   'P 1'
_cell_length_a   8.17174042
_cell_length_b   8.11552617
_cell_length_c   8.11540954
_cell_angle_alpha   109.29558416
_cell_angle_beta   109.41277256
_cell_angle_gamma   109.42270901
_symmetry_Int_Tables_number   1
_chemical_formula_structural   RbFe2(Sb6Pt)2
_chemical_formula_sum   'Rb1 Fe2 Sb12 Pt2'
_cell_volume   415.74282057
_cell_formula_units_Z   1
loop_
 _symmetry_equiv_pos_site_id
 _symmetry_equiv_pos_as_xyz
  1  'x, y, z'
loop_
 _atom_site_type_symbol
 _atom_site_label
 _atom_site_symmetry_multiplicity
 _atom_site_fract_x
 _atom_site_fract_y
 _atom_site_fract_z
 _atom_site_occupancy
  Rb  Rb0  1  0.000000  0.000000  0.000000  1
  Fe  Fe1  1  0.500000  0.000000  0.000000  1
  Fe  Fe2  1  0.500000  0.500000  0.500000  1
  Sb  Sb3  1  0.352835  0.182984  0.852301  1
  Sb  Sb4  1  0.647165  0.817016  0.147699  1
  Sb  Sb5  1  0.647194  0.499449  0.830155  1
  Sb  Sb6  1  0.352806  0.500551  0.169845  1
  Sb  Sb7  1  0.196561  0.846765  0.349743  1
  Sb  Sb8  1  0.803439  0.153235  0.650257  1
  Sb  Sb9  1  0.503065  0.836593  0.666530  1
  Sb  Sb10  1  0.496935  0.163407  0.333470  1
  Sb  Sb11  1  0.830775  0.330363  0.182847  1
  Sb  Sb12  1  0.169225  0.669637  0.817153  1
  Sb  Sb13  1  0.830774  0.647763  0.500276  1
  Sb  Sb14  1  0.169226  0.352237  0.499724  1
  Pt  Pt15  1  0.000000  0.000000  0.500000  1
  Pt  Pt16  1  0.000000  0.500000  0.000000  1
