# generated using pymatgen
data_Y4MoOs5Ru2
_symmetry_space_group_name_H-M   'P 1'
_cell_length_a   5.36623900
_cell_length_b   5.26301587
_cell_length_c   9.08957300
_cell_angle_alpha   90.00000000
_cell_angle_beta   90.00000000
_cell_angle_gamma   120.65094546
_symmetry_Int_Tables_number   1
_chemical_formula_structural   Y4MoOs5Ru2
_chemical_formula_sum   'Y4 Mo1 Os5 Ru2'
_cell_volume   220.84754466
_cell_formula_units_Z   1
loop_
 _symmetry_equiv_pos_site_id
 _symmetry_equiv_pos_as_xyz
  1  'x, y, z'
loop_
 _atom_site_type_symbol
 _atom_site_label
 _atom_site_symmetry_multiplicity
 _atom_site_fract_x
 _atom_site_fract_y
 _atom_site_fract_z
 _atom_site_occupancy
  Y  Y0  1  0.335724  0.671448  0.432755  1
  Y  Y1  1  0.671290  0.342580  0.563586  1
  Y  Y2  1  0.671290  0.342580  0.936414  1
  Y  Y3  1  0.335724  0.671448  0.067245  1
  Mo  Mo4  1  0.161231  0.322461  0.750000  1
  Os  Os5  1  0.174251  0.823120  0.750000  1
  Os  Os6  1  0.332027  0.164398  0.250000  1
  Os  Os7  1  0.822693  0.645386  0.250000  1
  Os  Os8  1  0.648870  0.823120  0.750000  1
  Os  Os9  1  0.832370  0.164398  0.250000  1
  Ru  Ru10  1  0.007266  0.014531  0.999820  1
  Ru  Ru11  1  0.007266  0.014531  0.500180  1
