# generated using pymatgen
data_Tm3Lu(AlTc3)2
_symmetry_space_group_name_H-M   'P 1'
_cell_length_a   5.32361500
_cell_length_b   5.32361576
_cell_length_c   8.90298500
_cell_angle_alpha   90.00000000
_cell_angle_beta   90.00000000
_cell_angle_gamma   119.99998904
_symmetry_Int_Tables_number   1
_chemical_formula_structural   Tm3Lu(AlTc3)2
_chemical_formula_sum   'Tm3 Lu1 Al2 Tc6'
_cell_volume   218.51419958
_cell_formula_units_Z   1
loop_
 _symmetry_equiv_pos_site_id
 _symmetry_equiv_pos_as_xyz
  1  'x, y, z'
loop_
 _atom_site_type_symbol
 _atom_site_label
 _atom_site_symmetry_multiplicity
 _atom_site_fract_x
 _atom_site_fract_y
 _atom_site_fract_z
 _atom_site_occupancy
  Tm  Tm0  1  0.333333  0.666667  0.432315  1
  Tm  Tm1  1  0.666667  0.333333  0.567606  1
  Tm  Tm2  1  0.666667  0.333333  0.932410  1
  Lu  Lu3  1  0.333333  0.666667  0.067659  1
  Al  Al4  1  0.000000  0.000000  0.500019  1
  Al  Al5  1  0.000000  0.000000  0.000037  1
  Tc  Tc6  1  0.829859  0.170141  0.249900  1
  Tc  Tc7  1  0.829859  0.659719  0.249900  1
  Tc  Tc8  1  0.340281  0.170141  0.249900  1
  Tc  Tc9  1  0.170151  0.829849  0.750084  1
  Tc  Tc10  1  0.170151  0.340302  0.750084  1
  Tc  Tc11  1  0.659698  0.829849  0.750084  1
