# generated using pymatgen
data_Cs3Rb(WO4)2
_symmetry_space_group_name_H-M   'P 1'
_cell_length_a   6.79828901
_cell_length_b   6.79842534
_cell_length_c   8.63252301
_cell_angle_alpha   90.00000116
_cell_angle_beta   90.00085306
_cell_angle_gamma   120.00065816
_symmetry_Int_Tables_number   1
_chemical_formula_structural   Cs3Rb(WO4)2
_chemical_formula_sum   'Cs3 Rb1 W2 O8'
_cell_volume   345.52020731
_cell_formula_units_Z   1
loop_
 _symmetry_equiv_pos_site_id
 _symmetry_equiv_pos_as_xyz
  1  'x, y, z'
loop_
 _atom_site_type_symbol
 _atom_site_label
 _atom_site_symmetry_multiplicity
 _atom_site_fract_x
 _atom_site_fract_y
 _atom_site_fract_z
 _atom_site_occupancy
  Cs  Cs0  1  0.000000  0.000000  0.500000  1
  Cs  Cs1  1  0.333343  0.666671  0.826252  1
  Cs  Cs2  1  0.666657  0.333329  0.173748  1
  Rb  Rb3  1  0.000000  0.000000  0.000000  1
  W  W4  1  0.333338  0.666669  0.285640  1
  W  W5  1  0.666662  0.333331  0.714360  1
  O  O6  1  0.188277  0.811724  0.211116  1
  O  O7  1  0.188277  0.376554  0.211116  1
  O  O8  1  0.623466  0.811733  0.211099  1
  O  O9  1  0.811723  0.188276  0.788884  1
  O  O10  1  0.811723  0.623446  0.788884  1
  O  O11  1  0.376534  0.188267  0.788901  1
  O  O12  1  0.333366  0.666683  0.495201  1
  O  O13  1  0.666634  0.333317  0.504799  1
