# generated using pymatgen
data_Tb7Er8Lu5Pt16
_symmetry_space_group_name_H-M   'P 1'
_cell_length_a   7.44071034
_cell_length_b   7.51942558
_cell_length_c   14.64798800
_cell_angle_alpha   90.00701775
_cell_angle_beta   90.05426410
_cell_angle_gamma   89.96350262
_symmetry_Int_Tables_number   1
_chemical_formula_structural   Tb7Er8Lu5Pt16
_chemical_formula_sum   'Tb7 Er8 Lu5 Pt16'
_cell_volume   819.55245005
_cell_formula_units_Z   1
loop_
 _symmetry_equiv_pos_site_id
 _symmetry_equiv_pos_as_xyz
  1  'x, y, z'
loop_
 _atom_site_type_symbol
 _atom_site_label
 _atom_site_symmetry_multiplicity
 _atom_site_fract_x
 _atom_site_fract_y
 _atom_site_fract_z
 _atom_site_occupancy
  Tb  Tb0  1  0.498866  0.679066  0.093661  1
  Tb  Tb1  1  0.501549  0.320895  0.593520  1
  Tb  Tb2  1  0.001368  0.179060  0.906389  1
  Tb  Tb3  1  0.000605  0.177540  0.593256  1
  Tb  Tb4  1  0.501480  0.321108  0.906307  1
  Tb  Tb5  1  0.498955  0.679548  0.407028  1
  Tb  Tb6  1  0.998652  0.820841  0.093404  1
  Er  Er7  1  0.156068  0.668176  0.876624  1
  Er  Er8  1  0.843996  0.331786  0.377597  1
  Er  Er9  1  0.343821  0.168152  0.123149  1
  Er  Er10  1  0.343485  0.167511  0.377720  1
  Er  Er11  1  0.844202  0.331657  0.123176  1
  Er  Er12  1  0.155104  0.668589  0.622416  1
  Er  Er13  1  0.656030  0.831795  0.876714  1
  Er  Er14  1  0.997850  0.819823  0.406481  1
  Lu  Lu15  1  0.681178  0.989171  0.250423  1
  Lu  Lu16  1  0.181237  0.510971  0.250433  1
  Lu  Lu17  1  0.818632  0.489514  0.749586  1
  Lu  Lu18  1  0.319363  0.010464  0.749672  1
  Lu  Lu19  1  0.655782  0.832321  0.622950  1
  Pt  Pt20  1  0.818839  0.643683  0.250795  1
  Pt  Pt21  1  0.317103  0.857105  0.250303  1
  Pt  Pt22  1  0.682300  0.142530  0.749621  1
  Pt  Pt23  1  0.182724  0.357351  0.749910  1
  Pt  Pt24  1  0.546533  0.385270  0.250096  1
  Pt  Pt25  1  0.045824  0.114081  0.250418  1
  Pt  Pt26  1  0.953243  0.884867  0.749629  1
  Pt  Pt27  1  0.454297  0.615761  0.749492  1
  Pt  Pt28  1  0.816503  0.535379  0.542225  1
  Pt  Pt29  1  0.317654  0.966998  0.957750  1
  Pt  Pt30  1  0.684858  0.030784  0.458005  1
  Pt  Pt31  1  0.182228  0.467446  0.042162  1
  Pt  Pt32  1  0.181450  0.468884  0.457059  1
  Pt  Pt33  1  0.682246  0.032926  0.042090  1
  Pt  Pt34  1  0.318333  0.966018  0.542149  1
  Pt  Pt35  1  0.817645  0.532933  0.957786  1
