# generated using pymatgen
data_Ac3In3Ag2Rh
_symmetry_space_group_name_H-M   'P 1'
_cell_length_a   8.09028500
_cell_length_b   8.09028583
_cell_length_c   4.25810600
_cell_angle_alpha   90.00000000
_cell_angle_beta   90.00000000
_cell_angle_gamma   120.00000071
_symmetry_Int_Tables_number   1
_chemical_formula_structural   Ac3In3Ag2Rh
_chemical_formula_sum   'Ac3 In3 Ag2 Rh1'
_cell_volume   241.36527202
_cell_formula_units_Z   1
loop_
 _symmetry_equiv_pos_site_id
 _symmetry_equiv_pos_as_xyz
  1  'x, y, z'
loop_
 _atom_site_type_symbol
 _atom_site_label
 _atom_site_symmetry_multiplicity
 _atom_site_fract_x
 _atom_site_fract_y
 _atom_site_fract_z
 _atom_site_occupancy
  Ac  Ac0  1  0.980311  0.576028  0.500000  1
  Ac  Ac1  1  0.423972  0.404283  0.500000  1
  Ac  Ac2  1  0.595717  0.019689  0.500000  1
  In  In3  1  0.749213  0.748274  0.000000  1
  In  In4  1  0.999061  0.250787  0.000000  1
  In  In5  1  0.251726  0.000939  0.000000  1
  Ag  Ag6  1  0.333333  0.666667  0.000000  1
  Ag  Ag7  1  0.000000  0.000000  0.500000  1
  Rh  Rh8  1  0.666667  0.333333  0.000000  1
