# generated using pymatgen
data_Lu8CdGaPd23
_symmetry_space_group_name_H-M   'P 1'
_cell_length_a   8.18868300
_cell_length_b   8.28863700
_cell_length_c   8.30511100
_cell_angle_alpha   90.00000000
_cell_angle_beta   90.00000000
_cell_angle_gamma   90.00000000
_symmetry_Int_Tables_number   1
_chemical_formula_structural   Lu8CdGaPd23
_chemical_formula_sum   'Lu8 Cd1 Ga1 Pd23'
_cell_volume   563.69297244
_cell_formula_units_Z   1
loop_
 _symmetry_equiv_pos_site_id
 _symmetry_equiv_pos_as_xyz
  1  'x, y, z'
loop_
 _atom_site_type_symbol
 _atom_site_label
 _atom_site_symmetry_multiplicity
 _atom_site_fract_x
 _atom_site_fract_y
 _atom_site_fract_z
 _atom_site_occupancy
  Lu  Lu0  1  0.251677  0.242895  0.263114  1
  Lu  Lu1  1  0.747290  0.746666  0.747920  1
  Lu  Lu2  1  0.747290  0.746666  0.252080  1
  Lu  Lu3  1  0.747290  0.253334  0.747920  1
  Lu  Lu4  1  0.251677  0.242895  0.736886  1
  Lu  Lu5  1  0.251677  0.757105  0.263114  1
  Lu  Lu6  1  0.251677  0.757105  0.736886  1
  Lu  Lu7  1  0.747290  0.253334  0.252080  1
  Cd  Cd8  1  0.265235  0.500000  0.000000  1
  Ga  Ga9  1  0.999685  0.000000  0.000000  1
  Pd  Pd10  1  0.740657  0.500000  0.000000  1
  Pd  Pd11  1  0.997652  0.259778  0.500000  1
  Pd  Pd12  1  0.497661  0.259168  0.000000  1
  Pd  Pd13  1  0.997652  0.740222  0.500000  1
  Pd  Pd14  1  0.497661  0.740832  0.000000  1
  Pd  Pd15  1  0.501569  0.000000  0.260373  1
  Pd  Pd16  1  0.259362  0.000000  0.500000  1
  Pd  Pd17  1  0.501569  0.000000  0.739627  1
  Pd  Pd18  1  0.739407  0.000000  0.500000  1
  Pd  Pd19  1  0.002984  0.500000  0.260067  1
  Pd  Pd20  1  0.002984  0.500000  0.739933  1
  Pd  Pd21  1  0.252393  0.500000  0.500000  1
  Pd  Pd22  1  0.747608  0.500000  0.500000  1
  Pd  Pd23  1  0.501980  0.253427  0.500000  1
  Pd  Pd24  1  0.501980  0.746573  0.500000  1
  Pd  Pd25  1  0.497391  0.500000  0.255395  1
  Pd  Pd26  1  0.497391  0.500000  0.744605  1
  Pd  Pd27  1  0.290684  0.000000  0.000000  1
  Pd  Pd28  1  0.707836  0.000000  0.000000  1
  Pd  Pd29  1  0.004398  0.289212  0.000000  1
  Pd  Pd30  1  0.004398  0.710788  0.000000  1
  Pd  Pd31  1  0.996998  0.000000  0.289152  1
  Pd  Pd32  1  0.996998  0.000000  0.710848  1
