# generated using pymatgen
data_Tm12InCoNi3Ru
_symmetry_space_group_name_H-M   'P 1'
_cell_length_a   8.18593438
_cell_length_b   8.18593548
_cell_length_c   8.18593526
_cell_angle_alpha   111.16038783
_cell_angle_beta   110.17910979
_cell_angle_gamma   107.10142793
_symmetry_Int_Tables_number   1
_chemical_formula_structural   Tm12InCoNi3Ru
_chemical_formula_sum   'Tm12 In1 Co1 Ni3 Ru1'
_cell_volume   421.69164192
_cell_formula_units_Z   1
loop_
 _symmetry_equiv_pos_site_id
 _symmetry_equiv_pos_as_xyz
  1  'x, y, z'
loop_
 _atom_site_type_symbol
 _atom_site_label
 _atom_site_symmetry_multiplicity
 _atom_site_fract_x
 _atom_site_fract_y
 _atom_site_fract_z
 _atom_site_occupancy
  Tm  Tm0  1  0.411972  0.220623  0.191348  1
  Tm  Tm1  1  0.587808  0.778886  0.808923  1
  Tm  Tm2  1  0.029275  0.220623  0.808652  1
  Tm  Tm3  1  0.969963  0.778886  0.191077  1
  Tm  Tm4  1  0.180611  0.282679  0.466387  1
  Tm  Tm5  1  0.816292  0.714225  0.533613  1
  Tm  Tm6  1  0.180611  0.714225  0.897933  1
  Tm  Tm7  1  0.816292  0.282679  0.102067  1
  Tm  Tm8  1  0.320372  0.624533  0.304161  1
  Tm  Tm9  1  0.683472  0.377389  0.693916  1
  Tm  Tm10  1  0.320372  0.016212  0.695839  1
  Tm  Tm11  1  0.683472  0.989556  0.306084  1
  In  In12  1  0.499417  0.499417  0.000000  1
  Co  Co13  1  0.884249  0.384249  0.500000  1
  Ni  Ni14  1  0.360969  0.999728  0.361241  1
  Ni  Ni15  1  0.638487  0.999728  0.638759  1
  Ni  Ni16  1  0.117578  0.617578  0.500000  1
  Ru  Ru17  1  0.998784  0.998784  0.000000  1
