# generated using pymatgen
data_Tm2Lu6Sc12Si15Sb
_symmetry_space_group_name_H-M   'P 1'
_cell_length_a   7.09582258
_cell_length_b   7.33505968
_cell_length_c   13.92775148
_cell_angle_alpha   90.06910224
_cell_angle_beta   88.62858680
_cell_angle_gamma   90.07635122
_symmetry_Int_Tables_number   1
_chemical_formula_structural   Tm2Lu6Sc12Si15Sb
_chemical_formula_sum   'Tm2 Lu6 Sc12 Si15 Sb1'
_cell_volume   724.70674672
_cell_formula_units_Z   1
loop_
 _symmetry_equiv_pos_site_id
 _symmetry_equiv_pos_as_xyz
  1  'x, y, z'
loop_
 _atom_site_type_symbol
 _atom_site_label
 _atom_site_symmetry_multiplicity
 _atom_site_fract_x
 _atom_site_fract_y
 _atom_site_fract_z
 _atom_site_occupancy
  Tm  Tm0  1  0.508507  0.317561  0.399797  1
  Tm  Tm1  1  0.509797  0.684935  0.599733  1
  Lu  Lu2  1  0.011007  0.177639  0.096000  1
  Lu  Lu3  1  0.988701  0.823383  0.904830  1
  Lu  Lu4  1  0.489476  0.676852  0.904464  1
  Lu  Lu5  1  0.995149  0.828906  0.597333  1
  Lu  Lu6  1  0.510431  0.323463  0.097019  1
  Lu  Lu7  1  0.998850  0.172401  0.400442  1
  Sc  Sc8  1  0.167139  0.501777  0.753905  1
  Sc  Sc9  1  0.832645  0.497345  0.251521  1
  Sc  Sc10  1  0.332641  0.003173  0.250585  1
  Sc  Sc11  1  0.669039  0.997295  0.750757  1
  Sc  Sc12  1  0.349460  0.159533  0.629868  1
  Sc  Sc13  1  0.656827  0.827508  0.373225  1
  Sc  Sc14  1  0.153238  0.681722  0.370160  1
  Sc  Sc15  1  0.665954  0.822566  0.123897  1
  Sc  Sc16  1  0.832487  0.325719  0.625668  1
  Sc  Sc17  1  0.332279  0.176349  0.875819  1
  Sc  Sc18  1  0.833614  0.322943  0.875668  1
  Sc  Sc19  1  0.166723  0.677069  0.124669  1
  Si  Si20  1  0.039191  0.114548  0.751294  1
  Si  Si21  1  0.959190  0.888355  0.246342  1
  Si  Si22  1  0.459545  0.613747  0.247810  1
  Si  Si23  1  0.538617  0.386996  0.752611  1
  Si  Si24  1  0.290381  0.866147  0.752934  1
  Si  Si25  1  0.709713  0.129622  0.246625  1
  Si  Si26  1  0.208092  0.370279  0.248523  1
  Si  Si27  1  0.794246  0.631043  0.752032  1
  Si  Si28  1  0.812629  0.539753  0.457586  1
  Si  Si29  1  0.323780  0.963727  0.459949  1
  Si  Si30  1  0.840453  0.533641  0.039680  1
  Si  Si31  1  0.677347  0.037682  0.538883  1
  Si  Si32  1  0.158486  0.466294  0.961207  1
  Si  Si33  1  0.658208  0.033957  0.960300  1
  Si  Si34  1  0.340506  0.966865  0.040133  1
  Sb  Sb35  1  0.185652  0.459198  0.538734  1
