# generated using pymatgen
data_Ce2Nd8Ir5Rh
_symmetry_space_group_name_H-M   'P 1'
_cell_length_a   11.25299500
_cell_length_b   11.25299500
_cell_length_c   6.53177300
_cell_angle_alpha   90.00000000
_cell_angle_beta   90.00000000
_cell_angle_gamma   90.00000000
_symmetry_Int_Tables_number   1
_chemical_formula_structural   Ce2Nd8Ir5Rh
_chemical_formula_sum   'Ce4 Nd16 Ir10 Rh2'
_cell_volume   827.11773876
_cell_formula_units_Z   2
loop_
 _symmetry_equiv_pos_site_id
 _symmetry_equiv_pos_as_xyz
  1  'x, y, z'
loop_
 _atom_site_type_symbol
 _atom_site_label
 _atom_site_symmetry_multiplicity
 _atom_site_fract_x
 _atom_site_fract_y
 _atom_site_fract_z
 _atom_site_occupancy
  Ce  Ce0  1  0.000000  0.000000  0.000373  1
  Ce  Ce1  1  0.500000  0.500000  0.000373  1
  Ce  Ce2  1  0.500000  0.500000  0.499627  1
  Ce  Ce3  1  0.000000  0.000000  0.499627  1
  Nd  Nd4  1  0.089886  0.290652  0.122045  1
  Nd  Nd5  1  0.790652  0.410114  0.122045  1
  Nd  Nd6  1  0.209348  0.589886  0.122045  1
  Nd  Nd7  1  0.910114  0.709348  0.122045  1
  Nd  Nd8  1  0.410114  0.790652  0.377955  1
  Nd  Nd9  1  0.589886  0.209348  0.377955  1
  Nd  Nd10  1  0.290652  0.089886  0.377955  1
  Nd  Nd11  1  0.709348  0.910114  0.377955  1
  Nd  Nd12  1  0.410541  0.209711  0.875800  1
  Nd  Nd13  1  0.709711  0.089459  0.875800  1
  Nd  Nd14  1  0.290289  0.910541  0.875800  1
  Nd  Nd15  1  0.589459  0.790289  0.875800  1
  Nd  Nd16  1  0.089459  0.709711  0.624200  1
  Nd  Nd17  1  0.910541  0.290289  0.624200  1
  Nd  Nd18  1  0.209711  0.410541  0.624200  1
  Nd  Nd19  1  0.790289  0.589459  0.624200  1
  Ir  Ir20  1  0.147141  0.852859  0.250000  1
  Ir  Ir21  1  0.352859  0.352859  0.250000  1
  Ir  Ir22  1  0.647141  0.647141  0.250000  1
  Ir  Ir23  1  0.852859  0.147141  0.250000  1
  Ir  Ir24  1  0.352987  0.647013  0.750000  1
  Ir  Ir25  1  0.147013  0.147013  0.750000  1
  Ir  Ir26  1  0.852987  0.852987  0.750000  1
  Ir  Ir27  1  0.647013  0.352987  0.750000  1
  Ir  Ir28  1  0.500000  0.000000  0.613201  1
  Ir  Ir29  1  0.000000  0.500000  0.886799  1
  Rh  Rh30  1  0.000000  0.500000  0.389827  1
  Rh  Rh31  1  0.500000  0.000000  0.110173  1
