# generated using pymatgen
data_Y3Tl4Cd
_symmetry_space_group_name_H-M   'P 1'
_cell_length_a   6.43444783
_cell_length_b   6.43444730
_cell_length_c   10.75598800
_cell_angle_alpha   90.00000000
_cell_angle_beta   90.00000000
_cell_angle_gamma   104.20684108
_symmetry_Int_Tables_number   1
_chemical_formula_structural   Y3Tl4Cd
_chemical_formula_sum   'Y6 Tl8 Cd2'
_cell_volume   431.70099378
_cell_formula_units_Z   2
loop_
 _symmetry_equiv_pos_site_id
 _symmetry_equiv_pos_as_xyz
  1  'x, y, z'
loop_
 _atom_site_type_symbol
 _atom_site_label
 _atom_site_symmetry_multiplicity
 _atom_site_fract_x
 _atom_site_fract_y
 _atom_site_fract_z
 _atom_site_occupancy
  Y  Y0  1  0.613005  0.613005  0.250000  1
  Y  Y1  1  0.386995  0.386995  0.750000  1
  Y  Y2  1  0.204824  0.795176  0.500000  1
  Y  Y3  1  0.204824  0.795176  0.000000  1
  Y  Y4  1  0.795176  0.204824  0.500000  1
  Y  Y5  1  0.795176  0.204824  0.000000  1
  Tl  Tl6  1  0.302247  0.302247  0.035861  1
  Tl  Tl7  1  0.697753  0.697753  0.964139  1
  Tl  Tl8  1  0.302247  0.302247  0.464139  1
  Tl  Tl9  1  0.697753  0.697753  0.535861  1
  Tl  Tl10  1  0.524084  0.073656  0.250000  1
  Tl  Tl11  1  0.926344  0.475916  0.750000  1
  Tl  Tl12  1  0.475916  0.926344  0.750000  1
  Tl  Tl13  1  0.073656  0.524084  0.250000  1
  Cd  Cd14  1  0.015219  0.015219  0.250000  1
  Cd  Cd15  1  0.984781  0.984781  0.750000  1
