# generated using pymatgen
data_SmGaCu2Si
_symmetry_space_group_name_H-M   'P 1'
_cell_length_a   4.08635000
_cell_length_b   4.08635000
_cell_length_c   10.09518300
_cell_angle_alpha   90.00000000
_cell_angle_beta   90.00000000
_cell_angle_gamma   90.00000000
_symmetry_Int_Tables_number   1
_chemical_formula_structural   SmGaCu2Si
_chemical_formula_sum   'Sm2 Ga2 Cu4 Si2'
_cell_volume   168.57195336
_cell_formula_units_Z   2
loop_
 _symmetry_equiv_pos_site_id
 _symmetry_equiv_pos_as_xyz
  1  'x, y, z'
loop_
 _atom_site_type_symbol
 _atom_site_label
 _atom_site_symmetry_multiplicity
 _atom_site_fract_x
 _atom_site_fract_y
 _atom_site_fract_z
 _atom_site_occupancy
  Sm  Sm0  1  0.000000  0.500000  0.761232  1
  Sm  Sm1  1  0.500000  0.000000  0.238768  1
  Ga  Ga2  1  0.500000  0.500000  0.500000  1
  Ga  Ga3  1  0.000000  0.000000  0.500000  1
  Cu  Cu4  1  0.500000  0.000000  0.642748  1
  Cu  Cu5  1  0.000000  0.000000  0.000000  1
  Cu  Cu6  1  0.500000  0.500000  0.000000  1
  Cu  Cu7  1  0.000000  0.500000  0.357252  1
  Si  Si8  1  0.000000  0.500000  0.127013  1
  Si  Si9  1  0.500000  0.000000  0.872987  1
