# generated using pymatgen
data_Ca(CdAg2)2
_symmetry_space_group_name_H-M   'P 1'
_cell_length_a   5.86349207
_cell_length_b   5.86349211
_cell_length_c   5.86349329
_cell_angle_alpha   103.58038827
_cell_angle_beta   103.58038270
_cell_angle_gamma   122.03121433
_symmetry_Int_Tables_number   1
_chemical_formula_structural   Ca(CdAg2)2
_chemical_formula_sum   'Ca1 Cd2 Ag4'
_cell_volume   149.49494427
_cell_formula_units_Z   1
loop_
 _symmetry_equiv_pos_site_id
 _symmetry_equiv_pos_as_xyz
  1  'x, y, z'
loop_
 _atom_site_type_symbol
 _atom_site_label
 _atom_site_symmetry_multiplicity
 _atom_site_fract_x
 _atom_site_fract_y
 _atom_site_fract_z
 _atom_site_occupancy
  Ca  Ca0  1  0.000000  0.000000  0.000000  1
  Cd  Cd1  1  0.250000  0.750000  0.500000  1
  Cd  Cd2  1  0.750000  0.250000  0.500000  1
  Ag  Ag3  1  0.305880  0.305880  0.611760  1
  Ag  Ag4  1  0.694120  0.694120  0.388240  1
  Ag  Ag5  1  0.694120  0.305880  0.000000  1
  Ag  Ag6  1  0.305880  0.694120  0.000000  1
