# generated using pymatgen
data_La7Re2Tc2C9
_symmetry_space_group_name_H-M   'P 1'
_cell_length_a   6.62825282
_cell_length_b   6.62825326
_cell_length_c   12.16643211
_cell_angle_alpha   71.17559100
_cell_angle_beta   71.17558987
_cell_angle_gamma   48.07882160
_symmetry_Int_Tables_number   1
_chemical_formula_structural   La7Re2Tc2C9
_chemical_formula_sum   'La7 Re2 Tc2 C9'
_cell_volume   372.06445253
_cell_formula_units_Z   1
loop_
 _symmetry_equiv_pos_site_id
 _symmetry_equiv_pos_as_xyz
  1  'x, y, z'
loop_
 _atom_site_type_symbol
 _atom_site_label
 _atom_site_symmetry_multiplicity
 _atom_site_fract_x
 _atom_site_fract_y
 _atom_site_fract_z
 _atom_site_occupancy
  La  La0  1  0.371847  0.371847  0.842247  1
  La  La1  1  0.142878  0.142878  0.684515  1
  La  La2  1  0.856091  0.856091  0.316004  1
  La  La3  1  0.138004  0.138004  0.380154  1
  La  La4  1  0.862801  0.862801  0.619108  1
  La  La5  1  0.000196  0.000196  0.000242  1
  La  La6  1  0.627963  0.627963  0.156428  1
  Re  Re7  1  0.433913  0.433913  0.430579  1
  Re  Re8  1  0.641967  0.641967  0.860119  1
  Tc  Tc9  1  0.357689  0.357689  0.140927  1
  Tc  Tc10  1  0.567462  0.567462  0.570497  1
  C  C11  1  0.383596  0.383596  0.291309  1
  C  C12  1  0.922869  0.922869  0.817957  1
  C  C13  1  0.393225  0.393225  0.609626  1
  C  C14  1  0.194731  0.194731  0.142806  1
  C  C15  1  0.805611  0.805611  0.856403  1
  C  C16  1  0.499810  0.499810  0.999601  1
  C  C17  1  0.077483  0.077483  0.182653  1
  C  C18  1  0.616115  0.616115  0.710966  1
  C  C19  1  0.605750  0.605750  0.387858  1
