# generated using pymatgen
data_Pr6Y10Cd4IrPt3
_symmetry_space_group_name_H-M   'P 1'
_cell_length_a   9.86153755
_cell_length_b   9.82062430
_cell_length_c   9.82062500
_cell_angle_alpha   60.00000101
_cell_angle_beta   60.13714659
_cell_angle_gamma   60.13715191
_symmetry_Int_Tables_number   1
_chemical_formula_structural   Pr6Y10Cd4IrPt3
_chemical_formula_sum   'Pr6 Y10 Cd4 Ir1 Pt3'
_cell_volume   673.91489667
_cell_formula_units_Z   1
loop_
 _symmetry_equiv_pos_site_id
 _symmetry_equiv_pos_as_xyz
  1  'x, y, z'
loop_
 _atom_site_type_symbol
 _atom_site_label
 _atom_site_symmetry_multiplicity
 _atom_site_fract_x
 _atom_site_fract_y
 _atom_site_fract_z
 _atom_site_occupancy
  Pr  Pr0  1  0.938017  0.562541  0.562541  1
  Pr  Pr1  1  0.563995  0.937585  0.937585  1
  Pr  Pr2  1  0.563995  0.937585  0.560835  1
  Pr  Pr3  1  0.938017  0.562541  0.936901  1
  Pr  Pr4  1  0.563995  0.560835  0.937585  1
  Pr  Pr5  1  0.938017  0.936901  0.562541  1
  Y  Y6  1  0.351069  0.346993  0.346993  1
  Y  Y7  1  0.351069  0.346993  0.954946  1
  Y  Y8  1  0.351069  0.954946  0.346993  1
  Y  Y9  1  0.948599  0.350467  0.350467  1
  Y  Y10  1  0.808783  0.187938  0.187938  1
  Y  Y11  1  0.189406  0.811158  0.811158  1
  Y  Y12  1  0.189406  0.811158  0.188280  1
  Y  Y13  1  0.808783  0.187938  0.815342  1
  Y  Y14  1  0.189406  0.188280  0.811158  1
  Y  Y15  1  0.808783  0.815342  0.187938  1
  Cd  Cd16  1  0.579303  0.579597  0.579597  1
  Cd  Cd17  1  0.579303  0.579597  0.261500  1
  Cd  Cd18  1  0.579303  0.261500  0.579597  1
  Cd  Cd19  1  0.262074  0.579309  0.579309  1
  Ir  Ir20  1  0.575920  0.141360  0.141360  1
  Pt  Pt21  1  0.140562  0.142316  0.142316  1
  Pt  Pt22  1  0.140562  0.142316  0.574806  1
  Pt  Pt23  1  0.140562  0.574806  0.142316  1
