# generated using pymatgen
data_CaCeMnIr3
_symmetry_space_group_name_H-M   'P 1'
_cell_length_a   5.20955378
_cell_length_b   5.20955384
_cell_length_c   5.20955306
_cell_angle_alpha   63.90385592
_cell_angle_beta   63.90385708
_cell_angle_gamma   63.90384771
_symmetry_Int_Tables_number   1
_chemical_formula_structural   CaCeMnIr3
_chemical_formula_sum   'Ca1 Ce1 Mn1 Ir3'
_cell_volume   108.57615901
_cell_formula_units_Z   1
loop_
 _symmetry_equiv_pos_site_id
 _symmetry_equiv_pos_as_xyz
  1  'x, y, z'
loop_
 _atom_site_type_symbol
 _atom_site_label
 _atom_site_symmetry_multiplicity
 _atom_site_fract_x
 _atom_site_fract_y
 _atom_site_fract_z
 _atom_site_occupancy
  Ca  Ca0  1  0.624983  0.624983  0.624983  1
  Ce  Ce1  1  0.373712  0.373712  0.373712  1
  Mn  Mn2  1  0.000136  0.000136  0.000136  1
  Ir  Ir3  1  0.999627  0.501916  0.999627  1
  Ir  Ir4  1  0.501916  0.999627  0.999627  1
  Ir  Ir5  1  0.999627  0.999627  0.501916  1
