# generated using pymatgen
data_Er8CoHg2Ir
_symmetry_space_group_name_H-M   'P 1'
_cell_length_a   9.44020358
_cell_length_b   9.44088123
_cell_length_c   9.48174905
_cell_angle_alpha   59.85395921
_cell_angle_beta   59.85511177
_cell_angle_gamma   59.75386141
_symmetry_Int_Tables_number   1
_chemical_formula_structural   Er8CoHg2Ir
_chemical_formula_sum   'Er16 Co2 Hg4 Ir2'
_cell_volume   595.11121104
_cell_formula_units_Z   2
loop_
 _symmetry_equiv_pos_site_id
 _symmetry_equiv_pos_as_xyz
  1  'x, y, z'
loop_
 _atom_site_type_symbol
 _atom_site_label
 _atom_site_symmetry_multiplicity
 _atom_site_fract_x
 _atom_site_fract_y
 _atom_site_fract_z
 _atom_site_occupancy
  Er  Er0  1  0.351422  0.351404  0.340947  1
  Er  Er1  1  0.351522  0.351316  0.956203  1
  Er  Er2  1  0.357721  0.949060  0.346635  1
  Er  Er3  1  0.949102  0.357840  0.346526  1
  Er  Er4  1  0.805422  0.187467  0.190568  1
  Er  Er5  1  0.187378  0.805456  0.816613  1
  Er  Er6  1  0.187366  0.805470  0.190510  1
  Er  Er7  1  0.805434  0.187424  0.816625  1
  Er  Er8  1  0.189519  0.189641  0.810416  1
  Er  Er9  1  0.811281  0.811076  0.188829  1
  Er  Er10  1  0.939184  0.560775  0.562962  1
  Er  Er11  1  0.560780  0.939192  0.937126  1
  Er  Er12  1  0.560769  0.939232  0.562868  1
  Er  Er13  1  0.939210  0.560785  0.937093  1
  Er  Er14  1  0.563662  0.563857  0.936264  1
  Er  Er15  1  0.940322  0.940450  0.559606  1
  Co  Co16  1  0.141914  0.577317  0.140262  1
  Co  Co17  1  0.577418  0.141426  0.140621  1
  Hg  Hg18  1  0.583216  0.583181  0.586165  1
  Hg  Hg19  1  0.583225  0.583170  0.247449  1
  Hg  Hg20  1  0.583384  0.246212  0.585185  1
  Hg  Hg21  1  0.246093  0.583390  0.585260  1
  Ir  Ir22  1  0.142323  0.142404  0.141906  1
  Ir  Ir23  1  0.142336  0.142455  0.573359  1
