# generated using pymatgen
data_Eu2Co7Tc5P7
_symmetry_space_group_name_H-M   'P 1'
_cell_length_a   9.18484933
_cell_length_b   9.28907113
_cell_length_c   3.77688500
_cell_angle_alpha   90.00000000
_cell_angle_beta   90.00000000
_cell_angle_gamma   119.66502165
_symmetry_Int_Tables_number   1
_chemical_formula_structural   Eu2Co7Tc5P7
_chemical_formula_sum   'Eu2 Co7 Tc5 P7'
_cell_volume   280.00435666
_cell_formula_units_Z   1
loop_
 _symmetry_equiv_pos_site_id
 _symmetry_equiv_pos_as_xyz
  1  'x, y, z'
loop_
 _atom_site_type_symbol
 _atom_site_label
 _atom_site_symmetry_multiplicity
 _atom_site_fract_x
 _atom_site_fract_y
 _atom_site_fract_z
 _atom_site_occupancy
  Eu  Eu0  1  0.666710  0.329259  0.500000  1
  Eu  Eu1  1  0.335648  0.669548  0.000000  1
  Co  Co2  1  0.724176  0.884864  0.000000  1
  Co  Co3  1  0.119407  0.848237  0.000000  1
  Co  Co4  1  0.150369  0.265615  0.000000  1
  Co  Co5  1  0.938633  0.361549  0.000000  1
  Co  Co6  1  0.639046  0.581895  0.000000  1
  Co  Co7  1  0.428827  0.059076  0.000000  1
  Co  Co8  1  0.565494  0.954425  0.500000  1
  Tc  Tc9  1  0.389545  0.433970  0.500000  1
  Tc  Tc10  1  0.047348  0.612179  0.500000  1
  Tc  Tc11  1  0.211175  0.090619  0.500000  1
  Tc  Tc12  1  0.882045  0.795325  0.500000  1
  Tc  Tc13  1  0.900780  0.116891  0.500000  1
  P  P14  1  0.998322  0.998573  0.000000  1
  P  P15  1  0.412642  0.298450  0.000000  1
  P  P16  1  0.600003  0.719065  0.500000  1
  P  P17  1  0.291456  0.887889  0.500000  1
  P  P18  1  0.111645  0.394587  0.500000  1
  P  P19  1  0.698161  0.107960  0.000000  1
  P  P20  1  0.888566  0.590027  0.000000  1
