# generated using pymatgen
data_TbDyAl20(FeIr)2
_symmetry_space_group_name_H-M   'P 1'
_cell_length_a   6.80553227
_cell_length_b   6.80553302
_cell_length_c   9.08915316
_cell_angle_alpha   90.08156930
_cell_angle_beta   90.08155772
_cell_angle_gamma   97.02730914
_symmetry_Int_Tables_number   1
_chemical_formula_structural   TbDyAl20(FeIr)2
_chemical_formula_sum   'Tb1 Dy1 Al20 Fe2 Ir2'
_cell_volume   417.80333811
_cell_formula_units_Z   1
loop_
 _symmetry_equiv_pos_site_id
 _symmetry_equiv_pos_as_xyz
  1  'x, y, z'
loop_
 _atom_site_type_symbol
 _atom_site_label
 _atom_site_symmetry_multiplicity
 _atom_site_fract_x
 _atom_site_fract_y
 _atom_site_fract_z
 _atom_site_occupancy
  Tb  Tb0  1  0.872040  0.127960  0.750000  1
  Dy  Dy1  1  0.128234  0.871766  0.250000  1
  Al  Al2  1  0.619872  0.372988  0.550066  1
  Al  Al3  1  0.379990  0.627079  0.449761  1
  Al  Al4  1  0.372921  0.620010  0.050239  1
  Al  Al5  1  0.627012  0.380128  0.949934  1
  Al  Al6  1  0.228532  0.219866  0.494691  1
  Al  Al7  1  0.771424  0.779974  0.504912  1
  Al  Al8  1  0.780134  0.771468  0.005309  1
  Al  Al9  1  0.220026  0.228576  0.995088  1
  Al  Al10  1  0.847985  0.161815  0.100451  1
  Al  Al11  1  0.152223  0.838038  0.899788  1
  Al  Al12  1  0.161962  0.847777  0.600212  1
  Al  Al13  1  0.838185  0.152015  0.399549  1
  Al  Al14  1  0.859672  0.586765  0.754820  1
  Al  Al15  1  0.140518  0.413844  0.245151  1
  Al  Al16  1  0.413235  0.140328  0.745180  1
  Al  Al17  1  0.586156  0.859482  0.254849  1
  Al  Al18  1  0.222253  0.480803  0.754401  1
  Al  Al19  1  0.777934  0.519389  0.245615  1
  Al  Al20  1  0.519197  0.777747  0.745599  1
  Al  Al21  1  0.480611  0.222066  0.254385  1
  Fe  Fe22  1  0.999988  0.499999  0.000090  1
  Fe  Fe23  1  0.500001  0.000012  0.499910  1
  Ir  Ir24  1  0.999992  0.500096  0.499805  1
  Ir  Ir25  1  0.499904  0.000008  0.000195  1
