# generated using pymatgen
data_Nd6As13Rh20
_symmetry_space_group_name_H-M   'P 1'
_cell_length_a   13.94178600
_cell_length_b   13.94178563
_cell_length_c   4.05426000
_cell_angle_alpha   90.00000000
_cell_angle_beta   90.00000000
_cell_angle_gamma   119.99999613
_symmetry_Int_Tables_number   1
_chemical_formula_structural   Nd6As13Rh20
_chemical_formula_sum   'Nd6 As13 Rh20'
_cell_volume   682.46291708
_cell_formula_units_Z   1
loop_
 _symmetry_equiv_pos_site_id
 _symmetry_equiv_pos_as_xyz
  1  'x, y, z'
loop_
 _atom_site_type_symbol
 _atom_site_label
 _atom_site_symmetry_multiplicity
 _atom_site_fract_x
 _atom_site_fract_y
 _atom_site_fract_z
 _atom_site_occupancy
  Nd  Nd0  1  0.531500  0.718823  0.247162  1
  Nd  Nd1  1  0.281177  0.812677  0.247162  1
  Nd  Nd2  1  0.187323  0.468500  0.247162  1
  Nd  Nd3  1  0.468500  0.281177  0.752838  1
  Nd  Nd4  1  0.718823  0.187323  0.752838  1
  Nd  Nd5  1  0.812677  0.531500  0.752838  1
  As  As6  1  0.524429  0.137483  0.251291  1
  As  As7  1  0.862517  0.386946  0.251291  1
  As  As8  1  0.613054  0.475571  0.251291  1
  As  As9  1  0.947616  0.718360  0.251822  1
  As  As10  1  0.281640  0.229256  0.251822  1
  As  As11  1  0.770744  0.052384  0.251822  1
  As  As12  1  0.386946  0.524429  0.748709  1
  As  As13  1  0.475571  0.862517  0.748709  1
  As  As14  1  0.137483  0.613054  0.748709  1
  As  As15  1  0.718360  0.770744  0.748178  1
  As  As16  1  0.229256  0.947616  0.748178  1
  As  As17  1  0.052384  0.281640  0.748178  1
  As  As18  1  0.000000  0.000000  0.000000  1
  Rh  Rh19  1  0.333333  0.666667  0.752123  1
  Rh  Rh20  1  0.923757  0.250283  0.254194  1
  Rh  Rh21  1  0.749717  0.673474  0.254194  1
  Rh  Rh22  1  0.326526  0.076243  0.254194  1
  Rh  Rh23  1  0.439776  0.023983  0.751910  1
  Rh  Rh24  1  0.976017  0.415794  0.751910  1
  Rh  Rh25  1  0.584206  0.560224  0.751910  1
  Rh  Rh26  1  0.666667  0.333333  0.247877  1
  Rh  Rh27  1  0.091305  0.188417  0.250406  1
  Rh  Rh28  1  0.811583  0.902888  0.250406  1
  Rh  Rh29  1  0.097112  0.908695  0.250406  1
  Rh  Rh30  1  0.023983  0.584206  0.248090  1
  Rh  Rh31  1  0.415794  0.439776  0.248090  1
  Rh  Rh32  1  0.560224  0.976017  0.248090  1
  Rh  Rh33  1  0.673474  0.923757  0.745806  1
  Rh  Rh34  1  0.076243  0.749717  0.745806  1
  Rh  Rh35  1  0.250283  0.326526  0.745806  1
  Rh  Rh36  1  0.908695  0.811583  0.749594  1
  Rh  Rh37  1  0.188417  0.097112  0.749594  1
  Rh  Rh38  1  0.902888  0.091305  0.749594  1
