# generated using pymatgen
data_Mg4Si4NiIr3
_symmetry_space_group_name_H-M   'P 1'
_cell_length_a   6.59708092
_cell_length_b   4.04553700
_cell_length_c   6.96419069
_cell_angle_alpha   90.00000000
_cell_angle_beta   89.48937600
_cell_angle_gamma   90.00000000
_symmetry_Int_Tables_number   1
_chemical_formula_structural   Mg4Si4NiIr3
_chemical_formula_sum   'Mg4 Si4 Ni1 Ir3'
_cell_volume   185.85805851
_cell_formula_units_Z   1
loop_
 _symmetry_equiv_pos_site_id
 _symmetry_equiv_pos_as_xyz
  1  'x, y, z'
loop_
 _atom_site_type_symbol
 _atom_site_label
 _atom_site_symmetry_multiplicity
 _atom_site_fract_x
 _atom_site_fract_y
 _atom_site_fract_z
 _atom_site_occupancy
  Mg  Mg0  1  0.002626  0.750000  0.172457  1
  Mg  Mg1  1  0.509402  0.750000  0.323337  1
  Mg  Mg2  1  0.491020  0.250001  0.672965  1
  Mg  Mg3  1  0.997694  0.250001  0.825694  1
  Si  Si4  1  0.706871  0.250001  0.124721  1
  Si  Si5  1  0.205334  0.250001  0.372716  1
  Si  Si6  1  0.788435  0.750000  0.631657  1
  Si  Si7  1  0.300607  0.750000  0.872954  1
  Ni  Ni8  1  0.651928  0.750000  0.947279  1
  Ir  Ir9  1  0.350080  0.250001  0.051701  1
  Ir  Ir10  1  0.841325  0.250001  0.449166  1
  Ir  Ir11  1  0.154677  0.750000  0.555349  1
