# generated using pymatgen
data_Er2Mn6P7Ir6
_symmetry_space_group_name_H-M   'P 1'
_cell_length_a   9.39536900
_cell_length_b   9.39536955
_cell_length_c   3.83786100
_cell_angle_alpha   90.00000000
_cell_angle_beta   90.00000000
_cell_angle_gamma   120.00000253
_symmetry_Int_Tables_number   1
_chemical_formula_structural   Er2Mn6P7Ir6
_chemical_formula_sum   'Er2 Mn6 P7 Ir6'
_cell_volume   293.39152901
_cell_formula_units_Z   1
loop_
 _symmetry_equiv_pos_site_id
 _symmetry_equiv_pos_as_xyz
  1  'x, y, z'
loop_
 _atom_site_type_symbol
 _atom_site_label
 _atom_site_symmetry_multiplicity
 _atom_site_fract_x
 _atom_site_fract_y
 _atom_site_fract_z
 _atom_site_occupancy
  Er  Er0  1  0.333333  0.666667  0.000000  1
  Er  Er1  1  0.000000  0.000000  0.500000  1
  Mn  Mn2  1  0.555280  0.063271  0.000000  1
  Mn  Mn3  1  0.936729  0.492010  0.000000  1
  Mn  Mn4  1  0.507990  0.444720  0.000000  1
  Mn  Mn5  1  0.785789  0.237472  0.500000  1
  Mn  Mn6  1  0.762528  0.548317  0.500000  1
  Mn  Mn7  1  0.451683  0.214211  0.500000  1
  P  P8  1  0.777759  0.033988  0.000000  1
  P  P9  1  0.966012  0.743770  0.000000  1
  P  P10  1  0.256230  0.222241  0.000000  1
  P  P11  1  0.388042  0.936212  0.500000  1
  P  P12  1  0.063788  0.451831  0.500000  1
  P  P13  1  0.548169  0.611958  0.500000  1
  P  P14  1  0.666667  0.333333  0.000000  1
  Ir  Ir15  1  0.028889  0.267956  0.000000  1
  Ir  Ir16  1  0.732044  0.760932  0.000000  1
  Ir  Ir17  1  0.239068  0.971111  0.000000  1
  Ir  Ir18  1  0.610329  0.890667  0.500000  1
  Ir  Ir19  1  0.109333  0.719661  0.500000  1
  Ir  Ir20  1  0.280339  0.389671  0.500000  1
