# generated using pymatgen
data_Tm3Zr(Ga3Rh)6
_symmetry_space_group_name_H-M   'P 1'
_cell_length_a   7.54598355
_cell_length_b   7.52937764
_cell_length_c   9.44736500
_cell_angle_alpha   90.00000000
_cell_angle_beta   90.00000000
_cell_angle_gamma   119.87460934
_symmetry_Int_Tables_number   1
_chemical_formula_structural   Tm3Zr(Ga3Rh)6
_chemical_formula_sum   'Tm3 Zr1 Ga18 Rh6'
_cell_volume   465.43990419
_cell_formula_units_Z   1
loop_
 _symmetry_equiv_pos_site_id
 _symmetry_equiv_pos_as_xyz
  1  'x, y, z'
loop_
 _atom_site_type_symbol
 _atom_site_label
 _atom_site_symmetry_multiplicity
 _atom_site_fract_x
 _atom_site_fract_y
 _atom_site_fract_z
 _atom_site_occupancy
  Tm  Tm0  1  0.004073  0.331179  0.750000  1
  Tm  Tm1  1  0.669179  0.997395  0.250000  1
  Tm  Tm2  1  0.331553  0.003668  0.750000  1
  Zr  Zr3  1  0.996577  0.667823  0.250000  1
  Ga  Ga4  1  0.123364  0.122066  0.250000  1
  Ga  Ga5  1  0.874262  0.874256  0.750000  1
  Ga  Ga6  1  0.998959  0.336488  0.081961  1
  Ga  Ga7  1  0.001129  0.665704  0.921751  1
  Ga  Ga8  1  0.001129  0.665704  0.578249  1
  Ga  Ga9  1  0.331830  0.997255  0.417984  1
  Ga  Ga10  1  0.998959  0.336488  0.418039  1
  Ga  Ga11  1  0.665830  0.000514  0.579739  1
  Ga  Ga12  1  0.665830  0.000514  0.920261  1
  Ga  Ga13  1  0.331830  0.997255  0.082016  1
  Ga  Ga14  1  0.332549  0.332483  0.565388  1
  Ga  Ga15  1  0.669364  0.667781  0.432382  1
  Ga  Ga16  1  0.669364  0.667781  0.067618  1
  Ga  Ga17  1  0.332549  0.332483  0.934612  1
  Ga  Ga18  1  0.336896  0.548837  0.250000  1
  Ga  Ga19  1  0.661680  0.452750  0.750000  1
  Ga  Ga20  1  0.551503  0.340437  0.250000  1
  Ga  Ga21  1  0.451695  0.660877  0.750000  1
  Rh  Rh22  1  0.672511  0.328794  0.000570  1
  Rh  Rh23  1  0.327564  0.672050  0.001152  1
  Rh  Rh24  1  0.327564  0.672050  0.498848  1
  Rh  Rh25  1  0.672511  0.328794  0.499430  1
  Rh  Rh26  1  0.999872  0.999286  0.000630  1
  Rh  Rh27  1  0.999872  0.999286  0.499370  1
