# generated using pymatgen
data_Tb4Al18Re2NiPd3
_symmetry_space_group_name_H-M   'P 1'
_cell_length_a   7.57716713
_cell_length_b   7.57716786
_cell_length_c   9.50313012
_cell_angle_alpha   89.94559000
_cell_angle_beta   89.94558965
_cell_angle_gamma   118.34435130
_symmetry_Int_Tables_number   1
_chemical_formula_structural   Tb4Al18Re2NiPd3
_chemical_formula_sum   'Tb4 Al18 Re2 Ni1 Pd3'
_cell_volume   480.19398396
_cell_formula_units_Z   1
loop_
 _symmetry_equiv_pos_site_id
 _symmetry_equiv_pos_as_xyz
  1  'x, y, z'
loop_
 _atom_site_type_symbol
 _atom_site_label
 _atom_site_symmetry_multiplicity
 _atom_site_fract_x
 _atom_site_fract_y
 _atom_site_fract_z
 _atom_site_occupancy
  Tb  Tb0  1  0.996032  0.685051  0.249076  1
  Tb  Tb1  1  0.008106  0.317880  0.750509  1
  Tb  Tb2  1  0.682120  0.991894  0.249491  1
  Tb  Tb3  1  0.314949  0.003968  0.750924  1
  Al  Al4  1  0.135269  0.136436  0.249162  1
  Al  Al5  1  0.863564  0.864731  0.750838  1
  Al  Al6  1  0.992891  0.334791  0.074843  1
  Al  Al7  1  0.991843  0.658090  0.924315  1
  Al  Al8  1  0.996216  0.662920  0.577312  1
  Al  Al9  1  0.337080  0.003784  0.422688  1
  Al  Al10  1  0.001967  0.335910  0.422841  1
  Al  Al11  1  0.664090  0.998033  0.577159  1
  Al  Al12  1  0.665209  0.007109  0.925157  1
  Al  Al13  1  0.341910  0.008157  0.075685  1
  Al  Al14  1  0.330776  0.330392  0.548042  1
  Al  Al15  1  0.669608  0.669224  0.451958  1
  Al  Al16  1  0.669961  0.666007  0.044478  1
  Al  Al17  1  0.333993  0.330039  0.955522  1
  Al  Al18  1  0.344927  0.552089  0.249031  1
  Al  Al19  1  0.654700  0.439910  0.756999  1
  Al  Al20  1  0.560090  0.345300  0.243001  1
  Al  Al21  1  0.447911  0.655073  0.750969  1
  Re  Re22  1  0.999813  0.000187  0.000000  1
  Re  Re23  1  0.000048  0.999952  0.500000  1
  Ni  Ni24  1  0.670423  0.329577  0.000000  1
  Pd  Pd25  1  0.327196  0.672804  0.000000  1
  Pd  Pd26  1  0.328264  0.671736  0.500000  1
  Pd  Pd27  1  0.671044  0.328956  0.500000  1
