# generated using pymatgen
data_DyZr4Si12Ir19
_symmetry_space_group_name_H-M   'P 1'
_cell_length_a   12.75588300
_cell_length_b   12.75588399
_cell_length_c   3.93028500
_cell_angle_alpha   90.00000000
_cell_angle_beta   90.00000000
_cell_angle_gamma   120.00000522
_symmetry_Int_Tables_number   1
_chemical_formula_structural   DyZr4Si12Ir19
_chemical_formula_sum   'Dy1 Zr4 Si12 Ir19'
_cell_volume   553.82906092
_cell_formula_units_Z   1
loop_
 _symmetry_equiv_pos_site_id
 _symmetry_equiv_pos_as_xyz
  1  'x, y, z'
loop_
 _atom_site_type_symbol
 _atom_site_label
 _atom_site_symmetry_multiplicity
 _atom_site_fract_x
 _atom_site_fract_y
 _atom_site_fract_z
 _atom_site_occupancy
  Dy  Dy0  1  0.333333  0.666667  0.000000  1
  Zr  Zr1  1  0.999698  0.185361  0.500000  1
  Zr  Zr2  1  0.814639  0.814338  0.500000  1
  Zr  Zr3  1  0.185662  0.000302  0.500000  1
  Zr  Zr4  1  0.666667  0.333333  0.000000  1
  Si  Si5  1  0.482465  0.312486  0.500000  1
  Si  Si6  1  0.823347  0.001504  0.000000  1
  Si  Si7  1  0.178159  0.176653  0.000000  1
  Si  Si8  1  0.998496  0.821841  0.000000  1
  Si  Si9  1  0.364554  0.999652  0.000000  1
  Si  Si10  1  0.687514  0.169979  0.500000  1
  Si  Si11  1  0.830021  0.517535  0.500000  1
  Si  Si12  1  0.519200  0.832917  0.500000  1
  Si  Si13  1  0.167083  0.686282  0.500000  1
  Si  Si14  1  0.313718  0.480800  0.500000  1
  Si  Si15  1  0.000348  0.364901  0.000000  1
  Si  Si16  1  0.635099  0.635446  0.000000  1
  Ir  Ir17  1  0.807671  0.182534  0.000000  1
  Ir  Ir18  1  0.374862  0.192329  0.000000  1
  Ir  Ir19  1  0.639216  0.510045  0.500000  1
  Ir  Ir20  1  0.870828  0.360784  0.500000  1
  Ir  Ir21  1  0.359369  0.873917  0.500000  1
  Ir  Ir22  1  0.514548  0.640631  0.500000  1
  Ir  Ir23  1  0.126083  0.485452  0.500000  1
  Ir  Ir24  1  0.817466  0.625138  0.000000  1
  Ir  Ir25  1  0.629064  0.820112  0.000000  1
  Ir  Ir26  1  0.179888  0.808951  0.000000  1
  Ir  Ir27  1  0.191049  0.370936  0.000000  1
  Ir  Ir28  1  0.998744  0.719022  0.500000  1
  Ir  Ir29  1  0.280978  0.279722  0.500000  1
  Ir  Ir30  1  0.720278  0.001256  0.500000  1
  Ir  Ir31  1  0.000638  0.552967  0.000000  1
  Ir  Ir32  1  0.447033  0.447671  0.000000  1
  Ir  Ir33  1  0.552329  0.999362  0.000000  1
  Ir  Ir34  1  0.000000  0.000000  0.000000  1
  Ir  Ir35  1  0.489955  0.129172  0.500000  1
