# generated using pymatgen
data_CsS8Br3
_symmetry_space_group_name_H-M   'P 1'
_cell_length_a   7.99520330
_cell_length_b   11.81743462
_cell_length_c   11.59082473
_cell_angle_alpha   105.36242828
_cell_angle_beta   96.64900326
_cell_angle_gamma   109.78050755
_symmetry_Int_Tables_number   1
_chemical_formula_structural   CsS8Br3
_chemical_formula_sum   'Cs2 S16 Br6'
_cell_volume   967.89014827
_cell_formula_units_Z   2
loop_
 _symmetry_equiv_pos_site_id
 _symmetry_equiv_pos_as_xyz
  1  'x, y, z'
loop_
 _atom_site_type_symbol
 _atom_site_label
 _atom_site_symmetry_multiplicity
 _atom_site_fract_x
 _atom_site_fract_y
 _atom_site_fract_z
 _atom_site_occupancy
  Cs  Cs0  1  0.849388  0.118860  0.857929  1
  Cs  Cs1  1  0.150612  0.881140  0.142071  1
  S  S2  1  0.808773  0.467706  0.777686  1
  S  S3  1  0.191227  0.532294  0.222314  1
  S  S4  1  0.724884  0.392454  0.589156  1
  S  S5  1  0.275116  0.607546  0.410844  1
  S  S6  1  0.737383  0.214730  0.532397  1
  S  S7  1  0.262617  0.785270  0.467603  1
  S  S8  1  0.978821  0.228836  0.478506  1
  S  S9  1  0.021179  0.771164  0.521494  1
  S  S10  1  0.921914  0.406901  0.175546  1
  S  S11  1  0.078086  0.593099  0.824454  1
  S  S12  1  0.756376  0.499113  0.133185  1
  S  S13  1  0.243624  0.500887  0.866815  1
  S  S14  1  0.665671  0.566917  0.285661  1
  S  S15  1  0.334329  0.433083  0.714339  1
  S  S16  1  0.831915  0.756691  0.375357  1
  S  S17  1  0.168085  0.243309  0.624643  1
  Br  Br18  1  0.363355  0.073943  0.801872  1
  Br  Br19  1  0.636645  0.926057  0.198128  1
  Br  Br20  1  0.680625  0.850530  0.977266  1
  Br  Br21  1  0.319375  0.149470  0.022734  1
  Br  Br22  1  0.730223  0.781228  0.757982  1
  Br  Br23  1  0.269777  0.218772  0.242018  1
