# generated using pymatgen
data_BaNa(AcB12)2
_symmetry_space_group_name_H-M   'P 1'
_cell_length_a   7.25763200
_cell_length_b   7.25763356
_cell_length_c   5.96300200
_cell_angle_alpha   90.00000000
_cell_angle_beta   90.00000000
_cell_angle_gamma   109.22944818
_symmetry_Int_Tables_number   1
_chemical_formula_structural   BaNa(AcB12)2
_chemical_formula_sum   'Ba1 Na1 Ac2 B24'
_cell_volume   296.56660921
_cell_formula_units_Z   1
loop_
 _symmetry_equiv_pos_site_id
 _symmetry_equiv_pos_as_xyz
  1  'x, y, z'
loop_
 _atom_site_type_symbol
 _atom_site_label
 _atom_site_symmetry_multiplicity
 _atom_site_fract_x
 _atom_site_fract_y
 _atom_site_fract_z
 _atom_site_occupancy
  Ba  Ba0  1  0.000000  0.000000  0.000000  1
  Na  Na1  1  0.500000  0.500000  0.000000  1
  Ac  Ac2  1  0.749348  0.250652  0.500000  1
  Ac  Ac3  1  0.250652  0.749348  0.500000  1
  B  B4  1  0.177456  0.326141  0.648762  1
  B  B5  1  0.923979  0.573494  0.147747  1
  B  B6  1  0.673859  0.822544  0.648762  1
  B  B7  1  0.426506  0.076021  0.147747  1
  B  B8  1  0.177456  0.326141  0.351238  1
  B  B9  1  0.923979  0.573494  0.852253  1
  B  B10  1  0.673859  0.822544  0.351238  1
  B  B11  1  0.426506  0.076021  0.852253  1
  B  B12  1  0.399527  0.399527  0.500000  1
  B  B13  1  0.148394  0.648842  0.000000  1
  B  B14  1  0.897529  0.897529  0.500000  1
  B  B15  1  0.648842  0.148393  0.000000  1
  B  B16  1  0.326141  0.177456  0.648762  1
  B  B17  1  0.076021  0.426506  0.147747  1
  B  B18  1  0.822544  0.673859  0.648762  1
  B  B19  1  0.573494  0.923979  0.147747  1
  B  B20  1  0.102471  0.102471  0.500000  1
  B  B21  1  0.851606  0.351158  0.000000  1
  B  B22  1  0.600473  0.600473  0.500000  1
  B  B23  1  0.351158  0.851607  0.000000  1
  B  B24  1  0.326141  0.177456  0.351238  1
  B  B25  1  0.076021  0.426506  0.852253  1
  B  B26  1  0.822544  0.673859  0.351238  1
  B  B27  1  0.573494  0.923979  0.852253  1
