# generated using pymatgen
data_Tb4Er(In2Ir)2
_symmetry_space_group_name_H-M   'P 1'
_cell_length_a   3.67180500
_cell_length_b   8.03139537
_cell_length_c   18.33426650
_cell_angle_alpha   90.24461735
_cell_angle_beta   90.00000000
_cell_angle_gamma   90.00000000
_symmetry_Int_Tables_number   1
_chemical_formula_structural   Tb4Er(In2Ir)2
_chemical_formula_sum   'Tb8 Er2 In8 Ir4'
_cell_volume   540.66741572
_cell_formula_units_Z   2
loop_
 _symmetry_equiv_pos_site_id
 _symmetry_equiv_pos_as_xyz
  1  'x, y, z'
loop_
 _atom_site_type_symbol
 _atom_site_label
 _atom_site_symmetry_multiplicity
 _atom_site_fract_x
 _atom_site_fract_y
 _atom_site_fract_z
 _atom_site_occupancy
  Tb  Tb0  1  0.000000  0.115604  0.410831  1
  Tb  Tb1  1  0.000000  0.884396  0.589169  1
  Tb  Tb2  1  0.000000  0.383709  0.910884  1
  Tb  Tb3  1  0.000000  0.616291  0.089116  1
  Tb  Tb4  1  0.000000  0.244390  0.221261  1
  Tb  Tb5  1  0.000000  0.755610  0.778739  1
  Tb  Tb6  1  0.000000  0.000000  0.000000  1
  Tb  Tb7  1  0.000000  0.500000  0.500000  1
  Er  Er8  1  0.000000  0.255575  0.721607  1
  Er  Er9  1  0.000000  0.744425  0.278393  1
  In  In10  1  0.500000  0.428133  0.350027  1
  In  In11  1  0.500000  0.571867  0.649973  1
  In  In12  1  0.500000  0.074361  0.849700  1
  In  In13  1  0.500000  0.925639  0.150300  1
  In  In14  1  0.500000  0.293205  0.068229  1
  In  In15  1  0.500000  0.706795  0.931771  1
  In  In16  1  0.500000  0.207743  0.568773  1
  In  In17  1  0.500000  0.792257  0.431227  1
  Ir  Ir18  1  0.500000  0.017332  0.304200  1
  Ir  Ir19  1  0.500000  0.982668  0.695800  1
  Ir  Ir20  1  0.500000  0.476538  0.803533  1
  Ir  Ir21  1  0.500000  0.523462  0.196467  1
