# generated using pymatgen
data_YTa2(Nb2Cl9)2
_symmetry_space_group_name_H-M   'P 1'
_cell_length_a   10.17428729
_cell_length_b   10.17356108
_cell_length_c   10.17624808
_cell_angle_alpha   55.99324913
_cell_angle_beta   55.98957032
_cell_angle_gamma   55.97884176
_symmetry_Int_Tables_number   1
_chemical_formula_structural   YTa2(Nb2Cl9)2
_chemical_formula_sum   'Y1 Ta2 Nb4 Cl18'
_cell_volume   675.57172812
_cell_formula_units_Z   1
loop_
 _symmetry_equiv_pos_site_id
 _symmetry_equiv_pos_as_xyz
  1  'x, y, z'
loop_
 _atom_site_type_symbol
 _atom_site_label
 _atom_site_symmetry_multiplicity
 _atom_site_fract_x
 _atom_site_fract_y
 _atom_site_fract_z
 _atom_site_occupancy
  Y  Y0  1  0.999354  0.000194  0.000447  1
  Ta  Ta1  1  0.408569  0.300766  0.649250  1
  Ta  Ta2  1  0.350651  0.591798  0.698917  1
  Nb  Nb3  1  0.699990  0.350220  0.591360  1
  Nb  Nb4  1  0.300655  0.649929  0.407866  1
  Nb  Nb5  1  0.650460  0.408075  0.299661  1
  Nb  Nb6  1  0.592320  0.700027  0.349485  1
  Cl  Cl7  1  0.566452  0.160881  0.444726  1
  Cl  Cl8  1  0.224364  0.371592  0.906607  1
  Cl  Cl9  1  0.909076  0.222949  0.370721  1
  Cl  Cl10  1  0.370588  0.909091  0.223391  1
  Cl  Cl11  1  0.776787  0.629278  0.091059  1
  Cl  Cl12  1  0.092560  0.775615  0.631280  1
  Cl  Cl13  1  0.702704  0.958355  0.160399  1
  Cl  Cl14  1  0.957384  0.159771  0.703756  1
  Cl  Cl15  1  0.162810  0.701306  0.954622  1
  Cl  Cl16  1  0.298104  0.045629  0.837957  1
  Cl  Cl17  1  0.042178  0.839183  0.297269  1
  Cl  Cl18  1  0.839863  0.296716  0.041970  1
  Cl  Cl19  1  0.555192  0.433493  0.839103  1
  Cl  Cl20  1  0.162554  0.439293  0.570309  1
  Cl  Cl21  1  0.441912  0.568373  0.160861  1
  Cl  Cl22  1  0.429811  0.837377  0.560677  1
  Cl  Cl23  1  0.839237  0.558173  0.431557  1
  Cl  Cl24  1  0.626425  0.091915  0.776751  1
