# generated using pymatgen
data_Tb10GaSb5
_symmetry_space_group_name_H-M   'P 1'
_cell_length_a   8.98008100
_cell_length_b   8.95758540
_cell_length_c   6.41217100
_cell_angle_alpha   90.00000000
_cell_angle_beta   90.00000000
_cell_angle_gamma   120.08310581
_symmetry_Int_Tables_number   1
_chemical_formula_structural   Tb10GaSb5
_chemical_formula_sum   'Tb10 Ga1 Sb5'
_cell_volume   446.31618715
_cell_formula_units_Z   1
loop_
 _symmetry_equiv_pos_site_id
 _symmetry_equiv_pos_as_xyz
  1  'x, y, z'
loop_
 _atom_site_type_symbol
 _atom_site_label
 _atom_site_symmetry_multiplicity
 _atom_site_fract_x
 _atom_site_fract_y
 _atom_site_fract_z
 _atom_site_occupancy
  Tb  Tb0  1  0.010420  0.763022  0.750000  1
  Tb  Tb1  1  0.999427  0.244922  0.250000  1
  Tb  Tb2  1  0.754504  0.755078  0.250000  1
  Tb  Tb3  1  0.749521  0.000000  0.750000  1
  Tb  Tb4  1  0.247398  0.236978  0.750000  1
  Tb  Tb5  1  0.245772  0.000000  0.250000  1
  Tb  Tb6  1  0.334818  0.674372  0.500741  1
  Tb  Tb7  1  0.660448  0.325628  0.999259  1
  Tb  Tb8  1  0.660448  0.325628  0.500741  1
  Tb  Tb9  1  0.334818  0.674372  0.999259  1
  Ga  Ga10  1  0.391735  0.000000  0.750000  1
  Sb  Sb11  1  0.388614  0.391034  0.250000  1
  Sb  Sb12  1  0.997580  0.608966  0.250000  1
  Sb  Sb13  1  0.001821  0.389429  0.750000  1
  Sb  Sb14  1  0.612392  0.610571  0.750000  1
  Sb  Sb15  1  0.610283  0.000000  0.250000  1
