# generated using pymatgen
data_Tb3Er9Co4
_symmetry_space_group_name_H-M   'P 1'
_cell_length_a   6.90497777
_cell_length_b   9.32435300
_cell_length_c   6.17520368
_cell_angle_alpha   90.00000000
_cell_angle_beta   89.94594153
_cell_angle_gamma   90.00000000
_symmetry_Int_Tables_number   1
_chemical_formula_structural   Tb3Er9Co4
_chemical_formula_sum   'Tb3 Er9 Co4'
_cell_volume   397.58691712
_cell_formula_units_Z   1
loop_
 _symmetry_equiv_pos_site_id
 _symmetry_equiv_pos_as_xyz
  1  'x, y, z'
loop_
 _atom_site_type_symbol
 _atom_site_label
 _atom_site_symmetry_multiplicity
 _atom_site_fract_x
 _atom_site_fract_y
 _atom_site_fract_z
 _atom_site_occupancy
  Tb  Tb0  1  0.459253  0.749999  0.137239  1
  Tb  Tb1  1  0.959052  0.749999  0.362907  1
  Tb  Tb2  1  0.040850  0.250000  0.638110  1
  Er  Er3  1  0.175920  0.067236  0.175395  1
  Er  Er4  1  0.175920  0.432764  0.175395  1
  Er  Er5  1  0.675416  0.067642  0.323920  1
  Er  Er6  1  0.675416  0.432358  0.323920  1
  Er  Er7  1  0.324811  0.566579  0.675594  1
  Er  Er8  1  0.324811  0.933421  0.675594  1
  Er  Er9  1  0.823900  0.566744  0.824704  1
  Er  Er10  1  0.823900  0.933256  0.824704  1
  Er  Er11  1  0.541033  0.250000  0.861909  1
  Co  Co12  1  0.886272  0.250000  0.049249  1
  Co  Co13  1  0.387343  0.250000  0.451397  1
  Co  Co14  1  0.613027  0.749999  0.549921  1
  Co  Co15  1  0.113077  0.749999  0.950043  1
