# generated using pymatgen
data_LiTb7Dy9Cd3Co4
_symmetry_space_group_name_H-M   'P 1'
_cell_length_a   9.49992932
_cell_length_b   9.50051830
_cell_length_c   9.53055067
_cell_angle_alpha   60.09258365
_cell_angle_beta   60.09556323
_cell_angle_gamma   59.99811893
_symmetry_Int_Tables_number   1
_chemical_formula_structural   LiTb7Dy9Cd3Co4
_chemical_formula_sum   'Li1 Tb7 Dy9 Cd3 Co4'
_cell_volume   609.08870793
_cell_formula_units_Z   1
loop_
 _symmetry_equiv_pos_site_id
 _symmetry_equiv_pos_as_xyz
  1  'x, y, z'
loop_
 _atom_site_type_symbol
 _atom_site_label
 _atom_site_symmetry_multiplicity
 _atom_site_fract_x
 _atom_site_fract_y
 _atom_site_fract_z
 _atom_site_occupancy
  Li  Li0  1  0.822261  0.822575  0.532612  1
  Tb  Tb1  1  0.214118  0.594705  0.597042  1
  Tb  Tb2  1  0.811899  0.188741  0.187120  1
  Tb  Tb3  1  0.063477  0.435882  0.436207  1
  Tb  Tb4  1  0.188972  0.812023  0.186838  1
  Tb  Tb5  1  0.597049  0.597114  0.209003  1
  Tb  Tb6  1  0.187522  0.186774  0.812677  1
  Tb  Tb7  1  0.062400  0.438506  0.060760  1
  Dy  Dy8  1  0.438503  0.438533  0.060279  1
  Dy  Dy9  1  0.594568  0.594155  0.596747  1
  Dy  Dy10  1  0.187281  0.812895  0.812766  1
  Dy  Dy11  1  0.063738  0.064164  0.436465  1
  Dy  Dy12  1  0.438531  0.062510  0.060659  1
  Dy  Dy13  1  0.812920  0.186889  0.812845  1
  Dy  Dy14  1  0.435380  0.063823  0.436497  1
  Dy  Dy15  1  0.594792  0.214551  0.596756  1
  Dy  Dy16  1  0.812030  0.812182  0.186762  1
  Cd  Cd17  1  0.831201  0.831841  0.827232  1
  Cd  Cd18  1  0.509602  0.831487  0.827271  1
  Cd  Cd19  1  0.830983  0.510017  0.827215  1
  Co  Co20  1  0.391884  0.391015  0.389457  1
  Co  Co21  1  0.827470  0.391281  0.390037  1
  Co  Co22  1  0.391850  0.827649  0.389531  1
  Co  Co23  1  0.391571  0.390691  0.827223  1
