# generated using pymatgen
data_YbHo2Al3Si2Pd
_symmetry_space_group_name_H-M   'P 1'
_cell_length_a   6.90490200
_cell_length_b   6.88229630
_cell_length_c   4.27355200
_cell_angle_alpha   90.00000000
_cell_angle_beta   90.00000000
_cell_angle_gamma   120.10870422
_symmetry_Int_Tables_number   1
_chemical_formula_structural   YbHo2Al3Si2Pd
_chemical_formula_sum   'Yb1 Ho2 Al3 Si2 Pd1'
_cell_volume   175.68462295
_cell_formula_units_Z   1
loop_
 _symmetry_equiv_pos_site_id
 _symmetry_equiv_pos_as_xyz
  1  'x, y, z'
loop_
 _atom_site_type_symbol
 _atom_site_label
 _atom_site_symmetry_multiplicity
 _atom_site_fract_x
 _atom_site_fract_y
 _atom_site_fract_z
 _atom_site_occupancy
  Yb  Yb0  1  0.417993  0.000000  0.000000  1
  Ho  Ho1  1  0.000926  0.419974  0.000000  1
  Ho  Ho2  1  0.580951  0.580025  0.000000  1
  Al  Al3  1  0.762397  0.000000  0.499999  1
  Al  Al4  1  0.236876  0.241934  0.499999  1
  Al  Al5  1  0.994942  0.758065  0.499999  1
  Si  Si6  1  0.672978  0.340211  0.499999  1
  Si  Si7  1  0.332767  0.659788  0.499999  1
  Pd  Pd8  1  0.000169  0.000000  0.000000  1
