# generated using pymatgen
data_Lu16In6FeAu
_symmetry_space_group_name_H-M   'P 1'
_cell_length_a   10.25792800
_cell_length_b   10.25792693
_cell_length_c   6.82375300
_cell_angle_alpha   90.00000000
_cell_angle_beta   90.00000000
_cell_angle_gamma   120.00000346
_symmetry_Int_Tables_number   1
_chemical_formula_structural   Lu16In6FeAu
_chemical_formula_sum   'Lu16 In6 Fe1 Au1'
_cell_volume   621.83213582
_cell_formula_units_Z   1
loop_
 _symmetry_equiv_pos_site_id
 _symmetry_equiv_pos_as_xyz
  1  'x, y, z'
loop_
 _atom_site_type_symbol
 _atom_site_label
 _atom_site_symmetry_multiplicity
 _atom_site_fract_x
 _atom_site_fract_y
 _atom_site_fract_z
 _atom_site_occupancy
  Lu  Lu0  1  0.536827  0.073652  0.523178  1
  Lu  Lu1  1  0.926348  0.463173  0.523178  1
  Lu  Lu2  1  0.536827  0.463173  0.523178  1
  Lu  Lu3  1  0.474378  0.948758  0.029496  1
  Lu  Lu4  1  0.051242  0.525622  0.029496  1
  Lu  Lu5  1  0.474378  0.525622  0.029496  1
  Lu  Lu6  1  0.173521  0.347041  0.729588  1
  Lu  Lu7  1  0.652959  0.826479  0.729588  1
  Lu  Lu8  1  0.173521  0.826479  0.729588  1
  Lu  Lu9  1  0.821171  0.642343  0.231728  1
  Lu  Lu10  1  0.357657  0.178829  0.231728  1
  Lu  Lu11  1  0.821171  0.178829  0.231728  1
  Lu  Lu12  1  0.666667  0.333333  0.911377  1
  Lu  Lu13  1  0.333333  0.666667  0.391087  1
  Lu  Lu14  1  0.000000  0.000000  0.506642  1
  Lu  Lu15  1  0.000000  0.000000  0.006297  1
  In  In16  1  0.836888  0.673777  0.768935  1
  In  In17  1  0.326223  0.163112  0.768935  1
  In  In18  1  0.836888  0.163112  0.768935  1
  In  In19  1  0.162472  0.324945  0.265546  1
  In  In20  1  0.675055  0.837528  0.265546  1
  In  In21  1  0.162472  0.837528  0.265546  1
  Fe  Fe22  1  0.666667  0.333333  0.296264  1
  Au  Au23  1  0.333333  0.666667  0.798603  1
