# generated using pymatgen
data_TbTm(MgIr4)2
_symmetry_space_group_name_H-M   'P 1'
_cell_length_a   5.28965300
_cell_length_b   5.28965249
_cell_length_c   8.56853100
_cell_angle_alpha   90.00000000
_cell_angle_beta   90.00000000
_cell_angle_gamma   120.00000943
_symmetry_Int_Tables_number   1
_chemical_formula_structural   TbTm(MgIr4)2
_chemical_formula_sum   'Tb1 Tm1 Mg2 Ir8'
_cell_volume   207.63056594
_cell_formula_units_Z   1
loop_
 _symmetry_equiv_pos_site_id
 _symmetry_equiv_pos_as_xyz
  1  'x, y, z'
loop_
 _atom_site_type_symbol
 _atom_site_label
 _atom_site_symmetry_multiplicity
 _atom_site_fract_x
 _atom_site_fract_y
 _atom_site_fract_z
 _atom_site_occupancy
  Tb  Tb0  1  0.333333  0.666667  0.069318  1
  Tm  Tm1  1  0.666667  0.333333  0.569392  1
  Mg  Mg2  1  0.666667  0.333333  0.935081  1
  Mg  Mg3  1  0.333333  0.666667  0.436395  1
  Ir  Ir4  1  0.000000  0.000000  0.996025  1
  Ir  Ir5  1  0.000000  0.000000  0.496459  1
  Ir  Ir6  1  0.828882  0.657764  0.250600  1
  Ir  Ir7  1  0.171008  0.828992  0.748510  1
  Ir  Ir8  1  0.657983  0.828992  0.748510  1
  Ir  Ir9  1  0.342236  0.171118  0.250600  1
  Ir  Ir10  1  0.828882  0.171118  0.250600  1
  Ir  Ir11  1  0.171008  0.342017  0.748510  1
