# generated using pymatgen
data_K4AgSb2Au
_symmetry_space_group_name_H-M   'P 1'
_cell_length_a   6.67409503
_cell_length_b   6.67409583
_cell_length_c   6.55140309
_cell_angle_alpha   90.25540485
_cell_angle_beta   90.25540709
_cell_angle_gamma   105.88482247
_symmetry_Int_Tables_number   1
_chemical_formula_structural   K4AgSb2Au
_chemical_formula_sum   'K4 Ag1 Sb2 Au1'
_cell_volume   280.67148243
_cell_formula_units_Z   1
loop_
 _symmetry_equiv_pos_site_id
 _symmetry_equiv_pos_as_xyz
  1  'x, y, z'
loop_
 _atom_site_type_symbol
 _atom_site_label
 _atom_site_symmetry_multiplicity
 _atom_site_fract_x
 _atom_site_fract_y
 _atom_site_fract_z
 _atom_site_occupancy
  K  K0  1  0.834707  0.492068  0.748369  1
  K  K1  1  0.507932  0.165293  0.251631  1
  K  K2  1  0.492068  0.834707  0.748369  1
  K  K3  1  0.165293  0.507932  0.251631  1
  Ag  Ag4  1  0.000000  0.000000  0.000000  1
  Sb  Sb5  1  0.732736  0.732736  0.250737  1
  Sb  Sb6  1  0.267264  0.267264  0.749263  1
  Au  Au7  1  0.000000  0.000000  0.500000  1
