# generated using pymatgen
data_La3PrTh4(Si3Pd)4
_symmetry_space_group_name_H-M   'P 1'
_cell_length_a   8.28197200
_cell_length_b   8.28197187
_cell_length_c   8.62572700
_cell_angle_alpha   90.00000000
_cell_angle_beta   90.00000000
_cell_angle_gamma   120.00000050
_symmetry_Int_Tables_number   1
_chemical_formula_structural   La3PrTh4(Si3Pd)4
_chemical_formula_sum   'La3 Pr1 Th4 Si12 Pd4'
_cell_volume   512.38197986
_cell_formula_units_Z   1
loop_
 _symmetry_equiv_pos_site_id
 _symmetry_equiv_pos_as_xyz
  1  'x, y, z'
loop_
 _atom_site_type_symbol
 _atom_site_label
 _atom_site_symmetry_multiplicity
 _atom_site_fract_x
 _atom_site_fract_y
 _atom_site_fract_z
 _atom_site_occupancy
  La  La0  1  0.500337  0.499663  0.250000  1
  La  La1  1  0.999325  0.499663  0.250000  1
  La  La2  1  0.500337  0.000675  0.250000  1
  Pr  Pr3  1  0.000000  0.000000  0.250000  1
  Th  Th4  1  0.499690  0.500310  0.750000  1
  Th  Th5  1  0.000620  0.500310  0.750000  1
  Th  Th6  1  0.499690  0.999380  0.750000  1
  Th  Th7  1  0.000000  0.000000  0.750000  1
  Si  Si8  1  0.834669  0.165331  0.996798  1
  Si  Si9  1  0.165353  0.834647  0.997330  1
  Si  Si10  1  0.330662  0.165331  0.996798  1
  Si  Si11  1  0.165353  0.834647  0.502670  1
  Si  Si12  1  0.669293  0.834647  0.997330  1
  Si  Si13  1  0.834669  0.165331  0.503202  1
  Si  Si14  1  0.834669  0.669338  0.996798  1
  Si  Si15  1  0.669293  0.834647  0.502670  1
  Si  Si16  1  0.165353  0.330707  0.997330  1
  Si  Si17  1  0.330662  0.165331  0.503202  1
  Si  Si18  1  0.165353  0.330707  0.502670  1
  Si  Si19  1  0.834669  0.669338  0.503202  1
  Pd  Pd20  1  0.666667  0.333333  0.990733  1
  Pd  Pd21  1  0.333333  0.666667  0.992992  1
  Pd  Pd22  1  0.333333  0.666667  0.507008  1
  Pd  Pd23  1  0.666667  0.333333  0.509267  1
