# generated using pymatgen
data_Dy7Ho2Th3Co4
_symmetry_space_group_name_H-M   'P 1'
_cell_length_a   6.30860345
_cell_length_b   6.88869115
_cell_length_c   9.56956240
_cell_angle_alpha   89.99572974
_cell_angle_beta   89.93797558
_cell_angle_gamma   88.89210131
_symmetry_Int_Tables_number   1
_chemical_formula_structural   Dy7Ho2Th3Co4
_chemical_formula_sum   'Dy7 Ho2 Th3 Co4'
_cell_volume   415.79625223
_cell_formula_units_Z   1
loop_
 _symmetry_equiv_pos_site_id
 _symmetry_equiv_pos_as_xyz
  1  'x, y, z'
loop_
 _atom_site_type_symbol
 _atom_site_label
 _atom_site_symmetry_multiplicity
 _atom_site_fract_x
 _atom_site_fract_y
 _atom_site_fract_z
 _atom_site_occupancy
  Dy  Dy0  1  0.671978  0.172462  0.068535  1
  Dy  Dy1  1  0.829152  0.671700  0.431327  1
  Dy  Dy2  1  0.324262  0.828718  0.930830  1
  Dy  Dy3  1  0.175831  0.328284  0.571041  1
  Dy  Dy4  1  0.671797  0.172445  0.431576  1
  Dy  Dy5  1  0.175501  0.328204  0.929051  1
  Dy  Dy6  1  0.644317  0.456704  0.750065  1
  Ho  Ho7  1  0.324279  0.828765  0.569270  1
  Ho  Ho8  1  0.829358  0.671621  0.068974  1
  Th  Th9  1  0.348148  0.551764  0.249926  1
  Th  Th10  1  0.154958  0.052039  0.250178  1
  Th  Th11  1  0.844074  0.949155  0.749969  1
  Co  Co12  1  0.965834  0.372847  0.249743  1
  Co  Co13  1  0.465991  0.110414  0.749548  1
  Co  Co14  1  0.535320  0.872210  0.250044  1
  Co  Co15  1  0.039198  0.632668  0.749924  1
