# generated using pymatgen
data_Dy3Ho17Bi7Sb5
_symmetry_space_group_name_H-M   'P 1'
_cell_length_a   8.15878669
_cell_length_b   9.42104755
_cell_length_c   11.94109901
_cell_angle_alpha   90.04433521
_cell_angle_beta   89.93988878
_cell_angle_gamma   89.98896726
_symmetry_Int_Tables_number   1
_chemical_formula_structural   Dy3Ho17Bi7Sb5
_chemical_formula_sum   'Dy3 Ho17 Bi7 Sb5'
_cell_volume   917.84362762
_cell_formula_units_Z   1
loop_
 _symmetry_equiv_pos_site_id
 _symmetry_equiv_pos_as_xyz
  1  'x, y, z'
loop_
 _atom_site_type_symbol
 _atom_site_label
 _atom_site_symmetry_multiplicity
 _atom_site_fract_x
 _atom_site_fract_y
 _atom_site_fract_z
 _atom_site_occupancy
  Dy  Dy0  1  0.812682  0.246656  0.282435  1
  Dy  Dy1  1  0.684483  0.750065  0.781859  1
  Dy  Dy2  1  0.184425  0.749942  0.717948  1
  Ho  Ho3  1  0.355944  0.753035  0.214227  1
  Ho  Ho4  1  0.850135  0.752484  0.287311  1
  Ho  Ho5  1  0.647034  0.250216  0.786691  1
  Ho  Ho6  1  0.147074  0.249961  0.713067  1
  Ho  Ho7  1  0.689336  0.563210  0.057774  1
  Ho  Ho8  1  0.191467  0.937756  0.441534  1
  Ho  Ho9  1  0.310570  0.062871  0.942314  1
  Ho  Ho10  1  0.810231  0.436887  0.557364  1
  Ho  Ho11  1  0.310902  0.436997  0.942472  1
  Ho  Ho12  1  0.809436  0.062300  0.556002  1
  Ho  Ho13  1  0.688041  0.937386  0.059964  1
  Ho  Ho14  1  0.189840  0.562968  0.442010  1
  Ho  Ho15  1  0.472671  0.247774  0.486488  1
  Ho  Ho16  1  0.971985  0.250017  0.012489  1
  Ho  Ho17  1  0.528649  0.752198  0.510486  1
  Ho  Ho18  1  0.027729  0.750144  0.987947  1
  Ho  Ho19  1  0.317354  0.247729  0.218766  1
  Bi  Bi20  1  0.065162  0.504410  0.175266  1
  Bi  Bi21  1  0.435312  0.495578  0.674147  1
  Bi  Bi22  1  0.934881  0.004466  0.825047  1
  Bi  Bi23  1  0.435023  0.004496  0.675062  1
  Bi  Bi24  1  0.935020  0.495463  0.825128  1
  Bi  Bi25  1  0.564796  0.504222  0.325058  1
  Bi  Bi26  1  0.065301  0.995650  0.174723  1
  Sb  Sb27  1  0.407605  0.750033  0.958339  1
  Sb  Sb28  1  0.908369  0.749870  0.541833  1
  Sb  Sb29  1  0.592187  0.250057  0.041916  1
  Sb  Sb30  1  0.092110  0.249997  0.457806  1
  Sb  Sb31  1  0.564242  0.995163  0.326530  1
