# generated using pymatgen
data_LaPr2Th(Zn5Sn)2
_symmetry_space_group_name_H-M   'P 1'
_cell_length_a   8.62628000
_cell_length_b   8.62628123
_cell_length_c   9.10894560
_cell_angle_alpha   89.80197331
_cell_angle_beta   90.19802671
_cell_angle_gamma   149.59761854
_symmetry_Int_Tables_number   1
_chemical_formula_structural   LaPr2Th(Zn5Sn)2
_chemical_formula_sum   'La1 Pr2 Th1 Zn10 Sn2'
_cell_volume   343.02261057
_cell_formula_units_Z   1
loop_
 _symmetry_equiv_pos_site_id
 _symmetry_equiv_pos_as_xyz
  1  'x, y, z'
loop_
 _atom_site_type_symbol
 _atom_site_label
 _atom_site_symmetry_multiplicity
 _atom_site_fract_x
 _atom_site_fract_y
 _atom_site_fract_z
 _atom_site_occupancy
  La  La0  1  0.000582  0.999418  0.502256  1
  Pr  Pr1  1  0.794544  0.205456  0.750296  1
  Pr  Pr2  1  0.000673  0.999327  0.997641  1
  Th  Th3  1  0.205879  0.794121  0.249808  1
  Zn  Zn4  1  0.812743  0.187257  0.391708  1
  Zn  Zn5  1  0.185667  0.814333  0.608405  1
  Zn  Zn6  1  0.813152  0.186848  0.108648  1
  Zn  Zn7  1  0.185240  0.814760  0.891266  1
  Zn  Zn8  1  0.658347  0.341653  0.482643  1
  Zn  Zn9  1  0.342842  0.657158  0.515552  1
  Zn  Zn10  1  0.658252  0.341748  0.017112  1
  Zn  Zn11  1  0.342928  0.657072  0.984590  1
  Zn  Zn12  1  0.395394  0.604606  0.249918  1
  Zn  Zn13  1  0.604417  0.395583  0.750126  1
  Sn  Sn14  1  0.555704  0.444296  0.248814  1
  Sn  Sn15  1  0.443633  0.556367  0.751218  1
