# generated using pymatgen
data_Tm12In2Fe2Tc
_symmetry_space_group_name_H-M   'P 1'
_cell_length_a   8.27713723
_cell_length_b   8.27713696
_cell_length_c   8.27713796
_cell_angle_alpha   108.90489060
_cell_angle_beta   108.90489241
_cell_angle_gamma   110.60991859
_symmetry_Int_Tables_number   1
_chemical_formula_structural   Tm12In2Fe2Tc
_chemical_formula_sum   'Tm12 In2 Fe2 Tc1'
_cell_volume   436.40489834
_cell_formula_units_Z   1
loop_
 _symmetry_equiv_pos_site_id
 _symmetry_equiv_pos_as_xyz
  1  'x, y, z'
loop_
 _atom_site_type_symbol
 _atom_site_label
 _atom_site_symmetry_multiplicity
 _atom_site_fract_x
 _atom_site_fract_y
 _atom_site_fract_z
 _atom_site_occupancy
  Tm  Tm0  1  0.193063  0.431605  0.238542  1
  Tm  Tm1  1  0.806937  0.568395  0.761458  1
  Tm  Tm2  1  0.193063  0.954522  0.761458  1
  Tm  Tm3  1  0.954522  0.193063  0.761458  1
  Tm  Tm4  1  0.806937  0.045478  0.238542  1
  Tm  Tm5  1  0.045478  0.806937  0.238542  1
  Tm  Tm6  1  0.431605  0.193063  0.238542  1
  Tm  Tm7  1  0.568395  0.806937  0.761458  1
  Tm  Tm8  1  0.307548  0.307548  0.615096  1
  Tm  Tm9  1  0.692452  0.692452  0.384904  1
  Tm  Tm10  1  0.692452  0.307548  0.000000  1
  Tm  Tm11  1  0.307548  0.692452  0.000000  1
  In  In12  1  0.000000  0.500000  0.500000  1
  In  In13  1  0.500000  0.000000  0.500000  1
  Fe  Fe14  1  0.383964  0.383964  0.000000  1
  Fe  Fe15  1  0.616036  0.616036  0.000000  1
  Tc  Tc16  1  0.000000  0.000000  0.000000  1
