# generated using pymatgen
data_Ca2(AlAu2)3
_symmetry_space_group_name_H-M   'P 1'
_cell_length_a   8.79043090
_cell_length_b   8.79043062
_cell_length_c   8.79043070
_cell_angle_alpha   57.07123660
_cell_angle_beta   57.07123619
_cell_angle_gamma   57.07123723
_symmetry_Int_Tables_number   1
_chemical_formula_structural   Ca2(AlAu2)3
_chemical_formula_sum   'Ca4 Al6 Au12'
_cell_volume   447.87951494
_cell_formula_units_Z   2
loop_
 _symmetry_equiv_pos_site_id
 _symmetry_equiv_pos_as_xyz
  1  'x, y, z'
loop_
 _atom_site_type_symbol
 _atom_site_label
 _atom_site_symmetry_multiplicity
 _atom_site_fract_x
 _atom_site_fract_y
 _atom_site_fract_z
 _atom_site_occupancy
  Ca  Ca0  1  0.410401  0.410401  0.410401  1
  Ca  Ca1  1  0.910401  0.910401  0.910401  1
  Ca  Ca2  1  0.589599  0.589599  0.589599  1
  Ca  Ca3  1  0.089599  0.089599  0.089599  1
  Al  Al4  1  0.053465  0.250000  0.446535  1
  Al  Al5  1  0.446535  0.053465  0.250000  1
  Al  Al6  1  0.250000  0.446535  0.053465  1
  Al  Al7  1  0.946535  0.750000  0.553465  1
  Al  Al8  1  0.553465  0.946535  0.750000  1
  Al  Al9  1  0.750000  0.553465  0.946535  1
  Au  Au10  1  0.975022  0.366881  0.704662  1
  Au  Au11  1  0.704662  0.975022  0.366881  1
  Au  Au12  1  0.366881  0.704662  0.975022  1
  Au  Au13  1  0.204662  0.866881  0.475022  1
  Au  Au14  1  0.475022  0.204662  0.866881  1
  Au  Au15  1  0.866881  0.475022  0.204662  1
  Au  Au16  1  0.024978  0.633119  0.295338  1
  Au  Au17  1  0.295338  0.024978  0.633119  1
  Au  Au18  1  0.633119  0.295338  0.024978  1
  Au  Au19  1  0.795338  0.133119  0.524978  1
  Au  Au20  1  0.524978  0.795338  0.133119  1
  Au  Au21  1  0.133119  0.524978  0.795338  1
