# generated using pymatgen
data_PuNpB6Os
_symmetry_space_group_name_H-M   'P 1'
_cell_length_a   3.57618400
_cell_length_b   9.33730900
_cell_length_c   11.39373200
_cell_angle_alpha   90.00000000
_cell_angle_beta   90.00000000
_cell_angle_gamma   90.00000000
_symmetry_Int_Tables_number   1
_chemical_formula_structural   PuNpB6Os
_chemical_formula_sum   'Pu4 Np4 B24 Os4'
_cell_volume   380.45875891
_cell_formula_units_Z   4
loop_
 _symmetry_equiv_pos_site_id
 _symmetry_equiv_pos_as_xyz
  1  'x, y, z'
loop_
 _atom_site_type_symbol
 _atom_site_label
 _atom_site_symmetry_multiplicity
 _atom_site_fract_x
 _atom_site_fract_y
 _atom_site_fract_z
 _atom_site_occupancy
  Pu  Pu0  1  0.000000  0.337279  0.406977  1
  Pu  Pu1  1  0.000000  0.662721  0.593023  1
  Pu  Pu2  1  0.000000  0.837279  0.093023  1
  Pu  Pu3  1  0.000000  0.162721  0.906977  1
  Np  Np4  1  0.000000  0.959227  0.401708  1
  Np  Np5  1  0.000000  0.040773  0.598292  1
  Np  Np6  1  0.000000  0.459227  0.098292  1
  Np  Np7  1  0.000000  0.540773  0.901708  1
  B  B8  1  0.500000  0.552108  0.431392  1
  B  B9  1  0.500000  0.447892  0.568608  1
  B  B10  1  0.500000  0.052108  0.068608  1
  B  B11  1  0.500000  0.947892  0.931392  1
  B  B12  1  0.500000  0.743324  0.423406  1
  B  B13  1  0.500000  0.256676  0.576594  1
  B  B14  1  0.500000  0.243324  0.076594  1
  B  B15  1  0.500000  0.756676  0.923406  1
  B  B16  1  0.500000  0.805244  0.274376  1
  B  B17  1  0.500000  0.194756  0.725624  1
  B  B18  1  0.500000  0.305244  0.225624  1
  B  B19  1  0.500000  0.694756  0.774376  1
  B  B20  1  0.500000  0.645861  0.188345  1
  B  B21  1  0.500000  0.354139  0.811655  1
  B  B22  1  0.500000  0.145861  0.311655  1
  B  B23  1  0.500000  0.854139  0.688345  1
  B  B24  1  0.500000  0.988612  0.220562  1
  B  B25  1  0.500000  0.011388  0.779438  1
  B  B26  1  0.500000  0.488612  0.279438  1
  B  B27  1  0.500000  0.511388  0.720562  1
  B  B28  1  0.500000  0.642791  0.039549  1
  B  B29  1  0.500000  0.357209  0.960451  1
  B  B30  1  0.500000  0.142791  0.460451  1
  B  B31  1  0.500000  0.857209  0.539549  1
  Os  Os32  1  0.000000  0.646943  0.319042  1
  Os  Os33  1  0.000000  0.353057  0.680958  1
  Os  Os34  1  0.000000  0.146943  0.180958  1
  Os  Os35  1  0.000000  0.853057  0.819042  1
