# generated using pymatgen
data_Ho4Ga3SiRh4
_symmetry_space_group_name_H-M   'P 1'
_cell_length_a   4.45807300
_cell_length_b   7.02182106
_cell_length_c   7.22258690
_cell_angle_alpha   89.86449832
_cell_angle_beta   90.00000000
_cell_angle_gamma   90.00000000
_symmetry_Int_Tables_number   1
_chemical_formula_structural   Ho4Ga3SiRh4
_chemical_formula_sum   'Ho4 Ga3 Si1 Rh4'
_cell_volume   226.09371754
_cell_formula_units_Z   1
loop_
 _symmetry_equiv_pos_site_id
 _symmetry_equiv_pos_as_xyz
  1  'x, y, z'
loop_
 _atom_site_type_symbol
 _atom_site_label
 _atom_site_symmetry_multiplicity
 _atom_site_fract_x
 _atom_site_fract_y
 _atom_site_fract_z
 _atom_site_occupancy
  Ho  Ho0  1  0.250000  0.482372  0.693480  1
  Ho  Ho1  1  0.750000  0.510908  0.306343  1
  Ho  Ho2  1  0.250000  0.987532  0.809453  1
  Ho  Ho3  1  0.750000  0.014009  0.193346  1
  Ga  Ga4  1  0.250000  0.297691  0.104115  1
  Ga  Ga5  1  0.750000  0.698522  0.894537  1
  Ga  Ga6  1  0.250000  0.798558  0.398635  1
  Si  Si7  1  0.750000  0.199252  0.602366  1
  Rh  Rh8  1  0.750000  0.854424  0.567197  1
  Rh  Rh9  1  0.250000  0.164627  0.442487  1
  Rh  Rh10  1  0.750000  0.329461  0.920103  1
  Rh  Rh11  1  0.250000  0.662644  0.067938  1
