# generated using pymatgen
data_Tm8Be3Si12Rh
_symmetry_space_group_name_H-M   'P 1'
_cell_length_a   7.89873800
_cell_length_b   7.89873957
_cell_length_c   7.91695500
_cell_angle_alpha   90.00000000
_cell_angle_beta   90.00000000
_cell_angle_gamma   120.00000181
_symmetry_Int_Tables_number   1
_chemical_formula_structural   Tm8Be3Si12Rh
_chemical_formula_sum   'Tm8 Be3 Si12 Rh1'
_cell_volume   427.76407037
_cell_formula_units_Z   1
loop_
 _symmetry_equiv_pos_site_id
 _symmetry_equiv_pos_as_xyz
  1  'x, y, z'
loop_
 _atom_site_type_symbol
 _atom_site_label
 _atom_site_symmetry_multiplicity
 _atom_site_fract_x
 _atom_site_fract_y
 _atom_site_fract_z
 _atom_site_occupancy
  Tm  Tm0  1  0.000000  0.000000  0.248447  1
  Tm  Tm1  1  0.000000  0.000000  0.752123  1
  Tm  Tm2  1  0.498756  0.501244  0.249077  1
  Tm  Tm3  1  0.498756  0.997512  0.249077  1
  Tm  Tm4  1  0.002488  0.501244  0.249077  1
  Tm  Tm5  1  0.501907  0.498093  0.750951  1
  Tm  Tm6  1  0.996187  0.498093  0.750951  1
  Tm  Tm7  1  0.501907  0.003813  0.750951  1
  Be  Be8  1  0.666667  0.333333  0.497107  1
  Be  Be9  1  0.666667  0.333333  0.002827  1
  Be  Be10  1  0.333333  0.666667  0.993571  1
  Si  Si11  1  0.829143  0.170857  0.498188  1
  Si  Si12  1  0.829143  0.658286  0.498188  1
  Si  Si13  1  0.341714  0.170857  0.498188  1
  Si  Si14  1  0.826780  0.173220  0.000930  1
  Si  Si15  1  0.826780  0.653563  0.000930  1
  Si  Si16  1  0.346437  0.173220  0.000930  1
  Si  Si17  1  0.172552  0.827448  0.999767  1
  Si  Si18  1  0.654897  0.827448  0.999767  1
  Si  Si19  1  0.172552  0.345103  0.999767  1
  Si  Si20  1  0.167787  0.832213  0.500669  1
  Si  Si21  1  0.664427  0.832213  0.500669  1
  Si  Si22  1  0.167787  0.335573  0.500669  1
  Rh  Rh23  1  0.333333  0.666667  0.507181  1
