# generated using pymatgen
data_LaTbGa2(Co3B)2
_symmetry_space_group_name_H-M   'P 1'
_cell_length_a   5.22504900
_cell_length_b   5.22578884
_cell_length_c   6.69014800
_cell_angle_alpha   90.00000000
_cell_angle_beta   90.00000000
_cell_angle_gamma   119.99534851
_symmetry_Int_Tables_number   1
_chemical_formula_structural   LaTbGa2(Co3B)2
_chemical_formula_sum   'La1 Tb1 Ga2 Co6 B2'
_cell_volume   158.20818048
_cell_formula_units_Z   1
loop_
 _symmetry_equiv_pos_site_id
 _symmetry_equiv_pos_as_xyz
  1  'x, y, z'
loop_
 _atom_site_type_symbol
 _atom_site_label
 _atom_site_symmetry_multiplicity
 _atom_site_fract_x
 _atom_site_fract_y
 _atom_site_fract_z
 _atom_site_occupancy
  La  La0  1  0.999987  0.000000  0.000000  1
  Tb  Tb1  1  0.999987  0.000000  0.500000  1
  Ga  Ga2  1  0.333302  0.666639  0.000000  1
  Ga  Ga3  1  0.666663  0.333361  0.000000  1
  Co  Co4  1  0.499984  0.000000  0.297964  1
  Co  Co5  1  0.499984  0.500001  0.297990  1
  Co  Co6  1  0.999981  0.499999  0.297990  1
  Co  Co7  1  0.499984  0.000000  0.702036  1
  Co  Co8  1  0.499984  0.500001  0.702010  1
  Co  Co9  1  0.999981  0.499999  0.702010  1
  B  B10  1  0.333329  0.666698  0.500000  1
  B  B11  1  0.666631  0.333302  0.500000  1
