# generated using pymatgen
data_Pr4Dy3USe12
_symmetry_space_group_name_H-M   'P 1'
_cell_length_a   4.16837200
_cell_length_b   10.99435932
_cell_length_c   11.37002741
_cell_angle_alpha   90.08887513
_cell_angle_beta   90.00000000
_cell_angle_gamma   90.00000000
_symmetry_Int_Tables_number   1
_chemical_formula_structural   Pr4Dy3USe12
_chemical_formula_sum   'Pr4 Dy3 U1 Se12'
_cell_volume   521.07157855
_cell_formula_units_Z   1
loop_
 _symmetry_equiv_pos_site_id
 _symmetry_equiv_pos_as_xyz
  1  'x, y, z'
loop_
 _atom_site_type_symbol
 _atom_site_label
 _atom_site_symmetry_multiplicity
 _atom_site_fract_x
 _atom_site_fract_y
 _atom_site_fract_z
 _atom_site_occupancy
  Pr  Pr0  1  0.750000  0.501760  0.695786  1
  Pr  Pr1  1  0.750000  0.999802  0.196319  1
  Pr  Pr2  1  0.250000  0.502457  0.302551  1
  Pr  Pr3  1  0.250000  0.997849  0.805835  1
  Dy  Dy4  1  0.250000  0.312169  0.991318  1
  Dy  Dy5  1  0.750000  0.811972  0.508907  1
  Dy  Dy6  1  0.750000  0.687870  0.009928  1
  U  U7  1  0.250000  0.188588  0.492700  1
  Se  Se8  1  0.250000  0.295373  0.730710  1
  Se  Se9  1  0.250000  0.203926  0.232736  1
  Se  Se10  1  0.750000  0.704281  0.268592  1
  Se  Se11  1  0.750000  0.796209  0.767854  1
  Se  Se12  1  0.750000  0.054186  0.614698  1
  Se  Se13  1  0.750000  0.446154  0.113673  1
  Se  Se14  1  0.250000  0.944321  0.385010  1
  Se  Se15  1  0.250000  0.552974  0.885953  1
  Se  Se16  1  0.250000  0.631505  0.542423  1
  Se  Se17  1  0.250000  0.867652  0.042442  1
  Se  Se18  1  0.750000  0.368568  0.455263  1
  Se  Se19  1  0.750000  0.132383  0.957302  1
