# generated using pymatgen
data_SmU2(SnIr)3
_symmetry_space_group_name_H-M   'P 1'
_cell_length_a   7.52201490
_cell_length_b   7.52201479
_cell_length_c   4.00426100
_cell_angle_alpha   90.00000000
_cell_angle_beta   90.00000000
_cell_angle_gamma   121.52364455
_symmetry_Int_Tables_number   1
_chemical_formula_structural   SmU2(SnIr)3
_chemical_formula_sum   'Sm1 U2 Sn3 Ir3'
_cell_volume   193.12862924
_cell_formula_units_Z   1
loop_
 _symmetry_equiv_pos_site_id
 _symmetry_equiv_pos_as_xyz
  1  'x, y, z'
loop_
 _atom_site_type_symbol
 _atom_site_label
 _atom_site_symmetry_multiplicity
 _atom_site_fract_x
 _atom_site_fract_y
 _atom_site_fract_z
 _atom_site_occupancy
  Sm  Sm0  1  0.408449  0.408449  0.000000  1
  U  U1  1  0.589867  0.000696  0.000000  1
  U  U2  1  0.000696  0.589867  0.000000  1
  Sn  Sn3  1  0.254505  0.006898  0.500000  1
  Sn  Sn4  1  0.006898  0.254505  0.500000  1
  Sn  Sn5  1  0.736050  0.736050  0.500000  1
  Ir  Ir6  1  0.330613  0.688688  0.500000  1
  Ir  Ir7  1  0.688688  0.330613  0.500000  1
  Ir  Ir8  1  0.984235  0.984235  0.000000  1
