# generated using pymatgen
data_HoSc6Fe6Sn23
_symmetry_space_group_name_H-M   'P 1'
_cell_length_a   9.54956600
_cell_length_b   9.54956622
_cell_length_c   9.78982800
_cell_angle_alpha   90.00000000
_cell_angle_beta   90.00000000
_cell_angle_gamma   119.99999925
_symmetry_Int_Tables_number   1
_chemical_formula_structural   HoSc6Fe6Sn23
_chemical_formula_sum   'Ho1 Sc6 Fe6 Sn23'
_cell_volume   773.16640584
_cell_formula_units_Z   1
loop_
 _symmetry_equiv_pos_site_id
 _symmetry_equiv_pos_as_xyz
  1  'x, y, z'
loop_
 _atom_site_type_symbol
 _atom_site_label
 _atom_site_symmetry_multiplicity
 _atom_site_fract_x
 _atom_site_fract_y
 _atom_site_fract_z
 _atom_site_occupancy
  Ho  Ho0  1  0.000000  0.000000  0.000000  1
  Sc  Sc1  1  0.510535  0.489465  0.699395  1
  Sc  Sc2  1  0.510535  0.021068  0.699395  1
  Sc  Sc3  1  0.978932  0.489465  0.699395  1
  Sc  Sc4  1  0.021068  0.510535  0.300605  1
  Sc  Sc5  1  0.489465  0.978932  0.300605  1
  Sc  Sc6  1  0.489465  0.510535  0.300605  1
  Fe  Fe7  1  0.170823  0.829177  0.797094  1
  Fe  Fe8  1  0.170823  0.341645  0.797094  1
  Fe  Fe9  1  0.658355  0.829177  0.797094  1
  Fe  Fe10  1  0.341645  0.170823  0.202906  1
  Fe  Fe11  1  0.829177  0.658355  0.202906  1
  Fe  Fe12  1  0.829177  0.170823  0.202906  1
  Sn  Sn13  1  0.666667  0.333333  0.175287  1
  Sn  Sn14  1  0.666667  0.333333  0.855361  1
  Sn  Sn15  1  0.333333  0.666667  0.144639  1
  Sn  Sn16  1  0.346252  0.346252  0.000000  1
  Sn  Sn17  1  0.000000  0.653748  0.000000  1
  Sn  Sn18  1  0.653748  0.000000  0.000000  1
  Sn  Sn19  1  0.653748  0.653748  0.000000  1
  Sn  Sn20  1  0.333333  0.666667  0.824713  1
  Sn  Sn21  1  0.440290  0.220145  0.461953  1
  Sn  Sn22  1  0.220145  0.779855  0.538047  1
  Sn  Sn23  1  0.220145  0.440290  0.538047  1
  Sn  Sn24  1  0.559710  0.779855  0.538047  1
  Sn  Sn25  1  0.120802  0.879198  0.272207  1
  Sn  Sn26  1  0.779855  0.559710  0.461953  1
  Sn  Sn27  1  0.779855  0.220145  0.461953  1
  Sn  Sn28  1  0.346252  0.000000  0.000000  1
  Sn  Sn29  1  0.120802  0.241603  0.272207  1
  Sn  Sn30  1  0.758397  0.879198  0.272207  1
  Sn  Sn31  1  0.241603  0.120802  0.727793  1
  Sn  Sn32  1  0.879198  0.758397  0.727793  1
  Sn  Sn33  1  0.879198  0.120802  0.727793  1
  Sn  Sn34  1  0.000000  0.000000  0.500000  1
  Sn  Sn35  1  0.000000  0.346252  0.000000  1
