# generated using pymatgen
data_NdCo11
_symmetry_space_group_name_H-M   'P 1'
_cell_length_a   7.62649018
_cell_length_b   7.62649035
_cell_length_c   7.62649010
_cell_angle_alpha   99.81763104
_cell_angle_beta   99.81762424
_cell_angle_gamma   131.22173002
_symmetry_Int_Tables_number   1
_chemical_formula_structural   NdCo11
_chemical_formula_sum   'Nd2 Co22'
_cell_volume   303.87303483
_cell_formula_units_Z   2
loop_
 _symmetry_equiv_pos_site_id
 _symmetry_equiv_pos_as_xyz
  1  'x, y, z'
loop_
 _atom_site_type_symbol
 _atom_site_label
 _atom_site_symmetry_multiplicity
 _atom_site_fract_x
 _atom_site_fract_y
 _atom_site_fract_z
 _atom_site_occupancy
  Nd  Nd0  1  0.250000  0.750000  0.500000  1
  Nd  Nd1  1  0.000000  0.000000  0.000000  1
  Co  Co2  1  0.433798  0.104394  0.920533  1
  Co  Co3  1  0.183861  0.513266  0.079467  1
  Co  Co4  1  0.500000  0.500000  0.000000  1
  Co  Co5  1  0.750000  0.250000  0.500000  1
  Co  Co6  1  0.625000  0.375000  0.750000  1
  Co  Co7  1  0.125000  0.375000  0.750000  1
  Co  Co8  1  0.625000  0.375000  0.250000  1
  Co  Co9  1  0.625000  0.875000  0.250000  1
  Co  Co10  1  0.183861  0.104394  0.670596  1
  Co  Co11  1  0.763266  0.933861  0.579467  1
  Co  Co12  1  0.354394  0.183798  0.420533  1
  Co  Co13  1  0.433798  0.513266  0.329404  1
  Co  Co14  1  0.895606  0.816139  0.329404  1
  Co  Co15  1  0.486734  0.566202  0.670596  1
  Co  Co16  1  0.066139  0.236734  0.420533  1
  Co  Co17  1  0.816202  0.645606  0.579467  1
  Co  Co18  1  0.066139  0.645606  0.829404  1
  Co  Co19  1  0.486734  0.816139  0.920533  1
  Co  Co20  1  0.895606  0.566202  0.079467  1
  Co  Co21  1  0.816202  0.236734  0.170596  1
  Co  Co22  1  0.354394  0.933861  0.170596  1
  Co  Co23  1  0.763266  0.183798  0.829404  1
