# generated using pymatgen
data_Tm2Lu10Co5Sb
_symmetry_space_group_name_H-M   'P 1'
_cell_length_a   8.07361593
_cell_length_b   8.06978828
_cell_length_c   8.07361562
_cell_angle_alpha   110.98947619
_cell_angle_beta   111.12859321
_cell_angle_gamma   106.35837352
_symmetry_Int_Tables_number   1
_chemical_formula_structural   Tm2Lu10Co5Sb
_chemical_formula_sum   'Tm2 Lu10 Co5 Sb1'
_cell_volume   403.94022509
_cell_formula_units_Z   1
loop_
 _symmetry_equiv_pos_site_id
 _symmetry_equiv_pos_as_xyz
  1  'x, y, z'
loop_
 _atom_site_type_symbol
 _atom_site_label
 _atom_site_symmetry_multiplicity
 _atom_site_fract_x
 _atom_site_fract_y
 _atom_site_fract_z
 _atom_site_occupancy
  Tm  Tm0  1  0.214226  0.019220  0.804994  1
  Tm  Tm1  1  0.785774  0.980780  0.195006  1
  Lu  Lu2  1  0.285289  0.184592  0.469027  1
  Lu  Lu3  1  0.714711  0.815408  0.530973  1
  Lu  Lu4  1  0.284434  0.815408  0.100696  1
  Lu  Lu5  1  0.715566  0.184592  0.899304  1
  Lu  Lu6  1  0.620471  0.313787  0.307913  1
  Lu  Lu7  1  0.379529  0.686213  0.692087  1
  Lu  Lu8  1  0.005874  0.313787  0.693317  1
  Lu  Lu9  1  0.994126  0.686213  0.306683  1
  Lu  Lu10  1  0.213787  0.409087  0.195301  1
  Lu  Lu11  1  0.786213  0.590913  0.804699  1
  Co  Co12  1  0.000429  0.371473  0.371044  1
  Co  Co13  1  0.999571  0.628527  0.628956  1
  Co  Co14  1  0.386587  0.886732  0.500146  1
  Co  Co15  1  0.613413  0.113268  0.499854  1
  Co  Co16  1  0.000000  0.000000  0.000000  1
  Sb  Sb17  1  0.500000  0.500000  0.000000  1
