# generated using pymatgen
data_Tb3YbVRe3B16
_symmetry_space_group_name_H-M   'P 1'
_cell_length_a   3.58228900
_cell_length_b   5.98982466
_cell_length_c   11.58467904
_cell_angle_alpha   90.13417027
_cell_angle_beta   90.00000000
_cell_angle_gamma   90.00000000
_symmetry_Int_Tables_number   1
_chemical_formula_structural   Tb3YbVRe3B16
_chemical_formula_sum   'Tb3 Yb1 V1 Re3 B16'
_cell_volume   248.57505494
_cell_formula_units_Z   1
loop_
 _symmetry_equiv_pos_site_id
 _symmetry_equiv_pos_as_xyz
  1  'x, y, z'
loop_
 _atom_site_type_symbol
 _atom_site_label
 _atom_site_symmetry_multiplicity
 _atom_site_fract_x
 _atom_site_fract_y
 _atom_site_fract_z
 _atom_site_occupancy
  Tb  Tb0  1  0.000000  0.875720  0.852358  1
  Tb  Tb1  1  0.000000  0.626985  0.346684  1
  Tb  Tb2  1  0.000000  0.372650  0.653502  1
  Yb  Yb3  1  0.000000  0.125489  0.148451  1
  V  V4  1  0.000000  0.372902  0.918110  1
  Re  Re5  1  0.000000  0.132753  0.414540  1
  Re  Re6  1  0.000000  0.867743  0.584756  1
  Re  Re7  1  0.000000  0.626940  0.083129  1
  B  B8  1  0.500000  0.476446  0.191532  1
  B  B9  1  0.500000  0.523981  0.808236  1
  B  B10  1  0.500000  0.976416  0.306996  1
  B  B11  1  0.500000  0.024464  0.692687  1
  B  B12  1  0.500000  0.283290  0.313375  1
  B  B13  1  0.500000  0.715970  0.685984  1
  B  B14  1  0.500000  0.785166  0.184031  1
  B  B15  1  0.500000  0.214457  0.815715  1
  B  B16  1  0.500000  0.363928  0.468200  1
  B  B17  1  0.500000  0.636064  0.531672  1
  B  B18  1  0.500000  0.864461  0.032756  1
  B  B19  1  0.500000  0.135484  0.967187  1
  B  B20  1  0.500000  0.385003  0.046756  1
  B  B21  1  0.500000  0.612902  0.953466  1
  B  B22  1  0.500000  0.887175  0.452365  1
  B  B23  1  0.500000  0.113609  0.547513  1
