# generated using pymatgen
data_TbHo3In4
_symmetry_space_group_name_H-M   'P 1'
_cell_length_a   6.49056090
_cell_length_b   6.49056143
_cell_length_c   10.28152000
_cell_angle_alpha   90.00000000
_cell_angle_beta   90.00000000
_cell_angle_gamma   103.52039298
_symmetry_Int_Tables_number   1
_chemical_formula_structural   TbHo3In4
_chemical_formula_sum   'Tb2 Ho6 In8'
_cell_volume   421.13001365
_cell_formula_units_Z   2
loop_
 _symmetry_equiv_pos_site_id
 _symmetry_equiv_pos_as_xyz
  1  'x, y, z'
loop_
 _atom_site_type_symbol
 _atom_site_label
 _atom_site_symmetry_multiplicity
 _atom_site_fract_x
 _atom_site_fract_y
 _atom_site_fract_z
 _atom_site_occupancy
  Tb  Tb0  1  0.977326  0.977326  0.250000  1
  Tb  Tb1  1  0.022674  0.022674  0.750000  1
  Ho  Ho2  1  0.525310  0.525310  0.250000  1
  Ho  Ho3  1  0.474690  0.474690  0.750000  1
  Ho  Ho4  1  0.248682  0.751318  0.500000  1
  Ho  Ho5  1  0.248682  0.751318  0.000000  1
  Ho  Ho6  1  0.751318  0.248682  0.500000  1
  Ho  Ho7  1  0.751318  0.248682  0.000000  1
  In  In8  1  0.252473  0.252473  0.016079  1
  In  In9  1  0.747527  0.747527  0.983921  1
  In  In10  1  0.252473  0.252473  0.483921  1
  In  In11  1  0.747527  0.747527  0.516079  1
  In  In12  1  0.486293  0.018041  0.250000  1
  In  In13  1  0.981959  0.513707  0.750000  1
  In  In14  1  0.513707  0.981959  0.750000  1
  In  In15  1  0.018041  0.486293  0.250000  1
