# generated using pymatgen
data_Pa12Al6Tc5Rh
_symmetry_space_group_name_H-M   'P 1'
_cell_length_a   7.69858739
_cell_length_b   7.71008950
_cell_length_c   9.45729400
_cell_angle_alpha   89.86918719
_cell_angle_beta   89.70020485
_cell_angle_gamma   119.72965545
_symmetry_Int_Tables_number   1
_chemical_formula_structural   Pa12Al6Tc5Rh
_chemical_formula_sum   'Pa12 Al6 Tc5 Rh1'
_cell_volume   487.45198844
_cell_formula_units_Z   1
loop_
 _symmetry_equiv_pos_site_id
 _symmetry_equiv_pos_as_xyz
  1  'x, y, z'
loop_
 _atom_site_type_symbol
 _atom_site_label
 _atom_site_symmetry_multiplicity
 _atom_site_fract_x
 _atom_site_fract_y
 _atom_site_fract_z
 _atom_site_occupancy
  Pa  Pa0  1  0.999440  0.594988  0.507988  1
  Pa  Pa1  1  0.594994  0.999615  0.507772  1
  Pa  Pa2  1  0.401900  0.402078  0.506255  1
  Pa  Pa3  1  0.996318  0.404062  0.010319  1
  Pa  Pa4  1  0.404175  0.996395  0.010527  1
  Pa  Pa5  1  0.603491  0.603510  0.012981  1
  Pa  Pa6  1  0.001320  0.745940  0.172475  1
  Pa  Pa7  1  0.745689  0.001346  0.172839  1
  Pa  Pa8  1  0.257033  0.257061  0.170875  1
  Pa  Pa9  1  0.996908  0.257050  0.669146  1
  Pa  Pa10  1  0.257407  0.996682  0.668925  1
  Pa  Pa11  1  0.747365  0.747057  0.673282  1
  Al  Al12  1  0.667131  0.334478  0.262979  1
  Al  Al13  1  0.334064  0.666843  0.262978  1
  Al  Al14  1  0.333521  0.663273  0.765817  1
  Al  Al15  1  0.663211  0.333494  0.765878  1
  Al  Al16  1  0.999806  0.999692  0.426194  1
  Al  Al17  1  0.001058  0.001107  0.925042  1
  Tc  Tc18  1  0.000283  0.337363  0.338959  1
  Tc  Tc19  1  0.337638  0.000369  0.338656  1
  Tc  Tc20  1  0.662057  0.662150  0.340379  1
  Tc  Tc21  1  0.999202  0.661364  0.839153  1
  Tc  Tc22  1  0.661432  0.999420  0.838935  1
  Rh  Rh23  1  0.334556  0.334664  0.840903  1
