# generated using pymatgen
data_Li4Dy(ErSi2)3
_symmetry_space_group_name_H-M   'P 1'
_cell_length_a   9.21722245
_cell_length_b   9.21722186
_cell_length_c   6.65008200
_cell_angle_alpha   90.00000000
_cell_angle_beta   90.00000000
_cell_angle_gamma   153.48197781
_symmetry_Int_Tables_number   1
_chemical_formula_structural   Li4Dy(ErSi2)3
_chemical_formula_sum   'Li4 Dy1 Er3 Si6'
_cell_volume   252.24840534
_cell_formula_units_Z   1
loop_
 _symmetry_equiv_pos_site_id
 _symmetry_equiv_pos_as_xyz
  1  'x, y, z'
loop_
 _atom_site_type_symbol
 _atom_site_label
 _atom_site_symmetry_multiplicity
 _atom_site_fract_x
 _atom_site_fract_y
 _atom_site_fract_z
 _atom_site_occupancy
  Li  Li0  1  0.809971  0.190029  0.559149  1
  Li  Li1  1  0.190083  0.809917  0.440955  1
  Li  Li2  1  0.190083  0.809917  0.059045  1
  Li  Li3  1  0.809971  0.190029  0.940851  1
  Dy  Dy4  1  0.552110  0.447890  0.250000  1
  Er  Er5  1  0.447763  0.552237  0.750000  1
  Er  Er6  1  0.344578  0.655422  0.250000  1
  Er  Er7  1  0.655459  0.344541  0.750000  1
  Si  Si8  1  0.940146  0.059854  0.071527  1
  Si  Si9  1  0.059692  0.940308  0.927568  1
  Si  Si10  1  0.059692  0.940308  0.572432  1
  Si  Si11  1  0.940146  0.059854  0.428473  1
  Si  Si12  1  0.720175  0.279825  0.250000  1
  Si  Si13  1  0.280130  0.719870  0.750000  1
