# generated using pymatgen
data_Lu4MgB4SbRh10
_symmetry_space_group_name_H-M   'P 1'
_cell_length_a   9.49069600
_cell_length_b   9.49069600
_cell_length_c   3.24044000
_cell_angle_alpha   90.00000000
_cell_angle_beta   90.00000000
_cell_angle_gamma   90.00000000
_symmetry_Int_Tables_number   1
_chemical_formula_structural   Lu4MgB4SbRh10
_chemical_formula_sum   'Lu4 Mg1 B4 Sb1 Rh10'
_cell_volume   291.87715849
_cell_formula_units_Z   1
loop_
 _symmetry_equiv_pos_site_id
 _symmetry_equiv_pos_as_xyz
  1  'x, y, z'
loop_
 _atom_site_type_symbol
 _atom_site_label
 _atom_site_symmetry_multiplicity
 _atom_site_fract_x
 _atom_site_fract_y
 _atom_site_fract_z
 _atom_site_occupancy
  Lu  Lu0  1  0.672359  0.177285  0.000000  1
  Lu  Lu1  1  0.327641  0.822715  0.000000  1
  Lu  Lu2  1  0.177285  0.327641  0.000000  1
  Lu  Lu3  1  0.822715  0.672359  0.000000  1
  Mg  Mg4  1  0.500000  0.500000  0.000000  1
  B  B5  1  0.124048  0.617790  0.000000  1
  B  B6  1  0.875952  0.382210  0.000000  1
  B  B7  1  0.617790  0.875952  0.000000  1
  B  B8  1  0.382210  0.124048  0.000000  1
  Sb  Sb9  1  0.000000  0.000000  0.000000  1
  Rh  Rh10  1  0.500000  0.000000  0.500000  1
  Rh  Rh11  1  0.000000  0.500000  0.500000  1
  Rh  Rh12  1  0.222564  0.071290  0.500000  1
  Rh  Rh13  1  0.777436  0.928710  0.500000  1
  Rh  Rh14  1  0.071290  0.777436  0.500000  1
  Rh  Rh15  1  0.722980  0.428601  0.500000  1
  Rh  Rh16  1  0.928710  0.222564  0.500000  1
  Rh  Rh17  1  0.277020  0.571399  0.500000  1
  Rh  Rh18  1  0.571399  0.722980  0.500000  1
  Rh  Rh19  1  0.428601  0.277020  0.500000  1
