# generated using pymatgen
data_Tm2SiNiBr2
_symmetry_space_group_name_H-M   'P 1'
_cell_length_a   3.95964300
_cell_length_b   3.95964275
_cell_length_c   11.26927500
_cell_angle_alpha   90.00000000
_cell_angle_beta   90.00000000
_cell_angle_gamma   119.99997706
_symmetry_Int_Tables_number   1
_chemical_formula_structural   Tm2SiNiBr2
_chemical_formula_sum   'Tm2 Si1 Ni1 Br2'
_cell_volume   153.01666941
_cell_formula_units_Z   1
loop_
 _symmetry_equiv_pos_site_id
 _symmetry_equiv_pos_as_xyz
  1  'x, y, z'
loop_
 _atom_site_type_symbol
 _atom_site_label
 _atom_site_symmetry_multiplicity
 _atom_site_fract_x
 _atom_site_fract_y
 _atom_site_fract_z
 _atom_site_occupancy
  Tm  Tm0  1  0.000000  0.000000  0.163606  1
  Tm  Tm1  1  0.000000  0.000000  0.834410  1
  Si  Si2  1  0.666667  0.333333  0.993002  1
  Ni  Ni3  1  0.333333  0.666667  0.009338  1
  Br  Br4  1  0.333333  0.666667  0.672271  1
  Br  Br5  1  0.666667  0.333333  0.327372  1
