# generated using pymatgen
data_Dy20Ir6PtRh5
_symmetry_space_group_name_H-M   'P 1'
_cell_length_a   10.91992128
_cell_length_b   10.91992091
_cell_length_c   6.38332615
_cell_angle_alpha   90.00741372
_cell_angle_beta   90.00741457
_cell_angle_gamma   89.67688465
_symmetry_Int_Tables_number   1
_chemical_formula_structural   Dy20Ir6PtRh5
_chemical_formula_sum   'Dy20 Ir6 Pt1 Rh5'
_cell_volume   761.16554631
_cell_formula_units_Z   1
loop_
 _symmetry_equiv_pos_site_id
 _symmetry_equiv_pos_as_xyz
  1  'x, y, z'
loop_
 _atom_site_type_symbol
 _atom_site_label
 _atom_site_symmetry_multiplicity
 _atom_site_fract_x
 _atom_site_fract_y
 _atom_site_fract_z
 _atom_site_occupancy
  Dy  Dy0  1  0.290163  0.089052  0.381365  1
  Dy  Dy1  1  0.290515  0.910279  0.880559  1
  Dy  Dy2  1  0.709218  0.084991  0.879528  1
  Dy  Dy3  1  0.708392  0.908124  0.380740  1
  Dy  Dy4  1  0.589334  0.789846  0.881173  1
  Dy  Dy5  1  0.586124  0.207760  0.376092  1
  Dy  Dy6  1  0.409706  0.791053  0.380166  1
  Dy  Dy7  1  0.407241  0.207482  0.881592  1
  Dy  Dy8  1  0.210154  0.410666  0.618827  1
  Dy  Dy9  1  0.208947  0.590294  0.119834  1
  Dy  Dy10  1  0.792240  0.413876  0.123908  1
  Dy  Dy11  1  0.792518  0.592759  0.618408  1
  Dy  Dy12  1  0.910948  0.709837  0.118635  1
  Dy  Dy13  1  0.915009  0.290782  0.620472  1
  Dy  Dy14  1  0.089721  0.709485  0.619441  1
  Dy  Dy15  1  0.091876  0.291608  0.119260  1
  Dy  Dy16  1  0.999371  0.999501  0.499490  1
  Dy  Dy17  1  0.000499  0.000629  0.000510  1
  Dy  Dy18  1  0.498381  0.500646  0.000341  1
  Dy  Dy19  1  0.499354  0.501619  0.499659  1
  Ir  Ir20  1  0.845712  0.847261  0.750651  1
  Ir  Ir21  1  0.152739  0.154288  0.749349  1
  Ir  Ir22  1  0.154036  0.845964  0.250000  1
  Ir  Ir23  1  0.654400  0.652478  0.249704  1
  Ir  Ir24  1  0.347522  0.345600  0.250296  1
  Ir  Ir25  1  0.345636  0.654364  0.750000  1
  Pt  Pt26  1  0.655302  0.344698  0.750000  1
  Rh  Rh27  1  0.844520  0.155480  0.250000  1
  Rh  Rh28  1  0.501088  0.000558  0.125284  1
  Rh  Rh29  1  0.500487  0.000594  0.626346  1
  Rh  Rh30  1  0.999406  0.499513  0.873654  1
  Rh  Rh31  1  0.999442  0.498912  0.374716  1
