# generated using pymatgen
data_Sr3EuErSc7O16
_symmetry_space_group_name_H-M   'P 1'
_cell_length_a   3.23548400
_cell_length_b   9.77973969
_cell_length_c   11.44212477
_cell_angle_alpha   90.31144740
_cell_angle_beta   90.00000000
_cell_angle_gamma   90.00000000
_symmetry_Int_Tables_number   1
_chemical_formula_structural   Sr3EuErSc7O16
_chemical_formula_sum   'Sr3 Eu1 Er1 Sc7 O16'
_cell_volume   362.04855197
_cell_formula_units_Z   1
loop_
 _symmetry_equiv_pos_site_id
 _symmetry_equiv_pos_as_xyz
  1  'x, y, z'
loop_
 _atom_site_type_symbol
 _atom_site_label
 _atom_site_symmetry_multiplicity
 _atom_site_fract_x
 _atom_site_fract_y
 _atom_site_fract_z
 _atom_site_occupancy
  Sr  Sr0  1  0.250000  0.748174  0.147258  1
  Sr  Sr1  1  0.750000  0.253616  0.847384  1
  Sr  Sr2  1  0.250000  0.244311  0.348519  1
  Eu  Eu3  1  0.750000  0.755215  0.657258  1
  Er  Er4  1  0.250000  0.578565  0.391321  1
  Sc  Sc5  1  0.250000  0.576184  0.893005  1
  Sc  Sc6  1  0.750000  0.421424  0.104904  1
  Sc  Sc7  1  0.750000  0.924292  0.391390  1
  Sc  Sc8  1  0.250000  0.074629  0.606719  1
  Sc  Sc9  1  0.250000  0.072525  0.109161  1
  Sc  Sc10  1  0.750000  0.929662  0.889592  1
  Sc  Sc11  1  0.750000  0.428722  0.614981  1
  O  O12  1  0.250000  0.577030  0.584916  1
  O  O13  1  0.750000  0.423032  0.431914  1
  O  O14  1  0.750000  0.927452  0.072423  1
  O  O15  1  0.250000  0.073511  0.925415  1
  O  O16  1  0.250000  0.876445  0.519273  1
  O  O17  1  0.750000  0.114483  0.481389  1
  O  O18  1  0.750000  0.615915  0.019365  1
  O  O19  1  0.250000  0.382206  0.978025  1
  O  O20  1  0.250000  0.791258  0.838373  1
  O  O21  1  0.750000  0.207991  0.158878  1
  O  O22  1  0.750000  0.718588  0.328047  1
  O  O23  1  0.250000  0.289361  0.662485  1
  O  O24  1  0.250000  0.984351  0.283651  1
  O  O25  1  0.750000  0.016378  0.715207  1
  O  O26  1  0.750000  0.519455  0.785657  1
  O  O27  1  0.250000  0.475225  0.213488  1
