# generated using pymatgen
data_Nd4Si7Tc16P
_symmetry_space_group_name_H-M   'P 1'
_cell_length_a   4.15899500
_cell_length_b   7.26822405
_cell_length_c   15.46417011
_cell_angle_alpha   89.98650100
_cell_angle_beta   90.00000000
_cell_angle_gamma   90.00000000
_symmetry_Int_Tables_number   1
_chemical_formula_structural   Nd4Si7Tc16P
_chemical_formula_sum   'Nd4 Si7 Tc16 P1'
_cell_volume   467.45876886
_cell_formula_units_Z   1
loop_
 _symmetry_equiv_pos_site_id
 _symmetry_equiv_pos_as_xyz
  1  'x, y, z'
loop_
 _atom_site_type_symbol
 _atom_site_label
 _atom_site_symmetry_multiplicity
 _atom_site_fract_x
 _atom_site_fract_y
 _atom_site_fract_z
 _atom_site_occupancy
  Nd  Nd0  1  0.000000  0.582124  0.117768  1
  Nd  Nd1  1  0.000000  0.418115  0.882763  1
  Nd  Nd2  1  0.500000  0.078518  0.384005  1
  Nd  Nd3  1  0.500000  0.916855  0.615396  1
  Si  Si4  1  0.000000  0.181274  0.526527  1
  Si  Si5  1  0.500000  0.324588  0.025807  1
  Si  Si6  1  0.500000  0.675659  0.974251  1
  Si  Si7  1  0.000000  0.294700  0.273559  1
  Si  Si8  1  0.000000  0.701288  0.726021  1
  Si  Si9  1  0.500000  0.795462  0.227716  1
  Si  Si10  1  0.500000  0.202858  0.773204  1
  Tc  Tc11  1  0.000000  0.137283  0.052611  1
  Tc  Tc12  1  0.000000  0.862964  0.947800  1
  Tc  Tc13  1  0.500000  0.640357  0.447470  1
  Tc  Tc14  1  0.500000  0.363821  0.551211  1
  Tc  Tc15  1  0.000000  0.735120  0.322869  1
  Tc  Tc16  1  0.000000  0.270314  0.680121  1
  Tc  Tc17  1  0.500000  0.230166  0.180374  1
  Tc  Tc18  1  0.500000  0.769734  0.819596  1
  Tc  Tc19  1  0.000000  0.430874  0.418037  1
  Tc  Tc20  1  0.000000  0.569927  0.578397  1
  Tc  Tc21  1  0.500000  0.934456  0.081222  1
  Tc  Tc22  1  0.500000  0.064893  0.919392  1
  Tc  Tc23  1  0.000000  0.992609  0.206311  1
  Tc  Tc24  1  0.000000  0.005974  0.793343  1
  Tc  Tc25  1  0.500000  0.490622  0.294441  1
  Tc  Tc26  1  0.500000  0.506954  0.705755  1
  P  P27  1  0.000000  0.822490  0.474033  1
