# generated using pymatgen
data_Tm6Sc4GaSb5
_symmetry_space_group_name_H-M   'P 1'
_cell_length_a   8.65021100
_cell_length_b   8.64852561
_cell_length_c   6.08892600
_cell_angle_alpha   90.00000000
_cell_angle_beta   90.00000000
_cell_angle_gamma   120.00645049
_symmetry_Int_Tables_number   1
_chemical_formula_structural   Tm6Sc4GaSb5
_chemical_formula_sum   'Tm6 Sc4 Ga1 Sb5'
_cell_volume   394.46808523
_cell_formula_units_Z   1
loop_
 _symmetry_equiv_pos_site_id
 _symmetry_equiv_pos_as_xyz
  1  'x, y, z'
loop_
 _atom_site_type_symbol
 _atom_site_label
 _atom_site_symmetry_multiplicity
 _atom_site_fract_x
 _atom_site_fract_y
 _atom_site_fract_z
 _atom_site_occupancy
  Tm  Tm0  1  0.250059  0.000000  0.250000  1
  Tm  Tm1  1  0.757629  0.000000  0.750000  1
  Tm  Tm2  1  0.988218  0.234372  0.250000  1
  Tm  Tm3  1  0.753846  0.765628  0.250000  1
  Tm  Tm4  1  0.243340  0.241830  0.750000  1
  Tm  Tm5  1  0.001510  0.758170  0.750000  1
  Sc  Sc6  1  0.338341  0.673383  0.002008  1
  Sc  Sc7  1  0.664959  0.326617  0.497992  1
  Sc  Sc8  1  0.664959  0.326617  0.002008  1
  Sc  Sc9  1  0.338341  0.673383  0.497992  1
  Ga  Ga10  1  0.601866  0.000000  0.250000  1
  Sb  Sb11  1  0.398804  0.000000  0.750000  1
  Sb  Sb12  1  0.998236  0.605268  0.250000  1
  Sb  Sb13  1  0.392967  0.394732  0.250000  1
  Sb  Sb14  1  0.604945  0.602962  0.750000  1
  Sb  Sb15  1  0.001983  0.397038  0.750000  1
