# generated using pymatgen
data_YbCuRe(Sb6Os)2
_symmetry_space_group_name_H-M   'P 1'
_cell_length_a   8.18716983
_cell_length_b   8.17046670
_cell_length_c   8.13126778
_cell_angle_alpha   109.20207251
_cell_angle_beta   109.24556834
_cell_angle_gamma   109.59156935
_symmetry_Int_Tables_number   1
_chemical_formula_structural   YbCuRe(Sb6Os)2
_chemical_formula_sum   'Yb1 Cu1 Re1 Sb12 Os2'
_cell_volume   420.63302837
_cell_formula_units_Z   1
loop_
 _symmetry_equiv_pos_site_id
 _symmetry_equiv_pos_as_xyz
  1  'x, y, z'
loop_
 _atom_site_type_symbol
 _atom_site_label
 _atom_site_symmetry_multiplicity
 _atom_site_fract_x
 _atom_site_fract_y
 _atom_site_fract_z
 _atom_site_occupancy
  Yb  Yb0  1  0.000000  0.000000  0.000000  1
  Cu  Cu1  1  0.500000  0.500000  0.500000  1
  Re  Re2  1  0.000000  0.000000  0.500000  1
  Sb  Sb3  1  0.848033  0.659511  0.502652  1
  Sb  Sb4  1  0.151967  0.340489  0.497348  1
  Sb  Sb5  1  0.158865  0.664240  0.820425  1
  Sb  Sb6  1  0.841135  0.335760  0.179575  1
  Sb  Sb7  1  0.661254  0.503086  0.848191  1
  Sb  Sb8  1  0.338746  0.496914  0.151809  1
  Sb  Sb9  1  0.663618  0.821056  0.158465  1
  Sb  Sb10  1  0.336382  0.178944  0.841535  1
  Sb  Sb11  1  0.503066  0.847477  0.659692  1
  Sb  Sb12  1  0.496934  0.152523  0.340308  1
  Sb  Sb13  1  0.178853  0.840736  0.335844  1
  Sb  Sb14  1  0.821147  0.159264  0.664156  1
  Os  Os15  1  0.500000  0.000000  0.000000  1
  Os  Os16  1  0.000000  0.500000  0.000000  1
