# generated using pymatgen
data_Tb9Dy(CoTe)4
_symmetry_space_group_name_H-M   'P 1'
_cell_length_a   7.78535229
_cell_length_b   7.78535111
_cell_length_c   15.02890400
_cell_angle_alpha   90.00000000
_cell_angle_beta   90.00000000
_cell_angle_gamma   150.32655012
_symmetry_Int_Tables_number   1
_chemical_formula_structural   Tb9Dy(CoTe)4
_chemical_formula_sum   'Tb9 Dy1 Co4 Te4'
_cell_volume   450.96018698
_cell_formula_units_Z   1
loop_
 _symmetry_equiv_pos_site_id
 _symmetry_equiv_pos_as_xyz
  1  'x, y, z'
loop_
 _atom_site_type_symbol
 _atom_site_label
 _atom_site_symmetry_multiplicity
 _atom_site_fract_x
 _atom_site_fract_y
 _atom_site_fract_z
 _atom_site_occupancy
  Tb  Tb0  1  0.960912  0.039088  0.125463  1
  Tb  Tb1  1  0.038770  0.961230  0.874194  1
  Tb  Tb2  1  0.038770  0.961230  0.625806  1
  Tb  Tb3  1  0.960912  0.039088  0.374537  1
  Tb  Tb4  1  0.742400  0.257600  0.630396  1
  Tb  Tb5  1  0.257862  0.742138  0.369754  1
  Tb  Tb6  1  0.257862  0.742138  0.130246  1
  Tb  Tb7  1  0.742400  0.257600  0.869604  1
  Tb  Tb8  1  0.605402  0.394598  0.250000  1
  Dy  Dy9  1  0.394768  0.605232  0.750000  1
  Co  Co10  1  0.411615  0.588385  0.250000  1
  Co  Co11  1  0.587951  0.412049  0.750000  1
  Co  Co12  1  0.819750  0.180250  0.250000  1
  Co  Co13  1  0.180539  0.819461  0.750000  1
  Te  Te14  1  0.617700  0.382300  0.038236  1
  Te  Te15  1  0.382344  0.617656  0.961466  1
  Te  Te16  1  0.382344  0.617656  0.538534  1
  Te  Te17  1  0.617700  0.382300  0.461764  1
