# generated using pymatgen
data_Pr8Ho9Tm3Si16
_symmetry_space_group_name_H-M   'P 1'
_cell_length_a   7.49517831
_cell_length_b   7.79431632
_cell_length_c   14.82088400
_cell_angle_alpha   90.00000000
_cell_angle_beta   90.00000000
_cell_angle_gamma   89.96714934
_symmetry_Int_Tables_number   1
_chemical_formula_structural   Pr8Ho9Tm3Si16
_chemical_formula_sum   'Pr8 Ho9 Tm3 Si16'
_cell_volume   865.83279761
_cell_formula_units_Z   1
loop_
 _symmetry_equiv_pos_site_id
 _symmetry_equiv_pos_as_xyz
  1  'x, y, z'
loop_
 _atom_site_type_symbol
 _atom_site_label
 _atom_site_symmetry_multiplicity
 _atom_site_fract_x
 _atom_site_fract_y
 _atom_site_fract_z
 _atom_site_occupancy
  Pr  Pr0  1  0.975867  0.821361  0.098184  1
  Pr  Pr1  1  0.475869  0.678663  0.401826  1
  Pr  Pr2  1  0.524285  0.321312  0.901963  1
  Pr  Pr3  1  0.023826  0.178949  0.598008  1
  Pr  Pr4  1  0.023826  0.178949  0.901992  1
  Pr  Pr5  1  0.524285  0.321312  0.598037  1
  Pr  Pr6  1  0.475869  0.678663  0.098174  1
  Pr  Pr7  1  0.975867  0.821361  0.401816  1
  Ho  Ho8  1  0.350631  0.009943  0.750000  1
  Ho  Ho9  1  0.681078  0.821659  0.876819  1
  Ho  Ho10  1  0.180465  0.677937  0.623171  1
  Ho  Ho11  1  0.819266  0.321749  0.123200  1
  Ho  Ho12  1  0.319205  0.178210  0.376776  1
  Ho  Ho13  1  0.319205  0.178210  0.123224  1
  Ho  Ho14  1  0.819266  0.321749  0.376800  1
  Ho  Ho15  1  0.180465  0.677937  0.876829  1
  Ho  Ho16  1  0.681078  0.821659  0.623181  1
  Tm  Tm17  1  0.649820  0.990003  0.250000  1
  Tm  Tm18  1  0.149743  0.509934  0.250000  1
  Tm  Tm19  1  0.850245  0.489735  0.750000  1
  Si  Si20  1  0.770022  0.621391  0.250000  1
  Si  Si21  1  0.269863  0.878622  0.250000  1
  Si  Si22  1  0.731418  0.121477  0.750000  1
  Si  Si23  1  0.229917  0.379988  0.750000  1
  Si  Si24  1  0.022825  0.112946  0.250000  1
  Si  Si25  1  0.522764  0.386937  0.250000  1
  Si  Si26  1  0.477126  0.612763  0.750000  1
  Si  Si27  1  0.975774  0.886754  0.750000  1
  Si  Si28  1  0.856108  0.530996  0.959603  1
  Si  Si29  1  0.356191  0.968909  0.539967  1
  Si  Si30  1  0.643855  0.030942  0.040483  1
  Si  Si31  1  0.143912  0.469066  0.459564  1
  Si  Si32  1  0.143912  0.469066  0.040436  1
  Si  Si33  1  0.643855  0.030942  0.459517  1
  Si  Si34  1  0.356191  0.968909  0.960033  1
  Si  Si35  1  0.856108  0.530996  0.540397  1
