# generated using pymatgen
data_Sc22Ir3Os4Ru
_symmetry_space_group_name_H-M   'P 1'
_cell_length_a   9.46466245
_cell_length_b   9.48258641
_cell_length_c   9.48612647
_cell_angle_alpha   60.06587934
_cell_angle_beta   60.05011664
_cell_angle_gamma   60.08690724
_symmetry_Int_Tables_number   1
_chemical_formula_structural   Sc22Ir3Os4Ru
_chemical_formula_sum   'Sc22 Ir3 Os4 Ru1'
_cell_volume   602.93560649
_cell_formula_units_Z   1
loop_
 _symmetry_equiv_pos_site_id
 _symmetry_equiv_pos_as_xyz
  1  'x, y, z'
loop_
 _atom_site_type_symbol
 _atom_site_label
 _atom_site_symmetry_multiplicity
 _atom_site_fract_x
 _atom_site_fract_y
 _atom_site_fract_z
 _atom_site_occupancy
  Sc  Sc0  1  0.803243  0.801686  0.198311  1
  Sc  Sc1  1  0.196802  0.801661  0.198342  1
  Sc  Sc2  1  0.802351  0.197649  0.197652  1
  Sc  Sc3  1  0.196757  0.198314  0.801689  1
  Sc  Sc4  1  0.803198  0.198339  0.801658  1
  Sc  Sc5  1  0.197649  0.802351  0.802348  1
  Sc  Sc6  1  0.616090  0.614522  0.150155  1
  Sc  Sc7  1  0.619231  0.150157  0.614522  1
  Sc  Sc8  1  0.148891  0.617447  0.614572  1
  Sc  Sc9  1  0.619090  0.614570  0.617448  1
  Sc  Sc10  1  0.383910  0.385478  0.849845  1
  Sc  Sc11  1  0.380769  0.849843  0.385478  1
  Sc  Sc12  1  0.851109  0.382553  0.385428  1
  Sc  Sc13  1  0.380910  0.385430  0.382552  1
  Sc  Sc14  1  0.844161  0.843975  0.468746  1
  Sc  Sc15  1  0.843113  0.468747  0.843977  1
  Sc  Sc16  1  0.468925  0.843038  0.844365  1
  Sc  Sc17  1  0.843669  0.844363  0.843043  1
  Sc  Sc18  1  0.155839  0.156025  0.531254  1
  Sc  Sc19  1  0.156887  0.531253  0.156023  1
  Sc  Sc20  1  0.531075  0.156962  0.155635  1
  Sc  Sc21  1  0.156331  0.155637  0.156957  1
  Ir  Ir22  1  0.500000  0.000000  0.500000  1
  Ir  Ir23  1  0.000000  0.500000  0.000000  1
  Ir  Ir24  1  0.500000  0.000000  0.000000  1
  Os  Os25  1  0.500000  0.500000  0.500000  1
  Os  Os26  1  0.000000  0.000000  0.500000  1
  Os  Os27  1  0.000000  0.500000  0.500000  1
  Os  Os28  1  0.500000  0.500000  0.000000  1
  Ru  Ru29  1  0.000000  0.000000  0.000000  1
