# generated using pymatgen
data_Ta5Mn(B2Ru5)2
_symmetry_space_group_name_H-M   'P 1'
_cell_length_a   3.01101700
_cell_length_b   9.37578200
_cell_length_c   9.37578200
_cell_angle_alpha   90.00000000
_cell_angle_beta   90.00000000
_cell_angle_gamma   90.00000000
_symmetry_Int_Tables_number   1
_chemical_formula_structural   Ta5Mn(B2Ru5)2
_chemical_formula_sum   'Ta5 Mn1 B4 Ru10'
_cell_volume   264.68431689
_cell_formula_units_Z   1
loop_
 _symmetry_equiv_pos_site_id
 _symmetry_equiv_pos_as_xyz
  1  'x, y, z'
loop_
 _atom_site_type_symbol
 _atom_site_label
 _atom_site_symmetry_multiplicity
 _atom_site_fract_x
 _atom_site_fract_y
 _atom_site_fract_z
 _atom_site_occupancy
  Ta  Ta0  1  0.000000  0.674784  0.820811  1
  Ta  Ta1  1  0.000000  0.325216  0.179189  1
  Ta  Ta2  1  0.000000  0.820811  0.325216  1
  Ta  Ta3  1  0.000000  0.179189  0.674784  1
  Ta  Ta4  1  0.000000  0.000000  0.000000  1
  Mn  Mn5  1  0.000000  0.500000  0.500000  1
  B  B6  1  0.000000  0.871245  0.617241  1
  B  B7  1  0.000000  0.128755  0.382759  1
  B  B8  1  0.000000  0.617241  0.128755  1
  B  B9  1  0.000000  0.382759  0.871245  1
  Ru  Ru10  1  0.500000  0.713916  0.567827  1
  Ru  Ru11  1  0.500000  0.286084  0.432173  1
  Ru  Ru12  1  0.500000  0.780467  0.073068  1
  Ru  Ru13  1  0.500000  0.219533  0.926932  1
  Ru  Ru14  1  0.500000  0.567827  0.286084  1
  Ru  Ru15  1  0.500000  0.432173  0.713916  1
  Ru  Ru16  1  0.500000  0.073068  0.219533  1
  Ru  Ru17  1  0.500000  0.926932  0.780467  1
  Ru  Ru18  1  0.500000  0.000000  0.500000  1
  Ru  Ru19  1  0.500000  0.500000  0.000000  1
