# generated using pymatgen
data_Tm9Mg(Ni2Sb)2
_symmetry_space_group_name_H-M   'P 1'
_cell_length_a   8.57087640
_cell_length_b   8.57087672
_cell_length_c   8.57087662
_cell_angle_alpha   129.15265118
_cell_angle_beta   129.15264888
_cell_angle_gamma   74.76507390
_symmetry_Int_Tables_number   1
_chemical_formula_structural   Tm9Mg(Ni2Sb)2
_chemical_formula_sum   'Tm9 Mg1 Ni4 Sb2'
_cell_volume   368.82708614
_cell_formula_units_Z   1
loop_
 _symmetry_equiv_pos_site_id
 _symmetry_equiv_pos_as_xyz
  1  'x, y, z'
loop_
 _atom_site_type_symbol
 _atom_site_label
 _atom_site_symmetry_multiplicity
 _atom_site_fract_x
 _atom_site_fract_y
 _atom_site_fract_z
 _atom_site_occupancy
  Tm  Tm0  1  0.000000  0.000000  0.000000  1
  Tm  Tm1  1  0.787559  0.302254  0.824211  1
  Tm  Tm2  1  0.212441  0.697746  0.175789  1
  Tm  Tm3  1  0.478043  0.963348  0.175789  1
  Tm  Tm4  1  0.302254  0.478043  0.514694  1
  Tm  Tm5  1  0.036652  0.212441  0.514694  1
  Tm  Tm6  1  0.521957  0.036652  0.824211  1
  Tm  Tm7  1  0.697746  0.521957  0.485306  1
  Tm  Tm8  1  0.963348  0.787559  0.485306  1
  Mg  Mg9  1  0.500000  0.500000  0.000000  1
  Ni  Ni10  1  0.124921  0.631847  0.756768  1
  Ni  Ni11  1  0.875079  0.368153  0.243232  1
  Ni  Ni12  1  0.631847  0.875079  0.506927  1
  Ni  Ni13  1  0.368153  0.124921  0.493073  1
  Sb  Sb14  1  0.242524  0.242524  0.000000  1
  Sb  Sb15  1  0.757476  0.757476  0.000000  1
