# generated using pymatgen
data_SmTh2(MgAu)3
_symmetry_space_group_name_H-M   'P 1'
_cell_length_a   7.71982322
_cell_length_b   7.71982341
_cell_length_c   4.24812400
_cell_angle_alpha   90.00000000
_cell_angle_beta   90.00000000
_cell_angle_gamma   120.34121577
_symmetry_Int_Tables_number   1
_chemical_formula_structural   SmTh2(MgAu)3
_chemical_formula_sum   'Sm1 Th2 Mg3 Au3'
_cell_volume   218.49374287
_cell_formula_units_Z   1
loop_
 _symmetry_equiv_pos_site_id
 _symmetry_equiv_pos_as_xyz
  1  'x, y, z'
loop_
 _atom_site_type_symbol
 _atom_site_label
 _atom_site_symmetry_multiplicity
 _atom_site_fract_x
 _atom_site_fract_y
 _atom_site_fract_z
 _atom_site_occupancy
  Sm  Sm0  1  0.413145  0.413145  0.000000  1
  Th  Th1  1  0.586300  0.000564  0.000000  1
  Th  Th2  1  0.000564  0.586300  0.000000  1
  Mg  Mg3  1  0.242813  0.004362  0.500000  1
  Mg  Mg4  1  0.004362  0.242813  0.500000  1
  Mg  Mg5  1  0.753623  0.753623  0.500000  1
  Au  Au6  1  0.333020  0.669816  0.500000  1
  Au  Au7  1  0.669816  0.333020  0.500000  1
  Au  Au8  1  0.996357  0.996357  0.000000  1
