# generated using pymatgen
data_Sm10Si16Pb
_symmetry_space_group_name_H-M   'P 1'
_cell_length_a   11.38370676
_cell_length_b   11.29652575
_cell_length_c   11.38371159
_cell_angle_alpha   144.62028318
_cell_angle_beta   136.08133938
_cell_angle_gamma   57.75776825
_symmetry_Int_Tables_number   1
_chemical_formula_structural   Sm10Si16Pb
_chemical_formula_sum   'Sm10 Si16 Pb1'
_cell_volume   582.61875832
_cell_formula_units_Z   1
loop_
 _symmetry_equiv_pos_site_id
 _symmetry_equiv_pos_as_xyz
  1  'x, y, z'
loop_
 _atom_site_type_symbol
 _atom_site_label
 _atom_site_symmetry_multiplicity
 _atom_site_fract_x
 _atom_site_fract_y
 _atom_site_fract_z
 _atom_site_occupancy
  Sm  Sm0  1  0.754763  0.761037  0.517739  1
  Sm  Sm1  1  0.438421  0.973714  0.015452  1
  Sm  Sm2  1  0.846988  0.366981  0.016993  1
  Sm  Sm3  1  0.958262  0.973713  0.535292  1
  Sm  Sm4  1  0.150228  0.162207  0.514356  1
  Sm  Sm5  1  0.349987  0.366983  0.519995  1
  Sm  Sm6  1  0.243298  0.761036  0.006273  1
  Sm  Sm7  1  0.543621  0.556158  0.493961  1
  Sm  Sm8  1  0.062197  0.556158  0.012536  1
  Sm  Sm9  1  0.647849  0.162208  0.011981  1
  Si  Si10  1  0.197928  0.591143  0.393216  1
  Si  Si11  1  0.000063  0.088140  0.088077  1
  Si  Si12  1  0.699590  0.278136  0.578546  1
  Si  Si13  1  0.801599  0.190058  0.388460  1
  Si  Si14  1  0.896754  0.502636  0.605878  1
  Si  Si15  1  0.412680  0.860159  0.447480  1
  Si  Si16  1  0.102465  0.709016  0.606551  1
  Si  Si17  1  0.300305  0.893460  0.593155  1
  Si  Si18  1  0.583955  0.038236  0.454281  1
  Si  Si19  1  0.999168  0.431462  0.432296  1
  Si  Si20  1  0.886905  0.835923  0.949019  1
  Si  Si21  1  0.401015  0.499870  0.098855  1
  Si  Si22  1  0.112962  0.070427  0.957464  1
  Si  Si23  1  0.292191  0.236016  0.943824  1
  Si  Si24  1  0.498351  0.396260  0.897905  1
  Si  Si25  1  0.594597  0.703470  0.108874  1
  Pb  Pb26  1  0.723856  0.696894  0.973039  1
