# generated using pymatgen
data_Hf9Ta3CoTc
_symmetry_space_group_name_H-M   'P 1'
_cell_length_a   8.81198300
_cell_length_b   8.81198400
_cell_length_c   8.43004000
_cell_angle_alpha   90.00000000
_cell_angle_beta   90.00000000
_cell_angle_gamma   120.00000001
_symmetry_Int_Tables_number   1
_chemical_formula_structural   Hf9Ta3CoTc
_chemical_formula_sum   'Hf18 Ta6 Co2 Tc2'
_cell_volume   566.90151485
_cell_formula_units_Z   2
loop_
 _symmetry_equiv_pos_site_id
 _symmetry_equiv_pos_as_xyz
  1  'x, y, z'
loop_
 _atom_site_type_symbol
 _atom_site_label
 _atom_site_symmetry_multiplicity
 _atom_site_fract_x
 _atom_site_fract_y
 _atom_site_fract_z
 _atom_site_occupancy
  Hf  Hf0  1  0.202300  0.797700  0.439737  1
  Hf  Hf1  1  0.202300  0.404601  0.439737  1
  Hf  Hf2  1  0.595399  0.797700  0.439737  1
  Hf  Hf3  1  0.797700  0.202300  0.560263  1
  Hf  Hf4  1  0.797700  0.595399  0.560263  1
  Hf  Hf5  1  0.404601  0.202300  0.560263  1
  Hf  Hf6  1  0.797700  0.202300  0.939737  1
  Hf  Hf7  1  0.797700  0.595399  0.939737  1
  Hf  Hf8  1  0.404601  0.202300  0.939737  1
  Hf  Hf9  1  0.202300  0.797700  0.060263  1
  Hf  Hf10  1  0.202300  0.404601  0.060263  1
  Hf  Hf11  1  0.595399  0.797700  0.060263  1
  Hf  Hf12  1  0.540965  0.459035  0.250000  1
  Hf  Hf13  1  0.540965  0.081928  0.250000  1
  Hf  Hf14  1  0.918072  0.459035  0.250000  1
  Hf  Hf15  1  0.459035  0.540965  0.750000  1
  Hf  Hf16  1  0.459035  0.918072  0.750000  1
  Hf  Hf17  1  0.081928  0.540965  0.750000  1
  Ta  Ta18  1  0.888397  0.111603  0.250000  1
  Ta  Ta19  1  0.888397  0.776795  0.250000  1
  Ta  Ta20  1  0.223205  0.111603  0.250000  1
  Ta  Ta21  1  0.111603  0.888397  0.750000  1
  Ta  Ta22  1  0.111603  0.223205  0.750000  1
  Ta  Ta23  1  0.776795  0.888397  0.750000  1
  Co  Co24  1  0.333333  0.666667  0.250000  1
  Co  Co25  1  0.666667  0.333333  0.750000  1
  Tc  Tc26  1  0.000000  0.000000  0.500000  1
  Tc  Tc27  1  0.000000  0.000000  0.000000  1
