# generated using pymatgen
data_HoTm2Lu5(CdPt)2
_symmetry_space_group_name_H-M   'P 1'
_cell_length_a   9.52790815
_cell_length_b   9.52790901
_cell_length_c   9.52578200
_cell_angle_alpha   60.00738444
_cell_angle_beta   60.00738147
_cell_angle_gamma   59.98523409
_symmetry_Int_Tables_number   1
_chemical_formula_structural   HoTm2Lu5(CdPt)2
_chemical_formula_sum   'Ho2 Tm4 Lu10 Cd4 Pt4'
_cell_volume   611.47789272
_cell_formula_units_Z   2
loop_
 _symmetry_equiv_pos_site_id
 _symmetry_equiv_pos_as_xyz
  1  'x, y, z'
loop_
 _atom_site_type_symbol
 _atom_site_label
 _atom_site_symmetry_multiplicity
 _atom_site_fract_x
 _atom_site_fract_y
 _atom_site_fract_z
 _atom_site_occupancy
  Ho  Ho0  1  0.814523  0.814523  0.185477  1
  Ho  Ho1  1  0.185477  0.185477  0.814523  1
  Tm  Tm2  1  0.185825  0.814175  0.814175  1
  Tm  Tm3  1  0.814175  0.185825  0.185825  1
  Tm  Tm4  1  0.814175  0.185825  0.814175  1
  Tm  Tm5  1  0.185825  0.814175  0.185825  1
  Lu  Lu6  1  0.602008  0.602008  0.602255  1
  Lu  Lu7  1  0.602008  0.602008  0.193727  1
  Lu  Lu8  1  0.602255  0.193727  0.602008  1
  Lu  Lu9  1  0.193727  0.602255  0.602008  1
  Lu  Lu10  1  0.060746  0.439254  0.439254  1
  Lu  Lu11  1  0.439254  0.060746  0.060746  1
  Lu  Lu12  1  0.439254  0.060746  0.439254  1
  Lu  Lu13  1  0.060746  0.439254  0.060746  1
  Lu  Lu14  1  0.439248  0.439248  0.060752  1
  Lu  Lu15  1  0.060752  0.060752  0.439248  1
  Cd  Cd16  1  0.831797  0.831797  0.831608  1
  Cd  Cd17  1  0.831797  0.831797  0.504797  1
  Cd  Cd18  1  0.831608  0.504797  0.831797  1
  Cd  Cd19  1  0.504797  0.831608  0.831797  1
  Pt  Pt20  1  0.393049  0.393049  0.392896  1
  Pt  Pt21  1  0.393049  0.393049  0.821006  1
  Pt  Pt22  1  0.392896  0.821006  0.393049  1
  Pt  Pt23  1  0.821006  0.392896  0.393049  1
