# generated using pymatgen
data_Hf2Ta2Ni10P7
_symmetry_space_group_name_H-M   'P 1'
_cell_length_a   9.17139651
_cell_length_b   9.14938896
_cell_length_c   3.62270800
_cell_angle_alpha   90.00000000
_cell_angle_beta   90.00000000
_cell_angle_gamma   120.25003660
_symmetry_Int_Tables_number   1
_chemical_formula_structural   Hf2Ta2Ni10P7
_chemical_formula_sum   'Hf2 Ta2 Ni10 P7'
_cell_volume   262.59822075
_cell_formula_units_Z   1
loop_
 _symmetry_equiv_pos_site_id
 _symmetry_equiv_pos_as_xyz
  1  'x, y, z'
loop_
 _atom_site_type_symbol
 _atom_site_label
 _atom_site_symmetry_multiplicity
 _atom_site_fract_x
 _atom_site_fract_y
 _atom_site_fract_z
 _atom_site_occupancy
  Hf  Hf0  1  0.995065  0.002578  0.000000  1
  Hf  Hf1  1  0.336067  0.669812  0.500000  1
  Ta  Ta2  1  0.889602  0.457114  0.500000  1
  Ta  Ta3  1  0.542797  0.430972  0.500000  1
  Ni  Ni4  1  0.292392  0.395044  0.000000  1
  Ni  Ni5  1  0.103815  0.707765  0.000000  1
  Ni  Ni6  1  0.377976  0.166017  0.000000  1
  Ni  Ni7  1  0.795752  0.628479  0.000000  1
  Ni  Ni8  1  0.827961  0.207913  0.000000  1
  Ni  Ni9  1  0.231478  0.944562  0.500000  1
  Ni  Ni10  1  0.053421  0.275660  0.500000  1
  Ni  Ni11  1  0.721544  0.780180  0.500000  1
  Ni  Ni12  1  0.570212  0.104392  0.500000  1
  Ni  Ni13  1  0.600115  0.896094  0.000000  1
  P  P14  1  0.660623  0.321839  0.000000  1
  P  P15  1  0.090321  0.456591  0.000000  1
  P  P16  1  0.246051  0.201955  0.500000  1
  P  P17  1  0.786586  0.046341  0.500000  1
  P  P18  1  0.958919  0.755514  0.500000  1
  P  P19  1  0.546629  0.633143  0.000000  1
  P  P20  1  0.372671  0.918037  0.000000  1
