# generated using pymatgen
data_ErPa3(SnRh2)2
_symmetry_space_group_name_H-M   'P 1'
_cell_length_a   7.65309409
_cell_length_b   7.65309481
_cell_length_c   3.63734600
_cell_angle_alpha   90.00000000
_cell_angle_beta   90.00000000
_cell_angle_gamma   91.92505739
_symmetry_Int_Tables_number   1
_chemical_formula_structural   ErPa3(SnRh2)2
_chemical_formula_sum   'Er1 Pa3 Sn2 Rh4'
_cell_volume   212.91859203
_cell_formula_units_Z   1
loop_
 _symmetry_equiv_pos_site_id
 _symmetry_equiv_pos_as_xyz
  1  'x, y, z'
loop_
 _atom_site_type_symbol
 _atom_site_label
 _atom_site_symmetry_multiplicity
 _atom_site_fract_x
 _atom_site_fract_y
 _atom_site_fract_z
 _atom_site_occupancy
  Er  Er0  1  0.826029  0.673971  0.500000  1
  Pa  Pa1  1  0.674160  0.170103  0.500000  1
  Pa  Pa2  1  0.329897  0.825840  0.500000  1
  Pa  Pa3  1  0.168850  0.331150  0.500000  1
  Sn  Sn4  1  0.508870  0.503032  0.000000  1
  Sn  Sn5  1  0.996968  0.991130  0.000000  1
  Rh  Rh6  1  0.873970  0.351769  0.000000  1
  Rh  Rh7  1  0.148231  0.626030  0.000000  1
  Rh  Rh8  1  0.357966  0.142034  0.000000  1
  Rh  Rh9  1  0.615058  0.884942  0.000000  1
