# generated using pymatgen
data_Yb8Mg7Si16Ag
_symmetry_space_group_name_H-M   'P 1'
_cell_length_a   4.27364600
_cell_length_b   11.20529931
_cell_length_c   13.87688864
_cell_angle_alpha   90.05561249
_cell_angle_beta   90.00000000
_cell_angle_gamma   90.00000000
_symmetry_Int_Tables_number   1
_chemical_formula_structural   Yb8Mg7Si16Ag
_chemical_formula_sum   'Yb8 Mg7 Si16 Ag1'
_cell_volume   664.52895021
_cell_formula_units_Z   1
loop_
 _symmetry_equiv_pos_site_id
 _symmetry_equiv_pos_as_xyz
  1  'x, y, z'
loop_
 _atom_site_type_symbol
 _atom_site_label
 _atom_site_symmetry_multiplicity
 _atom_site_fract_x
 _atom_site_fract_y
 _atom_site_fract_z
 _atom_site_occupancy
  Yb  Yb0  1  0.250000  0.527336  0.199927  1
  Yb  Yb1  1  0.250000  0.737971  0.939058  1
  Yb  Yb2  1  0.750000  0.262162  0.062417  1
  Yb  Yb3  1  0.750000  0.244061  0.558814  1
  Yb  Yb4  1  0.250000  0.756231  0.438814  1
  Yb  Yb5  1  0.250000  0.971279  0.695260  1
  Yb  Yb6  1  0.750000  0.030414  0.304120  1
  Yb  Yb7  1  0.750000  0.470847  0.802465  1
  Mg  Mg8  1  0.750000  0.552819  0.555183  1
  Mg  Mg9  1  0.750000  0.942152  0.059175  1
  Mg  Mg10  1  0.250000  0.057743  0.941044  1
  Mg  Mg11  1  0.250000  0.674342  0.692784  1
  Mg  Mg12  1  0.750000  0.326655  0.311306  1
  Mg  Mg13  1  0.750000  0.175832  0.805821  1
  Mg  Mg14  1  0.250000  0.823596  0.193605  1
  Si  Si15  1  0.750000  0.949657  0.863934  1
  Si  Si16  1  0.250000  0.449205  0.635178  1
  Si  Si17  1  0.750000  0.550752  0.363938  1
  Si  Si18  1  0.250000  0.025092  0.461370  1
  Si  Si19  1  0.250000  0.050525  0.135682  1
  Si  Si20  1  0.250000  0.267303  0.718546  1
  Si  Si21  1  0.750000  0.732326  0.281300  1
  Si  Si22  1  0.750000  0.766986  0.780811  1
  Si  Si23  1  0.250000  0.216942  0.395753  1
  Si  Si24  1  0.750000  0.976048  0.537469  1
  Si  Si25  1  0.750000  0.523826  0.038388  1
  Si  Si26  1  0.250000  0.475800  0.961978  1
  Si  Si27  1  0.250000  0.286224  0.895163  1
  Si  Si28  1  0.750000  0.784630  0.604121  1
  Si  Si29  1  0.750000  0.713537  0.104330  1
  Si  Si30  1  0.250000  0.232137  0.220106  1
  Ag  Ag31  1  0.250000  0.445572  0.442142  1
