# generated using pymatgen
data_Fe2B(AsO4)3
_symmetry_space_group_name_H-M   'P 1'
_cell_length_a   8.41963700
_cell_length_b   8.41966374
_cell_length_c   7.73866800
_cell_angle_alpha   90.00000000
_cell_angle_beta   90.00000000
_cell_angle_gamma   120.00022719
_symmetry_Int_Tables_number   1
_chemical_formula_structural   Fe2B(AsO4)3
_chemical_formula_sum   'Fe4 B2 As6 O24'
_cell_volume   475.09883775
_cell_formula_units_Z   2
loop_
 _symmetry_equiv_pos_site_id
 _symmetry_equiv_pos_as_xyz
  1  'x, y, z'
loop_
 _atom_site_type_symbol
 _atom_site_label
 _atom_site_symmetry_multiplicity
 _atom_site_fract_x
 _atom_site_fract_y
 _atom_site_fract_z
 _atom_site_occupancy
  Fe  Fe0  1  0.666667  0.333330  0.553417  1
  Fe  Fe1  1  0.333333  0.666670  0.446583  1
  Fe  Fe2  1  0.333333  0.666670  0.053417  1
  Fe  Fe3  1  0.666667  0.333330  0.946583  1
  B  B4  1  0.999999  0.000000  0.750000  1
  B  B5  1  0.000001  0.000000  0.250000  1
  As  As6  1  0.687902  0.049463  0.250000  1
  As  As7  1  0.049467  0.361566  0.750000  1
  As  As8  1  0.312098  0.950537  0.750000  1
  As  As9  1  0.638433  0.687898  0.750000  1
  As  As10  1  0.950533  0.638434  0.250000  1
  As  As11  1  0.361567  0.312102  0.250000  1
  O  O12  1  0.881431  0.813950  0.750000  1
  O  O13  1  0.932520  0.118570  0.750000  1
  O  O14  1  0.259121  0.823200  0.932886  1
  O  O15  1  0.176803  0.435928  0.932888  1
  O  O16  1  0.813950  0.932517  0.250000  1
  O  O17  1  0.435925  0.259121  0.432886  1
  O  O18  1  0.176803  0.435928  0.567112  1
  O  O19  1  0.399588  0.532759  0.250000  1
  O  O20  1  0.435925  0.259121  0.067114  1
  O  O21  1  0.564075  0.740879  0.567114  1
  O  O22  1  0.467241  0.866833  0.250000  1
  O  O23  1  0.866833  0.399590  0.750000  1
  O  O24  1  0.532759  0.133167  0.750000  1
  O  O25  1  0.259121  0.823200  0.567114  1
  O  O26  1  0.823197  0.564072  0.432888  1
  O  O27  1  0.823197  0.564072  0.067112  1
  O  O28  1  0.067480  0.881430  0.250000  1
  O  O29  1  0.186050  0.067483  0.750000  1
  O  O30  1  0.564075  0.740879  0.932886  1
  O  O31  1  0.740879  0.176800  0.432886  1
  O  O32  1  0.600412  0.467241  0.750000  1
  O  O33  1  0.133167  0.600410  0.250000  1
  O  O34  1  0.118569  0.186050  0.250000  1
  O  O35  1  0.740879  0.176800  0.067114  1
