# generated using pymatgen
data_La3Er(WN3)4
_symmetry_space_group_name_H-M   'P 1'
_cell_length_a   7.35721022
_cell_length_b   7.35721058
_cell_length_c   6.29433600
_cell_angle_alpha   75.74118239
_cell_angle_beta   75.74118972
_cell_angle_gamma   83.73251119
_symmetry_Int_Tables_number   1
_chemical_formula_structural   La3Er(WN3)4
_chemical_formula_sum   'La3 Er1 W4 N12'
_cell_volume   319.60756291
_cell_formula_units_Z   1
loop_
 _symmetry_equiv_pos_site_id
 _symmetry_equiv_pos_as_xyz
  1  'x, y, z'
loop_
 _atom_site_type_symbol
 _atom_site_label
 _atom_site_symmetry_multiplicity
 _atom_site_fract_x
 _atom_site_fract_y
 _atom_site_fract_z
 _atom_site_occupancy
  La  La0  1  0.695068  0.304932  0.750000  1
  La  La1  1  0.088259  0.911741  0.750000  1
  La  La2  1  0.307234  0.692766  0.250000  1
  Er  Er3  1  0.907778  0.092222  0.250000  1
  W  W4  1  0.380354  0.199718  0.249280  1
  W  W5  1  0.622028  0.800273  0.742304  1
  W  W6  1  0.800282  0.619646  0.250720  1
  W  W7  1  0.199727  0.377972  0.757696  1
  N  N8  1  0.618886  0.110341  0.162243  1
  N  N9  1  0.361600  0.330105  0.488256  1
  N  N10  1  0.000302  0.220354  0.866200  1
  N  N11  1  0.388220  0.888443  0.849047  1
  N  N12  1  0.779646  0.999698  0.633800  1
  N  N13  1  0.111557  0.611780  0.650953  1
  N  N14  1  0.889659  0.381114  0.337757  1
  N  N15  1  0.625943  0.653501  0.520792  1
  N  N16  1  0.669895  0.638400  0.011744  1
  N  N17  1  0.346499  0.374057  0.979208  1
  N  N18  1  0.992341  0.785280  0.161736  1
  N  N19  1  0.214720  0.007659  0.338264  1
