# generated using pymatgen
data_Y3Er7Si5Sn
_symmetry_space_group_name_H-M   'P 1'
_cell_length_a   8.46404000
_cell_length_b   8.49195928
_cell_length_c   6.34119200
_cell_angle_alpha   90.00000000
_cell_angle_beta   90.00000000
_cell_angle_gamma   119.89129439
_symmetry_Int_Tables_number   1
_chemical_formula_structural   Y3Er7Si5Sn
_chemical_formula_sum   'Y3 Er7 Si5 Sn1'
_cell_volume   395.14985361
_cell_formula_units_Z   1
loop_
 _symmetry_equiv_pos_site_id
 _symmetry_equiv_pos_as_xyz
  1  'x, y, z'
loop_
 _atom_site_type_symbol
 _atom_site_label
 _atom_site_symmetry_multiplicity
 _atom_site_fract_x
 _atom_site_fract_y
 _atom_site_fract_z
 _atom_site_occupancy
  Y  Y0  1  0.998138  0.243021  0.250000  1
  Y  Y1  1  0.755118  0.756979  0.250000  1
  Y  Y2  1  0.241970  0.000000  0.250000  1
  Er  Er3  1  0.989920  0.749069  0.750000  1
  Er  Er4  1  0.765280  0.000000  0.750000  1
  Er  Er5  1  0.240851  0.250931  0.750000  1
  Er  Er6  1  0.331136  0.657343  0.497435  1
  Er  Er7  1  0.673795  0.342657  0.002565  1
  Er  Er8  1  0.673795  0.342657  0.497435  1
  Er  Er9  1  0.331136  0.657343  0.002565  1
  Si  Si10  1  0.393852  0.392544  0.250000  1
  Si  Si11  1  0.001308  0.607456  0.250000  1
  Si  Si12  1  0.998590  0.394195  0.750000  1
  Si  Si13  1  0.604395  0.605805  0.750000  1
  Si  Si14  1  0.604522  0.000000  0.250000  1
  Sn  Sn15  1  0.396196  0.000000  0.750000  1
