# generated using pymatgen
data_LiCe6LuSb10
_symmetry_space_group_name_H-M   'P 1'
_cell_length_a   9.41224000
_cell_length_b   9.41224091
_cell_length_c   6.29944700
_cell_angle_alpha   90.00000000
_cell_angle_beta   90.00000000
_cell_angle_gamma   119.99999679
_symmetry_Int_Tables_number   1
_chemical_formula_structural   LiCe6LuSb10
_chemical_formula_sum   'Li1 Ce6 Lu1 Sb10'
_cell_volume   483.30256427
_cell_formula_units_Z   1
loop_
 _symmetry_equiv_pos_site_id
 _symmetry_equiv_pos_as_xyz
  1  'x, y, z'
loop_
 _atom_site_type_symbol
 _atom_site_label
 _atom_site_symmetry_multiplicity
 _atom_site_fract_x
 _atom_site_fract_y
 _atom_site_fract_z
 _atom_site_occupancy
  Li  Li0  1  0.000000  0.000000  0.500000  1
  Ce  Ce1  1  0.617917  0.000000  0.252563  1
  Ce  Ce2  1  0.382083  0.000000  0.747437  1
  Ce  Ce3  1  0.000000  0.617917  0.252563  1
  Ce  Ce4  1  0.000000  0.382083  0.747437  1
  Ce  Ce5  1  0.382083  0.382083  0.252563  1
  Ce  Ce6  1  0.617917  0.617917  0.747437  1
  Lu  Lu7  1  0.000000  0.000000  0.000000  1
  Sb  Sb8  1  0.268364  0.000000  0.254135  1
  Sb  Sb9  1  0.731636  0.000000  0.745865  1
  Sb  Sb10  1  0.000000  0.268364  0.254135  1
  Sb  Sb11  1  0.000000  0.731636  0.745865  1
  Sb  Sb12  1  0.731636  0.731636  0.254135  1
  Sb  Sb13  1  0.268364  0.268364  0.745865  1
  Sb  Sb14  1  0.333333  0.666667  0.000000  1
  Sb  Sb15  1  0.666667  0.333333  0.000000  1
  Sb  Sb16  1  0.666667  0.333333  0.500000  1
  Sb  Sb17  1  0.333333  0.666667  0.500000  1
