# generated using pymatgen
data_Dy5Lu3As5P7Ir16
_symmetry_space_group_name_H-M   'P 1'
_cell_length_a   13.18175547
_cell_length_b   13.14175509
_cell_length_c   4.01362800
_cell_angle_alpha   90.00000000
_cell_angle_beta   90.00000000
_cell_angle_gamma   120.22271444
_symmetry_Int_Tables_number   1
_chemical_formula_structural   Dy5Lu3As5P7Ir16
_chemical_formula_sum   'Dy5 Lu3 As5 P7 Ir16'
_cell_volume   600.77982076
_cell_formula_units_Z   1
loop_
 _symmetry_equiv_pos_site_id
 _symmetry_equiv_pos_as_xyz
  1  'x, y, z'
loop_
 _atom_site_type_symbol
 _atom_site_label
 _atom_site_symmetry_multiplicity
 _atom_site_fract_x
 _atom_site_fract_y
 _atom_site_fract_z
 _atom_site_occupancy
  Dy  Dy0  1  0.328039  0.660810  0.500000  1
  Dy  Dy1  1  0.666855  0.333521  0.500000  1
  Dy  Dy2  1  0.000208  0.817094  0.000000  1
  Dy  Dy3  1  0.183392  0.184457  0.000000  1
  Dy  Dy4  1  0.816507  0.999920  0.000000  1
  Lu  Lu5  1  0.998139  0.443247  0.500000  1
  Lu  Lu6  1  0.558954  0.553210  0.500000  1
  Lu  Lu7  1  0.446151  0.005313  0.500000  1
  As  As8  1  0.998515  0.650038  0.500000  1
  As  As9  1  0.348046  0.349959  0.500000  1
  As  As10  1  0.650741  0.000527  0.500000  1
  As  As11  1  0.514634  0.685194  0.000000  1
  As  As12  1  0.313812  0.828908  0.000000  1
  P  P13  1  0.167588  0.477676  0.000000  1
  P  P14  1  0.482143  0.173951  0.000000  1
  P  P15  1  0.691224  0.517495  0.000000  1
  P  P16  1  0.826819  0.310178  0.000000  1
  P  P17  1  0.998149  0.175615  0.500000  1
  P  P18  1  0.826460  0.824449  0.500000  1
  P  P19  1  0.176282  0.001987  0.500000  1
  Ir  Ir20  1  0.519702  0.874503  0.000000  1
  Ir  Ir21  1  0.133806  0.634543  0.000000  1
  Ir  Ir22  1  0.348058  0.481211  0.000000  1
  Ir  Ir23  1  0.498684  0.360108  0.000000  1
  Ir  Ir24  1  0.862977  0.504374  0.000000  1
  Ir  Ir25  1  0.640579  0.140527  0.000000  1
  Ir  Ir26  1  0.998515  0.271280  0.000000  1
  Ir  Ir27  1  0.732678  0.728139  0.000000  1
  Ir  Ir28  1  0.271467  0.004233  0.000000  1
  Ir  Ir29  1  0.636166  0.806239  0.500000  1
  Ir  Ir30  1  0.192312  0.826559  0.500000  1
  Ir  Ir31  1  0.171111  0.373203  0.500000  1
  Ir  Ir32  1  0.374490  0.176538  0.500000  1
  Ir  Ir33  1  0.801374  0.625350  0.500000  1
  Ir  Ir34  1  0.824871  0.198338  0.500000  1
  Ir  Ir35  1  0.000552  0.001310  0.500000  1
