# generated using pymatgen
data_Tb3EuTc4F28
_symmetry_space_group_name_H-M   'P 1'
_cell_length_a   5.61992203
_cell_length_b   8.94936411
_cell_length_c   12.07268500
_cell_angle_alpha   62.45458718
_cell_angle_beta   90.00601512
_cell_angle_gamma   89.99445242
_symmetry_Int_Tables_number   1
_chemical_formula_structural   Tb3EuTc4F28
_chemical_formula_sum   'Tb3 Eu1 Tc4 F28'
_cell_volume   538.36384811
_cell_formula_units_Z   1
loop_
 _symmetry_equiv_pos_site_id
 _symmetry_equiv_pos_as_xyz
  1  'x, y, z'
loop_
 _atom_site_type_symbol
 _atom_site_label
 _atom_site_symmetry_multiplicity
 _atom_site_fract_x
 _atom_site_fract_y
 _atom_site_fract_z
 _atom_site_occupancy
  Tb  Tb0  1  0.740536  0.186566  0.735097  1
  Tb  Tb1  1  0.761281  0.187939  0.235137  1
  Tb  Tb2  1  0.240914  0.814212  0.765144  1
  Eu  Eu3  1  0.259448  0.815508  0.265087  1
  Tc  Tc4  1  0.755020  0.725647  0.040784  1
  Tc  Tc5  1  0.242200  0.275709  0.954827  1
  Tc  Tc6  1  0.256995  0.270652  0.457969  1
  Tc  Tc7  1  0.742537  0.725764  0.546722  1
  F  F8  1  0.938955  0.704786  0.422628  1
  F  F9  1  0.053363  0.291152  0.581807  1
  F  F10  1  0.446010  0.293867  0.079121  1
  F  F11  1  0.555131  0.706818  0.914829  1
  F  F12  1  0.470967  0.726623  0.131619  1
  F  F13  1  0.522572  0.271466  0.859521  1
  F  F14  1  0.974055  0.270675  0.363154  1
  F  F15  1  0.025750  0.729566  0.640487  1
  F  F16  1  0.945130  0.741767  0.169679  1
  F  F17  1  0.043241  0.257170  0.827234  1
  F  F18  1  0.455848  0.252091  0.330576  1
  F  F19  1  0.547855  0.745717  0.674837  1
  F  F20  1  0.768512  0.479671  0.138581  1
  F  F21  1  0.230058  0.521712  0.857424  1
  F  F22  1  0.271673  0.514022  0.361042  1
  F  F23  1  0.731514  0.479423  0.644202  1
  F  F24  1  0.951877  0.282921  0.043541  1
  F  F25  1  0.049575  0.719000  0.953637  1
  F  F26  1  0.451539  0.716229  0.462469  1
  F  F27  1  0.548268  0.278463  0.546789  1
  F  F28  1  0.741572  0.970770  0.449729  1
  F  F29  1  0.257779  0.024753  0.554131  1
  F  F30  1  0.241246  0.031881  0.047349  1
  F  F31  1  0.757278  0.971614  0.945842  1
  F  F32  1  0.599986  0.972492  0.229249  1
  F  F33  1  0.415794  0.030576  0.768791  1
  F  F34  1  0.089200  0.042170  0.269273  1
  F  F35  1  0.916322  0.970611  0.731693  1
