# generated using pymatgen
data_Zr4VCo5Os2
_symmetry_space_group_name_H-M   'P 1'
_cell_length_a   4.94024430
_cell_length_b   5.03985417
_cell_length_c   8.37344300
_cell_angle_alpha   90.00000000
_cell_angle_beta   90.00000000
_cell_angle_gamma   120.66925114
_symmetry_Int_Tables_number   1
_chemical_formula_structural   Zr4VCo5Os2
_chemical_formula_sum   'Zr4 V1 Co5 Os2'
_cell_volume   179.32160220
_cell_formula_units_Z   1
loop_
 _symmetry_equiv_pos_site_id
 _symmetry_equiv_pos_as_xyz
  1  'x, y, z'
loop_
 _atom_site_type_symbol
 _atom_site_label
 _atom_site_symmetry_multiplicity
 _atom_site_fract_x
 _atom_site_fract_y
 _atom_site_fract_z
 _atom_site_occupancy
  Zr  Zr0  1  0.332817  0.666409  0.430487  1
  Zr  Zr1  1  0.664556  0.332278  0.561611  1
  Zr  Zr2  1  0.664556  0.332278  0.938389  1
  Zr  Zr3  1  0.332817  0.666409  0.069513  1
  V  V4  1  0.663309  0.831654  0.750000  1
  Co  Co5  1  0.827678  0.168031  0.250000  1
  Co  Co6  1  0.827678  0.659647  0.250000  1
  Co  Co7  1  0.339433  0.169717  0.250000  1
  Co  Co8  1  0.180884  0.834674  0.750000  1
  Co  Co9  1  0.180884  0.346210  0.750000  1
  Os  Os10  1  0.992693  0.996347  0.496782  1
  Os  Os11  1  0.992693  0.996347  0.003218  1
