# generated using pymatgen
data_Dy3Al12Ru3Pt
_symmetry_space_group_name_H-M   'P 1'
_cell_length_a   8.83800292
_cell_length_b   8.83800268
_cell_length_c   9.54932500
_cell_angle_alpha   90.00000000
_cell_angle_beta   90.00000000
_cell_angle_gamma   119.66261852
_symmetry_Int_Tables_number   1
_chemical_formula_structural   Dy3Al12Ru3Pt
_chemical_formula_sum   'Dy6 Al24 Ru6 Pt2'
_cell_volume   648.15372533
_cell_formula_units_Z   2
loop_
 _symmetry_equiv_pos_site_id
 _symmetry_equiv_pos_as_xyz
  1  'x, y, z'
loop_
 _atom_site_type_symbol
 _atom_site_label
 _atom_site_symmetry_multiplicity
 _atom_site_fract_x
 _atom_site_fract_y
 _atom_site_fract_z
 _atom_site_occupancy
  Dy  Dy0  1  0.194558  0.805442  0.250000  1
  Dy  Dy1  1  0.190388  0.387195  0.250000  1
  Dy  Dy2  1  0.612805  0.809612  0.250000  1
  Dy  Dy3  1  0.805442  0.194558  0.750000  1
  Dy  Dy4  1  0.809612  0.612805  0.750000  1
  Dy  Dy5  1  0.387195  0.190388  0.750000  1
  Al  Al6  1  0.563496  0.436504  0.250000  1
  Al  Al7  1  0.560057  0.122404  0.250000  1
  Al  Al8  1  0.877596  0.439943  0.250000  1
  Al  Al9  1  0.436504  0.563496  0.750000  1
  Al  Al10  1  0.439943  0.877596  0.750000  1
  Al  Al11  1  0.122404  0.560057  0.750000  1
  Al  Al12  1  0.323761  0.158081  0.421988  1
  Al  Al13  1  0.836557  0.163443  0.422965  1
  Al  Al14  1  0.841919  0.676239  0.421988  1
  Al  Al15  1  0.676239  0.841919  0.578012  1
  Al  Al16  1  0.163443  0.836557  0.577035  1
  Al  Al17  1  0.158081  0.323761  0.578012  1
  Al  Al18  1  0.676239  0.841919  0.921988  1
  Al  Al19  1  0.163443  0.836557  0.922965  1
  Al  Al20  1  0.158081  0.323761  0.921988  1
  Al  Al21  1  0.323761  0.158081  0.078012  1
  Al  Al22  1  0.836557  0.163443  0.077035  1
  Al  Al23  1  0.841919  0.676239  0.078012  1
  Al  Al24  1  0.669358  0.330642  0.522109  1
  Al  Al25  1  0.330642  0.669358  0.477891  1
  Al  Al26  1  0.330642  0.669358  0.022109  1
  Al  Al27  1  0.669358  0.330642  0.977891  1
  Al  Al28  1  0.998973  0.001027  0.250000  1
  Al  Al29  1  0.001027  0.998973  0.750000  1
  Ru  Ru30  1  0.000000  0.000000  0.500000  1
  Ru  Ru31  1  0.000000  0.000000  0.000000  1
  Ru  Ru32  1  0.500000  0.000000  0.500000  1
  Ru  Ru33  1  0.000000  0.500000  0.500000  1
  Ru  Ru34  1  0.500000  0.000000  0.000000  1
  Ru  Ru35  1  0.000000  0.500000  0.000000  1
  Pt  Pt36  1  0.500000  0.500000  0.500000  1
  Pt  Pt37  1  0.500000  0.500000  0.000000  1
