# generated using pymatgen
data_DyPa(Ga3Ir)3
_symmetry_space_group_name_H-M   'P 1'
_cell_length_a   7.64999040
_cell_length_b   7.65163093
_cell_length_c   9.39542800
_cell_angle_alpha   90.00000000
_cell_angle_beta   90.00000000
_cell_angle_gamma   119.92165111
_symmetry_Int_Tables_number   1
_chemical_formula_structural   DyPa(Ga3Ir)3
_chemical_formula_sum   'Dy2 Pa2 Ga18 Ir6'
_cell_volume   476.65531225
_cell_formula_units_Z   2
loop_
 _symmetry_equiv_pos_site_id
 _symmetry_equiv_pos_as_xyz
  1  'x, y, z'
loop_
 _atom_site_type_symbol
 _atom_site_label
 _atom_site_symmetry_multiplicity
 _atom_site_fract_x
 _atom_site_fract_y
 _atom_site_fract_z
 _atom_site_occupancy
  Dy  Dy0  1  0.668381  0.995368  0.250000  1
  Dy  Dy1  1  0.331619  0.004632  0.750000  1
  Pa  Pa2  1  0.998378  0.668731  0.250000  1
  Pa  Pa3  1  0.001622  0.331269  0.750000  1
  Ga  Ga4  1  0.128977  0.128143  0.250000  1
  Ga  Ga5  1  0.871023  0.871857  0.750000  1
  Ga  Ga6  1  0.998510  0.330732  0.082009  1
  Ga  Ga7  1  0.001490  0.669268  0.917991  1
  Ga  Ga8  1  0.001490  0.669268  0.582009  1
  Ga  Ga9  1  0.337791  0.001568  0.420377  1
  Ga  Ga10  1  0.998510  0.330732  0.417991  1
  Ga  Ga11  1  0.662209  0.998432  0.579623  1
  Ga  Ga12  1  0.662209  0.998432  0.920377  1
  Ga  Ga13  1  0.337791  0.001568  0.079623  1
  Ga  Ga14  1  0.334423  0.331671  0.566665  1
  Ga  Ga15  1  0.665577  0.668329  0.433335  1
  Ga  Ga16  1  0.665577  0.668329  0.066665  1
  Ga  Ga17  1  0.334423  0.331671  0.933335  1
  Ga  Ga18  1  0.340632  0.546447  0.250000  1
  Ga  Ga19  1  0.659368  0.453553  0.750000  1
  Ga  Ga20  1  0.545369  0.338852  0.250000  1
  Ga  Ga21  1  0.454631  0.661148  0.750000  1
  Ir  Ir22  1  0.676153  0.331714  0.999926  1
  Ir  Ir23  1  0.323847  0.668286  0.000074  1
  Ir  Ir24  1  0.323847  0.668286  0.499926  1
  Ir  Ir25  1  0.676153  0.331714  0.500074  1
  Ir  Ir26  1  0.000000  0.000000  0.000000  1
  Ir  Ir27  1  0.000000  0.000000  0.500000  1
