# generated using pymatgen
data_AcSiP3
_symmetry_space_group_name_H-M   'P 1'
_cell_length_a   6.13964200
_cell_length_b   5.91037900
_cell_length_c   26.07818200
_cell_angle_alpha   90.00000000
_cell_angle_beta   90.00000000
_cell_angle_gamma   90.00000000
_symmetry_Int_Tables_number   1
_chemical_formula_structural   AcSiP3
_chemical_formula_sum   'Ac8 Si8 P24'
_cell_volume   946.31492777
_cell_formula_units_Z   8
loop_
 _symmetry_equiv_pos_site_id
 _symmetry_equiv_pos_as_xyz
  1  'x, y, z'
loop_
 _atom_site_type_symbol
 _atom_site_label
 _atom_site_symmetry_multiplicity
 _atom_site_fract_x
 _atom_site_fract_y
 _atom_site_fract_z
 _atom_site_occupancy
  Ac  Ac0  1  0.024631  0.758832  0.090604  1
  Ac  Ac1  1  0.525945  0.257599  0.100960  1
  Ac  Ac2  1  0.025945  0.257599  0.399041  1
  Ac  Ac3  1  0.524630  0.758832  0.409396  1
  Ac  Ac4  1  0.475371  0.258832  0.590604  1
  Ac  Ac5  1  0.974054  0.757599  0.600959  1
  Ac  Ac6  1  0.474054  0.757599  0.899040  1
  Ac  Ac7  1  0.975370  0.258832  0.909396  1
  Si  Si8  1  0.945865  0.336946  0.207138  1
  Si  Si9  1  0.617740  0.833100  0.210826  1
  Si  Si10  1  0.117739  0.833100  0.289174  1
  Si  Si11  1  0.445865  0.336946  0.292863  1
  Si  Si12  1  0.554136  0.836946  0.707137  1
  Si  Si13  1  0.882261  0.333100  0.710826  1
  Si  Si14  1  0.382261  0.333100  0.789174  1
  Si  Si15  1  0.054136  0.836946  0.792862  1
  P  P16  1  0.322822  0.065804  0.001839  1
  P  P17  1  0.323787  0.454566  0.002050  1
  P  P18  1  0.027697  0.257550  0.126726  1
  P  P19  1  0.520344  0.756835  0.131242  1
  P  P20  1  0.968499  0.721286  0.213325  1
  P  P21  1  0.600900  0.217881  0.219170  1
  P  P22  1  0.100900  0.217881  0.280830  1
  P  P23  1  0.468498  0.721286  0.286675  1
  P  P24  1  0.020343  0.756835  0.368758  1
  P  P25  1  0.527696  0.257550  0.373274  1
  P  P26  1  0.823787  0.454566  0.497950  1
  P  P27  1  0.822822  0.065804  0.498161  1
  P  P28  1  0.177177  0.565804  0.501839  1
  P  P29  1  0.176212  0.954566  0.502050  1
  P  P30  1  0.472305  0.757550  0.626726  1
  P  P31  1  0.979656  0.256835  0.631242  1
  P  P32  1  0.531502  0.221286  0.713325  1
  P  P33  1  0.899101  0.717881  0.719170  1
  P  P34  1  0.399101  0.717881  0.780830  1
  P  P35  1  0.031502  0.221286  0.786675  1
  P  P36  1  0.479656  0.256835  0.868758  1
  P  P37  1  0.972304  0.757550  0.873274  1
  P  P38  1  0.676214  0.954566  0.997950  1
  P  P39  1  0.677179  0.565804  0.998161  1
