# generated using pymatgen
data_Ho20Ir3Pt5Rh4
_symmetry_space_group_name_H-M   'P 1'
_cell_length_a   10.93536005
_cell_length_b   10.93536021
_cell_length_c   6.33143509
_cell_angle_alpha   89.98844738
_cell_angle_beta   89.98844477
_cell_angle_gamma   89.73690326
_symmetry_Int_Tables_number   1
_chemical_formula_structural   Ho20Ir3Pt5Rh4
_chemical_formula_sum   'Ho20 Ir3 Pt5 Rh4'
_cell_volume   757.11829784
_cell_formula_units_Z   1
loop_
 _symmetry_equiv_pos_site_id
 _symmetry_equiv_pos_as_xyz
  1  'x, y, z'
loop_
 _atom_site_type_symbol
 _atom_site_label
 _atom_site_symmetry_multiplicity
 _atom_site_fract_x
 _atom_site_fract_y
 _atom_site_fract_z
 _atom_site_occupancy
  Ho  Ho0  1  0.294090  0.090973  0.375700  1
  Ho  Ho1  1  0.294341  0.908975  0.874953  1
  Ho  Ho2  1  0.705951  0.087143  0.875340  1
  Ho  Ho3  1  0.705660  0.908585  0.375077  1
  Ho  Ho4  1  0.586912  0.789399  0.880231  1
  Ho  Ho5  1  0.585036  0.207699  0.376234  1
  Ho  Ho6  1  0.413408  0.790402  0.379660  1
  Ho  Ho7  1  0.410122  0.208656  0.881267  1
  Ho  Ho8  1  0.210601  0.413088  0.619769  1
  Ho  Ho9  1  0.209598  0.586592  0.120340  1
  Ho  Ho10  1  0.792301  0.414964  0.123766  1
  Ho  Ho11  1  0.791344  0.589878  0.618733  1
  Ho  Ho12  1  0.909027  0.705910  0.124300  1
  Ho  Ho13  1  0.912857  0.294049  0.624660  1
  Ho  Ho14  1  0.091025  0.705659  0.625047  1
  Ho  Ho15  1  0.091415  0.294340  0.124923  1
  Ho  Ho16  1  0.999687  0.999862  0.499438  1
  Ho  Ho17  1  0.000138  0.000313  0.000562  1
  Ho  Ho18  1  0.498770  0.500942  0.999981  1
  Ho  Ho19  1  0.499058  0.501230  0.500019  1
  Ir  Ir20  1  0.655007  0.654095  0.250099  1
  Ir  Ir21  1  0.345905  0.344993  0.249901  1
  Ir  Ir22  1  0.344490  0.655510  0.750000  1
  Pt  Pt23  1  0.845091  0.154909  0.250000  1
  Pt  Pt24  1  0.845815  0.846760  0.750450  1
  Pt  Pt25  1  0.153240  0.154185  0.749550  1
  Pt  Pt26  1  0.154105  0.845895  0.250000  1
  Pt  Pt27  1  0.655662  0.344338  0.750000  1
  Rh  Rh28  1  0.500290  0.000473  0.123418  1
  Rh  Rh29  1  0.500075  0.000542  0.624582  1
  Rh  Rh30  1  0.999458  0.499925  0.875418  1
  Rh  Rh31  1  0.999527  0.499710  0.376582  1
