# generated using pymatgen
data_EuTh(AgSn)2
_symmetry_space_group_name_H-M   'P 1'
_cell_length_a   4.84770100
_cell_length_b   4.84770230
_cell_length_c   7.54756900
_cell_angle_alpha   90.00000000
_cell_angle_beta   90.00000000
_cell_angle_gamma   119.99998434
_symmetry_Int_Tables_number   1
_chemical_formula_structural   EuTh(AgSn)2
_chemical_formula_sum   'Eu1 Th1 Ag2 Sn2'
_cell_volume   153.60648767
_cell_formula_units_Z   1
loop_
 _symmetry_equiv_pos_site_id
 _symmetry_equiv_pos_as_xyz
  1  'x, y, z'
loop_
 _atom_site_type_symbol
 _atom_site_label
 _atom_site_symmetry_multiplicity
 _atom_site_fract_x
 _atom_site_fract_y
 _atom_site_fract_z
 _atom_site_occupancy
  Eu  Eu0  1  0.000000  0.000000  0.263818  1
  Th  Th1  1  0.000000  0.000000  0.764326  1
  Ag  Ag2  1  0.666667  0.333333  0.965171  1
  Ag  Ag3  1  0.333333  0.666667  0.464460  1
  Sn  Sn4  1  0.333333  0.666667  0.029347  1
  Sn  Sn5  1  0.666667  0.333333  0.532880  1
