# generated using pymatgen
data_ErTm(Lu4Pb3)2
_symmetry_space_group_name_H-M   'P 1'
_cell_length_a   8.89718500
_cell_length_b   8.91879974
_cell_length_c   6.50515100
_cell_angle_alpha   90.00000000
_cell_angle_beta   90.00000000
_cell_angle_gamma   119.91985978
_symmetry_Int_Tables_number   1
_chemical_formula_structural   ErTm(Lu4Pb3)2
_chemical_formula_sum   'Er1 Tm1 Lu8 Pb6'
_cell_volume   447.40125081
_cell_formula_units_Z   1
loop_
 _symmetry_equiv_pos_site_id
 _symmetry_equiv_pos_as_xyz
  1  'x, y, z'
loop_
 _atom_site_type_symbol
 _atom_site_label
 _atom_site_symmetry_multiplicity
 _atom_site_fract_x
 _atom_site_fract_y
 _atom_site_fract_z
 _atom_site_occupancy
  Er  Er0  1  0.234669  0.000000  0.250000  1
  Tm  Tm1  1  0.765148  0.000000  0.750000  1
  Lu  Lu2  1  0.234850  0.235627  0.750000  1
  Lu  Lu3  1  0.333994  0.667708  0.999994  1
  Lu  Lu4  1  0.666287  0.332292  0.999994  1
  Lu  Lu5  1  0.999222  0.764373  0.750000  1
  Lu  Lu6  1  0.764552  0.763884  0.250000  1
  Lu  Lu7  1  0.000668  0.236116  0.250000  1
  Lu  Lu8  1  0.333994  0.667708  0.500006  1
  Lu  Lu9  1  0.666287  0.332292  0.500006  1
  Pb  Pb10  1  0.000841  0.395822  0.750000  1
  Pb  Pb11  1  0.395158  0.396404  0.250000  1
  Pb  Pb12  1  0.606343  0.000000  0.250000  1
  Pb  Pb13  1  0.605019  0.604178  0.750000  1
  Pb  Pb14  1  0.394214  0.000000  0.750000  1
  Pb  Pb15  1  0.998754  0.603596  0.250000  1
