# generated using pymatgen
data_KHo(PSe3)2
_symmetry_space_group_name_H-M   'P 1'
_cell_length_a   7.65674700
_cell_length_b   6.86453271
_cell_length_c   10.78686345
_cell_angle_alpha   87.09647607
_cell_angle_beta   90.00000000
_cell_angle_gamma   90.00000000
_symmetry_Int_Tables_number   1
_chemical_formula_structural   KHo(PSe3)2
_chemical_formula_sum   'K2 Ho2 P4 Se12'
_cell_volume   566.22960283
_cell_formula_units_Z   2
loop_
 _symmetry_equiv_pos_site_id
 _symmetry_equiv_pos_as_xyz
  1  'x, y, z'
loop_
 _atom_site_type_symbol
 _atom_site_label
 _atom_site_symmetry_multiplicity
 _atom_site_fract_x
 _atom_site_fract_y
 _atom_site_fract_z
 _atom_site_occupancy
  K  K0  1  0.045361  0.321418  0.490745  1
  K  K1  1  0.545361  0.678582  0.509255  1
  Ho  Ho2  1  0.266429  0.217414  0.998732  1
  Ho  Ho3  1  0.766429  0.782586  0.001268  1
  P  P4  1  0.750357  0.323274  0.832538  1
  P  P5  1  0.250357  0.676726  0.167462  1
  P  P6  1  0.032132  0.801071  0.281774  1
  P  P7  1  0.532132  0.198929  0.718226  1
  Se  Se8  1  0.624967  0.376640  0.016179  1
  Se  Se9  1  0.123309  0.835133  0.468501  1
  Se  Se10  1  0.949637  0.085161  0.839626  1
  Se  Se11  1  0.815102  0.597714  0.260068  1
  Se  Se12  1  0.346704  0.396528  0.246848  1
  Se  Se13  1  0.315102  0.402286  0.739932  1
  Se  Se14  1  0.459503  0.940895  0.844820  1
  Se  Se15  1  0.959503  0.059105  0.155180  1
  Se  Se16  1  0.623309  0.164867  0.531499  1
  Se  Se17  1  0.124967  0.623360  0.983821  1
  Se  Se18  1  0.449637  0.914839  0.160374  1
  Se  Se19  1  0.846704  0.603472  0.753152  1
