# generated using pymatgen
data_Yb2PPt8
_symmetry_space_group_name_H-M   'P 1'
_cell_length_a   9.09979954
_cell_length_b   9.09979868
_cell_length_c   4.28500800
_cell_angle_alpha   90.00000000
_cell_angle_beta   90.00000000
_cell_angle_gamma   145.50744781
_symmetry_Int_Tables_number   1
_chemical_formula_structural   Yb2PPt8
_chemical_formula_sum   'Yb2 P1 Pt8'
_cell_volume   200.93755896
_cell_formula_units_Z   1
loop_
 _symmetry_equiv_pos_site_id
 _symmetry_equiv_pos_as_xyz
  1  'x, y, z'
loop_
 _atom_site_type_symbol
 _atom_site_label
 _atom_site_symmetry_multiplicity
 _atom_site_fract_x
 _atom_site_fract_y
 _atom_site_fract_z
 _atom_site_occupancy
  Yb  Yb0  1  0.618678  0.372140  0.500000  1
  Yb  Yb1  1  0.372140  0.618678  0.500000  1
  P  P2  1  0.224344  0.224344  0.000000  1
  Pt  Pt3  1  0.109645  0.890182  0.000000  1
  Pt  Pt4  1  0.890182  0.109645  0.000000  1
  Pt  Pt5  1  0.489707  0.985321  0.000000  1
  Pt  Pt6  1  0.985321  0.489707  0.000000  1
  Pt  Pt7  1  0.194354  0.792079  0.500000  1
  Pt  Pt8  1  0.792079  0.194354  0.500000  1
  Pt  Pt9  1  0.007170  0.007170  0.500000  1
  Pt  Pt10  1  0.629978  0.629978  0.000000  1
