# generated using pymatgen
data_Ho6Al(P3Rh5)4
_symmetry_space_group_name_H-M   'P 1'
_cell_length_a   13.44282500
_cell_length_b   13.44282429
_cell_length_c   3.87893400
_cell_angle_alpha   90.00000000
_cell_angle_beta   90.00000000
_cell_angle_gamma   119.99999435
_symmetry_Int_Tables_number   1
_chemical_formula_structural   Ho6Al(P3Rh5)4
_chemical_formula_sum   'Ho6 Al1 P12 Rh20'
_cell_volume   607.04951116
_cell_formula_units_Z   1
loop_
 _symmetry_equiv_pos_site_id
 _symmetry_equiv_pos_as_xyz
  1  'x, y, z'
loop_
 _atom_site_type_symbol
 _atom_site_label
 _atom_site_symmetry_multiplicity
 _atom_site_fract_x
 _atom_site_fract_y
 _atom_site_fract_z
 _atom_site_occupancy
  Ho  Ho0  1  0.530752  0.717306  0.249181  1
  Ho  Ho1  1  0.282694  0.813446  0.249181  1
  Ho  Ho2  1  0.186554  0.469248  0.249181  1
  Ho  Ho3  1  0.469248  0.282694  0.750819  1
  Ho  Ho4  1  0.717306  0.186554  0.750819  1
  Ho  Ho5  1  0.813446  0.530752  0.750819  1
  Al  Al6  1  0.000000  0.000000  0.000000  1
  P  P7  1  0.526890  0.138531  0.250405  1
  P  P8  1  0.861469  0.388361  0.250405  1
  P  P9  1  0.611639  0.473110  0.250405  1
  P  P10  1  0.948238  0.718337  0.250106  1
  P  P11  1  0.281663  0.229902  0.250106  1
  P  P12  1  0.770098  0.051762  0.250106  1
  P  P13  1  0.388361  0.526890  0.749595  1
  P  P14  1  0.473110  0.861469  0.749595  1
  P  P15  1  0.138531  0.611639  0.749595  1
  P  P16  1  0.718337  0.770098  0.749894  1
  P  P17  1  0.229902  0.948238  0.749894  1
  P  P18  1  0.051762  0.281663  0.749894  1
  Rh  Rh19  1  0.333333  0.666667  0.752155  1
  Rh  Rh20  1  0.918541  0.250993  0.250786  1
  Rh  Rh21  1  0.749007  0.667549  0.250786  1
  Rh  Rh22  1  0.332451  0.081459  0.250786  1
  Rh  Rh23  1  0.441319  0.025048  0.750519  1
  Rh  Rh24  1  0.974952  0.416271  0.750519  1
  Rh  Rh25  1  0.583729  0.558681  0.750519  1
  Rh  Rh26  1  0.666667  0.333333  0.247845  1
  Rh  Rh27  1  0.095399  0.200020  0.250386  1
  Rh  Rh28  1  0.799980  0.895379  0.250386  1
  Rh  Rh29  1  0.104621  0.904601  0.250386  1
  Rh  Rh30  1  0.025048  0.583729  0.249481  1
  Rh  Rh31  1  0.416271  0.441319  0.249481  1
  Rh  Rh32  1  0.558681  0.974952  0.249481  1
  Rh  Rh33  1  0.667549  0.918541  0.749214  1
  Rh  Rh34  1  0.081459  0.749007  0.749214  1
  Rh  Rh35  1  0.250993  0.332451  0.749214  1
  Rh  Rh36  1  0.904601  0.799980  0.749614  1
  Rh  Rh37  1  0.200020  0.104621  0.749614  1
  Rh  Rh38  1  0.895379  0.095399  0.749614  1
