# generated using pymatgen
data_LaBe11Cu2
_symmetry_space_group_name_H-M   'P 1'
_cell_length_a   7.49521133
_cell_length_b   7.49390947
_cell_length_c   7.43977512
_cell_angle_alpha   60.25022407
_cell_angle_beta   60.23281968
_cell_angle_gamma   59.51695285
_symmetry_Int_Tables_number   1
_chemical_formula_structural   LaBe11Cu2
_chemical_formula_sum   'La2 Be22 Cu4'
_cell_volume   295.45478105
_cell_formula_units_Z   2
loop_
 _symmetry_equiv_pos_site_id
 _symmetry_equiv_pos_as_xyz
  1  'x, y, z'
loop_
 _atom_site_type_symbol
 _atom_site_label
 _atom_site_symmetry_multiplicity
 _atom_site_fract_x
 _atom_site_fract_y
 _atom_site_fract_z
 _atom_site_occupancy
  La  La0  1  0.250000  0.250000  0.250000  1
  La  La1  1  0.750000  0.750000  0.750000  1
  Be  Be2  1  0.930070  0.290930  0.069930  1
  Be  Be3  1  0.061835  0.938165  0.294666  1
  Be  Be4  1  0.290930  0.930070  0.709070  1
  Be  Be5  1  0.294666  0.705334  0.061835  1
  Be  Be6  1  0.709070  0.069930  0.290930  1
  Be  Be7  1  0.938165  0.061835  0.705334  1
  Be  Be8  1  0.069930  0.709070  0.930070  1
  Be  Be9  1  0.705334  0.294666  0.938165  1
  Be  Be10  1  0.439605  0.217309  0.560395  1
  Be  Be11  1  0.217309  0.439605  0.782691  1
  Be  Be12  1  0.560395  0.782691  0.439605  1
  Be  Be13  1  0.782691  0.560395  0.217309  1
  Be  Be14  1  0.221533  0.568503  0.431497  1
  Be  Be15  1  0.566112  0.433888  0.216636  1
  Be  Be16  1  0.568503  0.221533  0.778467  1
  Be  Be17  1  0.783364  0.216636  0.433888  1
  Be  Be18  1  0.431497  0.778467  0.221533  1
  Be  Be19  1  0.433888  0.566112  0.783364  1
  Be  Be20  1  0.778467  0.431497  0.568503  1
  Be  Be21  1  0.216636  0.783364  0.566112  1
  Be  Be22  1  0.000000  0.000000  0.000000  1
  Be  Be23  1  0.500000  0.500000  0.500000  1
  Cu  Cu24  1  0.301186  0.058913  0.941087  1
  Cu  Cu25  1  0.058913  0.301186  0.698814  1
  Cu  Cu26  1  0.698814  0.941087  0.058913  1
  Cu  Cu27  1  0.941087  0.698814  0.301186  1
