# generated using pymatgen
data_Ho3Si(PPd4)5
_symmetry_space_group_name_H-M   'P 1'
_cell_length_a   8.69319190
_cell_length_b   8.67968359
_cell_length_c   8.67968353
_cell_angle_alpha   60.10297835
_cell_angle_beta   59.94850451
_cell_angle_gamma   59.94850365
_symmetry_Int_Tables_number   1
_chemical_formula_structural   Ho3Si(PPd4)5
_chemical_formula_sum   'Ho3 Si1 P5 Pd20'
_cell_volume   463.09479778
_cell_formula_units_Z   1
loop_
 _symmetry_equiv_pos_site_id
 _symmetry_equiv_pos_as_xyz
  1  'x, y, z'
loop_
 _atom_site_type_symbol
 _atom_site_label
 _atom_site_symmetry_multiplicity
 _atom_site_fract_x
 _atom_site_fract_y
 _atom_site_fract_z
 _atom_site_occupancy
  Ho  Ho0  1  0.250281  0.249719  0.249719  1
  Ho  Ho1  1  0.750281  0.749719  0.749719  1
  Ho  Ho2  1  0.999813  0.000187  0.000187  1
  Si  Si3  1  0.734318  0.265682  0.265682  1
  P  P4  1  0.264109  0.735891  0.735891  1
  P  P5  1  0.264790  0.735210  0.263627  1
  P  P6  1  0.736373  0.263627  0.735210  1
  P  P7  1  0.264790  0.263627  0.735210  1
  P  P8  1  0.736373  0.735210  0.263627  1
  Pd  Pd9  1  0.382895  0.384462  0.384462  1
  Pd  Pd10  1  0.615820  0.615830  0.615830  1
  Pd  Pd11  1  0.384170  0.384180  0.847481  1
  Pd  Pd12  1  0.384170  0.847481  0.384180  1
  Pd  Pd13  1  0.615538  0.617105  0.151818  1
  Pd  Pd14  1  0.615538  0.151818  0.617105  1
  Pd  Pd15  1  0.848182  0.384462  0.384462  1
  Pd  Pd16  1  0.152519  0.615830  0.615830  1
  Pd  Pd17  1  0.343670  0.000479  0.000479  1
  Pd  Pd18  1  0.655373  0.000479  0.000479  1
  Pd  Pd19  1  0.999521  0.344627  0.656330  1
  Pd  Pd20  1  0.999521  0.656330  0.344627  1
  Pd  Pd21  1  0.000686  0.345787  0.999314  1
  Pd  Pd22  1  0.654213  0.999314  0.345787  1
  Pd  Pd23  1  0.000491  0.654412  0.999509  1
  Pd  Pd24  1  0.345588  0.999509  0.654412  1
  Pd  Pd25  1  0.000686  0.999314  0.345787  1
  Pd  Pd26  1  0.000491  0.999509  0.654412  1
  Pd  Pd27  1  0.654213  0.345787  0.999314  1
  Pd  Pd28  1  0.345588  0.654412  0.999509  1
