# generated using pymatgen
data_Ca3(TbSi2)2
_symmetry_space_group_name_H-M   'P 1'
_cell_length_a   7.44837700
_cell_length_b   7.84064300
_cell_length_c   15.22926500
_cell_angle_alpha   90.00000000
_cell_angle_beta   90.00000000
_cell_angle_gamma   90.00000000
_symmetry_Int_Tables_number   1
_chemical_formula_structural   Ca3(TbSi2)2
_chemical_formula_sum   'Ca12 Tb8 Si16'
_cell_volume   889.39006570
_cell_formula_units_Z   4
loop_
 _symmetry_equiv_pos_site_id
 _symmetry_equiv_pos_as_xyz
  1  'x, y, z'
loop_
 _atom_site_type_symbol
 _atom_site_label
 _atom_site_symmetry_multiplicity
 _atom_site_fract_x
 _atom_site_fract_y
 _atom_site_fract_z
 _atom_site_occupancy
  Ca  Ca0  1  0.976871  0.815563  0.405069  1
  Ca  Ca1  1  0.476871  0.684437  0.094931  1
  Ca  Ca2  1  0.523129  0.315563  0.594931  1
  Ca  Ca3  1  0.023129  0.184437  0.905069  1
  Ca  Ca4  1  0.023129  0.184437  0.594931  1
  Ca  Ca5  1  0.523129  0.315563  0.905069  1
  Ca  Ca6  1  0.476871  0.684437  0.405069  1
  Ca  Ca7  1  0.976871  0.815563  0.094931  1
  Ca  Ca8  1  0.348727  0.019561  0.750000  1
  Ca  Ca9  1  0.848727  0.480439  0.750000  1
  Ca  Ca10  1  0.151273  0.519561  0.250000  1
  Ca  Ca11  1  0.651273  0.980439  0.250000  1
  Tb  Tb12  1  0.316583  0.177216  0.121533  1
  Tb  Tb13  1  0.816583  0.322784  0.378467  1
  Tb  Tb14  1  0.183417  0.677216  0.878467  1
  Tb  Tb15  1  0.683417  0.822784  0.621533  1
  Tb  Tb16  1  0.316583  0.177216  0.378467  1
  Tb  Tb17  1  0.816583  0.322784  0.121533  1
  Tb  Tb18  1  0.183417  0.677216  0.621533  1
  Tb  Tb19  1  0.683417  0.822784  0.878467  1
  Si  Si20  1  0.858080  0.534854  0.537520  1
  Si  Si21  1  0.358080  0.965146  0.962480  1
  Si  Si22  1  0.641920  0.034854  0.462480  1
  Si  Si23  1  0.141920  0.465146  0.037520  1
  Si  Si24  1  0.141920  0.465146  0.462480  1
  Si  Si25  1  0.641920  0.034854  0.037520  1
  Si  Si26  1  0.358080  0.965146  0.537520  1
  Si  Si27  1  0.858080  0.534854  0.962480  1
  Si  Si28  1  0.973852  0.884487  0.750000  1
  Si  Si29  1  0.473852  0.615513  0.750000  1
  Si  Si30  1  0.526148  0.384487  0.250000  1
  Si  Si31  1  0.026148  0.115513  0.250000  1
  Si  Si32  1  0.245337  0.394610  0.750000  1
  Si  Si33  1  0.745337  0.105390  0.750000  1
  Si  Si34  1  0.254663  0.894610  0.250000  1
  Si  Si35  1  0.754663  0.605390  0.250000  1
