# generated using pymatgen
data_Tb2Dy3Ho(SbO7)2
_symmetry_space_group_name_H-M   'P 1'
_cell_length_a   6.47699091
_cell_length_b   6.47890593
_cell_length_c   7.53659400
_cell_angle_alpha   90.00000000
_cell_angle_beta   90.00000000
_cell_angle_gamma   109.39725369
_symmetry_Int_Tables_number   1
_chemical_formula_structural   Tb2Dy3Ho(SbO7)2
_chemical_formula_sum   'Tb2 Dy3 Ho1 Sb2 O14'
_cell_volume   298.31262727
_cell_formula_units_Z   1
loop_
 _symmetry_equiv_pos_site_id
 _symmetry_equiv_pos_as_xyz
  1  'x, y, z'
loop_
 _atom_site_type_symbol
 _atom_site_label
 _atom_site_symmetry_multiplicity
 _atom_site_fract_x
 _atom_site_fract_y
 _atom_site_fract_z
 _atom_site_occupancy
  Tb  Tb0  1  0.500236  0.500453  0.500221  1
  Tb  Tb1  1  0.500236  0.500453  0.999779  1
  Dy  Dy2  1  0.000489  0.531394  0.250000  1
  Dy  Dy3  1  0.468780  0.999551  0.250000  1
  Dy  Dy4  1  0.999570  0.468431  0.750000  1
  Ho  Ho5  1  0.531094  0.000722  0.750000  1
  Sb  Sb6  1  0.999962  0.999971  0.500301  1
  Sb  Sb7  1  0.999962  0.999971  0.999699  1
  O  O8  1  0.677881  0.928426  0.470843  1
  O  O9  1  0.927649  0.677925  0.529882  1
  O  O10  1  0.677881  0.928426  0.029157  1
  O  O11  1  0.927649  0.677925  0.970118  1
  O  O12  1  0.321749  0.071069  0.530877  1
  O  O13  1  0.072439  0.321841  0.470216  1
  O  O14  1  0.321749  0.071069  0.969123  1
  O  O15  1  0.072439  0.321841  0.029784  1
  O  O16  1  0.929101  0.069879  0.750000  1
  O  O17  1  0.070202  0.930278  0.250000  1
  O  O18  1  0.369908  0.632753  0.750000  1
  O  O19  1  0.630844  0.368974  0.250000  1
  O  O20  1  0.637762  0.360675  0.750000  1
  O  O21  1  0.362418  0.637977  0.250000  1
