# generated using pymatgen
data_Tm4TaCrOs6
_symmetry_space_group_name_H-M   'P 1'
_cell_length_a   5.48095107
_cell_length_b   5.20951186
_cell_length_c   8.91759100
_cell_angle_alpha   90.00000000
_cell_angle_beta   90.00000000
_cell_angle_gamma   121.80051727
_symmetry_Int_Tables_number   1
_chemical_formula_structural   Tm4TaCrOs6
_chemical_formula_sum   'Tm4 Ta1 Cr1 Os6'
_cell_volume   216.40244869
_cell_formula_units_Z   1
loop_
 _symmetry_equiv_pos_site_id
 _symmetry_equiv_pos_as_xyz
  1  'x, y, z'
loop_
 _atom_site_type_symbol
 _atom_site_label
 _atom_site_symmetry_multiplicity
 _atom_site_fract_x
 _atom_site_fract_y
 _atom_site_fract_z
 _atom_site_occupancy
  Tm  Tm0  1  0.670865  0.342284  0.559869  1
  Tm  Tm1  1  0.330722  0.661605  0.430419  1
  Tm  Tm2  1  0.330722  0.661605  0.069581  1
  Tm  Tm3  1  0.670865  0.342284  0.940131  1
  Ta  Ta4  1  0.159615  0.320294  0.750000  1
  Cr  Cr5  1  0.838648  0.678246  0.250000  1
  Os  Os6  1  0.995930  0.990899  0.491926  1
  Os  Os7  1  0.995930  0.990899  0.008074  1
  Os  Os8  1  0.175821  0.826587  0.750000  1
  Os  Os9  1  0.650631  0.826998  0.750000  1
  Os  Os10  1  0.825134  0.178665  0.250000  1
  Os  Os11  1  0.355118  0.179634  0.250000  1
