# generated using pymatgen
data_Ho7Er(LuRu2)2
_symmetry_space_group_name_H-M   'P 1'
_cell_length_a   6.29994155
_cell_length_b   7.24010958
_cell_length_c   8.42545843
_cell_angle_alpha   96.75595467
_cell_angle_beta   111.98530866
_cell_angle_gamma   89.96339838
_symmetry_Int_Tables_number   1
_chemical_formula_structural   Ho7Er(LuRu2)2
_chemical_formula_sum   'Ho7 Er1 Lu2 Ru4'
_cell_volume   353.48984489
_cell_formula_units_Z   1
loop_
 _symmetry_equiv_pos_site_id
 _symmetry_equiv_pos_as_xyz
  1  'x, y, z'
loop_
 _atom_site_type_symbol
 _atom_site_label
 _atom_site_symmetry_multiplicity
 _atom_site_fract_x
 _atom_site_fract_y
 _atom_site_fract_z
 _atom_site_occupancy
  Ho  Ho0  1  0.523207  0.083337  0.814559  1
  Ho  Ho1  1  0.476616  0.916533  0.185436  1
  Ho  Ho2  1  0.708841  0.416708  0.185542  1
  Ho  Ho3  1  0.291275  0.583436  0.814441  1
  Ho  Ho4  1  0.296766  0.313416  0.433036  1
  Ho  Ho5  1  0.703098  0.686631  0.566895  1
  Ho  Ho6  1  0.863877  0.186580  0.566859  1
  Er  Er7  1  0.136120  0.813408  0.433051  1
  Lu  Lu8  1  0.078178  0.250147  0.000061  1
  Lu  Lu9  1  0.921887  0.749890  0.000090  1
  Ru  Ru10  1  0.320135  0.575633  0.218841  1
  Ru  Ru11  1  0.679786  0.424502  0.781277  1
  Ru  Ru12  1  0.101545  0.924671  0.780989  1
  Ru  Ru13  1  0.898667  0.075108  0.218923  1
