# generated using pymatgen
data_Gd3Tm2(ReO6)2
_symmetry_space_group_name_H-M   'P 1'
_cell_length_a   6.84236718
_cell_length_b   6.84236715
_cell_length_c   7.58725537
_cell_angle_alpha   74.13956853
_cell_angle_beta   74.13956908
_cell_angle_gamma   48.90066653
_symmetry_Int_Tables_number   1
_chemical_formula_structural   Gd3Tm2(ReO6)2
_chemical_formula_sum   'Gd3 Tm2 Re2 O12'
_cell_volume   255.33541703
_cell_formula_units_Z   1
loop_
 _symmetry_equiv_pos_site_id
 _symmetry_equiv_pos_as_xyz
  1  'x, y, z'
loop_
 _atom_site_type_symbol
 _atom_site_label
 _atom_site_symmetry_multiplicity
 _atom_site_fract_x
 _atom_site_fract_y
 _atom_site_fract_z
 _atom_site_occupancy
  Gd  Gd0  1  0.805286  0.805286  0.356934  1
  Gd  Gd1  1  0.194714  0.194714  0.643066  1
  Gd  Gd2  1  0.500000  0.500000  0.500000  1
  Tm  Tm3  1  0.187809  0.187809  0.170800  1
  Tm  Tm4  1  0.812191  0.812191  0.829200  1
  Re  Re5  1  0.285750  0.714250  0.000000  1
  Re  Re6  1  0.714250  0.285750  0.000000  1
  O  O7  1  0.414659  0.915231  0.920953  1
  O  O8  1  0.084769  0.585341  0.079047  1
  O  O9  1  0.585341  0.084769  0.079047  1
  O  O10  1  0.915231  0.414659  0.920953  1
  O  O11  1  0.599577  0.088724  0.583039  1
  O  O12  1  0.911276  0.400423  0.416961  1
  O  O13  1  0.400423  0.911276  0.416961  1
  O  O14  1  0.997961  0.997961  0.824918  1
  O  O15  1  0.002039  0.002039  0.175082  1
  O  O16  1  0.501359  0.501359  0.794131  1
  O  O17  1  0.498641  0.498641  0.205869  1
  O  O18  1  0.088724  0.599577  0.583039  1
