# generated using pymatgen
data_Ca5La8CdAu20
_symmetry_space_group_name_H-M   'P 1'
_cell_length_a   9.02829290
_cell_length_b   9.02829227
_cell_length_c   10.71755600
_cell_angle_alpha   90.13456596
_cell_angle_beta   89.86543405
_cell_angle_gamma   108.46231935
_symmetry_Int_Tables_number   1
_chemical_formula_structural   Ca5La8CdAu20
_chemical_formula_sum   'Ca5 La8 Cd1 Au20'
_cell_volume   828.62348237
_cell_formula_units_Z   1
loop_
 _symmetry_equiv_pos_site_id
 _symmetry_equiv_pos_as_xyz
  1  'x, y, z'
loop_
 _atom_site_type_symbol
 _atom_site_label
 _atom_site_symmetry_multiplicity
 _atom_site_fract_x
 _atom_site_fract_y
 _atom_site_fract_z
 _atom_site_occupancy
  Ca  Ca0  1  0.989579  0.489579  0.750000  1
  Ca  Ca1  1  0.488542  0.988542  0.750000  1
  Ca  Ca2  1  0.512299  0.012299  0.250000  1
  Ca  Ca3  1  0.998108  0.997478  0.998402  1
  Ca  Ca4  1  0.497478  0.498108  0.501598  1
  La  La5  1  0.705452  0.300905  0.002761  1
  La  La6  1  0.291181  0.698276  0.006258  1
  La  La7  1  0.800905  0.205452  0.497239  1
  La  La8  1  0.198276  0.791181  0.493742  1
  La  La9  1  0.297901  0.306075  0.200856  1
  La  La10  1  0.696366  0.694126  0.801105  1
  La  La11  1  0.194126  0.196366  0.698895  1
  La  La12  1  0.806075  0.797901  0.299144  1
  Cd  Cd13  1  0.014238  0.514238  0.250000  1
  Au  Au14  1  0.098288  0.095539  0.405187  1
  Au  Au15  1  0.902219  0.903502  0.596217  1
  Au  Au16  1  0.403502  0.402219  0.903783  1
  Au  Au17  1  0.595539  0.598288  0.094813  1
  Au  Au18  1  0.879185  0.160918  0.210272  1
  Au  Au19  1  0.125321  0.842935  0.789878  1
  Au  Au20  1  0.624397  0.342328  0.710686  1
  Au  Au21  1  0.660918  0.379185  0.289728  1
  Au  Au22  1  0.383157  0.657926  0.291936  1
  Au  Au23  1  0.342935  0.625321  0.710122  1
  Au  Au24  1  0.842328  0.124397  0.789314  1
  Au  Au25  1  0.157926  0.883157  0.208064  1
  Au  Au26  1  0.928935  0.646503  0.015028  1
  Au  Au27  1  0.072138  0.346086  0.983957  1
  Au  Au28  1  0.570768  0.851377  0.509259  1
  Au  Au29  1  0.146503  0.428935  0.484972  1
  Au  Au30  1  0.429713  0.148240  0.490313  1
  Au  Au31  1  0.846086  0.572138  0.516043  1
  Au  Au32  1  0.351377  0.070768  0.990741  1
  Au  Au33  1  0.648240  0.929713  0.009687  1
