# generated using pymatgen
data_Tb15Ce(ZnCo)4
_symmetry_space_group_name_H-M   'P 1'
_cell_length_a   9.46084524
_cell_length_b   9.46084516
_cell_length_c   9.46084515
_cell_angle_alpha   59.48187929
_cell_angle_beta   59.48188372
_cell_angle_gamma   59.48188012
_symmetry_Int_Tables_number   1
_chemical_formula_structural   Tb15Ce(ZnCo)4
_chemical_formula_sum   'Tb15 Ce1 Zn4 Co4'
_cell_volume   591.73380253
_cell_formula_units_Z   1
loop_
 _symmetry_equiv_pos_site_id
 _symmetry_equiv_pos_as_xyz
  1  'x, y, z'
loop_
 _atom_site_type_symbol
 _atom_site_label
 _atom_site_symmetry_multiplicity
 _atom_site_fract_x
 _atom_site_fract_y
 _atom_site_fract_z
 _atom_site_occupancy
  Tb  Tb0  1  0.351598  0.351598  0.945479  1
  Tb  Tb1  1  0.351598  0.945479  0.351598  1
  Tb  Tb2  1  0.945479  0.351598  0.351598  1
  Tb  Tb3  1  0.809727  0.191382  0.191382  1
  Tb  Tb4  1  0.190314  0.810782  0.810782  1
  Tb  Tb5  1  0.191382  0.809727  0.191382  1
  Tb  Tb6  1  0.810782  0.190314  0.810782  1
  Tb  Tb7  1  0.191382  0.191382  0.809727  1
  Tb  Tb8  1  0.810782  0.810782  0.190314  1
  Tb  Tb9  1  0.940894  0.562822  0.562822  1
  Tb  Tb10  1  0.561358  0.937877  0.937877  1
  Tb  Tb11  1  0.562822  0.940894  0.562822  1
  Tb  Tb12  1  0.937877  0.561358  0.937877  1
  Tb  Tb13  1  0.562822  0.562822  0.940894  1
  Tb  Tb14  1  0.937877  0.937877  0.561358  1
  Ce  Ce15  1  0.339826  0.339826  0.339826  1
  Zn  Zn16  1  0.576598  0.576598  0.576598  1
  Zn  Zn17  1  0.575851  0.575851  0.265082  1
  Zn  Zn18  1  0.575851  0.265082  0.575851  1
  Zn  Zn19  1  0.265082  0.575851  0.575851  1
  Co  Co20  1  0.142477  0.142477  0.142477  1
  Co  Co21  1  0.149100  0.149100  0.569418  1
  Co  Co22  1  0.149100  0.569418  0.149100  1
  Co  Co23  1  0.569418  0.149100  0.149100  1
