# generated using pymatgen
data_NdFeNi3(AgO4)3
_symmetry_space_group_name_H-M   'P 1'
_cell_length_a   6.55977896
_cell_length_b   6.55977923
_cell_length_c   6.55977935
_cell_angle_alpha   109.40516716
_cell_angle_beta   109.40517302
_cell_angle_gamma   109.40514771
_symmetry_Int_Tables_number   1
_chemical_formula_structural   NdFeNi3(AgO4)3
_chemical_formula_sum   'Nd1 Fe1 Ni3 Ag3 O12'
_cell_volume   217.82283688
_cell_formula_units_Z   1
loop_
 _symmetry_equiv_pos_site_id
 _symmetry_equiv_pos_as_xyz
  1  'x, y, z'
loop_
 _atom_site_type_symbol
 _atom_site_label
 _atom_site_symmetry_multiplicity
 _atom_site_fract_x
 _atom_site_fract_y
 _atom_site_fract_z
 _atom_site_occupancy
  Nd  Nd0  1  0.000000  0.000000  0.000000  1
  Fe  Fe1  1  0.500000  0.500000  0.500000  1
  Ni  Ni2  1  0.000000  0.000000  0.500000  1
  Ni  Ni3  1  0.000000  0.500000  0.000000  1
  Ni  Ni4  1  0.500000  0.000000  0.000000  1
  Ag  Ag5  1  0.000000  0.500000  0.500000  1
  Ag  Ag6  1  0.500000  0.000000  0.500000  1
  Ag  Ag7  1  0.500000  0.500000  0.000000  1
  O  O8  1  0.295956  0.118404  0.822271  1
  O  O9  1  0.704044  0.881596  0.177729  1
  O  O10  1  0.701684  0.525158  0.819301  1
  O  O11  1  0.474842  0.180699  0.298316  1
  O  O12  1  0.180699  0.298316  0.474842  1
  O  O13  1  0.822271  0.295956  0.118404  1
  O  O14  1  0.881596  0.177729  0.704044  1
  O  O15  1  0.819301  0.701684  0.525158  1
  O  O16  1  0.298316  0.474842  0.180699  1
  O  O17  1  0.525158  0.819301  0.701684  1
  O  O18  1  0.177729  0.704044  0.881596  1
  O  O19  1  0.118404  0.822271  0.295956  1
