# generated using pymatgen
data_Sc5TiB4Ir9Rh
_symmetry_space_group_name_H-M   'P 1'
_cell_length_a   9.49471432
_cell_length_b   9.48956833
_cell_length_c   3.10796000
_cell_angle_alpha   90.00000000
_cell_angle_beta   90.00000000
_cell_angle_gamma   90.08022620
_symmetry_Int_Tables_number   1
_chemical_formula_structural   Sc5TiB4Ir9Rh
_chemical_formula_sum   'Sc5 Ti1 B4 Ir9 Rh1'
_cell_volume   280.02922243
_cell_formula_units_Z   1
loop_
 _symmetry_equiv_pos_site_id
 _symmetry_equiv_pos_as_xyz
  1  'x, y, z'
loop_
 _atom_site_type_symbol
 _atom_site_label
 _atom_site_symmetry_multiplicity
 _atom_site_fract_x
 _atom_site_fract_y
 _atom_site_fract_z
 _atom_site_occupancy
  Sc  Sc0  1  0.825425  0.325105  0.000000  1
  Sc  Sc1  1  0.324218  0.175513  0.000000  1
  Sc  Sc2  1  0.675782  0.824487  0.000000  1
  Sc  Sc3  1  0.174575  0.674895  0.000000  1
  Sc  Sc4  1  0.500000  0.500000  0.000000  1
  Ti  Ti5  1  0.000000  0.000000  0.000000  1
  B  B6  1  0.621347  0.121229  0.000000  1
  B  B7  1  0.121102  0.378432  0.000000  1
  B  B8  1  0.878898  0.621568  0.000000  1
  B  B9  1  0.378653  0.878771  0.000000  1
  Ir  Ir10  1  0.066961  0.216914  0.500000  1
  Ir  Ir11  1  0.216313  0.932381  0.500000  1
  Ir  Ir12  1  0.783687  0.067619  0.500000  1
  Ir  Ir13  1  0.933039  0.783086  0.500000  1
  Ir  Ir14  1  0.424905  0.722677  0.500000  1
  Ir  Ir15  1  0.575095  0.277323  0.500000  1
  Ir  Ir16  1  0.723528  0.573942  0.500000  1
  Ir  Ir17  1  0.276472  0.426058  0.500000  1
  Ir  Ir18  1  0.500000  0.000000  0.500000  1
  Rh  Rh19  1  0.000000  0.500000  0.500000  1
