# generated using pymatgen
data_Ta2Ti3ZnSn3
_symmetry_space_group_name_H-M   'P 1'
_cell_length_a   8.25975800
_cell_length_b   8.25975864
_cell_length_c   5.61075600
_cell_angle_alpha   90.00000000
_cell_angle_beta   90.00000000
_cell_angle_gamma   119.99999742
_symmetry_Int_Tables_number   1
_chemical_formula_structural   Ta2Ti3ZnSn3
_chemical_formula_sum   'Ta4 Ti6 Zn2 Sn6'
_cell_volume   331.50242207
_cell_formula_units_Z   2
loop_
 _symmetry_equiv_pos_site_id
 _symmetry_equiv_pos_as_xyz
  1  'x, y, z'
loop_
 _atom_site_type_symbol
 _atom_site_label
 _atom_site_symmetry_multiplicity
 _atom_site_fract_x
 _atom_site_fract_y
 _atom_site_fract_z
 _atom_site_occupancy
  Ta  Ta0  1  0.333333  0.666667  0.500000  1
  Ta  Ta1  1  0.666667  0.333333  0.500000  1
  Ta  Ta2  1  0.666667  0.333333  0.000000  1
  Ta  Ta3  1  0.333333  0.666667  0.000000  1
  Ti  Ti4  1  0.274395  0.000000  0.750000  1
  Ti  Ti5  1  0.725605  0.000000  0.250000  1
  Ti  Ti6  1  0.000000  0.274395  0.750000  1
  Ti  Ti7  1  0.000000  0.725605  0.250000  1
  Ti  Ti8  1  0.725605  0.725605  0.750000  1
  Ti  Ti9  1  0.274395  0.274395  0.250000  1
  Zn  Zn10  1  0.000000  0.000000  0.500000  1
  Zn  Zn11  1  0.000000  0.000000  0.000000  1
  Sn  Sn12  1  0.619899  0.000000  0.750000  1
  Sn  Sn13  1  0.380101  0.000000  0.250000  1
  Sn  Sn14  1  0.000000  0.619899  0.750000  1
  Sn  Sn15  1  0.000000  0.380101  0.250000  1
  Sn  Sn16  1  0.380101  0.380101  0.750000  1
  Sn  Sn17  1  0.619899  0.619899  0.250000  1
