# generated using pymatgen
data_Ca7Tb(AgSn)4
_symmetry_space_group_name_H-M   'P 1'
_cell_length_a   7.62476629
_cell_length_b   5.30382000
_cell_length_c   10.61970538
_cell_angle_alpha   90.00000000
_cell_angle_beta   90.03094149
_cell_angle_gamma   90.00000000
_symmetry_Int_Tables_number   1
_chemical_formula_structural   Ca7Tb(AgSn)4
_chemical_formula_sum   'Ca7 Tb1 Ag4 Sn4'
_cell_volume   429.46494241
_cell_formula_units_Z   1
loop_
 _symmetry_equiv_pos_site_id
 _symmetry_equiv_pos_as_xyz
  1  'x, y, z'
loop_
 _atom_site_type_symbol
 _atom_site_label
 _atom_site_symmetry_multiplicity
 _atom_site_fract_x
 _atom_site_fract_y
 _atom_site_fract_z
 _atom_site_occupancy
  Ca  Ca0  1  0.496569  0.750000  0.125825  1
  Ca  Ca1  1  0.000626  0.250000  0.377515  1
  Ca  Ca2  1  0.499963  0.250000  0.374095  1
  Ca  Ca3  1  0.502474  0.750000  0.625660  1
  Ca  Ca4  1  0.001037  0.750000  0.625759  1
  Ca  Ca5  1  0.499544  0.250000  0.874404  1
  Ca  Ca6  1  0.000311  0.250000  0.870926  1
  Tb  Tb7  1  0.999522  0.750000  0.125615  1
  Ag  Ag8  1  0.756274  0.250000  0.122723  1
  Ag  Ag9  1  0.246826  0.750000  0.373503  1
  Ag  Ag10  1  0.750047  0.250000  0.622725  1
  Ag  Ag11  1  0.246463  0.750000  0.880675  1
  Sn  Sn12  1  0.242869  0.250000  0.123819  1
  Sn  Sn13  1  0.753414  0.750000  0.373903  1
  Sn  Sn14  1  0.251475  0.250000  0.623408  1
  Sn  Sn15  1  0.752585  0.750000  0.879447  1
