# generated using pymatgen
data_K4HfSb2F14
_symmetry_space_group_name_H-M   'P 1'
_cell_length_a   6.83343770
_cell_length_b   7.65667524
_cell_length_c   7.84953904
_cell_angle_alpha   91.88559117
_cell_angle_beta   91.56826961
_cell_angle_gamma   115.19232656
_symmetry_Int_Tables_number   1
_chemical_formula_structural   K4HfSb2F14
_chemical_formula_sum   'K4 Hf1 Sb2 F14'
_cell_volume   371.04484801
_cell_formula_units_Z   1
loop_
 _symmetry_equiv_pos_site_id
 _symmetry_equiv_pos_as_xyz
  1  'x, y, z'
loop_
 _atom_site_type_symbol
 _atom_site_label
 _atom_site_symmetry_multiplicity
 _atom_site_fract_x
 _atom_site_fract_y
 _atom_site_fract_z
 _atom_site_occupancy
  K  K0  1  0.285200  0.552841  0.141361  1
  K  K1  1  0.849694  0.733549  0.414082  1
  K  K2  1  0.714800  0.447159  0.858639  1
  K  K3  1  0.150306  0.266451  0.585918  1
  Hf  Hf4  1  0.000000  0.000000  0.000000  1
  Sb  Sb5  1  0.391577  0.807947  0.681608  1
  Sb  Sb6  1  0.608423  0.192053  0.318392  1
  F  F7  1  0.921631  0.377138  0.330795  1
  F  F8  1  0.280534  0.124261  0.880346  1
  F  F9  1  0.428121  0.659817  0.482017  1
  F  F10  1  0.719466  0.875739  0.119654  1
  F  F11  1  0.939615  0.229381  0.947933  1
  F  F12  1  0.274469  0.935336  0.494167  1
  F  F13  1  0.060385  0.770619  0.052067  1
  F  F14  1  0.853670  0.868065  0.775535  1
  F  F15  1  0.078369  0.622862  0.669205  1
  F  F16  1  0.146330  0.131935  0.224465  1
  F  F17  1  0.401894  0.575428  0.812031  1
  F  F18  1  0.598106  0.424572  0.187969  1
  F  F19  1  0.725531  0.064664  0.505833  1
  F  F20  1  0.571879  0.340183  0.517983  1
