# generated using pymatgen
data_Ta12Fe8Re4CN3
_symmetry_space_group_name_H-M   'P 1'
_cell_length_a   8.11637662
_cell_length_b   8.11656988
_cell_length_c   8.12418091
_cell_angle_alpha   60.03283105
_cell_angle_beta   60.03272854
_cell_angle_gamma   60.00162264
_symmetry_Int_Tables_number   1
_chemical_formula_structural   Ta12Fe8Re4CN3
_chemical_formula_sum   'Ta12 Fe8 Re4 C1 N3'
_cell_volume   378.63402900
_cell_formula_units_Z   1
loop_
 _symmetry_equiv_pos_site_id
 _symmetry_equiv_pos_as_xyz
  1  'x, y, z'
loop_
 _atom_site_type_symbol
 _atom_site_label
 _atom_site_symmetry_multiplicity
 _atom_site_fract_x
 _atom_site_fract_y
 _atom_site_fract_z
 _atom_site_occupancy
  Ta  Ta0  1  0.805971  0.805969  0.193792  1
  Ta  Ta1  1  0.194160  0.194173  0.805803  1
  Ta  Ta2  1  0.805854  0.194181  0.805800  1
  Ta  Ta3  1  0.194264  0.805971  0.193789  1
  Ta  Ta4  1  0.194170  0.805858  0.805807  1
  Ta  Ta5  1  0.805966  0.194273  0.193786  1
  Ta  Ta6  1  0.444029  0.444031  0.056208  1
  Ta  Ta7  1  0.055840  0.055827  0.444197  1
  Ta  Ta8  1  0.444146  0.055819  0.444200  1
  Ta  Ta9  1  0.055736  0.444029  0.056211  1
  Ta  Ta10  1  0.055830  0.444142  0.444193  1
  Ta  Ta11  1  0.444034  0.055727  0.056214  1
  Fe  Fe12  1  0.732463  0.422662  0.422227  1
  Fe  Fe13  1  0.422663  0.732437  0.422242  1
  Fe  Fe14  1  0.422601  0.422600  0.732204  1
  Fe  Fe15  1  0.422659  0.422665  0.422241  1
  Fe  Fe16  1  0.517537  0.827338  0.827773  1
  Fe  Fe17  1  0.827337  0.517563  0.827758  1
  Fe  Fe18  1  0.827399  0.827400  0.517796  1
  Fe  Fe19  1  0.827341  0.827335  0.827759  1
  Re  Re20  1  0.125000  0.625000  0.625000  1
  Re  Re21  1  0.625000  0.125000  0.625000  1
  Re  Re22  1  0.625000  0.625000  0.125000  1
  Re  Re23  1  0.625000  0.625000  0.625000  1
  C  C24  1  0.125000  0.125000  0.625000  1
  N  N25  1  0.625000  0.125000  0.125000  1
  N  N26  1  0.125000  0.625000  0.125000  1
  N  N27  1  0.125000  0.125000  0.125000  1
