# generated using pymatgen
data_Sm3Mg2ScSn2Pt
_symmetry_space_group_name_H-M   'P 1'
_cell_length_a   7.72230679
_cell_length_b   7.64492949
_cell_length_c   4.46236400
_cell_angle_alpha   90.00000000
_cell_angle_beta   90.00000000
_cell_angle_gamma   119.66908995
_symmetry_Int_Tables_number   1
_chemical_formula_structural   Sm3Mg2ScSn2Pt
_chemical_formula_sum   'Sm3 Mg2 Sc1 Sn2 Pt1'
_cell_volume   228.90467676
_cell_formula_units_Z   1
loop_
 _symmetry_equiv_pos_site_id
 _symmetry_equiv_pos_as_xyz
  1  'x, y, z'
loop_
 _atom_site_type_symbol
 _atom_site_label
 _atom_site_symmetry_multiplicity
 _atom_site_fract_x
 _atom_site_fract_y
 _atom_site_fract_z
 _atom_site_occupancy
  Sm  Sm0  1  0.598654  0.602682  0.000000  1
  Sm  Sm1  1  0.401346  0.004028  0.000000  1
  Sm  Sm2  1  0.000000  0.394453  0.000000  1
  Mg  Mg3  1  0.234577  0.235822  0.500000  1
  Mg  Mg4  1  0.765423  0.001246  0.500000  1
  Sc  Sc5  1  0.000000  0.774897  0.500000  1
  Sn  Sn6  1  0.329952  0.666510  0.500000  1
  Sn  Sn7  1  0.670048  0.336557  0.500000  1
  Pt  Pt8  1  0.000000  0.983805  0.000000  1
