# generated using pymatgen
data_YbTm3MnFe3B16
_symmetry_space_group_name_H-M   'P 1'
_cell_length_a   3.33925000
_cell_length_b   5.86577648
_cell_length_c   11.34852871
_cell_angle_alpha   89.88440285
_cell_angle_beta   90.00000000
_cell_angle_gamma   90.00000000
_symmetry_Int_Tables_number   1
_chemical_formula_structural   YbTm3MnFe3B16
_chemical_formula_sum   'Yb1 Tm3 Mn1 Fe3 B16'
_cell_volume   222.28651699
_cell_formula_units_Z   1
loop_
 _symmetry_equiv_pos_site_id
 _symmetry_equiv_pos_as_xyz
  1  'x, y, z'
loop_
 _atom_site_type_symbol
 _atom_site_label
 _atom_site_symmetry_multiplicity
 _atom_site_fract_x
 _atom_site_fract_y
 _atom_site_fract_z
 _atom_site_occupancy
  Yb  Yb0  1  0.000000  0.374573  0.151518  1
  Tm  Tm1  1  0.000000  0.126405  0.648958  1
  Tm  Tm2  1  0.000000  0.873175  0.349700  1
  Tm  Tm3  1  0.000000  0.626562  0.848926  1
  Mn  Mn4  1  0.000000  0.128791  0.913948  1
  Fe  Fe5  1  0.000000  0.871482  0.085064  1
  Fe  Fe6  1  0.000000  0.634142  0.588060  1
  Fe  Fe7  1  0.000000  0.365019  0.412657  1
  B  B8  1  0.500000  0.363351  0.968171  1
  B  B9  1  0.500000  0.638008  0.032585  1
  B  B10  1  0.500000  0.861540  0.531726  1
  B  B11  1  0.500000  0.138144  0.468486  1
  B  B12  1  0.500000  0.475309  0.690460  1
  B  B13  1  0.500000  0.525649  0.309807  1
  B  B14  1  0.500000  0.973892  0.807937  1
  B  B15  1  0.500000  0.023191  0.191354  1
  B  B16  1  0.500000  0.284583  0.815006  1
  B  B17  1  0.500000  0.718858  0.183675  1
  B  B18  1  0.500000  0.781773  0.683848  1
  B  B19  1  0.500000  0.218446  0.316406  1
  B  B20  1  0.500000  0.387994  0.546168  1
  B  B21  1  0.500000  0.611550  0.453648  1
  B  B22  1  0.500000  0.885709  0.954372  1
  B  B23  1  0.500000  0.111853  0.047522  1
