# generated using pymatgen
data_CaScAlS4
_symmetry_space_group_name_H-M   'P 1'
_cell_length_a   13.77532600
_cell_length_b   7.73698300
_cell_length_c   6.16965800
_cell_angle_alpha   90.00000000
_cell_angle_beta   90.00000000
_cell_angle_gamma   90.00000000
_symmetry_Int_Tables_number   1
_chemical_formula_structural   CaScAlS4
_chemical_formula_sum   'Ca4 Sc4 Al4 S16'
_cell_volume   657.55883704
_cell_formula_units_Z   4
loop_
 _symmetry_equiv_pos_site_id
 _symmetry_equiv_pos_as_xyz
  1  'x, y, z'
loop_
 _atom_site_type_symbol
 _atom_site_label
 _atom_site_symmetry_multiplicity
 _atom_site_fract_x
 _atom_site_fract_y
 _atom_site_fract_z
 _atom_site_occupancy
  Ca  Ca0  1  0.735582  0.750001  0.009527  1
  Ca  Ca1  1  0.235582  0.750001  0.490473  1
  Ca  Ca2  1  0.764418  0.250000  0.509527  1
  Ca  Ca3  1  0.264418  0.250000  0.990472  1
  Sc  Sc4  1  0.000000  0.000000  0.000000  1
  Sc  Sc5  1  0.000000  0.499999  0.000000  1
  Sc  Sc6  1  0.500000  0.000000  0.500000  1
  Sc  Sc7  1  0.500000  0.499999  0.500000  1
  Al  Al8  1  0.580270  0.250000  0.098089  1
  Al  Al9  1  0.080270  0.250000  0.401911  1
  Al  Al10  1  0.919730  0.750001  0.598090  1
  Al  Al11  1  0.419730  0.750001  0.901911  1
  S  S12  1  0.919471  0.750001  0.232738  1
  S  S13  1  0.151369  0.018098  0.245309  1
  S  S14  1  0.151369  0.481902  0.245309  1
  S  S15  1  0.931731  0.250000  0.236484  1
  S  S16  1  0.431731  0.250000  0.263516  1
  S  S17  1  0.651369  0.018098  0.254691  1
  S  S18  1  0.651369  0.481902  0.254691  1
  S  S19  1  0.419470  0.750001  0.267261  1
  S  S20  1  0.580529  0.250000  0.732738  1
  S  S21  1  0.348631  0.518099  0.745309  1
  S  S22  1  0.348631  0.981901  0.745309  1
  S  S23  1  0.568269  0.750001  0.736483  1
  S  S24  1  0.068269  0.750001  0.763516  1
  S  S25  1  0.848631  0.518099  0.754690  1
  S  S26  1  0.848631  0.981901  0.754690  1
  S  S27  1  0.080530  0.250000  0.767261  1
