# generated using pymatgen
data_Li3Y3AgSn4
_symmetry_space_group_name_H-M   'P 1'
_cell_length_a   4.59224221
_cell_length_b   7.20966275
_cell_length_c   8.67826664
_cell_angle_alpha   114.46216734
_cell_angle_beta   105.34216887
_cell_angle_gamma   90.00000124
_symmetry_Int_Tables_number   1
_chemical_formula_structural   Li3Y3AgSn4
_chemical_formula_sum   'Li3 Y3 Ag1 Sn4'
_cell_volume   250.24029030
_cell_formula_units_Z   1
loop_
 _symmetry_equiv_pos_site_id
 _symmetry_equiv_pos_as_xyz
  1  'x, y, z'
loop_
 _atom_site_type_symbol
 _atom_site_label
 _atom_site_symmetry_multiplicity
 _atom_site_fract_x
 _atom_site_fract_y
 _atom_site_fract_z
 _atom_site_occupancy
  Li  Li0  1  0.326851  0.015127  0.653702  1
  Li  Li1  1  0.671171  0.980664  0.342342  1
  Li  Li2  1  0.325713  0.634513  0.651427  1
  Y  Y3  1  0.872663  0.376000  0.745325  1
  Y  Y4  1  0.127871  0.628646  0.255742  1
  Y  Y5  1  0.001796  0.001942  0.003593  1
  Ag  Ag6  1  0.674198  0.367057  0.348397  1
  Sn  Sn7  1  0.215801  0.203664  0.431604  1
  Sn  Sn8  1  0.787556  0.794100  0.575111  1
  Sn  Sn9  1  0.497110  0.298556  0.994219  1
  Sn  Sn10  1  0.499269  0.699732  0.998538  1
