# generated using pymatgen
data_YbTcBr6
_symmetry_space_group_name_H-M   'P 1'
_cell_length_a   6.98574867
_cell_length_b   6.99271726
_cell_length_c   7.85188431
_cell_angle_alpha   89.68657633
_cell_angle_beta   115.61906155
_cell_angle_gamma   119.95529387
_symmetry_Int_Tables_number   1
_chemical_formula_structural   YbTcBr6
_chemical_formula_sum   'Yb1 Tc1 Br6'
_cell_volume   288.57603548
_cell_formula_units_Z   1
loop_
 _symmetry_equiv_pos_site_id
 _symmetry_equiv_pos_as_xyz
  1  'x, y, z'
loop_
 _atom_site_type_symbol
 _atom_site_label
 _atom_site_symmetry_multiplicity
 _atom_site_fract_x
 _atom_site_fract_y
 _atom_site_fract_z
 _atom_site_occupancy
  Yb  Yb0  1  0.238886  0.620640  0.859757  1
  Tc  Tc1  1  0.579391  0.289552  0.869328  1
  Br  Br2  1  0.439529  0.061099  0.092605  1
  Br  Br3  1  0.139797  0.214425  0.651868  1
  Br  Br4  1  0.726577  0.512386  0.645868  1
  Br  Br5  1  0.443826  0.928774  0.649678  1
  Br  Br6  1  0.708603  0.646809  0.088005  1
  Br  Br7  1  0.022393  0.375815  0.091393  1
