# generated using pymatgen
data_Ho8Zn(Si4Ni)3
_symmetry_space_group_name_H-M   'P 1'
_cell_length_a   7.94408200
_cell_length_b   7.94408215
_cell_length_c   8.03395200
_cell_angle_alpha   90.00000000
_cell_angle_beta   90.00000000
_cell_angle_gamma   119.99999936
_symmetry_Int_Tables_number   1
_chemical_formula_structural   Ho8Zn(Si4Ni)3
_chemical_formula_sum   'Ho8 Zn1 Si12 Ni3'
_cell_volume   439.08369710
_cell_formula_units_Z   1
loop_
 _symmetry_equiv_pos_site_id
 _symmetry_equiv_pos_as_xyz
  1  'x, y, z'
loop_
 _atom_site_type_symbol
 _atom_site_label
 _atom_site_symmetry_multiplicity
 _atom_site_fract_x
 _atom_site_fract_y
 _atom_site_fract_z
 _atom_site_occupancy
  Ho  Ho0  1  0.501698  0.003394  0.252957  1
  Ho  Ho1  1  0.501566  0.003134  0.747122  1
  Ho  Ho2  1  0.996606  0.498302  0.252957  1
  Ho  Ho3  1  0.996866  0.498434  0.747122  1
  Ho  Ho4  1  0.501698  0.498302  0.252957  1
  Ho  Ho5  1  0.501566  0.498434  0.747122  1
  Ho  Ho6  1  0.000000  0.000000  0.252962  1
  Ho  Ho7  1  0.000000  0.000000  0.747143  1
  Zn  Zn8  1  0.333333  0.666667  0.001315  1
  Si  Si9  1  0.163971  0.327941  0.999844  1
  Si  Si10  1  0.826555  0.653110  0.999921  1
  Si  Si11  1  0.672059  0.836029  0.999844  1
  Si  Si12  1  0.829167  0.658333  0.500193  1
  Si  Si13  1  0.346890  0.173445  0.999921  1
  Si  Si14  1  0.171368  0.342735  0.500016  1
  Si  Si15  1  0.163971  0.836029  0.999844  1
  Si  Si16  1  0.341667  0.170833  0.500193  1
  Si  Si17  1  0.826555  0.173445  0.999921  1
  Si  Si18  1  0.657265  0.828632  0.500016  1
  Si  Si19  1  0.829167  0.170833  0.500193  1
  Si  Si20  1  0.171368  0.828632  0.500016  1
  Ni  Ni21  1  0.666667  0.333333  0.000835  1
  Ni  Ni22  1  0.666667  0.333333  0.498865  1
  Ni  Ni23  1  0.333333  0.666667  0.498723  1
