# generated using pymatgen
data_KAc(PaN2)4
_symmetry_space_group_name_H-M   'P 1'
_cell_length_a   7.17016238
_cell_length_b   7.17007974
_cell_length_c   7.17016209
_cell_angle_alpha   119.99421697
_cell_angle_beta   90.00932533
_cell_angle_gamma   119.99421386
_symmetry_Int_Tables_number   1
_chemical_formula_structural   KAc(PaN2)4
_chemical_formula_sum   'K1 Ac1 Pa4 N8'
_cell_volume   260.67990074
_cell_formula_units_Z   1
loop_
 _symmetry_equiv_pos_site_id
 _symmetry_equiv_pos_as_xyz
  1  'x, y, z'
loop_
 _atom_site_type_symbol
 _atom_site_label
 _atom_site_symmetry_multiplicity
 _atom_site_fract_x
 _atom_site_fract_y
 _atom_site_fract_z
 _atom_site_occupancy
  K  K0  1  0.000000  0.000000  0.000000  1
  Ac  Ac1  1  0.750000  0.500000  0.250001  1
  Pa  Pa2  1  0.373275  0.746554  0.119828  1
  Pa  Pa3  1  0.373279  0.746554  0.626724  1
  Pa  Pa4  1  0.373275  0.253445  0.626720  1
  Pa  Pa5  1  0.880171  0.253445  0.626725  1
  N  N6  1  0.603583  0.207230  0.396358  1
  N  N7  1  0.189131  0.792775  0.396360  1
  N  N8  1  0.603643  0.792771  0.396417  1
  N  N9  1  0.152487  0.305048  0.457533  1
  N  N10  1  0.603640  0.207226  0.810870  1
  N  N11  1  0.152487  0.694953  0.847437  1
  N  N12  1  0.152562  0.305046  0.847512  1
  N  N13  1  0.542466  0.694951  0.847512  1
