# generated using pymatgen
data_Dy2Ga9NiRu2
_symmetry_space_group_name_H-M   'P 1'
_cell_length_a   7.51048398
_cell_length_b   7.51048377
_cell_length_c   9.62377700
_cell_angle_alpha   90.00000000
_cell_angle_beta   90.00000000
_cell_angle_gamma   120.45310658
_symmetry_Int_Tables_number   1
_chemical_formula_structural   Dy2Ga9NiRu2
_chemical_formula_sum   'Dy4 Ga18 Ni2 Ru4'
_cell_volume   467.96239318
_cell_formula_units_Z   2
loop_
 _symmetry_equiv_pos_site_id
 _symmetry_equiv_pos_as_xyz
  1  'x, y, z'
loop_
 _atom_site_type_symbol
 _atom_site_label
 _atom_site_symmetry_multiplicity
 _atom_site_fract_x
 _atom_site_fract_y
 _atom_site_fract_z
 _atom_site_occupancy
  Dy  Dy0  1  0.995725  0.661931  0.250000  1
  Dy  Dy1  1  0.004275  0.338069  0.750000  1
  Dy  Dy2  1  0.661931  0.995725  0.250000  1
  Dy  Dy3  1  0.338069  0.004275  0.750000  1
  Ga  Ga4  1  0.116465  0.116465  0.250000  1
  Ga  Ga5  1  0.883535  0.883535  0.750000  1
  Ga  Ga6  1  0.002555  0.327232  0.076446  1
  Ga  Ga7  1  0.997445  0.672768  0.923554  1
  Ga  Ga8  1  0.997445  0.672768  0.576446  1
  Ga  Ga9  1  0.327232  0.002555  0.423554  1
  Ga  Ga10  1  0.002555  0.327232  0.423554  1
  Ga  Ga11  1  0.672768  0.997445  0.576446  1
  Ga  Ga12  1  0.672768  0.997445  0.923554  1
  Ga  Ga13  1  0.327232  0.002555  0.076446  1
  Ga  Ga14  1  0.335075  0.335075  0.561641  1
  Ga  Ga15  1  0.664925  0.664925  0.438359  1
  Ga  Ga16  1  0.664925  0.664925  0.061641  1
  Ga  Ga17  1  0.335075  0.335075  0.938359  1
  Ga  Ga18  1  0.335916  0.545298  0.250000  1
  Ga  Ga19  1  0.664084  0.454702  0.750000  1
  Ga  Ga20  1  0.545298  0.335916  0.250000  1
  Ga  Ga21  1  0.454702  0.664084  0.750000  1
  Ni  Ni22  1  0.000000  0.000000  0.000000  1
  Ni  Ni23  1  0.000000  0.000000  0.500000  1
  Ru  Ru24  1  0.674405  0.325595  0.000000  1
  Ru  Ru25  1  0.325595  0.674405  0.000000  1
  Ru  Ru26  1  0.325595  0.674405  0.500000  1
  Ru  Ru27  1  0.674405  0.325595  0.500000  1
