# generated using pymatgen
data_Pr5(Hg2Ir)2
_symmetry_space_group_name_H-M   'P 1'
_cell_length_a   3.83506100
_cell_length_b   8.22951900
_cell_length_c   18.53465500
_cell_angle_alpha   90.00000000
_cell_angle_beta   90.00000000
_cell_angle_gamma   90.00000000
_symmetry_Int_Tables_number   1
_chemical_formula_structural   Pr5(Hg2Ir)2
_chemical_formula_sum   'Pr10 Hg8 Ir4'
_cell_volume   584.96682258
_cell_formula_units_Z   2
loop_
 _symmetry_equiv_pos_site_id
 _symmetry_equiv_pos_as_xyz
  1  'x, y, z'
loop_
 _atom_site_type_symbol
 _atom_site_label
 _atom_site_symmetry_multiplicity
 _atom_site_fract_x
 _atom_site_fract_y
 _atom_site_fract_z
 _atom_site_occupancy
  Pr  Pr0  1  0.000000  0.110140  0.410653  1
  Pr  Pr1  1  0.000000  0.889860  0.589347  1
  Pr  Pr2  1  0.000000  0.389860  0.910653  1
  Pr  Pr3  1  0.000000  0.610140  0.089347  1
  Pr  Pr4  1  0.000000  0.237368  0.218370  1
  Pr  Pr5  1  0.000000  0.762632  0.781630  1
  Pr  Pr6  1  0.000000  0.262632  0.718370  1
  Pr  Pr7  1  0.000000  0.737368  0.281630  1
  Pr  Pr8  1  0.000000  0.000000  0.000000  1
  Pr  Pr9  1  0.000000  0.500000  0.500000  1
  Hg  Hg10  1  0.500000  0.421381  0.353298  1
  Hg  Hg11  1  0.500000  0.578619  0.646702  1
  Hg  Hg12  1  0.500000  0.078619  0.853298  1
  Hg  Hg13  1  0.500000  0.921381  0.146702  1
  Hg  Hg14  1  0.500000  0.289668  0.063586  1
  Hg  Hg15  1  0.500000  0.710332  0.936414  1
  Hg  Hg16  1  0.500000  0.210332  0.563586  1
  Hg  Hg17  1  0.500000  0.789668  0.436414  1
  Ir  Ir18  1  0.500000  0.017577  0.301816  1
  Ir  Ir19  1  0.500000  0.982423  0.698184  1
  Ir  Ir20  1  0.500000  0.482423  0.801816  1
  Ir  Ir21  1  0.500000  0.517577  0.198184  1
