# generated using pymatgen
data_Bi2PtRh5Pb4
_symmetry_space_group_name_H-M   'P 1'
_cell_length_a   7.23842735
_cell_length_b   7.23842873
_cell_length_c   5.76518135
_cell_angle_alpha   90.02086458
_cell_angle_beta   89.97913093
_cell_angle_gamma   59.85126888
_symmetry_Int_Tables_number   1
_chemical_formula_structural   Bi2PtRh5Pb4
_chemical_formula_sum   'Bi2 Pt1 Rh5 Pb4'
_cell_volume   261.20361023
_cell_formula_units_Z   1
loop_
 _symmetry_equiv_pos_site_id
 _symmetry_equiv_pos_as_xyz
  1  'x, y, z'
loop_
 _atom_site_type_symbol
 _atom_site_label
 _atom_site_symmetry_multiplicity
 _atom_site_fract_x
 _atom_site_fract_y
 _atom_site_fract_z
 _atom_site_occupancy
  Bi  Bi0  1  0.664004  0.335996  0.247332  1
  Bi  Bi1  1  0.335996  0.664004  0.752667  1
  Pt  Pt2  1  0.000000  0.000000  0.500001  1
  Rh  Rh3  1  0.000000  0.000000  0.000000  1
  Rh  Rh4  1  0.335764  0.335764  0.000000  1
  Rh  Rh5  1  0.664236  0.664236  0.000000  1
  Rh  Rh6  1  0.336068  0.336068  0.500001  1
  Rh  Rh7  1  0.663932  0.663932  0.500001  1
  Pb  Pb8  1  0.337933  0.003050  0.247885  1
  Pb  Pb9  1  0.996951  0.662068  0.247885  1
  Pb  Pb10  1  0.003050  0.337933  0.752114  1
  Pb  Pb11  1  0.662068  0.996951  0.752114  1
