# generated using pymatgen
data_DyHo3Al4NiRh3
_symmetry_space_group_name_H-M   'P 1'
_cell_length_a   4.21269000
_cell_length_b   6.79909347
_cell_length_c   7.90106000
_cell_angle_alpha   90.29393412
_cell_angle_beta   90.00000000
_cell_angle_gamma   90.00000000
_symmetry_Int_Tables_number   1
_chemical_formula_structural   DyHo3Al4NiRh3
_chemical_formula_sum   'Dy1 Ho3 Al4 Ni1 Rh3'
_cell_volume   226.30292029
_cell_formula_units_Z   1
loop_
 _symmetry_equiv_pos_site_id
 _symmetry_equiv_pos_as_xyz
  1  'x, y, z'
loop_
 _atom_site_type_symbol
 _atom_site_label
 _atom_site_symmetry_multiplicity
 _atom_site_fract_x
 _atom_site_fract_y
 _atom_site_fract_z
 _atom_site_occupancy
  Dy  Dy0  1  0.750000  0.034542  0.677639  1
  Ho  Ho1  1  0.250000  0.963202  0.318528  1
  Ho  Ho2  1  0.750000  0.538679  0.823397  1
  Ho  Ho3  1  0.250000  0.466471  0.178156  1
  Al  Al4  1  0.750000  0.636615  0.436425  1
  Al  Al5  1  0.750000  0.130551  0.060204  1
  Al  Al6  1  0.250000  0.364555  0.559043  1
  Al  Al7  1  0.250000  0.861085  0.944851  1
  Ni  Ni8  1  0.750000  0.769702  0.124906  1
  Rh  Rh9  1  0.750000  0.262480  0.375950  1
  Rh  Rh10  1  0.250000  0.235736  0.878725  1
  Rh  Rh11  1  0.250000  0.736379  0.622176  1
