# generated using pymatgen
data_Nd3Sc(Si3Ni5)4
_symmetry_space_group_name_H-M   'P 1'
_cell_length_a   3.83265100
_cell_length_b   18.85433458
_cell_length_c   6.61414901
_cell_angle_alpha   90.04463919
_cell_angle_beta   90.00000000
_cell_angle_gamma   90.00000000
_symmetry_Int_Tables_number   1
_chemical_formula_structural   Nd3Sc(Si3Ni5)4
_chemical_formula_sum   'Nd3 Sc1 Si12 Ni20'
_cell_volume   477.95204808
_cell_formula_units_Z   1
loop_
 _symmetry_equiv_pos_site_id
 _symmetry_equiv_pos_as_xyz
  1  'x, y, z'
loop_
 _atom_site_type_symbol
 _atom_site_label
 _atom_site_symmetry_multiplicity
 _atom_site_fract_x
 _atom_site_fract_y
 _atom_site_fract_z
 _atom_site_occupancy
  Nd  Nd0  1  0.750000  0.643035  0.122960  1
  Nd  Nd1  1  0.250000  0.355264  0.874733  1
  Nd  Nd2  1  0.250000  0.858638  0.625899  1
  Sc  Sc3  1  0.750000  0.144649  0.379795  1
  Si  Si4  1  0.750000  0.736639  0.618223  1
  Si  Si5  1  0.250000  0.258304  0.382474  1
  Si  Si6  1  0.250000  0.765523  0.116478  1
  Si  Si7  1  0.750000  0.233983  0.882954  1
  Si  Si8  1  0.750000  0.928392  0.339343  1
  Si  Si9  1  0.250000  0.075203  0.648740  1
  Si  Si10  1  0.250000  0.570292  0.838130  1
  Si  Si11  1  0.750000  0.426461  0.161420  1
  Si  Si12  1  0.750000  0.918472  0.928306  1
  Si  Si13  1  0.250000  0.089321  0.091006  1
  Si  Si14  1  0.250000  0.586689  0.431576  1
  Si  Si15  1  0.750000  0.410049  0.565253  1
  Ni  Ni16  1  0.750000  0.801774  0.310058  1
  Ni  Ni17  1  0.250000  0.196635  0.685531  1
  Ni  Ni18  1  0.250000  0.698858  0.809674  1
  Ni  Ni19  1  0.750000  0.297740  0.190739  1
  Ni  Ni20  1  0.750000  0.997214  0.632181  1
  Ni  Ni21  1  0.250000  0.007517  0.363965  1
  Ni  Ni22  1  0.250000  0.504198  0.138573  1
  Ni  Ni23  1  0.750000  0.492604  0.860393  1
  Ni  Ni24  1  0.750000  0.516047  0.391562  1
  Ni  Ni25  1  0.250000  0.481063  0.606234  1
  Ni  Ni26  1  0.250000  0.989967  0.891074  1
  Ni  Ni27  1  0.750000  0.021299  0.122091  1
  Ni  Ni28  1  0.750000  0.794818  0.927652  1
  Ni  Ni29  1  0.250000  0.206367  0.074512  1
  Ni  Ni30  1  0.250000  0.708522  0.427197  1
  Ni  Ni31  1  0.750000  0.287577  0.569688  1
  Ni  Ni32  1  0.750000  0.615543  0.646212  1
  Ni  Ni33  1  0.250000  0.380227  0.352990  1
  Ni  Ni34  1  0.250000  0.886935  0.143269  1
  Ni  Ni35  1  0.750000  0.114183  0.849118  1
