# generated using pymatgen
data_Lu4Co6SiW
_symmetry_space_group_name_H-M   'P 1'
_cell_length_a   5.23063000
_cell_length_b   5.23063097
_cell_length_c   7.73038200
_cell_angle_alpha   90.00000000
_cell_angle_beta   90.00000000
_cell_angle_gamma   120.00000652
_symmetry_Int_Tables_number   1
_chemical_formula_structural   Lu4Co6SiW
_chemical_formula_sum   'Lu4 Co6 Si1 W1'
_cell_volume   183.16379774
_cell_formula_units_Z   1
loop_
 _symmetry_equiv_pos_site_id
 _symmetry_equiv_pos_as_xyz
  1  'x, y, z'
loop_
 _atom_site_type_symbol
 _atom_site_label
 _atom_site_symmetry_multiplicity
 _atom_site_fract_x
 _atom_site_fract_y
 _atom_site_fract_z
 _atom_site_occupancy
  Lu  Lu0  1  0.333333  0.666667  0.560658  1
  Lu  Lu1  1  0.666667  0.333333  0.439342  1
  Lu  Lu2  1  0.666667  0.333333  0.057292  1
  Lu  Lu3  1  0.333333  0.666667  0.942708  1
  Co  Co4  1  0.832671  0.167329  0.752708  1
  Co  Co5  1  0.665342  0.832671  0.247292  1
  Co  Co6  1  0.167329  0.832671  0.247292  1
  Co  Co7  1  0.832671  0.665342  0.752708  1
  Co  Co8  1  0.167329  0.334658  0.247292  1
  Co  Co9  1  0.334658  0.167329  0.752708  1
  Si  Si10  1  0.000000  0.000000  0.000000  1
  W  W11  1  0.000000  0.000000  0.500000  1
