# generated using pymatgen
data_LaDy2Th(NiP)4
_symmetry_space_group_name_H-M   'P 1'
_cell_length_a   3.97139300
_cell_length_b   3.97139442
_cell_length_c   15.72885000
_cell_angle_alpha   90.00000000
_cell_angle_beta   90.00000000
_cell_angle_gamma   120.00001316
_symmetry_Int_Tables_number   1
_chemical_formula_structural   LaDy2Th(NiP)4
_chemical_formula_sum   'La1 Dy2 Th1 Ni4 P4'
_cell_volume   214.83915329
_cell_formula_units_Z   1
loop_
 _symmetry_equiv_pos_site_id
 _symmetry_equiv_pos_as_xyz
  1  'x, y, z'
loop_
 _atom_site_type_symbol
 _atom_site_label
 _atom_site_symmetry_multiplicity
 _atom_site_fract_x
 _atom_site_fract_y
 _atom_site_fract_z
 _atom_site_occupancy
  La  La0  1  0.000000  0.000000  0.500000  1
  Dy  Dy1  1  0.000000  0.000000  0.250665  1
  Dy  Dy2  1  0.000000  0.000000  0.749335  1
  Th  Th3  1  0.000000  0.000000  0.000000  1
  Ni  Ni4  1  0.333333  0.666667  0.362438  1
  Ni  Ni5  1  0.666667  0.333333  0.637562  1
  Ni  Ni6  1  0.666667  0.333333  0.870939  1
  Ni  Ni7  1  0.333333  0.666667  0.129061  1
  P  P8  1  0.333333  0.666667  0.874359  1
  P  P9  1  0.666667  0.333333  0.125641  1
  P  P10  1  0.666667  0.333333  0.369900  1
  P  P11  1  0.333333  0.666667  0.630100  1
