# generated using pymatgen
data_Tb2YEr3(Si3Ru)8
_symmetry_space_group_name_H-M   'P 1'
_cell_length_a   10.11223305
_cell_length_b   10.11223252
_cell_length_c   8.13391004
_cell_angle_alpha   90.05523442
_cell_angle_beta   89.94477086
_cell_angle_gamma   132.59886780
_symmetry_Int_Tables_number   1
_chemical_formula_structural   Tb2YEr3(Si3Ru)8
_chemical_formula_sum   'Tb2 Y1 Er3 Si24 Ru8'
_cell_volume   612.26048537
_cell_formula_units_Z   1
loop_
 _symmetry_equiv_pos_site_id
 _symmetry_equiv_pos_as_xyz
  1  'x, y, z'
loop_
 _atom_site_type_symbol
 _atom_site_label
 _atom_site_symmetry_multiplicity
 _atom_site_fract_x
 _atom_site_fract_y
 _atom_site_fract_z
 _atom_site_occupancy
  Tb  Tb0  1  0.497716  0.997716  0.250000  1
  Tb  Tb1  1  0.002274  0.502274  0.750000  1
  Y  Y2  1  0.502726  0.002726  0.750000  1
  Er  Er3  1  0.997613  0.497613  0.250000  1
  Er  Er4  1  0.500051  0.499968  0.499926  1
  Er  Er5  1  0.999968  0.000051  0.000074  1
  Si  Si6  1  0.387760  0.154325  0.004384  1
  Si  Si7  1  0.654325  0.887760  0.495616  1
  Si  Si8  1  0.111377  0.343898  0.503610  1
  Si  Si9  1  0.843898  0.611377  0.996390  1
  Si  Si10  1  0.612250  0.845681  0.995207  1
  Si  Si11  1  0.345681  0.112250  0.504793  1
  Si  Si12  1  0.888563  0.655883  0.494867  1
  Si  Si13  1  0.155883  0.388563  0.005133  1
  Si  Si14  1  0.612972  0.379019  0.227802  1
  Si  Si15  1  0.879019  0.112972  0.272198  1
  Si  Si16  1  0.886215  0.120399  0.728718  1
  Si  Si17  1  0.620399  0.386215  0.771282  1
  Si  Si18  1  0.387857  0.622026  0.771520  1
  Si  Si19  1  0.122026  0.887857  0.728480  1
  Si  Si20  1  0.705594  0.294576  0.000331  1
  Si  Si21  1  0.794576  0.205594  0.499669  1
  Si  Si22  1  0.294431  0.705514  0.000464  1
  Si  Si23  1  0.205514  0.794431  0.499536  1
  Si  Si24  1  0.168090  0.167963  0.333148  1
  Si  Si25  1  0.667963  0.668090  0.166852  1
  Si  Si26  1  0.332047  0.331920  0.833086  1
  Si  Si27  1  0.831920  0.832047  0.666914  1
  Si  Si28  1  0.378808  0.612703  0.228256  1
  Si  Si29  1  0.112703  0.878808  0.271744  1
  Ru  Ru30  1  0.625918  0.625750  0.872614  1
  Ru  Ru31  1  0.125750  0.125918  0.627386  1
  Ru  Ru32  1  0.873943  0.874258  0.372811  1
  Ru  Ru33  1  0.374258  0.373943  0.127189  1
  Ru  Ru34  1  0.329215  0.666516  0.499325  1
  Ru  Ru35  1  0.166516  0.829215  0.000675  1
  Ru  Ru36  1  0.670772  0.333410  0.498695  1
  Ru  Ru37  1  0.833410  0.170772  0.001305  1
