# generated using pymatgen
data_Np2Be25Co
_symmetry_space_group_name_H-M   'P 1'
_cell_length_a   7.22000946
_cell_length_b   7.17352099
_cell_length_c   7.19458191
_cell_angle_alpha   60.33119715
_cell_angle_beta   60.63358803
_cell_angle_gamma   59.97889666
_symmetry_Int_Tables_number   1
_chemical_formula_structural   Np2Be25Co
_chemical_formula_sum   'Np2 Be25 Co1'
_cell_volume   265.34613169
_cell_formula_units_Z   1
loop_
 _symmetry_equiv_pos_site_id
 _symmetry_equiv_pos_as_xyz
  1  'x, y, z'
loop_
 _atom_site_type_symbol
 _atom_site_label
 _atom_site_symmetry_multiplicity
 _atom_site_fract_x
 _atom_site_fract_y
 _atom_site_fract_z
 _atom_site_occupancy
  Np  Np0  1  0.250358  0.250133  0.242730  1
  Np  Np1  1  0.757270  0.743221  0.749642  1
  Be  Be2  1  0.001070  0.004730  0.998930  1
  Be  Be3  1  0.502499  0.499329  0.497501  1
  Be  Be4  1  0.789706  0.562512  0.438437  1
  Be  Be5  1  0.561563  0.790655  0.210294  1
  Be  Be6  1  0.217410  0.567631  0.782590  1
  Be  Be7  1  0.784130  0.434929  0.215870  1
  Be  Be8  1  0.564139  0.439247  0.787260  1
  Be  Be9  1  0.212740  0.790647  0.435861  1
  Be  Be10  1  0.936160  0.059507  0.295431  1
  Be  Be11  1  0.292485  0.939430  0.061432  1
  Be  Be12  1  0.061167  0.705578  0.290964  1
  Be  Be13  1  0.061199  0.940775  0.704192  1
  Be  Be14  1  0.295808  0.706167  0.938801  1
  Be  Be15  1  0.709036  0.057709  0.938833  1
  Be  Be16  1  0.704569  0.291098  0.063840  1
  Be  Be17  1  0.938568  0.293347  0.707515  1
  Be  Be18  1  0.437377  0.793964  0.562623  1
  Be  Be19  1  0.437903  0.209607  0.789971  1
  Be  Be20  1  0.786166  0.209617  0.566824  1
  Be  Be21  1  0.433176  0.562608  0.213834  1
  Be  Be22  1  0.210029  0.437481  0.562097  1
  Be  Be23  1  0.559944  0.202881  0.440056  1
  Be  Be24  1  0.286714  0.066092  0.713286  1
  Be  Be25  1  0.943332  0.700499  0.056668  1
  Be  Be26  1  0.709136  0.934671  0.290864  1
  Co  Co27  1  0.056347  0.305938  0.943653  1
