# generated using pymatgen
data_La3Nd5(GeBr6)2
_symmetry_space_group_name_H-M   'P 1'
_cell_length_a   4.24778900
_cell_length_b   13.80925113
_cell_length_c   14.66432900
_cell_angle_alpha   90.17461458
_cell_angle_beta   90.00000000
_cell_angle_gamma   90.00000000
_symmetry_Int_Tables_number   1
_chemical_formula_structural   La3Nd5(GeBr6)2
_chemical_formula_sum   'La3 Nd5 Ge2 Br12'
_cell_volume   860.18772797
_cell_formula_units_Z   1
loop_
 _symmetry_equiv_pos_site_id
 _symmetry_equiv_pos_as_xyz
  1  'x, y, z'
loop_
 _atom_site_type_symbol
 _atom_site_label
 _atom_site_symmetry_multiplicity
 _atom_site_fract_x
 _atom_site_fract_y
 _atom_site_fract_z
 _atom_site_occupancy
  La  La0  1  0.500000  0.121553  0.336821  1
  La  La1  1  0.500000  0.878302  0.663239  1
  La  La2  1  0.500000  0.621666  0.163198  1
  Nd  Nd3  1  0.500000  0.380237  0.839478  1
  Nd  Nd4  1  0.000000  0.120331  0.579782  1
  Nd  Nd5  1  0.000000  0.881009  0.421212  1
  Nd  Nd6  1  0.000000  0.618242  0.919973  1
  Nd  Nd7  1  0.000000  0.379883  0.077447  1
  Ge  Ge8  1  0.500000  0.000475  0.500174  1
  Ge  Ge9  1  0.500000  0.500154  0.000031  1
  Br  Br10  1  0.500000  0.245305  0.160303  1
  Br  Br11  1  0.500000  0.754471  0.839432  1
  Br  Br12  1  0.500000  0.744838  0.339124  1
  Br  Br13  1  0.500000  0.255829  0.662570  1
  Br  Br14  1  0.000000  0.255464  0.414138  1
  Br  Br15  1  0.000000  0.744408  0.585763  1
  Br  Br16  1  0.000000  0.755004  0.085803  1
  Br  Br17  1  0.000000  0.247191  0.910645  1
  Br  Br18  1  0.000000  0.998564  0.244339  1
  Br  Br19  1  0.000000  0.001185  0.755682  1
  Br  Br20  1  0.000000  0.498844  0.254968  1
  Br  Br21  1  0.000000  0.497047  0.745880  1
