# generated using pymatgen
data_Ho4Al5ZnPt8
_symmetry_space_group_name_H-M   'P 1'
_cell_length_a   8.10967471
_cell_length_b   8.10967418
_cell_length_c   7.62211466
_cell_angle_alpha   89.98371886
_cell_angle_beta   89.98372040
_cell_angle_gamma   139.98219513
_symmetry_Int_Tables_number   1
_chemical_formula_structural   Ho4Al5ZnPt8
_chemical_formula_sum   'Ho4 Al5 Zn1 Pt8'
_cell_volume   322.33721674
_cell_formula_units_Z   1
loop_
 _symmetry_equiv_pos_site_id
 _symmetry_equiv_pos_as_xyz
  1  'x, y, z'
loop_
 _atom_site_type_symbol
 _atom_site_label
 _atom_site_symmetry_multiplicity
 _atom_site_fract_x
 _atom_site_fract_y
 _atom_site_fract_z
 _atom_site_occupancy
  Ho  Ho0  1  0.106663  0.890881  0.406774  1
  Ho  Ho1  1  0.893673  0.108223  0.590862  1
  Ho  Ho2  1  0.391777  0.606327  0.909138  1
  Ho  Ho3  1  0.609119  0.393337  0.093226  1
  Al  Al4  1  0.000106  0.999576  0.999973  1
  Al  Al5  1  0.500424  0.499894  0.500027  1
  Al  Al6  1  0.476415  0.023585  0.750000  1
  Al  Al7  1  0.976623  0.523377  0.750000  1
  Al  Al8  1  0.523561  0.976439  0.250000  1
  Zn  Zn9  1  0.022172  0.477828  0.250000  1
  Pt  Pt10  1  0.194129  0.305871  0.250000  1
  Pt  Pt11  1  0.308236  0.191764  0.750000  1
  Pt  Pt12  1  0.808580  0.691420  0.750000  1
  Pt  Pt13  1  0.690807  0.809193  0.250000  1
  Pt  Pt14  1  0.189079  0.824452  0.023998  1
  Pt  Pt15  1  0.812545  0.179457  0.967429  1
  Pt  Pt16  1  0.320543  0.687455  0.532571  1
  Pt  Pt17  1  0.675548  0.310921  0.476002  1
