# generated using pymatgen
data_Sn(S4Br)4
_symmetry_space_group_name_H-M   'P 1'
_cell_length_a   16.02709077
_cell_length_b   13.04430325
_cell_length_c   12.72260019
_cell_angle_alpha   76.91385282
_cell_angle_beta   52.44370238
_cell_angle_gamma   50.64243903
_symmetry_Int_Tables_number   1
_chemical_formula_structural   Sn(S4Br)4
_chemical_formula_sum   'Sn2 S32 Br8'
_cell_volume   1573.74671310
_cell_formula_units_Z   2
loop_
 _symmetry_equiv_pos_site_id
 _symmetry_equiv_pos_as_xyz
  1  'x, y, z'
loop_
 _atom_site_type_symbol
 _atom_site_label
 _atom_site_symmetry_multiplicity
 _atom_site_fract_x
 _atom_site_fract_y
 _atom_site_fract_z
 _atom_site_occupancy
  Sn  Sn0  1  0.247698  0.252302  0.252302  1
  Sn  Sn1  1  0.997698  0.002302  0.002302  1
  S  S2  1  0.523286  0.471020  0.259790  1
  S  S3  1  0.323850  0.877918  0.163978  1
  S  S4  1  0.745904  0.259790  0.471020  1
  S  S5  1  0.807188  0.532999  0.330797  1
  S  S6  1  0.634253  0.163978  0.877918  1
  S  S7  1  0.178821  0.312776  0.649469  1
  S  S8  1  0.595567  0.924652  0.586837  1
  S  S9  1  0.328752  0.814324  0.325464  1
  S  S10  1  0.635305  0.652043  0.340739  1
  S  S11  1  0.329016  0.330797  0.532999  1
  S  S12  1  0.717001  0.442812  0.920984  1
  S  S13  1  0.778980  0.726714  0.504096  1
  S  S14  1  0.325348  0.654433  0.357056  1
  S  S15  1  0.909261  0.878087  0.614695  1
  S  S16  1  0.600531  0.391066  0.071179  1
  S  S17  1  0.892944  0.586837  0.924652  1
  S  S18  1  0.263604  0.543681  0.728706  1
  S  S19  1  0.706319  0.986396  0.785991  1
  S  S20  1  0.435676  0.921248  0.718540  1
  S  S21  1  0.372082  0.926150  0.615747  1
  S  S22  1  0.371913  0.340739  0.652043  1
  S  S23  1  0.937224  0.071179  0.391066  1
  S  S24  1  0.086022  0.615747  0.926150  1
  S  S25  1  0.531460  0.325464  0.814324  1
  S  S26  1  0.521294  0.785991  0.986396  1
  S  S27  1  0.919203  0.920984  0.442812  1
  S  S28  1  0.663163  0.357056  0.654433  1
  S  S29  1  0.858934  0.649469  0.312776  1
  S  S30  1  0.924536  0.718540  0.921248  1
  S  S31  1  0.597957  0.614695  0.878087  1
  S  S32  1  0.464009  0.728706  0.543681  1
  S  S33  1  0.990210  0.504096  0.726714  1
  Br  Br34  1  0.204195  0.793901  0.978373  1
  Br  Br35  1  0.970280  0.205829  0.033001  1
  Br  Br36  1  0.023531  0.978373  0.793901  1
  Br  Br37  1  0.790891  0.033001  0.205829  1
  Br  Br38  1  0.456099  0.045805  0.226469  1
  Br  Br39  1  0.271627  0.226469  0.045805  1
  Br  Br40  1  0.216999  0.459109  0.279720  1
  Br  Br41  1  0.044171  0.279720  0.459109  1
