# generated using pymatgen
data_Nd8Dy7Tm5Sn16
_symmetry_space_group_name_H-M   'P 1'
_cell_length_a   8.33374947
_cell_length_b   8.33100523
_cell_length_c   15.35477600
_cell_angle_alpha   90.05046648
_cell_angle_beta   89.94772823
_cell_angle_gamma   89.99958525
_symmetry_Int_Tables_number   1
_chemical_formula_structural   Nd8Dy7Tm5Sn16
_chemical_formula_sum   'Nd8 Dy7 Tm5 Sn16'
_cell_volume   1066.05836831
_cell_formula_units_Z   1
loop_
 _symmetry_equiv_pos_site_id
 _symmetry_equiv_pos_as_xyz
  1  'x, y, z'
loop_
 _atom_site_type_symbol
 _atom_site_label
 _atom_site_symmetry_multiplicity
 _atom_site_fract_x
 _atom_site_fract_y
 _atom_site_fract_z
 _atom_site_occupancy
  Nd  Nd0  1  0.653340  0.005004  0.466639  1
  Nd  Nd1  1  0.346629  0.995504  0.967514  1
  Nd  Nd2  1  0.004820  0.653020  0.532949  1
  Nd  Nd3  1  0.504550  0.846870  0.216705  1
  Nd  Nd4  1  0.495643  0.153158  0.716676  1
  Nd  Nd5  1  0.847260  0.505591  0.783702  1
  Nd  Nd6  1  0.153433  0.494280  0.282861  1
  Nd  Nd7  1  0.994754  0.346375  0.033136  1
  Dy  Dy8  1  0.498363  0.337703  0.121118  1
  Dy  Dy9  1  0.998732  0.162757  0.628625  1
  Dy  Dy10  1  0.837225  0.001413  0.871577  1
  Dy  Dy11  1  0.163175  0.998567  0.370701  1
  Dy  Dy12  1  0.502208  0.663086  0.620587  1
  Dy  Dy13  1  0.336922  0.498522  0.879602  1
  Dy  Dy14  1  0.662985  0.501271  0.378924  1
  Tm  Tm15  1  0.999250  0.836897  0.128895  1
  Tm  Tm16  1  0.328834  0.329358  0.499586  1
  Tm  Tm17  1  0.171386  0.829493  0.750493  1
  Tm  Tm18  1  0.829843  0.170299  0.249684  1
  Tm  Tm19  1  0.670604  0.671466  0.999999  1
  Sn  Sn20  1  0.292980  0.965626  0.569211  1
  Sn  Sn21  1  0.707345  0.034294  0.069508  1
  Sn  Sn22  1  0.966039  0.292539  0.430856  1
  Sn  Sn23  1  0.466027  0.206465  0.318954  1
  Sn  Sn24  1  0.533585  0.793521  0.818975  1
  Sn  Sn25  1  0.207043  0.466101  0.680797  1
  Sn  Sn26  1  0.793898  0.535113  0.180935  1
  Sn  Sn27  1  0.034935  0.707995  0.932279  1
  Sn  Sn28  1  0.804787  0.863186  0.673668  1
  Sn  Sn29  1  0.195557  0.135115  0.172316  1
  Sn  Sn30  1  0.863206  0.802917  0.325637  1
  Sn  Sn31  1  0.363703  0.695191  0.423162  1
  Sn  Sn32  1  0.637322  0.304159  0.923342  1
  Sn  Sn33  1  0.695409  0.363427  0.576518  1
  Sn  Sn34  1  0.301272  0.638005  0.077349  1
  Sn  Sn35  1  0.136935  0.195715  0.826520  1
