# generated using pymatgen
data_RbBiWO6
_symmetry_space_group_name_H-M   'P 1'
_cell_length_a   7.58997535
_cell_length_b   7.52566292
_cell_length_c   7.58369200
_cell_angle_alpha   90.00000000
_cell_angle_beta   60.02738125
_cell_angle_gamma   119.72009896
_symmetry_Int_Tables_number   1
_chemical_formula_structural   RbBiWO6
_chemical_formula_sum   'Rb2 Bi2 W2 O12'
_cell_volume   307.71835616
_cell_formula_units_Z   2
loop_
 _symmetry_equiv_pos_site_id
 _symmetry_equiv_pos_as_xyz
  1  'x, y, z'
loop_
 _atom_site_type_symbol
 _atom_site_label
 _atom_site_symmetry_multiplicity
 _atom_site_fract_x
 _atom_site_fract_y
 _atom_site_fract_z
 _atom_site_occupancy
  Rb  Rb0  1  0.733490  0.362170  0.383255  1
  Rb  Rb1  1  0.266510  0.628680  0.616745  1
  Bi  Bi2  1  0.000000  0.995677  0.500000  1
  Bi  Bi3  1  0.000000  0.995677  0.000000  1
  W  W4  1  0.499819  0.495911  0.000091  1
  W  W5  1  0.500181  0.996092  0.999909  1
  O  O6  1  0.822559  0.907193  0.338720  1
  O  O7  1  0.590434  0.291082  0.954783  1
  O  O8  1  0.256557  0.916275  0.938313  1
  O  O9  1  0.256398  0.331760  0.305162  1
  O  O10  1  0.256398  0.331760  0.938440  1
  O  O11  1  0.256557  0.916275  0.305130  1
  O  O12  1  0.177441  0.084633  0.661280  1
  O  O13  1  0.409566  0.700648  0.045217  1
  O  O14  1  0.743602  0.075363  0.061560  1
  O  O15  1  0.743443  0.659721  0.694870  1
  O  O16  1  0.743443  0.659721  0.061687  1
  O  O17  1  0.743602  0.075363  0.694838  1
