# generated using pymatgen
data_CaPr2Si2(AsPd5)4
_symmetry_space_group_name_H-M   'P 1'
_cell_length_a   8.86350377
_cell_length_b   8.86350378
_cell_length_c   8.94070500
_cell_angle_alpha   59.71145819
_cell_angle_beta   59.71145814
_cell_angle_gamma   60.57709320
_symmetry_Int_Tables_number   1
_chemical_formula_structural   CaPr2Si2(AsPd5)4
_chemical_formula_sum   'Ca1 Pr2 Si2 As4 Pd20'
_cell_volume   496.59367867
_cell_formula_units_Z   1
loop_
 _symmetry_equiv_pos_site_id
 _symmetry_equiv_pos_as_xyz
  1  'x, y, z'
loop_
 _atom_site_type_symbol
 _atom_site_label
 _atom_site_symmetry_multiplicity
 _atom_site_fract_x
 _atom_site_fract_y
 _atom_site_fract_z
 _atom_site_occupancy
  Ca  Ca0  1  0.000000  0.000000  0.000000  1
  Pr  Pr1  1  0.250000  0.250000  0.250000  1
  Pr  Pr2  1  0.750000  0.750000  0.750000  1
  Si  Si3  1  0.265239  0.265239  0.734761  1
  Si  Si4  1  0.734761  0.734761  0.265239  1
  As  As5  1  0.737179  0.262821  0.262821  1
  As  As6  1  0.262821  0.737179  0.737179  1
  As  As7  1  0.262821  0.737179  0.262821  1
  As  As8  1  0.737179  0.262821  0.737179  1
  Pd  Pd9  1  0.382445  0.382445  0.390520  1
  Pd  Pd10  1  0.617555  0.617555  0.609480  1
  Pd  Pd11  1  0.382445  0.382445  0.844590  1
  Pd  Pd12  1  0.390520  0.844590  0.382445  1
  Pd  Pd13  1  0.617555  0.617555  0.155410  1
  Pd  Pd14  1  0.609480  0.155410  0.617555  1
  Pd  Pd15  1  0.844590  0.390520  0.382445  1
  Pd  Pd16  1  0.155410  0.609480  0.617555  1
  Pd  Pd17  1  0.348335  0.008221  0.991779  1
  Pd  Pd18  1  0.651665  0.991779  0.008221  1
  Pd  Pd19  1  0.008221  0.348335  0.651665  1
  Pd  Pd20  1  0.991779  0.651665  0.348335  1
  Pd  Pd21  1  0.008221  0.348335  0.991779  1
  Pd  Pd22  1  0.651665  0.991779  0.348335  1
  Pd  Pd23  1  0.991779  0.651665  0.008221  1
  Pd  Pd24  1  0.348335  0.008221  0.651665  1
  Pd  Pd25  1  0.000000  0.000000  0.348696  1
  Pd  Pd26  1  0.000000  0.000000  0.651304  1
  Pd  Pd27  1  0.651304  0.348696  0.000000  1
  Pd  Pd28  1  0.348696  0.651304  0.000000  1
