# generated using pymatgen
data_Ta3Nb3Al4IrRhC2
_symmetry_space_group_name_H-M   'P 1'
_cell_length_a   8.29634218
_cell_length_b   8.31414758
_cell_length_c   8.31414600
_cell_angle_alpha   60.15203658
_cell_angle_beta   60.07082123
_cell_angle_gamma   60.07082294
_symmetry_Int_Tables_number   1
_chemical_formula_structural   Ta3Nb3Al4IrRhC2
_chemical_formula_sum   'Ta6 Nb6 Al8 Ir2 Rh2 C4'
_cell_volume   406.41404106
_cell_formula_units_Z   2
loop_
 _symmetry_equiv_pos_site_id
 _symmetry_equiv_pos_as_xyz
  1  'x, y, z'
loop_
 _atom_site_type_symbol
 _atom_site_label
 _atom_site_symmetry_multiplicity
 _atom_site_fract_x
 _atom_site_fract_y
 _atom_site_fract_z
 _atom_site_occupancy
  Ta  Ta0  1  0.561947  0.565421  0.936214  1
  Ta  Ta1  1  0.937908  0.562510  0.562498  1
  Ta  Ta2  1  0.564648  0.935000  0.935665  1
  Ta  Ta3  1  0.937211  0.935524  0.565337  1
  Ta  Ta4  1  0.688403  0.313788  0.684896  1
  Ta  Ta5  1  0.936103  0.565982  0.935185  1
  Nb  Nb6  1  0.562828  0.935046  0.565937  1
  Nb  Nb7  1  0.313305  0.686836  0.687092  1
  Nb  Nb8  1  0.685110  0.314835  0.315181  1
  Nb  Nb9  1  0.312889  0.684940  0.314000  1
  Nb  Nb10  1  0.687666  0.684379  0.314729  1
  Nb  Nb11  1  0.313713  0.314286  0.684581  1
  Al  Al12  1  0.915515  0.916871  0.918743  1
  Al  Al13  1  0.000809  0.332784  0.330491  1
  Al  Al14  1  0.335223  0.998619  0.332574  1
  Al  Al15  1  0.333561  0.332447  0.998683  1
  Al  Al16  1  0.915826  0.251034  0.919006  1
  Al  Al17  1  0.914110  0.918826  0.251175  1
  Al  Al18  1  0.248900  0.918775  0.916532  1
  Al  Al19  1  0.335622  0.330868  0.332691  1
  Ir  Ir20  1  0.125546  0.624653  0.125380  1
  Ir  Ir21  1  0.119368  0.127749  0.625246  1
  Rh  Rh22  1  0.125730  0.124428  0.125263  1
  Rh  Rh23  1  0.625088  0.127303  0.120008  1
  C  C24  1  0.627176  0.622278  0.627073  1
  C  C25  1  0.122388  0.625702  0.626281  1
  C  C26  1  0.627177  0.123456  0.627060  1
  C  C27  1  0.626231  0.625661  0.122480  1
