# generated using pymatgen
data_Dy6Mn13Co(NiP3)4
_symmetry_space_group_name_H-M   'P 1'
_cell_length_a   3.69242000
_cell_length_b   10.75409500
_cell_length_c   12.57207700
_cell_angle_alpha   90.00000000
_cell_angle_beta   90.00000000
_cell_angle_gamma   90.00000000
_symmetry_Int_Tables_number   1
_chemical_formula_structural   Dy6Mn13Co(NiP3)4
_chemical_formula_sum   'Dy6 Mn13 Co1 Ni4 P12'
_cell_volume   499.22002257
_cell_formula_units_Z   1
loop_
 _symmetry_equiv_pos_site_id
 _symmetry_equiv_pos_as_xyz
  1  'x, y, z'
loop_
 _atom_site_type_symbol
 _atom_site_label
 _atom_site_symmetry_multiplicity
 _atom_site_fract_x
 _atom_site_fract_y
 _atom_site_fract_z
 _atom_site_occupancy
  Dy  Dy0  1  0.000000  0.500000  0.524724  1
  Dy  Dy1  1  0.500000  0.000000  0.470178  1
  Dy  Dy2  1  0.500000  0.819232  0.206114  1
  Dy  Dy3  1  0.500000  0.180768  0.206114  1
  Dy  Dy4  1  0.000000  0.681496  0.794128  1
  Dy  Dy5  1  0.000000  0.318504  0.794128  1
  Mn  Mn6  1  0.500000  0.500000  0.165160  1
  Mn  Mn7  1  0.000000  0.000000  0.837601  1
  Mn  Mn8  1  0.000000  0.500000  0.988921  1
  Mn  Mn9  1  0.500000  0.333858  0.996929  1
  Mn  Mn10  1  0.500000  0.666142  0.996929  1
  Mn  Mn11  1  0.000000  0.169410  0.003101  1
  Mn  Mn12  1  0.000000  0.830590  0.003101  1
  Mn  Mn13  1  0.500000  0.296002  0.433854  1
  Mn  Mn14  1  0.500000  0.703998  0.433854  1
  Mn  Mn15  1  0.000000  0.201363  0.568497  1
  Mn  Mn16  1  0.000000  0.798637  0.568497  1
  Mn  Mn17  1  0.500000  0.883017  0.704374  1
  Mn  Mn18  1  0.500000  0.116983  0.704374  1
  Co  Co19  1  0.500000  0.000000  0.010881  1
  Ni  Ni20  1  0.500000  0.500000  0.703269  1
  Ni  Ni21  1  0.000000  0.000000  0.292635  1
  Ni  Ni22  1  0.000000  0.623045  0.296158  1
  Ni  Ni23  1  0.000000  0.376955  0.296158  1
  P  P24  1  0.500000  0.500000  0.879235  1
  P  P25  1  0.000000  0.000000  0.114883  1
  P  P26  1  0.500000  0.500000  0.354608  1
  P  P27  1  0.000000  0.000000  0.643215  1
  P  P28  1  0.500000  0.316343  0.618422  1
  P  P29  1  0.500000  0.683657  0.618422  1
  P  P30  1  0.000000  0.183035  0.383124  1
  P  P31  1  0.000000  0.816965  0.383124  1
  P  P32  1  0.500000  0.846721  0.889629  1
  P  P33  1  0.500000  0.153279  0.889629  1
  P  P34  1  0.000000  0.653841  0.113014  1
  P  P35  1  0.000000  0.346159  0.113014  1
