# generated using pymatgen
data_Er8Zr11Si16Ag
_symmetry_space_group_name_H-M   'P 1'
_cell_length_a   7.06115436
_cell_length_b   7.27318176
_cell_length_c   13.90771200
_cell_angle_alpha   90.00000000
_cell_angle_beta   90.00000000
_cell_angle_gamma   89.73226530
_symmetry_Int_Tables_number   1
_chemical_formula_structural   Er8Zr11Si16Ag
_chemical_formula_sum   'Er8 Zr11 Si16 Ag1'
_cell_volume   714.25138919
_cell_formula_units_Z   1
loop_
 _symmetry_equiv_pos_site_id
 _symmetry_equiv_pos_as_xyz
  1  'x, y, z'
loop_
 _atom_site_type_symbol
 _atom_site_label
 _atom_site_symmetry_multiplicity
 _atom_site_fract_x
 _atom_site_fract_y
 _atom_site_fract_z
 _atom_site_occupancy
  Er  Er0  1  0.013080  0.176088  0.098701  1
  Er  Er1  1  0.986487  0.819306  0.901960  1
  Er  Er2  1  0.482138  0.674694  0.901979  1
  Er  Er3  1  0.986487  0.819306  0.598040  1
  Er  Er4  1  0.513681  0.323761  0.096393  1
  Er  Er5  1  0.013080  0.176088  0.401299  1
  Er  Er6  1  0.513681  0.323761  0.403607  1
  Er  Er7  1  0.482138  0.674694  0.598021  1
  Zr  Zr8  1  0.843429  0.503313  0.250000  1
  Zr  Zr9  1  0.342608  0.999208  0.250000  1
  Zr  Zr10  1  0.655580  0.999589  0.750000  1
  Zr  Zr11  1  0.322632  0.182073  0.626191  1
  Zr  Zr12  1  0.670750  0.821991  0.376057  1
  Zr  Zr13  1  0.172006  0.681256  0.375618  1
  Zr  Zr14  1  0.670750  0.821991  0.123943  1
  Zr  Zr15  1  0.839308  0.322155  0.626162  1
  Zr  Zr16  1  0.322632  0.182073  0.873809  1
  Zr  Zr17  1  0.839308  0.322155  0.873838  1
  Zr  Zr18  1  0.172006  0.681256  0.124382  1
  Si  Si19  1  0.028531  0.095506  0.750000  1
  Si  Si20  1  0.966157  0.884846  0.250000  1
  Si  Si21  1  0.467762  0.615254  0.250000  1
  Si  Si22  1  0.537364  0.381213  0.750000  1
  Si  Si23  1  0.285949  0.877745  0.750000  1
  Si  Si24  1  0.717240  0.128368  0.250000  1
  Si  Si25  1  0.218279  0.372573  0.250000  1
  Si  Si26  1  0.773306  0.626599  0.750000  1
  Si  Si27  1  0.161187  0.462689  0.531369  1
  Si  Si28  1  0.842079  0.532339  0.461332  1
  Si  Si29  1  0.343965  0.970794  0.460830  1
  Si  Si30  1  0.842079  0.532339  0.038668  1
  Si  Si31  1  0.655176  0.033105  0.542150  1
  Si  Si32  1  0.161187  0.462689  0.968631  1
  Si  Si33  1  0.655176  0.033105  0.957850  1
  Si  Si34  1  0.343965  0.970794  0.039170  1
  Ag  Ag35  1  0.158813  0.515283  0.750000  1
