# generated using pymatgen
data_La5Er3Sc11Si16Mo
_symmetry_space_group_name_H-M   'P 1'
_cell_length_a   7.20067793
_cell_length_b   7.44697317
_cell_length_c   14.07273999
_cell_angle_alpha   90.08292967
_cell_angle_beta   89.84838921
_cell_angle_gamma   89.72198409
_symmetry_Int_Tables_number   1
_chemical_formula_structural   La5Er3Sc11Si16Mo
_chemical_formula_sum   'La5 Er3 Sc11 Si16 Mo1'
_cell_volume   754.61379977
_cell_formula_units_Z   1
loop_
 _symmetry_equiv_pos_site_id
 _symmetry_equiv_pos_as_xyz
  1  'x, y, z'
loop_
 _atom_site_type_symbol
 _atom_site_label
 _atom_site_symmetry_multiplicity
 _atom_site_fract_x
 _atom_site_fract_y
 _atom_site_fract_z
 _atom_site_occupancy
  La  La0  1  0.010614  0.169737  0.097962  1
  La  La1  1  0.991683  0.829061  0.898396  1
  La  La2  1  0.488036  0.672548  0.899192  1
  La  La3  1  0.991228  0.830627  0.592004  1
  La  La4  1  0.512171  0.328774  0.097330  1
  Er  Er5  1  0.012067  0.177584  0.402419  1
  Er  Er6  1  0.505834  0.321980  0.409642  1
  Er  Er7  1  0.487853  0.676474  0.595846  1
  Sc  Sc8  1  0.166177  0.489719  0.742200  1
  Sc  Sc9  1  0.837056  0.499297  0.254505  1
  Sc  Sc10  1  0.336619  0.001047  0.255596  1
  Sc  Sc11  1  0.656247  0.006605  0.744926  1
  Sc  Sc12  1  0.662895  0.826106  0.379955  1
  Sc  Sc13  1  0.169525  0.675746  0.379456  1
  Sc  Sc14  1  0.668862  0.825938  0.127829  1
  Sc  Sc15  1  0.832585  0.324659  0.621246  1
  Sc  Sc16  1  0.334058  0.175935  0.873040  1
  Sc  Sc17  1  0.830828  0.324586  0.869663  1
  Sc  Sc18  1  0.169548  0.675132  0.128957  1
  Si  Si19  1  0.046608  0.128162  0.743138  1
  Si  Si20  1  0.963040  0.879586  0.255647  1
  Si  Si21  1  0.465872  0.622741  0.254750  1
  Si  Si22  1  0.530639  0.370002  0.742370  1
  Si  Si23  1  0.292639  0.891127  0.742533  1
  Si  Si24  1  0.709518  0.121982  0.257135  1
  Si  Si25  1  0.213083  0.377267  0.256998  1
  Si  Si26  1  0.781836  0.615149  0.742680  1
  Si  Si27  1  0.180668  0.446587  0.540697  1
  Si  Si28  1  0.838292  0.525094  0.457535  1
  Si  Si29  1  0.337942  0.973421  0.468200  1
  Si  Si30  1  0.851021  0.538887  0.039301  1
  Si  Si31  1  0.638614  0.037268  0.545250  1
  Si  Si32  1  0.147988  0.462709  0.959442  1
  Si  Si33  1  0.654708  0.039012  0.958241  1
  Si  Si34  1  0.348875  0.960431  0.039652  1
  Mo  Mo35  1  0.334768  0.179018  0.626264  1
