# generated using pymatgen
data_Ho4Er12In4IrPt3
_symmetry_space_group_name_H-M   'P 1'
_cell_length_a   9.64206292
_cell_length_b   9.64558312
_cell_length_c   9.64201973
_cell_angle_alpha   60.08397355
_cell_angle_beta   60.06907077
_cell_angle_gamma   60.08029621
_symmetry_Int_Tables_number   1
_chemical_formula_structural   Ho4Er12In4IrPt3
_chemical_formula_sum   'Ho4 Er12 In4 Ir1 Pt3'
_cell_volume   635.20844893
_cell_formula_units_Z   1
loop_
 _symmetry_equiv_pos_site_id
 _symmetry_equiv_pos_as_xyz
  1  'x, y, z'
loop_
 _atom_site_type_symbol
 _atom_site_label
 _atom_site_symmetry_multiplicity
 _atom_site_fract_x
 _atom_site_fract_y
 _atom_site_fract_z
 _atom_site_occupancy
  Ho  Ho0  1  0.061687  0.061243  0.438925  1
  Ho  Ho1  1  0.648547  0.054874  0.648649  1
  Ho  Ho2  1  0.190852  0.808759  0.190755  1
  Ho  Ho3  1  0.437764  0.062641  0.437582  1
  Er  Er4  1  0.186701  0.193430  0.809460  1
  Er  Er5  1  0.651710  0.647255  0.651758  1
  Er  Er6  1  0.051287  0.646547  0.651104  1
  Er  Er7  1  0.439213  0.061111  0.061313  1
  Er  Er8  1  0.651022  0.646701  0.051251  1
  Er  Er9  1  0.190091  0.809626  0.809320  1
  Er  Er10  1  0.810196  0.192191  0.810547  1
  Er  Er11  1  0.809297  0.193506  0.186635  1
  Er  Er12  1  0.809166  0.809788  0.190104  1
  Er  Er13  1  0.062012  0.436571  0.440228  1
  Er  Er14  1  0.440207  0.436393  0.062057  1
  Er  Er15  1  0.060886  0.437512  0.060691  1
  In  In16  1  0.749655  0.416870  0.416629  1
  In  In17  1  0.416613  0.416697  0.749832  1
  In  In18  1  0.416742  0.749880  0.416609  1
  In  In19  1  0.416440  0.416656  0.416424  1
  Ir  Ir20  1  0.858164  0.426838  0.858216  1
  Pt  Pt21  1  0.857083  0.857927  0.857252  1
  Pt  Pt22  1  0.427261  0.858538  0.857464  1
  Pt  Pt23  1  0.857406  0.858446  0.427197  1
