# generated using pymatgen
data_Gd8Y11LuSn16
_symmetry_space_group_name_H-M   'P 1'
_cell_length_a   8.09365400
_cell_length_b   8.25267885
_cell_length_c   15.60405900
_cell_angle_alpha   90.00000000
_cell_angle_beta   90.00000000
_cell_angle_gamma   90.03836530
_symmetry_Int_Tables_number   1
_chemical_formula_structural   Gd8Y11LuSn16
_chemical_formula_sum   'Gd8 Y11 Lu1 Sn16'
_cell_volume   1042.26238862
_cell_formula_units_Z   1
loop_
 _symmetry_equiv_pos_site_id
 _symmetry_equiv_pos_as_xyz
  1  'x, y, z'
loop_
 _atom_site_type_symbol
 _atom_site_label
 _atom_site_symmetry_multiplicity
 _atom_site_fract_x
 _atom_site_fract_y
 _atom_site_fract_z
 _atom_site_occupancy
  Gd  Gd0  1  0.518218  0.321287  0.902906  1
  Gd  Gd1  1  0.018159  0.178762  0.597050  1
  Gd  Gd2  1  0.481563  0.679092  0.402784  1
  Gd  Gd3  1  0.982096  0.821441  0.097232  1
  Gd  Gd4  1  0.481563  0.679092  0.097216  1
  Gd  Gd5  1  0.982096  0.821441  0.402768  1
  Gd  Gd6  1  0.518218  0.321287  0.597094  1
  Gd  Gd7  1  0.018159  0.178762  0.902950  1
  Y  Y8  1  0.364067  0.836790  0.877549  1
  Y  Y9  1  0.863932  0.663305  0.622719  1
  Y  Y10  1  0.635441  0.163018  0.377145  1
  Y  Y11  1  0.136261  0.336477  0.122830  1
  Y  Y12  1  0.635441  0.163018  0.122855  1
  Y  Y13  1  0.136261  0.336477  0.377170  1
  Y  Y14  1  0.364067  0.836790  0.622451  1
  Y  Y15  1  0.863932  0.663305  0.877281  1
  Y  Y16  1  0.196795  0.502425  0.750000  1
  Y  Y17  1  0.696857  0.997561  0.750000  1
  Y  Y18  1  0.803412  0.497680  0.250000  1
  Lu  Lu19  1  0.303091  0.002646  0.250000  1
  Sn  Sn20  1  0.297631  0.037781  0.042642  1
  Sn  Sn21  1  0.797690  0.461852  0.458202  1
  Sn  Sn22  1  0.702376  0.961607  0.541516  1
  Sn  Sn23  1  0.202218  0.538156  0.958496  1
  Sn  Sn24  1  0.702376  0.961607  0.958484  1
  Sn  Sn25  1  0.202218  0.538156  0.541504  1
  Sn  Sn26  1  0.297631  0.037781  0.457358  1
  Sn  Sn27  1  0.797690  0.461852  0.041798  1
  Sn  Sn28  1  0.561914  0.620174  0.750000  1
  Sn  Sn29  1  0.062316  0.879969  0.750000  1
  Sn  Sn30  1  0.437531  0.379034  0.250000  1
  Sn  Sn31  1  0.939576  0.119268  0.250000  1
  Sn  Sn32  1  0.326457  0.146078  0.750000  1
  Sn  Sn33  1  0.826947  0.353665  0.750000  1
  Sn  Sn34  1  0.672179  0.854180  0.250000  1
  Sn  Sn35  1  0.173621  0.648184  0.250000  1
