# generated using pymatgen
data_Hf3Mn3Si2P
_symmetry_space_group_name_H-M   'P 1'
_cell_length_a   6.62952600
_cell_length_b   6.62952743
_cell_length_c   3.40604700
_cell_angle_alpha   90.00000000
_cell_angle_beta   90.00000000
_cell_angle_gamma   120.00000287
_symmetry_Int_Tables_number   1
_chemical_formula_structural   Hf3Mn3Si2P
_chemical_formula_sum   'Hf3 Mn3 Si2 P1'
_cell_volume   129.64217406
_cell_formula_units_Z   1
loop_
 _symmetry_equiv_pos_site_id
 _symmetry_equiv_pos_as_xyz
  1  'x, y, z'
loop_
 _atom_site_type_symbol
 _atom_site_label
 _atom_site_symmetry_multiplicity
 _atom_site_fract_x
 _atom_site_fract_y
 _atom_site_fract_z
 _atom_site_occupancy
  Hf  Hf0  1  0.408637  0.404740  0.500000  1
  Hf  Hf1  1  0.595260  0.003898  0.500000  1
  Hf  Hf2  1  0.996102  0.591363  0.500000  1
  Mn  Mn3  1  0.750821  0.748645  0.000000  1
  Mn  Mn4  1  0.251355  0.002177  0.000000  1
  Mn  Mn5  1  0.997823  0.249179  0.000000  1
  Si  Si6  1  0.333333  0.666667  0.000000  1
  Si  Si7  1  0.000000  0.000000  0.500000  1
  P  P8  1  0.666667  0.333333  0.000000  1
