# generated using pymatgen
data_Pr4Mn4Ge3RhO20
_symmetry_space_group_name_H-M   'P 1'
_cell_length_a   5.86181900
_cell_length_b   7.69331819
_cell_length_c   8.78801500
_cell_angle_alpha   90.04425804
_cell_angle_beta   90.00000000
_cell_angle_gamma   90.00000000
_symmetry_Int_Tables_number   1
_chemical_formula_structural   Pr4Mn4Ge3RhO20
_chemical_formula_sum   'Pr4 Mn4 Ge3 Rh1 O20'
_cell_volume   396.31157720
_cell_formula_units_Z   1
loop_
 _symmetry_equiv_pos_site_id
 _symmetry_equiv_pos_as_xyz
  1  'x, y, z'
loop_
 _atom_site_type_symbol
 _atom_site_label
 _atom_site_symmetry_multiplicity
 _atom_site_fract_x
 _atom_site_fract_y
 _atom_site_fract_z
 _atom_site_occupancy
  Pr  Pr0  1  0.998780  0.358510  0.671321  1
  Pr  Pr1  1  0.998780  0.641490  0.328679  1
  Pr  Pr2  1  0.000549  0.858910  0.828335  1
  Pr  Pr3  1  0.000549  0.141090  0.171665  1
  Mn  Mn4  1  0.503123  0.091752  0.852330  1
  Mn  Mn5  1  0.503123  0.908248  0.147670  1
  Mn  Mn6  1  0.500480  0.588560  0.649772  1
  Mn  Mn7  1  0.500480  0.411440  0.350228  1
  Ge  Ge8  1  0.259360  0.500000  0.000000  1
  Ge  Ge9  1  0.741292  0.000000  0.500000  1
  Ge  Ge10  1  0.740786  0.500000  0.000000  1
  Rh  Rh11  1  0.255114  0.000000  0.500000  1
  O  O12  1  0.247467  0.900727  0.289195  1
  O  O13  1  0.247467  0.099273  0.710805  1
  O  O14  1  0.752616  0.405031  0.204613  1
  O  O15  1  0.752616  0.594969  0.795387  1
  O  O16  1  0.752609  0.098355  0.706440  1
  O  O17  1  0.752609  0.901645  0.293560  1
  O  O18  1  0.248313  0.596033  0.795106  1
  O  O19  1  0.248313  0.403967  0.204894  1
  O  O20  1  0.500167  0.349205  0.937215  1
  O  O21  1  0.500167  0.650795  0.062785  1
  O  O22  1  0.510129  0.846345  0.565839  1
  O  O23  1  0.510129  0.153655  0.434161  1
  O  O24  1  0.278887  0.000000  0.000000  1
  O  O25  1  0.722134  0.500000  0.500000  1
  O  O26  1  0.725975  0.000000  0.000000  1
  O  O27  1  0.277789  0.500000  0.500000  1
  O  O28  1  0.984978  0.158934  0.446693  1
  O  O29  1  0.984978  0.841066  0.553307  1
  O  O30  1  0.000123  0.654086  0.050845  1
  O  O31  1  0.000123  0.345914  0.949155  1
