# generated using pymatgen
data_Rb2Pd3RhO6
_symmetry_space_group_name_H-M   'P 1'
_cell_length_a   7.18091336
_cell_length_b   7.18091361
_cell_length_c   7.18091300
_cell_angle_alpha   51.81462167
_cell_angle_beta   51.81463025
_cell_angle_gamma   51.81462376
_symmetry_Int_Tables_number   1
_chemical_formula_structural   Rb2Pd3RhO6
_chemical_formula_sum   'Rb2 Pd3 Rh1 O6'
_cell_volume   211.41820517
_cell_formula_units_Z   1
loop_
 _symmetry_equiv_pos_site_id
 _symmetry_equiv_pos_as_xyz
  1  'x, y, z'
loop_
 _atom_site_type_symbol
 _atom_site_label
 _atom_site_symmetry_multiplicity
 _atom_site_fract_x
 _atom_site_fract_y
 _atom_site_fract_z
 _atom_site_occupancy
  Rb  Rb0  1  0.830681  0.830681  0.830681  1
  Rb  Rb1  1  0.169319  0.169319  0.169319  1
  Pd  Pd2  1  0.000000  0.500000  0.500000  1
  Pd  Pd3  1  0.500000  0.000000  0.500000  1
  Pd  Pd4  1  0.500000  0.500000  0.000000  1
  Rh  Rh5  1  0.000000  0.000000  0.000000  1
  O  O6  1  0.883793  0.388295  0.883793  1
  O  O7  1  0.883793  0.883793  0.388295  1
  O  O8  1  0.388295  0.883793  0.883793  1
  O  O9  1  0.116207  0.611705  0.116207  1
  O  O10  1  0.116207  0.116207  0.611705  1
  O  O11  1  0.611705  0.116207  0.116207  1
