# generated using pymatgen
data_Y20Ir7Rh5
_symmetry_space_group_name_H-M   'P 1'
_cell_length_a   10.92984034
_cell_length_b   10.92984034
_cell_length_c   6.42750514
_cell_angle_alpha   89.98317054
_cell_angle_beta   89.98317054
_cell_angle_gamma   89.88796368
_symmetry_Int_Tables_number   1
_chemical_formula_structural   Y20Ir7Rh5
_chemical_formula_sum   'Y20 Ir7 Rh5'
_cell_volume   767.83729186
_cell_formula_units_Z   1
loop_
 _symmetry_equiv_pos_site_id
 _symmetry_equiv_pos_as_xyz
  1  'x, y, z'
loop_
 _atom_site_type_symbol
 _atom_site_label
 _atom_site_symmetry_multiplicity
 _atom_site_fract_x
 _atom_site_fract_y
 _atom_site_fract_z
 _atom_site_occupancy
  Y  Y0  1  0.289744  0.089181  0.383062  1
  Y  Y1  1  0.290303  0.910396  0.882165  1
  Y  Y2  1  0.708816  0.088890  0.881125  1
  Y  Y3  1  0.708665  0.908004  0.382895  1
  Y  Y4  1  0.589353  0.789911  0.883037  1
  Y  Y5  1  0.587568  0.209878  0.382080  1
  Y  Y6  1  0.409730  0.790162  0.382635  1
  Y  Y7  1  0.410193  0.209430  0.882050  1
  Y  Y8  1  0.210089  0.410647  0.616963  1
  Y  Y9  1  0.209838  0.590270  0.117365  1
  Y  Y10  1  0.790122  0.412432  0.117920  1
  Y  Y11  1  0.790570  0.589807  0.617950  1
  Y  Y12  1  0.910819  0.710256  0.116938  1
  Y  Y13  1  0.911110  0.291184  0.618875  1
  Y  Y14  1  0.089604  0.709697  0.617835  1
  Y  Y15  1  0.091996  0.291335  0.117105  1
  Y  Y16  1  0.999413  0.999639  0.499709  1
  Y  Y17  1  0.000361  0.000587  0.000291  1
  Y  Y18  1  0.499894  0.499309  0.999581  1
  Y  Y19  1  0.500691  0.500106  0.500419  1
  Ir  Ir20  1  0.845666  0.847190  0.750547  1
  Ir  Ir21  1  0.152810  0.154334  0.749453  1
  Ir  Ir22  1  0.153796  0.846204  0.250000  1
  Ir  Ir23  1  0.655047  0.344953  0.750000  1
  Ir  Ir24  1  0.654582  0.653134  0.249249  1
  Ir  Ir25  1  0.346866  0.345418  0.250751  1
  Ir  Ir26  1  0.346033  0.653967  0.750000  1
  Rh  Rh27  1  0.845453  0.154547  0.250000  1
  Rh  Rh28  1  0.500449  0.000020  0.130738  1
  Rh  Rh29  1  0.500354  0.999915  0.629645  1
  Rh  Rh30  1  0.000085  0.499646  0.870355  1
  Rh  Rh31  1  0.999980  0.499551  0.369262  1
