# generated using pymatgen
data_Ta12Ga9Ni3N4
_symmetry_space_group_name_H-M   'P 1'
_cell_length_a   8.20357081
_cell_length_b   8.21013115
_cell_length_c   8.21013100
_cell_angle_alpha   59.99999658
_cell_angle_beta   59.97353940
_cell_angle_gamma   59.97353912
_symmetry_Int_Tables_number   1
_chemical_formula_structural   Ta12Ga9Ni3N4
_chemical_formula_sum   'Ta12 Ga9 Ni3 N4'
_cell_volume   390.85375608
_cell_formula_units_Z   1
loop_
 _symmetry_equiv_pos_site_id
 _symmetry_equiv_pos_as_xyz
  1  'x, y, z'
loop_
 _atom_site_type_symbol
 _atom_site_label
 _atom_site_symmetry_multiplicity
 _atom_site_fract_x
 _atom_site_fract_y
 _atom_site_fract_z
 _atom_site_occupancy
  Ta  Ta0  1  0.816650  0.814123  0.184614  1
  Ta  Ta1  1  0.184369  0.194978  0.810327  1
  Ta  Ta2  1  0.816650  0.184614  0.814123  1
  Ta  Ta3  1  0.184369  0.810327  0.194978  1
  Ta  Ta4  1  0.184369  0.810327  0.810327  1
  Ta  Ta5  1  0.816650  0.184614  0.184614  1
  Ta  Ta6  1  0.433350  0.435877  0.065386  1
  Ta  Ta7  1  0.065631  0.055022  0.439673  1
  Ta  Ta8  1  0.433350  0.065386  0.435877  1
  Ta  Ta9  1  0.065631  0.439673  0.055022  1
  Ta  Ta10  1  0.065631  0.439673  0.439673  1
  Ta  Ta11  1  0.433350  0.065386  0.065386  1
  Ga  Ga12  1  0.125000  0.625000  0.625000  1
  Ga  Ga13  1  0.760780  0.413074  0.413074  1
  Ga  Ga14  1  0.431632  0.753887  0.407241  1
  Ga  Ga15  1  0.431632  0.407241  0.753887  1
  Ga  Ga16  1  0.431632  0.407241  0.407241  1
  Ga  Ga17  1  0.489220  0.836926  0.836926  1
  Ga  Ga18  1  0.818368  0.496113  0.842759  1
  Ga  Ga19  1  0.818368  0.842759  0.496113  1
  Ga  Ga20  1  0.818368  0.842759  0.842759  1
  Ni  Ni21  1  0.625000  0.125000  0.625000  1
  Ni  Ni22  1  0.625000  0.625000  0.125000  1
  Ni  Ni23  1  0.625000  0.625000  0.625000  1
  N  N24  1  0.625000  0.125000  0.125000  1
  N  N25  1  0.125000  0.625000  0.125000  1
  N  N26  1  0.125000  0.125000  0.625000  1
  N  N27  1  0.125000  0.125000  0.125000  1
