# generated using pymatgen
data_LiLaNd5OsBr12
_symmetry_space_group_name_H-M   'P 1'
_cell_length_a   9.50228610
_cell_length_b   9.62512827
_cell_length_c   9.77608546
_cell_angle_alpha   107.79862843
_cell_angle_beta   107.87613349
_cell_angle_gamma   108.44351908
_symmetry_Int_Tables_number   1
_chemical_formula_structural   LiLaNd5OsBr12
_chemical_formula_sum   'Li1 La1 Nd5 Os1 Br12'
_cell_volume   722.46442130
_cell_formula_units_Z   1
loop_
 _symmetry_equiv_pos_site_id
 _symmetry_equiv_pos_as_xyz
  1  'x, y, z'
loop_
 _atom_site_type_symbol
 _atom_site_label
 _atom_site_symmetry_multiplicity
 _atom_site_fract_x
 _atom_site_fract_y
 _atom_site_fract_z
 _atom_site_occupancy
  Li  Li0  1  0.501531  0.500178  0.499275  1
  La  La1  1  0.688401  0.884358  0.965630  1
  Nd  Nd2  1  0.309160  0.115555  0.033898  1
  Nd  Nd3  1  0.035280  0.324102  0.118685  1
  Nd  Nd4  1  0.125991  0.036256  0.333491  1
  Nd  Nd5  1  0.876198  0.964544  0.668838  1
  Nd  Nd6  1  0.961809  0.675182  0.882175  1
  Os  Os7  1  0.990434  0.996691  0.000608  1
  Br  Br8  1  0.687354  0.218705  0.072071  1
  Br  Br9  1  0.383949  0.465069  0.175053  1
  Br  Br10  1  0.071179  0.685351  0.212033  1
  Br  Br11  1  0.789225  0.930861  0.317563  1
  Br  Br12  1  0.467221  0.177306  0.376823  1
  Br  Br13  1  0.179097  0.381330  0.460121  1
  Br  Br14  1  0.825530  0.619992  0.541279  1
  Br  Br15  1  0.532042  0.819761  0.612711  1
  Br  Br16  1  0.217517  0.072959  0.692309  1
  Br  Br17  1  0.932635  0.316163  0.789739  1
  Br  Br18  1  0.613422  0.525807  0.817791  1
  Br  Br19  1  0.312031  0.789833  0.929912  1
