# generated using pymatgen
data_Ac3Sn2Pd
_symmetry_space_group_name_H-M   'P 1'
_cell_length_a   4.78364100
_cell_length_b   12.91226400
_cell_length_c   13.21099200
_cell_angle_alpha   90.00000000
_cell_angle_beta   90.00000000
_cell_angle_gamma   90.00000000
_symmetry_Int_Tables_number   1
_chemical_formula_structural   Ac3Sn2Pd
_chemical_formula_sum   'Ac12 Sn8 Pd4'
_cell_volume   816.01173810
_cell_formula_units_Z   4
loop_
 _symmetry_equiv_pos_site_id
 _symmetry_equiv_pos_as_xyz
  1  'x, y, z'
loop_
 _atom_site_type_symbol
 _atom_site_label
 _atom_site_symmetry_multiplicity
 _atom_site_fract_x
 _atom_site_fract_y
 _atom_site_fract_z
 _atom_site_occupancy
  Ac  Ac0  1  0.250000  0.052573  0.879097  1
  Ac  Ac1  1  0.250000  0.447427  0.379097  1
  Ac  Ac2  1  0.750000  0.947427  0.120903  1
  Ac  Ac3  1  0.750000  0.552573  0.620903  1
  Ac  Ac4  1  0.250000  0.128782  0.552089  1
  Ac  Ac5  1  0.250000  0.371218  0.052089  1
  Ac  Ac6  1  0.750000  0.871218  0.447911  1
  Ac  Ac7  1  0.750000  0.628782  0.947911  1
  Ac  Ac8  1  0.250000  0.800245  0.727430  1
  Ac  Ac9  1  0.250000  0.699755  0.227430  1
  Ac  Ac10  1  0.750000  0.199755  0.272570  1
  Ac  Ac11  1  0.750000  0.300245  0.772570  1
  Sn  Sn12  1  0.250000  0.812294  0.989052  1
  Sn  Sn13  1  0.250000  0.687706  0.489052  1
  Sn  Sn14  1  0.750000  0.187706  0.010948  1
  Sn  Sn15  1  0.750000  0.312294  0.510948  1
  Sn  Sn16  1  0.250000  0.498052  0.807957  1
  Sn  Sn17  1  0.250000  0.001948  0.307957  1
  Sn  Sn18  1  0.750000  0.501948  0.192043  1
  Sn  Sn19  1  0.750000  0.998052  0.692043  1
  Pd  Pd20  1  0.250000  0.368964  0.624651  1
  Pd  Pd21  1  0.250000  0.131036  0.124651  1
  Pd  Pd22  1  0.750000  0.631036  0.375349  1
  Pd  Pd23  1  0.750000  0.868964  0.875349  1
