# generated using pymatgen
data_Dy9Tm(GeB4)4
_symmetry_space_group_name_H-M   'P 1'
_cell_length_a   7.24902200
_cell_length_b   7.24902200
_cell_length_c   8.12520000
_cell_angle_alpha   90.00000000
_cell_angle_beta   90.00000000
_cell_angle_gamma   90.00000000
_symmetry_Int_Tables_number   1
_chemical_formula_structural   Dy9Tm(GeB4)4
_chemical_formula_sum   'Dy9 Tm1 Ge4 B16'
_cell_volume   426.96560931
_cell_formula_units_Z   1
loop_
 _symmetry_equiv_pos_site_id
 _symmetry_equiv_pos_as_xyz
  1  'x, y, z'
loop_
 _atom_site_type_symbol
 _atom_site_label
 _atom_site_symmetry_multiplicity
 _atom_site_fract_x
 _atom_site_fract_y
 _atom_site_fract_z
 _atom_site_occupancy
  Dy  Dy0  1  0.680575  0.180172  0.221511  1
  Dy  Dy1  1  0.319425  0.819828  0.778489  1
  Dy  Dy2  1  0.319425  0.819828  0.221511  1
  Dy  Dy3  1  0.819828  0.680575  0.221511  1
  Dy  Dy4  1  0.819828  0.680575  0.778489  1
  Dy  Dy5  1  0.680575  0.180172  0.778489  1
  Dy  Dy6  1  0.180172  0.319425  0.778489  1
  Dy  Dy7  1  0.180172  0.319425  0.221511  1
  Dy  Dy8  1  0.500000  0.500000  0.500000  1
  Tm  Tm9  1  0.000000  0.000000  0.500000  1
  Ge  Ge10  1  0.119059  0.621673  0.500000  1
  Ge  Ge11  1  0.880941  0.378327  0.500000  1
  Ge  Ge12  1  0.378327  0.119059  0.500000  1
  Ge  Ge13  1  0.621673  0.880941  0.500000  1
  B  B14  1  0.172434  0.039243  0.000000  1
  B  B15  1  0.827566  0.960757  0.000000  1
  B  B16  1  0.960757  0.172434  0.000000  1
  B  B17  1  0.327592  0.539298  0.000000  1
  B  B18  1  0.039243  0.827566  0.000000  1
  B  B19  1  0.672408  0.460702  0.000000  1
  B  B20  1  0.539298  0.672408  0.000000  1
  B  B21  1  0.460702  0.327592  0.000000  1
  B  B22  1  0.090176  0.590096  0.000000  1
  B  B23  1  0.909824  0.409904  0.000000  1
  B  B24  1  0.409904  0.090176  0.000000  1
  B  B25  1  0.590096  0.909824  0.000000  1
  B  B26  1  0.000000  0.000000  0.162651  1
  B  B27  1  0.000000  0.000000  0.837349  1
  B  B28  1  0.500000  0.500000  0.837845  1
  B  B29  1  0.500000  0.500000  0.162155  1
