# generated using pymatgen
data_Cs6PrLuBr12
_symmetry_space_group_name_H-M   'P 1'
_cell_length_a   10.03224857
_cell_length_b   10.03561844
_cell_length_c   8.32814700
_cell_angle_alpha   90.00000000
_cell_angle_beta   90.00000000
_cell_angle_gamma   90.03632870
_symmetry_Int_Tables_number   1
_chemical_formula_structural   Cs6PrLuBr12
_chemical_formula_sum   'Cs6 Pr1 Lu1 Br12'
_cell_volume   838.47616212
_cell_formula_units_Z   1
loop_
 _symmetry_equiv_pos_site_id
 _symmetry_equiv_pos_as_xyz
  1  'x, y, z'
loop_
 _atom_site_type_symbol
 _atom_site_label
 _atom_site_symmetry_multiplicity
 _atom_site_fract_x
 _atom_site_fract_y
 _atom_site_fract_z
 _atom_site_occupancy
  Cs  Cs0  1  0.000000  0.000000  0.500000  1
  Cs  Cs1  1  0.000000  0.000000  0.000000  1
  Cs  Cs2  1  0.237633  0.585082  0.500000  1
  Cs  Cs3  1  0.762367  0.414918  0.500000  1
  Cs  Cs4  1  0.415736  0.232135  0.000000  1
  Cs  Cs5  1  0.584264  0.767865  0.000000  1
  Pr  Pr6  1  0.000000  0.500000  0.000000  1
  Lu  Lu7  1  0.500000  0.000000  0.500000  1
  Br  Br8  1  0.688416  0.056516  0.735927  1
  Br  Br9  1  0.311584  0.943484  0.735927  1
  Br  Br10  1  0.939964  0.698305  0.248078  1
  Br  Br11  1  0.060036  0.301695  0.248078  1
  Br  Br12  1  0.311584  0.943484  0.264073  1
  Br  Br13  1  0.688416  0.056516  0.264073  1
  Br  Br14  1  0.060036  0.301695  0.751922  1
  Br  Br15  1  0.939964  0.698305  0.751922  1
  Br  Br16  1  0.569129  0.734435  0.500000  1
  Br  Br17  1  0.430871  0.265565  0.500000  1
  Br  Br18  1  0.281233  0.571573  0.000000  1
  Br  Br19  1  0.718767  0.428427  0.000000  1
