# generated using pymatgen
data_Ti5Al6GaRu12
_symmetry_space_group_name_H-M   'P 1'
_cell_length_a   4.28012901
_cell_length_b   6.14260701
_cell_length_c   12.86450301
_cell_angle_alpha   90.00136924
_cell_angle_beta   90.00419526
_cell_angle_gamma   89.99561148
_symmetry_Int_Tables_number   1
_chemical_formula_structural   Ti5Al6GaRu12
_chemical_formula_sum   'Ti5 Al6 Ga1 Ru12'
_cell_volume   338.22258165
_cell_formula_units_Z   1
loop_
 _symmetry_equiv_pos_site_id
 _symmetry_equiv_pos_as_xyz
  1  'x, y, z'
loop_
 _atom_site_type_symbol
 _atom_site_label
 _atom_site_symmetry_multiplicity
 _atom_site_fract_x
 _atom_site_fract_y
 _atom_site_fract_z
 _atom_site_occupancy
  Ti  Ti0  1  0.500004  0.500070  0.165391  1
  Ti  Ti1  1  0.999765  0.000025  0.334064  1
  Ti  Ti2  1  0.500000  0.499999  0.500000  1
  Ti  Ti3  1  0.000233  0.999975  0.665936  1
  Ti  Ti4  1  0.499996  0.499928  0.834608  1
  Al  Al5  1  0.000000  0.499999  0.000000  1
  Al  Al6  1  0.500039  0.999981  0.169517  1
  Al  Al7  1  0.999732  0.500003  0.331574  1
  Al  Al8  1  0.500000  0.000000  0.500000  1
  Al  Al9  1  0.000268  0.499995  0.668425  1
  Al  Al10  1  0.499961  0.000019  0.830484  1
  Ga  Ga11  1  0.000000  0.000000  0.000000  1
  Ru  Ru12  1  0.500237  0.241880  0.000007  1
  Ru  Ru13  1  0.499763  0.758121  0.999993  1
  Ru  Ru14  1  0.999951  0.247165  0.165261  1
  Ru  Ru15  1  0.000114  0.752887  0.165346  1
  Ru  Ru16  1  0.499892  0.249046  0.332950  1
  Ru  Ru17  1  0.499656  0.751070  0.332917  1
  Ru  Ru18  1  0.999931  0.251540  0.500023  1
  Ru  Ru19  1  0.000069  0.748460  0.499977  1
  Ru  Ru20  1  0.500344  0.248929  0.667084  1
  Ru  Ru21  1  0.500108  0.750953  0.667051  1
  Ru  Ru22  1  0.999886  0.247111  0.834654  1
  Ru  Ru23  1  0.000049  0.752833  0.834739  1
