# generated using pymatgen
data_Ho2Mn6Be3Fe8C3
_symmetry_space_group_name_H-M   'P 1'
_cell_length_a   6.34078045
_cell_length_b   6.34078150
_cell_length_c   6.34078121
_cell_angle_alpha   82.84330551
_cell_angle_beta   82.84329857
_cell_angle_gamma   82.84331730
_symmetry_Int_Tables_number   1
_chemical_formula_structural   Ho2Mn6Be3Fe8C3
_chemical_formula_sum   'Ho2 Mn6 Be3 Fe8 C3'
_cell_volume   249.43263780
_cell_formula_units_Z   1
loop_
 _symmetry_equiv_pos_site_id
 _symmetry_equiv_pos_as_xyz
  1  'x, y, z'
loop_
 _atom_site_type_symbol
 _atom_site_label
 _atom_site_symmetry_multiplicity
 _atom_site_fract_x
 _atom_site_fract_y
 _atom_site_fract_z
 _atom_site_occupancy
  Ho  Ho0  1  0.655777  0.655777  0.655777  1
  Ho  Ho1  1  0.344223  0.344223  0.344223  1
  Mn  Mn2  1  0.724181  0.275819  0.000000  1
  Mn  Mn3  1  0.000000  0.724181  0.275819  1
  Mn  Mn4  1  0.275819  0.000000  0.724181  1
  Mn  Mn5  1  0.000000  0.275819  0.724181  1
  Mn  Mn6  1  0.724181  0.000000  0.275819  1
  Mn  Mn7  1  0.275819  0.724181  0.000000  1
  Be  Be8  1  0.000000  0.000000  0.500000  1
  Be  Be9  1  0.500000  0.000000  0.000000  1
  Be  Be10  1  0.000000  0.500000  0.000000  1
  Fe  Fe11  1  0.339216  0.859747  0.339216  1
  Fe  Fe12  1  0.339216  0.339216  0.859747  1
  Fe  Fe13  1  0.859747  0.339216  0.339216  1
  Fe  Fe14  1  0.660784  0.140253  0.660784  1
  Fe  Fe15  1  0.660784  0.660784  0.140253  1
  Fe  Fe16  1  0.140253  0.660784  0.660784  1
  Fe  Fe17  1  0.901490  0.901490  0.901490  1
  Fe  Fe18  1  0.098510  0.098510  0.098510  1
  C  C19  1  0.500000  0.500000  0.000000  1
  C  C20  1  0.000000  0.500000  0.500000  1
  C  C21  1  0.500000  0.000000  0.500000  1
