# generated using pymatgen
data_TmMg3(AlAu)4
_symmetry_space_group_name_H-M   'P 1'
_cell_length_a   4.18759700
_cell_length_b   6.84046441
_cell_length_c   7.98273438
_cell_angle_alpha   88.44232690
_cell_angle_beta   90.00000000
_cell_angle_gamma   90.00000000
_symmetry_Int_Tables_number   1
_chemical_formula_structural   TmMg3(AlAu)4
_chemical_formula_sum   'Tm1 Mg3 Al4 Au4'
_cell_volume   228.58179101
_cell_formula_units_Z   1
loop_
 _symmetry_equiv_pos_site_id
 _symmetry_equiv_pos_as_xyz
  1  'x, y, z'
loop_
 _atom_site_type_symbol
 _atom_site_label
 _atom_site_symmetry_multiplicity
 _atom_site_fract_x
 _atom_site_fract_y
 _atom_site_fract_z
 _atom_site_occupancy
  Tm  Tm0  1  0.750000  0.476296  0.821754  1
  Mg  Mg1  1  0.250000  0.027417  0.328835  1
  Mg  Mg2  1  0.250000  0.531540  0.172040  1
  Mg  Mg3  1  0.750000  0.966322  0.669903  1
  Al  Al4  1  0.250000  0.149151  0.948944  1
  Al  Al5  1  0.250000  0.642191  0.556940  1
  Al  Al6  1  0.750000  0.865713  0.057822  1
  Al  Al7  1  0.750000  0.345979  0.442849  1
  Au  Au8  1  0.250000  0.252157  0.628916  1
  Au  Au9  1  0.250000  0.779833  0.866518  1
  Au  Au10  1  0.750000  0.727345  0.367506  1
  Au  Au11  1  0.750000  0.236054  0.137974  1
