# generated using pymatgen
data_Dy15Ho5(Ir5Pt)2
_symmetry_space_group_name_H-M   'P 1'
_cell_length_a   10.93705193
_cell_length_b   10.93870505
_cell_length_c   6.34180603
_cell_angle_alpha   90.00901307
_cell_angle_beta   89.96168003
_cell_angle_gamma   89.99308351
_symmetry_Int_Tables_number   1
_chemical_formula_structural   Dy15Ho5(Ir5Pt)2
_chemical_formula_sum   'Dy15 Ho5 Ir10 Pt2'
_cell_volume   758.71563849
_cell_formula_units_Z   1
loop_
 _symmetry_equiv_pos_site_id
 _symmetry_equiv_pos_as_xyz
  1  'x, y, z'
loop_
 _atom_site_type_symbol
 _atom_site_label
 _atom_site_symmetry_multiplicity
 _atom_site_fract_x
 _atom_site_fract_y
 _atom_site_fract_z
 _atom_site_occupancy
  Dy  Dy0  1  0.291200  0.088389  0.376178  1
  Dy  Dy1  1  0.291239  0.911670  0.876255  1
  Dy  Dy2  1  0.705358  0.090138  0.874185  1
  Dy  Dy3  1  0.705377  0.909909  0.374184  1
  Dy  Dy4  1  0.584586  0.790804  0.878569  1
  Dy  Dy5  1  0.584578  0.209170  0.378582  1
  Dy  Dy6  1  0.410732  0.791275  0.377705  1
  Dy  Dy7  1  0.410747  0.208700  0.877750  1
  Dy  Dy8  1  0.208943  0.411396  0.622025  1
  Dy  Dy9  1  0.208979  0.588441  0.122049  1
  Dy  Dy10  1  0.790823  0.414542  0.122461  1
  Dy  Dy11  1  0.790759  0.585415  0.622407  1
  Dy  Dy12  1  0.913422  0.707173  0.126597  1
  Dy  Dy13  1  0.913484  0.292847  0.626554  1
  Dy  Dy14  1  0.091644  0.706861  0.622315  1
  Ho  Ho15  1  0.091587  0.293336  0.122226  1
  Ho  Ho16  1  0.003078  0.999577  0.499961  1
  Ho  Ho17  1  0.003071  0.000515  0.000014  1
  Ho  Ho18  1  0.499806  0.499541  0.999863  1
  Ho  Ho19  1  0.499785  0.500434  0.499879  1
  Ir  Ir20  1  0.152670  0.153705  0.750339  1
  Ir  Ir21  1  0.152743  0.846379  0.250083  1
  Ir  Ir22  1  0.654691  0.346117  0.749525  1
  Ir  Ir23  1  0.654690  0.653919  0.249518  1
  Ir  Ir24  1  0.346686  0.346414  0.250306  1
  Ir  Ir25  1  0.346837  0.653578  0.750396  1
  Ir  Ir26  1  0.500684  0.999817  0.123535  1
  Ir  Ir27  1  0.500687  0.000191  0.623563  1
  Ir  Ir28  1  0.999625  0.500054  0.876849  1
  Ir  Ir29  1  0.999630  0.499663  0.376639  1
  Pt  Pt30  1  0.845986  0.153198  0.249696  1
  Pt  Pt31  1  0.845878  0.846834  0.749790  1
