# generated using pymatgen
data_K2SnSb3Au4
_symmetry_space_group_name_H-M   'P 1'
_cell_length_a   4.83230400
_cell_length_b   5.00239487
_cell_length_c   11.20621165
_cell_angle_alpha   87.24765757
_cell_angle_beta   90.00000000
_cell_angle_gamma   90.00000000
_symmetry_Int_Tables_number   1
_chemical_formula_structural   K2SnSb3Au4
_chemical_formula_sum   'K2 Sn1 Sb3 Au4'
_cell_volume   270.57630257
_cell_formula_units_Z   1
loop_
 _symmetry_equiv_pos_site_id
 _symmetry_equiv_pos_as_xyz
  1  'x, y, z'
loop_
 _atom_site_type_symbol
 _atom_site_label
 _atom_site_symmetry_multiplicity
 _atom_site_fract_x
 _atom_site_fract_y
 _atom_site_fract_z
 _atom_site_occupancy
  K  K0  1  0.250000  0.740609  0.758734  1
  K  K1  1  0.750000  0.259477  0.241426  1
  Sn  Sn2  1  0.750000  0.751100  0.502087  1
  Sb  Sb3  1  0.250000  0.245287  0.499635  1
  Sb  Sb4  1  0.250000  0.805789  0.118982  1
  Sb  Sb5  1  0.750000  0.194409  0.880591  1
  Au  Au6  1  0.750000  0.685938  0.999812  1
  Au  Au7  1  0.750000  0.242922  0.634045  1
  Au  Au8  1  0.250000  0.756076  0.365568  1
  Au  Au9  1  0.250000  0.318394  0.999123  1
