# generated using pymatgen
data_La15Nd(CdPd)4
_symmetry_space_group_name_H-M   'P 1'
_cell_length_a   10.20529710
_cell_length_b   10.20529683
_cell_length_c   10.20490300
_cell_angle_alpha   60.00127331
_cell_angle_beta   60.00127421
_cell_angle_gamma   59.99913157
_symmetry_Int_Tables_number   1
_chemical_formula_structural   La15Nd(CdPd)4
_chemical_formula_sum   'La15 Nd1 Cd4 Pd4'
_cell_volume   751.53755491
_cell_formula_units_Z   1
loop_
 _symmetry_equiv_pos_site_id
 _symmetry_equiv_pos_as_xyz
  1  'x, y, z'
loop_
 _atom_site_type_symbol
 _atom_site_label
 _atom_site_symmetry_multiplicity
 _atom_site_fract_x
 _atom_site_fract_y
 _atom_site_fract_z
 _atom_site_occupancy
  La  La0  1  0.350302  0.350302  0.350849  1
  La  La1  1  0.350302  0.350302  0.948548  1
  La  La2  1  0.350034  0.947263  0.351352  1
  La  La3  1  0.947263  0.350034  0.351352  1
  La  La4  1  0.806854  0.193313  0.194419  1
  La  La5  1  0.193313  0.806854  0.805414  1
  La  La6  1  0.193313  0.806854  0.194419  1
  La  La7  1  0.806854  0.193313  0.805414  1
  La  La8  1  0.193543  0.193543  0.806457  1
  La  La9  1  0.806262  0.806262  0.193738  1
  La  La10  1  0.935840  0.565280  0.564887  1
  La  La11  1  0.565280  0.935840  0.933993  1
  La  La12  1  0.565280  0.935840  0.564887  1
  La  La13  1  0.935840  0.565280  0.933993  1
  La  La14  1  0.564130  0.564130  0.935870  1
  Nd  Nd15  1  0.935856  0.935856  0.564144  1
  Cd  Cd16  1  0.579399  0.579399  0.579327  1
  Cd  Cd17  1  0.579399  0.579399  0.261874  1
  Cd  Cd18  1  0.580062  0.261289  0.579324  1
  Cd  Cd19  1  0.261289  0.580062  0.579324  1
  Pd  Pd20  1  0.142605  0.142605  0.143479  1
  Pd  Pd21  1  0.142605  0.142605  0.571311  1
  Pd  Pd22  1  0.142750  0.571625  0.142813  1
  Pd  Pd23  1  0.571625  0.142750  0.142813  1
