# generated using pymatgen
data_Pr2Y3Nb2Co16TcP12
_symmetry_space_group_name_H-M   'P 1'
_cell_length_a   12.25379600
_cell_length_b   12.25379496
_cell_length_c   3.71893100
_cell_angle_alpha   90.00000000
_cell_angle_beta   90.00000000
_cell_angle_gamma   119.99999742
_symmetry_Int_Tables_number   1
_chemical_formula_structural   Pr2Y3Nb2Co16TcP12
_chemical_formula_sum   'Pr2 Y3 Nb2 Co16 Tc1 P12'
_cell_volume   483.60414943
_cell_formula_units_Z   1
loop_
 _symmetry_equiv_pos_site_id
 _symmetry_equiv_pos_as_xyz
  1  'x, y, z'
loop_
 _atom_site_type_symbol
 _atom_site_label
 _atom_site_symmetry_multiplicity
 _atom_site_fract_x
 _atom_site_fract_y
 _atom_site_fract_z
 _atom_site_occupancy
  Pr  Pr0  1  0.333703  0.668038  0.000000  1
  Pr  Pr1  1  0.665667  0.331962  0.000000  1
  Y  Y2  1  0.814031  0.000000  0.500000  1
  Y  Y3  1  0.999606  0.815893  0.500000  1
  Y  Y4  1  0.183712  0.184107  0.500000  1
  Nb  Nb5  1  0.000356  0.443487  0.000000  1
  Nb  Nb6  1  0.556869  0.556513  0.000000  1
  Co  Co7  1  0.280507  0.000000  0.500000  1
  Co  Co8  1  0.999403  0.276517  0.500000  1
  Co  Co9  1  0.722886  0.723483  0.500000  1
  Co  Co10  1  0.627147  0.805681  0.000000  1
  Co  Co11  1  0.198536  0.826711  0.000000  1
  Co  Co12  1  0.176059  0.370439  0.000000  1
  Co  Co13  1  0.371826  0.173289  0.000000  1
  Co  Co14  1  0.805620  0.629561  0.000000  1
  Co  Co15  1  0.821466  0.194319  0.000000  1
  Co  Co16  1  0.519984  0.878027  0.500000  1
  Co  Co17  1  0.125335  0.648271  0.500000  1
  Co  Co18  1  0.354050  0.478245  0.500000  1
  Co  Co19  1  0.477063  0.351729  0.500000  1
  Co  Co20  1  0.875805  0.521755  0.500000  1
  Co  Co21  1  0.641957  0.121973  0.500000  1
  Co  Co22  1  0.001006  0.000000  0.000000  1
  Tc  Tc23  1  0.446506  0.000000  0.000000  1
  P  P24  1  0.178013  0.000000  0.000000  1
  P  P25  1  0.998994  0.176370  0.000000  1
  P  P26  1  0.822624  0.823630  0.000000  1
  P  P27  1  0.525762  0.691463  0.500000  1
  P  P28  1  0.313819  0.839826  0.500000  1
  P  P29  1  0.165009  0.473907  0.500000  1
  P  P30  1  0.473993  0.160174  0.500000  1
  P  P31  1  0.691103  0.526093  0.500000  1
  P  P32  1  0.834299  0.308537  0.500000  1
  P  P33  1  0.637074  0.000000  0.000000  1
  P  P34  1  0.001943  0.643675  0.000000  1
  P  P35  1  0.358268  0.356325  0.000000  1
