# generated using pymatgen
data_PrYU2F15
_symmetry_space_group_name_H-M   'P 1'
_cell_length_a   7.88628201
_cell_length_b   7.78284075
_cell_length_c   7.88628243
_cell_angle_alpha   112.50705054
_cell_angle_beta   113.53914387
_cell_angle_gamma   112.50706004
_symmetry_Int_Tables_number   1
_chemical_formula_structural   PrYU2F15
_chemical_formula_sum   'Pr1 Y1 U2 F15'
_cell_volume   317.55049675
_cell_formula_units_Z   1
loop_
 _symmetry_equiv_pos_site_id
 _symmetry_equiv_pos_as_xyz
  1  'x, y, z'
loop_
 _atom_site_type_symbol
 _atom_site_label
 _atom_site_symmetry_multiplicity
 _atom_site_fract_x
 _atom_site_fract_y
 _atom_site_fract_z
 _atom_site_occupancy
  Pr  Pr0  1  0.495094  0.495358  0.495094  1
  Y  Y1  1  0.852609  0.277085  0.852609  1
  U  U2  1  0.289788  0.854021  0.862386  1
  U  U3  1  0.862386  0.854021  0.289788  1
  F  F4  1  0.606473  0.940128  0.154202  1
  F  F5  1  0.930268  0.134421  0.594100  1
  F  F6  1  0.147008  0.607583  0.929979  1
  F  F7  1  0.929979  0.607583  0.147008  1
  F  F8  1  0.596372  0.585536  0.246589  1
  F  F9  1  0.246589  0.585536  0.596372  1
  F  F10  1  0.604701  0.283149  0.604701  1
  F  F11  1  0.137641  0.135480  0.352932  1
  F  F12  1  0.352932  0.135480  0.137641  1
  F  F13  1  0.157664  0.374938  0.157664  1
  F  F14  1  0.659939  0.675451  0.904667  1
  F  F15  1  0.904667  0.675451  0.659939  1
  F  F16  1  0.664755  0.891399  0.664755  1
  F  F17  1  0.154202  0.940128  0.606473  1
  F  F18  1  0.594100  0.134421  0.930268  1
