# generated using pymatgen
data_Sc2Ta4TiH16
_symmetry_space_group_name_H-M   'P 1'
_cell_length_a   6.18325670
_cell_length_b   6.53428710
_cell_length_c   6.53428685
_cell_angle_alpha   56.47654875
_cell_angle_beta   61.76172495
_cell_angle_gamma   61.76171543
_symmetry_Int_Tables_number   1
_chemical_formula_structural   Sc2Ta4TiH16
_chemical_formula_sum   'Sc2 Ta4 Ti1 H16'
_cell_volume   185.65716638
_cell_formula_units_Z   1
loop_
 _symmetry_equiv_pos_site_id
 _symmetry_equiv_pos_as_xyz
  1  'x, y, z'
loop_
 _atom_site_type_symbol
 _atom_site_label
 _atom_site_symmetry_multiplicity
 _atom_site_fract_x
 _atom_site_fract_y
 _atom_site_fract_z
 _atom_site_occupancy
  Sc  Sc0  1  0.000000  0.500000  0.500000  1
  Sc  Sc1  1  0.500000  0.000000  0.000000  1
  Ta  Ta2  1  0.000000  0.000000  0.500000  1
  Ta  Ta3  1  0.500000  0.000000  0.500000  1
  Ta  Ta4  1  0.500000  0.500000  0.000000  1
  Ta  Ta5  1  0.000000  0.500000  0.000000  1
  Ti  Ti6  1  0.000000  0.000000  0.000000  1
  H  H7  1  0.874240  0.884268  0.367253  1
  H  H8  1  0.874240  0.367253  0.884268  1
  H  H9  1  0.367253  0.874240  0.874240  1
  H  H10  1  0.884268  0.874240  0.874240  1
  H  H11  1  0.125760  0.115732  0.632747  1
  H  H12  1  0.125760  0.632747  0.115732  1
  H  H13  1  0.632747  0.125760  0.125760  1
  H  H14  1  0.115732  0.125760  0.125760  1
  H  H15  1  0.630350  0.603831  0.135469  1
  H  H16  1  0.630350  0.135469  0.603831  1
  H  H17  1  0.135469  0.630350  0.630350  1
  H  H18  1  0.603831  0.630350  0.630350  1
  H  H19  1  0.369650  0.396169  0.864531  1
  H  H20  1  0.369650  0.864531  0.396169  1
  H  H21  1  0.864531  0.369650  0.369650  1
  H  H22  1  0.396169  0.369650  0.369650  1
