# generated using pymatgen
data_TbY15(PaRh4)4
_symmetry_space_group_name_H-M   'P 1'
_cell_length_a   7.39803792
_cell_length_b   7.47030434
_cell_length_c   14.42442400
_cell_angle_alpha   90.21236205
_cell_angle_beta   90.16294926
_cell_angle_gamma   90.32283980
_symmetry_Int_Tables_number   1
_chemical_formula_structural   TbY15(PaRh4)4
_chemical_formula_sum   'Tb1 Y15 Pa4 Rh16'
_cell_volume   797.15297039
_cell_formula_units_Z   1
loop_
 _symmetry_equiv_pos_site_id
 _symmetry_equiv_pos_as_xyz
  1  'x, y, z'
loop_
 _atom_site_type_symbol
 _atom_site_label
 _atom_site_symmetry_multiplicity
 _atom_site_fract_x
 _atom_site_fract_y
 _atom_site_fract_z
 _atom_site_occupancy
  Tb  Tb0  1  0.664893  0.159620  0.620561  1
  Y  Y1  1  0.837178  0.661442  0.120096  1
  Y  Y2  1  0.663561  0.161082  0.880063  1
  Y  Y3  1  0.163585  0.335029  0.620296  1
  Y  Y4  1  0.505442  0.678460  0.594646  1
  Y  Y5  1  0.006373  0.820625  0.904967  1
  Y  Y6  1  0.492846  0.318187  0.092942  1
  Y  Y7  1  0.992869  0.181422  0.408649  1
  Y  Y8  1  0.491542  0.316198  0.408562  1
  Y  Y9  1  0.986467  0.185243  0.088116  1
  Y  Y10  1  0.514637  0.680666  0.907350  1
  Y  Y11  1  0.004392  0.819004  0.595710  1
  Y  Y12  1  0.818182  0.506885  0.747875  1
  Y  Y13  1  0.329510  0.986746  0.749330  1
  Y  Y14  1  0.176215  0.479432  0.247248  1
  Y  Y15  1  0.687888  0.018143  0.249185  1
  Pa  Pa16  1  0.166800  0.341793  0.875885  1
  Pa  Pa17  1  0.335385  0.845770  0.121365  1
  Pa  Pa18  1  0.837668  0.655269  0.377536  1
  Pa  Pa19  1  0.337655  0.840859  0.378809  1
  Rh  Rh20  1  0.680439  0.941923  0.454886  1
  Rh  Rh21  1  0.203353  0.550753  0.035397  1
  Rh  Rh22  1  0.299965  0.046576  0.966840  1
  Rh  Rh23  1  0.815317  0.472236  0.530730  1
  Rh  Rh24  1  0.316309  0.022852  0.531190  1
  Rh  Rh25  1  0.850792  0.461250  0.952983  1
  Rh  Rh26  1  0.655965  0.961837  0.047179  1
  Rh  Rh27  1  0.180146  0.551570  0.454080  1
  Rh  Rh28  1  0.448641  0.378858  0.757347  1
  Rh  Rh29  1  0.971324  0.121029  0.757376  1
  Rh  Rh30  1  0.527641  0.637691  0.253402  1
  Rh  Rh31  1  0.044401  0.863930  0.258724  1
  Rh  Rh32  1  0.702436  0.860138  0.750150  1
  Rh  Rh33  1  0.183224  0.636809  0.754163  1
  Rh  Rh34  1  0.312916  0.120454  0.248959  1
  Rh  Rh35  1  0.794043  0.380215  0.257406  1
