# generated using pymatgen
data_Dy5Er4Sc7(Ga3Co)2
_symmetry_space_group_name_H-M   'P 1'
_cell_length_a   9.58799500
_cell_length_b   9.58799491
_cell_length_c   6.90846400
_cell_angle_alpha   90.00000000
_cell_angle_beta   90.00000000
_cell_angle_gamma   119.99998997
_symmetry_Int_Tables_number   1
_chemical_formula_structural   Dy5Er4Sc7(Ga3Co)2
_chemical_formula_sum   'Dy5 Er4 Sc7 Ga6 Co2'
_cell_volume   550.00643153
_cell_formula_units_Z   1
loop_
 _symmetry_equiv_pos_site_id
 _symmetry_equiv_pos_as_xyz
  1  'x, y, z'
loop_
 _atom_site_type_symbol
 _atom_site_label
 _atom_site_symmetry_multiplicity
 _atom_site_fract_x
 _atom_site_fract_y
 _atom_site_fract_z
 _atom_site_occupancy
  Dy  Dy0  1  0.532758  0.467242  0.713730  1
  Dy  Dy1  1  0.934484  0.467242  0.713730  1
  Dy  Dy2  1  0.532758  0.065516  0.713730  1
  Dy  Dy3  1  0.000000  0.000000  0.230778  1
  Dy  Dy4  1  0.000000  0.000000  0.726823  1
  Er  Er5  1  0.666667  0.333333  0.330466  1
  Er  Er6  1  0.463449  0.536551  0.209624  1
  Er  Er7  1  0.073101  0.536551  0.209624  1
  Er  Er8  1  0.463449  0.926899  0.209624  1
  Sc  Sc9  1  0.175531  0.824469  0.513288  1
  Sc  Sc10  1  0.648937  0.824469  0.513288  1
  Sc  Sc11  1  0.175531  0.351063  0.513288  1
  Sc  Sc12  1  0.825928  0.174072  0.011636  1
  Sc  Sc13  1  0.348143  0.174072  0.011636  1
  Sc  Sc14  1  0.825928  0.651857  0.011636  1
  Sc  Sc15  1  0.333333  0.666667  0.822064  1
  Ga  Ga16  1  0.164221  0.835779  0.949331  1
  Ga  Ga17  1  0.671559  0.835779  0.949331  1
  Ga  Ga18  1  0.164221  0.328441  0.949331  1
  Ga  Ga19  1  0.839458  0.160542  0.453968  1
  Ga  Ga20  1  0.321083  0.160542  0.453968  1
  Ga  Ga21  1  0.839458  0.678917  0.453968  1
  Co  Co22  1  0.333333  0.666667  0.457170  1
  Co  Co23  1  0.666667  0.333333  0.952804  1
