# generated using pymatgen
data_Dy7Y(Si3Rh)4
_symmetry_space_group_name_H-M   'P 1'
_cell_length_a   8.18047300
_cell_length_b   8.18047324
_cell_length_c   7.91511900
_cell_angle_alpha   90.00000000
_cell_angle_beta   90.00000000
_cell_angle_gamma   119.99999498
_symmetry_Int_Tables_number   1
_chemical_formula_structural   Dy7Y(Si3Rh)4
_chemical_formula_sum   'Dy7 Y1 Si12 Rh4'
_cell_volume   458.71711716
_cell_formula_units_Z   1
loop_
 _symmetry_equiv_pos_site_id
 _symmetry_equiv_pos_as_xyz
  1  'x, y, z'
loop_
 _atom_site_type_symbol
 _atom_site_label
 _atom_site_symmetry_multiplicity
 _atom_site_fract_x
 _atom_site_fract_y
 _atom_site_fract_z
 _atom_site_occupancy
  Dy  Dy0  1  0.000000  0.000000  0.750000  1
  Dy  Dy1  1  0.508879  0.491121  0.250000  1
  Dy  Dy2  1  0.508879  0.017759  0.250000  1
  Dy  Dy3  1  0.982241  0.491121  0.250000  1
  Dy  Dy4  1  0.491127  0.508873  0.750000  1
  Dy  Dy5  1  0.491127  0.982254  0.750000  1
  Dy  Dy6  1  0.017746  0.508873  0.750000  1
  Y  Y7  1  0.000000  0.000000  0.250000  1
  Si  Si8  1  0.166880  0.833120  0.499672  1
  Si  Si9  1  0.166880  0.333761  0.499672  1
  Si  Si10  1  0.666239  0.833120  0.499672  1
  Si  Si11  1  0.833121  0.166879  0.500641  1
  Si  Si12  1  0.833121  0.666242  0.500641  1
  Si  Si13  1  0.333758  0.166879  0.500641  1
  Si  Si14  1  0.833121  0.166879  0.999359  1
  Si  Si15  1  0.833121  0.666242  0.999359  1
  Si  Si16  1  0.333758  0.166879  0.999359  1
  Si  Si17  1  0.166880  0.833120  0.000328  1
  Si  Si18  1  0.166880  0.333761  0.000328  1
  Si  Si19  1  0.666239  0.833120  0.000328  1
  Rh  Rh20  1  0.333333  0.666667  0.466983  1
  Rh  Rh21  1  0.666667  0.333333  0.532894  1
  Rh  Rh22  1  0.666667  0.333333  0.967106  1
  Rh  Rh23  1  0.333333  0.666667  0.033017  1
