# generated using pymatgen
data_Ho12Tc2IrOs
_symmetry_space_group_name_H-M   'P 1'
_cell_length_a   6.26481308
_cell_length_b   7.38975210
_cell_length_c   9.09126100
_cell_angle_alpha   90.00000000
_cell_angle_beta   90.00000000
_cell_angle_gamma   90.01847142
_symmetry_Int_Tables_number   1
_chemical_formula_structural   Ho12Tc2IrOs
_chemical_formula_sum   'Ho12 Tc2 Ir1 Os1'
_cell_volume   420.88368444
_cell_formula_units_Z   1
loop_
 _symmetry_equiv_pos_site_id
 _symmetry_equiv_pos_as_xyz
  1  'x, y, z'
loop_
 _atom_site_type_symbol
 _atom_site_label
 _atom_site_symmetry_multiplicity
 _atom_site_fract_x
 _atom_site_fract_y
 _atom_site_fract_z
 _atom_site_occupancy
  Ho  Ho0  1  0.336582  0.675646  0.062860  1
  Ho  Ho1  1  0.165054  0.175831  0.435636  1
  Ho  Ho2  1  0.664547  0.325338  0.561787  1
  Ho  Ho3  1  0.834080  0.822670  0.938192  1
  Ho  Ho4  1  0.664547  0.325338  0.938213  1
  Ho  Ho5  1  0.834080  0.822670  0.561808  1
  Ho  Ho6  1  0.336582  0.675646  0.437140  1
  Ho  Ho7  1  0.165054  0.175831  0.064364  1
  Ho  Ho8  1  0.875701  0.539071  0.250000  1
  Ho  Ho9  1  0.624546  0.039703  0.250000  1
  Ho  Ho10  1  0.132212  0.460775  0.750000  1
  Ho  Ho11  1  0.368033  0.959063  0.750000  1
  Tc  Tc12  1  0.038120  0.884933  0.250000  1
  Tc  Tc13  1  0.460982  0.383928  0.250000  1
  Ir  Ir14  1  0.958645  0.116623  0.750000  1
  Os  Os15  1  0.541235  0.616933  0.750000  1
