# generated using pymatgen
data_NdHo(Co3Si2)2
_symmetry_space_group_name_H-M   'P 1'
_cell_length_a   6.32198694
_cell_length_b   6.32260727
_cell_length_c   6.32198811
_cell_angle_alpha   130.49566582
_cell_angle_beta   113.62221042
_cell_angle_gamma   87.12521708
_symmetry_Int_Tables_number   1
_chemical_formula_structural   NdHo(Co3Si2)2
_chemical_formula_sum   'Nd1 Ho1 Co6 Si4'
_cell_volume   167.87161592
_cell_formula_units_Z   1
loop_
 _symmetry_equiv_pos_site_id
 _symmetry_equiv_pos_as_xyz
  1  'x, y, z'
loop_
 _atom_site_type_symbol
 _atom_site_label
 _atom_site_symmetry_multiplicity
 _atom_site_fract_x
 _atom_site_fract_y
 _atom_site_fract_z
 _atom_site_occupancy
  Nd  Nd0  1  0.749995  0.472094  0.722099  1
  Ho  Ho1  1  0.250003  0.533015  0.283012  1
  Co  Co2  1  0.000447  0.998332  0.498780  1
  Co  Co3  1  0.499552  0.998332  0.997884  1
  Co  Co4  1  0.722119  0.997053  0.722436  1
  Co  Co5  1  0.225377  0.500321  0.722429  1
  Co  Co6  1  0.274617  0.997053  0.274933  1
  Co  Co7  1  0.777892  0.500321  0.274944  1
  Si  Si8  1  0.082771  0.876386  0.793615  1
  Si  Si9  1  0.922095  0.130219  0.208124  1
  Si  Si10  1  0.577900  0.786069  0.208167  1
  Si  Si11  1  0.417230  0.210805  0.793576  1
