# generated using pymatgen
data_AcLa4Pr7(Si7Br3)2
_symmetry_space_group_name_H-M   'P 1'
_cell_length_a   4.13689500
_cell_length_b   11.94802900
_cell_length_c   16.74586300
_cell_angle_alpha   90.00000000
_cell_angle_beta   90.00000000
_cell_angle_gamma   90.00000000
_symmetry_Int_Tables_number   1
_chemical_formula_structural   AcLa4Pr7(Si7Br3)2
_chemical_formula_sum   'Ac1 La4 Pr7 Si14 Br6'
_cell_volume   827.71018639
_cell_formula_units_Z   1
loop_
 _symmetry_equiv_pos_site_id
 _symmetry_equiv_pos_as_xyz
  1  'x, y, z'
loop_
 _atom_site_type_symbol
 _atom_site_label
 _atom_site_symmetry_multiplicity
 _atom_site_fract_x
 _atom_site_fract_y
 _atom_site_fract_z
 _atom_site_occupancy
  Ac  Ac0  1  0.500000  0.335890  0.500000  1
  La  La1  1  0.500000  0.066358  0.880492  1
  La  La2  1  0.000000  0.932094  0.621030  1
  La  La3  1  0.500000  0.066358  0.119508  1
  La  La4  1  0.000000  0.932094  0.378970  1
  Pr  Pr5  1  0.000000  0.655985  0.000000  1
  Pr  Pr6  1  0.500000  0.360941  0.758541  1
  Pr  Pr7  1  0.000000  0.641512  0.744296  1
  Pr  Pr8  1  0.500000  0.360941  0.241459  1
  Pr  Pr9  1  0.000000  0.641512  0.255704  1
  Pr  Pr10  1  0.500000  0.357507  0.000000  1
  Pr  Pr11  1  0.000000  0.642536  0.500000  1
  Si  Si12  1  0.000000  0.154852  0.000000  1
  Si  Si13  1  0.500000  0.845147  0.500000  1
  Si  Si14  1  0.500000  0.566071  0.877029  1
  Si  Si15  1  0.000000  0.437625  0.626266  1
  Si  Si16  1  0.500000  0.566071  0.122971  1
  Si  Si17  1  0.000000  0.437625  0.373734  1
  Si  Si18  1  0.000000  0.255306  0.874411  1
  Si  Si19  1  0.500000  0.745138  0.626131  1
  Si  Si20  1  0.000000  0.255306  0.125589  1
  Si  Si21  1  0.500000  0.745138  0.373869  1
  Si  Si22  1  0.000000  0.458253  0.877155  1
  Si  Si23  1  0.500000  0.543956  0.625051  1
  Si  Si24  1  0.500000  0.543956  0.374949  1
  Si  Si25  1  0.000000  0.458253  0.122845  1
  Br  Br26  1  0.500000  0.110788  0.692046  1
  Br  Br27  1  0.000000  0.890846  0.807680  1
  Br  Br28  1  0.000000  0.130597  0.500000  1
  Br  Br29  1  0.500000  0.859705  0.000000  1
  Br  Br30  1  0.500000  0.110788  0.307954  1
  Br  Br31  1  0.000000  0.890846  0.192320  1
