# generated using pymatgen
data_La2Tb3YOsI10
_symmetry_space_group_name_H-M   'P 1'
_cell_length_a   7.89742852
_cell_length_b   9.96137604
_cell_length_c   9.88138881
_cell_angle_alpha   106.51689910
_cell_angle_beta   95.61896493
_cell_angle_gamma   105.45106919
_symmetry_Int_Tables_number   1
_chemical_formula_structural   La2Tb3YOsI10
_chemical_formula_sum   'La2 Tb3 Y1 Os1 I10'
_cell_volume   705.55078255
_cell_formula_units_Z   1
loop_
 _symmetry_equiv_pos_site_id
 _symmetry_equiv_pos_as_xyz
  1  'x, y, z'
loop_
 _atom_site_type_symbol
 _atom_site_label
 _atom_site_symmetry_multiplicity
 _atom_site_fract_x
 _atom_site_fract_y
 _atom_site_fract_z
 _atom_site_occupancy
  La  La0  1  0.115067  0.043846  0.770015  1
  La  La1  1  0.884782  0.956191  0.229991  1
  Tb  Tb2  1  0.970120  0.289090  0.087385  1
  Tb  Tb3  1  0.029651  0.710861  0.912648  1
  Tb  Tb4  1  0.351942  0.127202  0.166373  1
  Y  Y5  1  0.648003  0.872637  0.833541  1
  Os  Os6  1  0.999961  0.000011  0.000003  1
  I  I7  1  0.345731  0.445441  0.268532  1
  I  I8  1  0.654200  0.554840  0.731528  1
  I  I9  1  0.268144  0.089037  0.454127  1
  I  I10  1  0.731738  0.910917  0.546116  1
  I  I11  1  0.083190  0.378834  0.825626  1
  I  I12  1  0.916749  0.621193  0.174341  1
  I  I13  1  0.448052  0.818274  0.087698  1
  I  I14  1  0.552115  0.181539  0.911987  1
  I  I15  1  0.774565  0.261826  0.340886  1
  I  I16  1  0.225989  0.738261  0.659203  1
