# generated using pymatgen
data_Nd2IrPdO7
_symmetry_space_group_name_H-M   'P 1'
_cell_length_a   7.42491145
_cell_length_b   7.42491053
_cell_length_c   7.44716700
_cell_angle_alpha   59.90079700
_cell_angle_beta   59.90080109
_cell_angle_gamma   59.66913197
_symmetry_Int_Tables_number   1
_chemical_formula_structural   Nd2IrPdO7
_chemical_formula_sum   'Nd4 Ir2 Pd2 O14'
_cell_volume   289.14206495
_cell_formula_units_Z   2
loop_
 _symmetry_equiv_pos_site_id
 _symmetry_equiv_pos_as_xyz
  1  'x, y, z'
loop_
 _atom_site_type_symbol
 _atom_site_label
 _atom_site_symmetry_multiplicity
 _atom_site_fract_x
 _atom_site_fract_y
 _atom_site_fract_z
 _atom_site_occupancy
  Nd  Nd0  1  0.625000  0.125000  0.125000  1
  Nd  Nd1  1  0.125000  0.625000  0.125000  1
  Nd  Nd2  1  0.125000  0.125000  0.625000  1
  Nd  Nd3  1  0.125000  0.125000  0.125000  1
  Ir  Ir4  1  0.625000  0.625000  0.125000  1
  Ir  Ir5  1  0.625000  0.625000  0.625000  1
  Pd  Pd6  1  0.125000  0.625000  0.625000  1
  Pd  Pd7  1  0.625000  0.125000  0.625000  1
  O  O8  1  0.704324  0.704324  0.295676  1
  O  O9  1  0.286909  0.286909  0.713091  1
  O  O10  1  0.705792  0.296155  0.712121  1
  O  O11  1  0.296155  0.705792  0.285932  1
  O  O12  1  0.296155  0.705792  0.712121  1
  O  O13  1  0.705792  0.296155  0.285932  1
  O  O14  1  0.545676  0.545676  0.954324  1
  O  O15  1  0.963091  0.963091  0.536909  1
  O  O16  1  0.544208  0.953845  0.537879  1
  O  O17  1  0.953845  0.544208  0.964068  1
  O  O18  1  0.953845  0.544208  0.537879  1
  O  O19  1  0.544208  0.953845  0.964068  1
  O  O20  1  0.250124  0.250124  0.249876  1
  O  O21  1  0.999876  0.999876  0.000124  1
