# generated using pymatgen
data_HoHf7(V3Si4)4
_symmetry_space_group_name_H-M   'P 1'
_cell_length_a   6.62629909
_cell_length_b   6.62470037
_cell_length_c   12.26429568
_cell_angle_alpha   89.92983073
_cell_angle_beta   89.99823547
_cell_angle_gamma   89.92597818
_symmetry_Int_Tables_number   1
_chemical_formula_structural   HoHf7(V3Si4)4
_chemical_formula_sum   'Ho1 Hf7 V12 Si16'
_cell_volume   538.36795235
_cell_formula_units_Z   1
loop_
 _symmetry_equiv_pos_site_id
 _symmetry_equiv_pos_as_xyz
  1  'x, y, z'
loop_
 _atom_site_type_symbol
 _atom_site_label
 _atom_site_symmetry_multiplicity
 _atom_site_fract_x
 _atom_site_fract_y
 _atom_site_fract_z
 _atom_site_occupancy
  Ho  Ho0  1  0.998376  0.662799  0.029672  1
  Hf  Hf1  1  0.339024  0.998225  0.470425  1
  Hf  Hf2  1  0.501752  0.839330  0.718818  1
  Hf  Hf3  1  0.496930  0.161204  0.221767  1
  Hf  Hf4  1  0.839215  0.502432  0.281100  1
  Hf  Hf5  1  0.161249  0.497506  0.779651  1
  Hf  Hf6  1  0.657481  0.004662  0.968807  1
  Hf  Hf7  1  0.997708  0.339505  0.529927  1
  V  V8  1  0.334517  0.329225  0.999784  1
  V  V9  1  0.168204  0.833728  0.251410  1
  V  V10  1  0.831961  0.167941  0.749007  1
  V  V11  1  0.667929  0.667957  0.500186  1
  V  V12  1  0.161948  0.003283  0.871156  1
  V  V13  1  0.496754  0.658364  0.124641  1
  V  V14  1  0.503385  0.341855  0.622741  1
  V  V15  1  0.658889  0.492470  0.874353  1
  V  V16  1  0.341827  0.503868  0.377740  1
  V  V17  1  0.841025  0.997197  0.374704  1
  V  V18  1  0.005684  0.158410  0.128250  1
  V  V19  1  0.996122  0.841791  0.625347  1
  Si  Si20  1  0.204295  0.127802  0.678106  1
  Si  Si21  1  0.376636  0.703367  0.928040  1
  Si  Si22  1  0.627578  0.295366  0.428817  1
  Si  Si23  1  0.701550  0.368444  0.071277  1
  Si  Si24  1  0.294540  0.627680  0.571520  1
  Si  Si25  1  0.792497  0.876044  0.181875  1
  Si  Si26  1  0.127547  0.205070  0.322468  1
  Si  Si27  1  0.871257  0.797957  0.817782  1
  Si  Si28  1  0.293101  0.961246  0.064933  1
  Si  Si29  1  0.539351  0.790773  0.315661  1
  Si  Si30  1  0.459292  0.209336  0.813126  1
  Si  Si31  1  0.790616  0.539884  0.684773  1
  Si  Si32  1  0.211101  0.458995  0.187201  1
  Si  Si33  1  0.709273  0.041099  0.564633  1
  Si  Si34  1  0.960753  0.285229  0.934855  1
  Si  Si35  1  0.040633  0.709952  0.435447  1
