# generated using pymatgen
data_U4ReTc3C8
_symmetry_space_group_name_H-M   'P 1'
_cell_length_a   3.18802000
_cell_length_b   5.59957795
_cell_length_c   11.02537378
_cell_angle_alpha   90.13617209
_cell_angle_beta   90.00000000
_cell_angle_gamma   90.00000000
_symmetry_Int_Tables_number   1
_chemical_formula_structural   U4ReTc3C8
_chemical_formula_sum   'U4 Re1 Tc3 C8'
_cell_volume   196.81963752
_cell_formula_units_Z   1
loop_
 _symmetry_equiv_pos_site_id
 _symmetry_equiv_pos_as_xyz
  1  'x, y, z'
loop_
 _atom_site_type_symbol
 _atom_site_label
 _atom_site_symmetry_multiplicity
 _atom_site_fract_x
 _atom_site_fract_y
 _atom_site_fract_z
 _atom_site_occupancy
  U  U0  1  0.250000  0.082597  0.859063  1
  U  U1  1  0.250000  0.584473  0.642093  1
  U  U2  1  0.750000  0.916435  0.142062  1
  U  U3  1  0.750000  0.418454  0.358018  1
  Re  Re4  1  0.750000  0.081380  0.602779  1
  Tc  Tc5  1  0.250000  0.416798  0.102933  1
  Tc  Tc6  1  0.250000  0.919562  0.397234  1
  Tc  Tc7  1  0.750000  0.581875  0.896140  1
  C  C8  1  0.250000  0.158609  0.244119  1
  C  C9  1  0.250000  0.659404  0.256222  1
  C  C10  1  0.750000  0.841944  0.755277  1
  C  C11  1  0.750000  0.338664  0.742720  1
  C  C12  1  0.250000  0.741570  0.993000  1
  C  C13  1  0.250000  0.245030  0.507402  1
  C  C14  1  0.750000  0.257064  0.007159  1
  C  C15  1  0.750000  0.756142  0.493778  1
