# generated using pymatgen
data_Zr6Al7Ni16H3
_symmetry_space_group_name_H-M   'P 1'
_cell_length_a   8.30518941
_cell_length_b   8.30519024
_cell_length_c   8.30518963
_cell_angle_alpha   119.86973015
_cell_angle_beta   120.18186831
_cell_angle_gamma   89.95552879
_symmetry_Int_Tables_number   1
_chemical_formula_structural   Zr6Al7Ni16H3
_chemical_formula_sum   'Zr6 Al7 Ni16 H3'
_cell_volume   404.91152206
_cell_formula_units_Z   1
loop_
 _symmetry_equiv_pos_site_id
 _symmetry_equiv_pos_as_xyz
  1  'x, y, z'
loop_
 _atom_site_type_symbol
 _atom_site_label
 _atom_site_symmetry_multiplicity
 _atom_site_fract_x
 _atom_site_fract_y
 _atom_site_fract_z
 _atom_site_occupancy
  Zr  Zr0  1  0.795694  0.213880  0.004232  1
  Zr  Zr1  1  0.795694  0.791463  0.581814  1
  Zr  Zr2  1  0.779240  0.779240  0.000000  1
  Zr  Zr3  1  0.209648  0.791463  0.995768  1
  Zr  Zr4  1  0.209648  0.213880  0.418186  1
  Zr  Zr5  1  0.212645  0.212645  0.000000  1
  Al  Al6  1  0.499004  0.497293  0.496636  1
  Al  Al7  1  0.499004  0.002369  0.001711  1
  Al  Al8  1  0.499731  0.999731  0.500000  1
  Al  Al9  1  0.000657  0.002369  0.503364  1
  Al  Al10  1  0.000657  0.497293  0.998289  1
  Al  Al11  1  0.998236  0.498236  0.500000  1
  Al  Al12  1  0.499515  0.499515  0.000000  1
  Ni  Ni13  1  0.483009  0.826640  0.656369  1
  Ni  Ni14  1  0.170272  0.826640  0.343631  1
  Ni  Ni15  1  0.168767  0.830209  0.661442  1
  Ni  Ni16  1  0.168767  0.507324  0.338558  1
  Ni  Ni17  1  0.509898  0.169402  0.340497  1
  Ni  Ni18  1  0.828905  0.169402  0.659503  1
  Ni  Ni19  1  0.830241  0.166736  0.336495  1
  Ni  Ni20  1  0.830241  0.493747  0.663505  1
  Ni  Ni21  1  0.860587  0.618424  0.242163  1
  Ni  Ni22  1  0.376261  0.618424  0.757837  1
  Ni  Ni23  1  0.380265  0.619924  0.239659  1
  Ni  Ni24  1  0.380265  0.140608  0.760341  1
  Ni  Ni25  1  0.139067  0.380582  0.758485  1
  Ni  Ni26  1  0.622097  0.380582  0.241515  1
  Ni  Ni27  1  0.618553  0.377826  0.759274  1
  Ni  Ni28  1  0.618553  0.859278  0.240726  1
  H  H29  1  0.027427  0.027427  0.000000  1
  H  H30  1  0.717245  0.903624  0.813622  1
  H  H31  1  0.090002  0.903624  0.186378  1
