# generated using pymatgen
data_Sm5Co11(As3Ru2)4
_symmetry_space_group_name_H-M   'P 1'
_cell_length_a   12.73101507
_cell_length_b   12.74473670
_cell_length_c   3.87857000
_cell_angle_alpha   90.00000000
_cell_angle_beta   90.00000000
_cell_angle_gamma   119.99175830
_symmetry_Int_Tables_number   1
_chemical_formula_structural   Sm5Co11(As3Ru2)4
_chemical_formula_sum   'Sm5 Co11 As12 Ru8'
_cell_volume   545.04483320
_cell_formula_units_Z   1
loop_
 _symmetry_equiv_pos_site_id
 _symmetry_equiv_pos_as_xyz
  1  'x, y, z'
loop_
 _atom_site_type_symbol
 _atom_site_label
 _atom_site_symmetry_multiplicity
 _atom_site_fract_x
 _atom_site_fract_y
 _atom_site_fract_z
 _atom_site_occupancy
  Sm  Sm0  1  0.666725  0.333264  0.000000  1
  Sm  Sm1  1  0.330639  0.664514  0.000000  1
  Sm  Sm2  1  0.818122  0.817815  0.500000  1
  Sm  Sm3  1  0.181499  0.000647  0.500000  1
  Sm  Sm4  1  0.999663  0.182230  0.500000  1
  Co  Co5  1  0.125887  0.479754  0.500000  1
  Co  Co6  1  0.803011  0.173649  0.000000  1
  Co  Co7  1  0.827842  0.628258  0.000000  1
  Co  Co8  1  0.370069  0.198275  0.000000  1
  Co  Co9  1  0.173203  0.801314  0.000000  1
  Co  Co10  1  0.628666  0.826774  0.000000  1
  Co  Co11  1  0.196930  0.373530  0.000000  1
  Co  Co12  1  0.280157  0.282051  0.500000  1
  Co  Co13  1  0.718984  0.000004  0.500000  1
  Co  Co14  1  0.001099  0.718284  0.500000  1
  Co  Co15  1  0.000155  0.999434  0.000000  1
  As  As16  1  0.685377  0.161214  0.500000  1
  As  As17  1  0.841225  0.523536  0.500000  1
  As  As18  1  0.475522  0.317095  0.500000  1
  As  As19  1  0.159017  0.679094  0.500000  1
  As  As20  1  0.523267  0.840092  0.500000  1
  As  As21  1  0.310619  0.475986  0.500000  1
  As  As22  1  0.178293  0.179906  0.000000  1
  As  As23  1  0.821006  0.999745  0.000000  1
  As  As24  1  0.000237  0.820355  0.000000  1
  As  As25  1  0.637407  0.638161  0.000000  1
  As  As26  1  0.361218  0.999864  0.000000  1
  As  As27  1  0.005141  0.364092  0.000000  1
  Ru  Ru28  1  0.878470  0.354510  0.500000  1
  Ru  Ru29  1  0.647726  0.520969  0.500000  1
  Ru  Ru30  1  0.479892  0.127258  0.500000  1
  Ru  Ru31  1  0.351452  0.871759  0.500000  1
  Ru  Ru32  1  0.516948  0.645585  0.500000  1
  Ru  Ru33  1  0.443260  0.444324  0.000000  1
  Ru  Ru34  1  0.555914  0.000098  0.000000  1
  Ru  Ru35  1  0.005356  0.556561  0.000000  1
