# generated using pymatgen
data_TbDyHo3CoBi2
_symmetry_space_group_name_H-M   'P 1'
_cell_length_a   8.01063800
_cell_length_b   8.90406600
_cell_length_c   12.41374600
_cell_angle_alpha   90.00000000
_cell_angle_beta   90.00000000
_cell_angle_gamma   90.00000000
_symmetry_Int_Tables_number   1
_chemical_formula_structural   TbDyHo3CoBi2
_chemical_formula_sum   'Tb4 Dy4 Ho12 Co4 Bi8'
_cell_volume   885.43835760
_cell_formula_units_Z   4
loop_
 _symmetry_equiv_pos_site_id
 _symmetry_equiv_pos_as_xyz
  1  'x, y, z'
loop_
 _atom_site_type_symbol
 _atom_site_label
 _atom_site_symmetry_multiplicity
 _atom_site_fract_x
 _atom_site_fract_y
 _atom_site_fract_z
 _atom_site_occupancy
  Tb  Tb0  1  0.884237  0.750000  0.810330  1
  Tb  Tb1  1  0.115763  0.250000  0.189670  1
  Tb  Tb2  1  0.384237  0.250000  0.689670  1
  Tb  Tb3  1  0.615763  0.750000  0.310330  1
  Dy  Dy4  1  0.347119  0.750000  0.699475  1
  Dy  Dy5  1  0.652881  0.250000  0.300525  1
  Dy  Dy6  1  0.847119  0.250000  0.800525  1
  Dy  Dy7  1  0.152881  0.750000  0.199475  1
  Ho  Ho8  1  0.675411  0.537662  0.562939  1
  Ho  Ho9  1  0.324589  0.462338  0.437061  1
  Ho  Ho10  1  0.175411  0.462338  0.937061  1
  Ho  Ho11  1  0.324589  0.037662  0.437061  1
  Ho  Ho12  1  0.824589  0.537662  0.062939  1
  Ho  Ho13  1  0.675411  0.962338  0.562939  1
  Ho  Ho14  1  0.824589  0.962338  0.062939  1
  Ho  Ho15  1  0.175411  0.037662  0.937061  1
  Ho  Ho16  1  0.052679  0.750000  0.497701  1
  Ho  Ho17  1  0.947321  0.250000  0.502299  1
  Ho  Ho18  1  0.552679  0.250000  0.002299  1
  Ho  Ho19  1  0.447321  0.750000  0.997701  1
  Co  Co20  1  0.065512  0.750000  0.991889  1
  Co  Co21  1  0.934488  0.250000  0.008111  1
  Co  Co22  1  0.565512  0.250000  0.508111  1
  Co  Co23  1  0.434488  0.750000  0.491889  1
  Bi  Bi24  1  0.571658  0.509355  0.827247  1
  Bi  Bi25  1  0.428342  0.490645  0.172753  1
  Bi  Bi26  1  0.071658  0.490645  0.672753  1
  Bi  Bi27  1  0.428342  0.009355  0.172753  1
  Bi  Bi28  1  0.928342  0.509355  0.327247  1
  Bi  Bi29  1  0.571658  0.990645  0.827247  1
  Bi  Bi30  1  0.928342  0.990645  0.327247  1
  Bi  Bi31  1  0.071658  0.009355  0.672753  1
