# generated using pymatgen
data_Mn(OsBr6)2
_symmetry_space_group_name_H-M   'P 1'
_cell_length_a   9.29057631
_cell_length_b   9.29057532
_cell_length_c   7.02867289
_cell_angle_alpha   71.25240030
_cell_angle_beta   71.25239105
_cell_angle_gamma   80.89781960
_symmetry_Int_Tables_number   1
_chemical_formula_structural   Mn(OsBr6)2
_chemical_formula_sum   'Mn1 Os2 Br12'
_cell_volume   542.98942448
_cell_formula_units_Z   1
loop_
 _symmetry_equiv_pos_site_id
 _symmetry_equiv_pos_as_xyz
  1  'x, y, z'
loop_
 _atom_site_type_symbol
 _atom_site_label
 _atom_site_symmetry_multiplicity
 _atom_site_fract_x
 _atom_site_fract_y
 _atom_site_fract_z
 _atom_site_occupancy
  Mn  Mn0  1  0.000000  0.000000  0.000000  1
  Os  Os1  1  0.255671  0.255671  0.749818  1
  Os  Os2  1  0.744329  0.744329  0.250182  1
  Br  Br3  1  0.980692  0.268403  0.734658  1
  Br  Br4  1  0.268403  0.980692  0.734658  1
  Br  Br5  1  0.019308  0.731597  0.265342  1
  Br  Br6  1  0.731597  0.019308  0.265342  1
  Br  Br7  1  0.213962  0.508366  0.794296  1
  Br  Br8  1  0.508366  0.213962  0.794296  1
  Br  Br9  1  0.786038  0.491634  0.205704  1
  Br  Br10  1  0.491634  0.786038  0.205704  1
  Br  Br11  1  0.139789  0.139789  0.147453  1
  Br  Br12  1  0.860211  0.860211  0.852547  1
  Br  Br13  1  0.654801  0.654801  0.629026  1
  Br  Br14  1  0.345199  0.345199  0.370974  1
