# generated using pymatgen
data_Hf18FeMo8S
_symmetry_space_group_name_H-M   'P 1'
_cell_length_a   8.66808400
_cell_length_b   8.66808355
_cell_length_c   8.55595400
_cell_angle_alpha   90.00000000
_cell_angle_beta   90.00000000
_cell_angle_gamma   119.99999410
_symmetry_Int_Tables_number   1
_chemical_formula_structural   Hf18FeMo8S
_chemical_formula_sum   'Hf18 Fe1 Mo8 S1'
_cell_volume   556.73086403
_cell_formula_units_Z   1
loop_
 _symmetry_equiv_pos_site_id
 _symmetry_equiv_pos_as_xyz
  1  'x, y, z'
loop_
 _atom_site_type_symbol
 _atom_site_label
 _atom_site_symmetry_multiplicity
 _atom_site_fract_x
 _atom_site_fract_y
 _atom_site_fract_z
 _atom_site_occupancy
  Hf  Hf0  1  0.202809  0.797191  0.442315  1
  Hf  Hf1  1  0.202809  0.405618  0.442315  1
  Hf  Hf2  1  0.594382  0.797191  0.442315  1
  Hf  Hf3  1  0.803310  0.196690  0.549966  1
  Hf  Hf4  1  0.803310  0.606619  0.549966  1
  Hf  Hf5  1  0.393381  0.196690  0.549966  1
  Hf  Hf6  1  0.803310  0.196690  0.950034  1
  Hf  Hf7  1  0.803310  0.606619  0.950034  1
  Hf  Hf8  1  0.393381  0.196690  0.950034  1
  Hf  Hf9  1  0.202809  0.797191  0.057685  1
  Hf  Hf10  1  0.202809  0.405618  0.057685  1
  Hf  Hf11  1  0.594382  0.797191  0.057685  1
  Hf  Hf12  1  0.540777  0.459223  0.250000  1
  Hf  Hf13  1  0.540777  0.081555  0.250000  1
  Hf  Hf14  1  0.918445  0.459223  0.250000  1
  Hf  Hf15  1  0.455652  0.544348  0.750000  1
  Hf  Hf16  1  0.455652  0.911304  0.750000  1
  Hf  Hf17  1  0.088696  0.544348  0.750000  1
  Fe  Fe18  1  0.333333  0.666667  0.250000  1
  Mo  Mo19  1  0.887967  0.112033  0.250000  1
  Mo  Mo20  1  0.887967  0.775932  0.250000  1
  Mo  Mo21  1  0.224068  0.112033  0.250000  1
  Mo  Mo22  1  0.111234  0.888766  0.750000  1
  Mo  Mo23  1  0.111234  0.222468  0.750000  1
  Mo  Mo24  1  0.777532  0.888766  0.750000  1
  Mo  Mo25  1  0.000000  0.000000  0.498162  1
  Mo  Mo26  1  0.000000  0.000000  0.001838  1
  S  S27  1  0.666667  0.333333  0.750000  1
