# generated using pymatgen
data_CaMgIn3Ir
_symmetry_space_group_name_H-M   'P 1'
_cell_length_a   4.30821600
_cell_length_b   7.58134000
_cell_length_c   8.54933800
_cell_angle_alpha   90.00000000
_cell_angle_beta   90.00000000
_cell_angle_gamma   90.00000000
_symmetry_Int_Tables_number   1
_chemical_formula_structural   CaMgIn3Ir
_chemical_formula_sum   'Ca2 Mg2 In6 Ir2'
_cell_volume   279.23890770
_cell_formula_units_Z   2
loop_
 _symmetry_equiv_pos_site_id
 _symmetry_equiv_pos_as_xyz
  1  'x, y, z'
loop_
 _atom_site_type_symbol
 _atom_site_label
 _atom_site_symmetry_multiplicity
 _atom_site_fract_x
 _atom_site_fract_y
 _atom_site_fract_z
 _atom_site_occupancy
  Ca  Ca0  1  0.000000  0.402118  0.250000  1
  Ca  Ca1  1  0.000000  0.597882  0.750000  1
  Mg  Mg2  1  0.000000  0.000000  0.000000  1
  Mg  Mg3  1  0.000000  0.000000  0.500000  1
  In  In4  1  0.500000  0.310578  0.563958  1
  In  In5  1  0.500000  0.058218  0.250000  1
  In  In6  1  0.500000  0.941782  0.750000  1
  In  In7  1  0.500000  0.310578  0.936042  1
  In  In8  1  0.500000  0.689422  0.063958  1
  In  In9  1  0.500000  0.689422  0.436042  1
  Ir  Ir10  1  0.000000  0.801684  0.250000  1
  Ir  Ir11  1  0.000000  0.198316  0.750000  1
