# generated using pymatgen
data_TbB2IrOs
_symmetry_space_group_name_H-M   'P 1'
_cell_length_a   6.83773592
_cell_length_b   6.02201431
_cell_length_c   5.56662144
_cell_angle_alpha   72.19811298
_cell_angle_beta   56.98568861
_cell_angle_gamma   50.81621489
_symmetry_Int_Tables_number   1
_chemical_formula_structural   TbB2IrOs
_chemical_formula_sum   'Tb2 B4 Ir2 Os2'
_cell_volume   148.72149726
_cell_formula_units_Z   2
loop_
 _symmetry_equiv_pos_site_id
 _symmetry_equiv_pos_as_xyz
  1  'x, y, z'
loop_
 _atom_site_type_symbol
 _atom_site_label
 _atom_site_symmetry_multiplicity
 _atom_site_fract_x
 _atom_site_fract_y
 _atom_site_fract_z
 _atom_site_occupancy
  Tb  Tb0  1  0.500000  0.500000  0.500000  1
  Tb  Tb1  1  0.750000  0.750000  0.750000  1
  B  B2  1  0.179123  0.820877  0.179123  1
  B  B3  1  0.058923  0.441077  0.058923  1
  B  B4  1  0.820877  0.179122  0.820877  1
  B  B5  1  0.441077  0.058923  0.441077  1
  Ir  Ir6  1  0.384809  0.384809  0.115191  1
  Ir  Ir7  1  0.115191  0.115191  0.384809  1
  Os  Os8  1  0.864387  0.864387  0.135613  1
  Os  Os9  1  0.135613  0.135613  0.864387  1
