# generated using pymatgen
data_Ca9Nd11Pb16
_symmetry_space_group_name_H-M   'P 1'
_cell_length_a   8.13106817
_cell_length_b   8.66781874
_cell_length_c   16.31378050
_cell_angle_alpha   89.96091197
_cell_angle_beta   89.86827502
_cell_angle_gamma   90.02661869
_symmetry_Int_Tables_number   1
_chemical_formula_structural   Ca9Nd11Pb16
_chemical_formula_sum   'Ca9 Nd11 Pb16'
_cell_volume   1149.76938702
_cell_formula_units_Z   1
loop_
 _symmetry_equiv_pos_site_id
 _symmetry_equiv_pos_as_xyz
  1  'x, y, z'
loop_
 _atom_site_type_symbol
 _atom_site_label
 _atom_site_symmetry_multiplicity
 _atom_site_fract_x
 _atom_site_fract_y
 _atom_site_fract_z
 _atom_site_occupancy
  Ca  Ca0  1  0.669386  0.164260  0.621867  1
  Ca  Ca1  1  0.169169  0.335690  0.877368  1
  Ca  Ca2  1  0.332002  0.834970  0.122738  1
  Ca  Ca3  1  0.829154  0.664672  0.376845  1
  Ca  Ca4  1  0.333828  0.833384  0.376896  1
  Ca  Ca5  1  0.835706  0.501273  0.749924  1
  Ca  Ca6  1  0.336323  0.999173  0.749872  1
  Ca  Ca7  1  0.164050  0.500697  0.251320  1
  Ca  Ca8  1  0.663663  0.999607  0.251050  1
  Nd  Nd9  1  0.835939  0.670450  0.125055  1
  Nd  Nd10  1  0.665804  0.170237  0.876254  1
  Nd  Nd11  1  0.165723  0.331239  0.623651  1
  Nd  Nd12  1  0.503703  0.688598  0.593529  1
  Nd  Nd13  1  0.004953  0.813428  0.905264  1
  Nd  Nd14  1  0.493719  0.312780  0.094532  1
  Nd  Nd15  1  0.995172  0.187062  0.403955  1
  Nd  Nd16  1  0.495771  0.312224  0.405776  1
  Nd  Nd17  1  0.999798  0.185309  0.095285  1
  Nd  Nd18  1  0.502603  0.685365  0.906250  1
  Nd  Nd19  1  0.003462  0.813982  0.594390  1
  Pb  Pb20  1  0.680407  0.962038  0.458926  1
  Pb  Pb21  1  0.181663  0.537678  0.040932  1
  Pb  Pb22  1  0.318766  0.037450  0.958962  1
  Pb  Pb23  1  0.819384  0.463590  0.540728  1
  Pb  Pb24  1  0.321538  0.036821  0.539155  1
  Pb  Pb25  1  0.820083  0.462712  0.961359  1
  Pb  Pb26  1  0.681432  0.962788  0.039884  1
  Pb  Pb27  1  0.177521  0.537069  0.459530  1
  Pb  Pb28  1  0.469547  0.391592  0.748221  1
  Pb  Pb29  1  0.970301  0.106161  0.750717  1
  Pb  Pb30  1  0.529374  0.604616  0.248850  1
  Pb  Pb31  1  0.031421  0.891845  0.251134  1
  Pb  Pb32  1  0.703668  0.852386  0.751288  1
  Pb  Pb33  1  0.205072  0.647923  0.749474  1
  Pb  Pb34  1  0.295088  0.148227  0.250250  1
  Pb  Pb35  1  0.794812  0.352703  0.248769  1
