# generated using pymatgen
data_LaNd2Ni2Ir7
_symmetry_space_group_name_H-M   'P 1'
_cell_length_a   9.08948442
_cell_length_b   9.08948516
_cell_length_c   9.08948420
_cell_angle_alpha   34.38285687
_cell_angle_beta   34.38285060
_cell_angle_gamma   34.38286029
_symmetry_Int_Tables_number   1
_chemical_formula_structural   LaNd2Ni2Ir7
_chemical_formula_sum   'La1 Nd2 Ni2 Ir7'
_cell_volume   213.61088743
_cell_formula_units_Z   1
loop_
 _symmetry_equiv_pos_site_id
 _symmetry_equiv_pos_as_xyz
  1  'x, y, z'
loop_
 _atom_site_type_symbol
 _atom_site_label
 _atom_site_symmetry_multiplicity
 _atom_site_fract_x
 _atom_site_fract_y
 _atom_site_fract_z
 _atom_site_occupancy
  La  La0  1  0.000000  0.000000  0.000000  1
  Nd  Nd1  1  0.859885  0.859885  0.859885  1
  Nd  Nd2  1  0.140115  0.140115  0.140115  1
  Ni  Ni3  1  0.666848  0.666848  0.666848  1
  Ni  Ni4  1  0.333152  0.333152  0.333152  1
  Ir  Ir5  1  0.420545  0.921546  0.420545  1
  Ir  Ir6  1  0.420545  0.420545  0.921546  1
  Ir  Ir7  1  0.921546  0.420545  0.420545  1
  Ir  Ir8  1  0.579455  0.078454  0.579455  1
  Ir  Ir9  1  0.579455  0.579455  0.078454  1
  Ir  Ir10  1  0.078454  0.579455  0.579455  1
  Ir  Ir11  1  0.500000  0.500000  0.500000  1
