# generated using pymatgen
data_KHoTm2F10
_symmetry_space_group_name_H-M   'P 1'
_cell_length_a   8.17437344
_cell_length_b   8.17437363
_cell_length_c   8.13420600
_cell_angle_alpha   60.16241608
_cell_angle_beta   60.16241534
_cell_angle_gamma   59.67516591
_symmetry_Int_Tables_number   1
_chemical_formula_structural   KHoTm2F10
_chemical_formula_sum   'K2 Ho2 Tm4 F20'
_cell_volume   384.31580711
_cell_formula_units_Z   2
loop_
 _symmetry_equiv_pos_site_id
 _symmetry_equiv_pos_as_xyz
  1  'x, y, z'
loop_
 _atom_site_type_symbol
 _atom_site_label
 _atom_site_symmetry_multiplicity
 _atom_site_fract_x
 _atom_site_fract_y
 _atom_site_fract_z
 _atom_site_occupancy
  K  K0  1  0.250000  0.250000  0.250000  1
  K  K1  1  0.750000  0.750000  0.750000  1
  Ho  Ho2  1  0.240855  0.240855  0.759145  1
  Ho  Ho3  1  0.759145  0.759145  0.240855  1
  Tm  Tm4  1  0.759447  0.240553  0.240553  1
  Tm  Tm5  1  0.240553  0.759447  0.759447  1
  Tm  Tm6  1  0.240553  0.759447  0.240553  1
  Tm  Tm7  1  0.759447  0.240553  0.759447  1
  F  F8  1  0.830356  0.497516  0.502484  1
  F  F9  1  0.169644  0.502484  0.497516  1
  F  F10  1  0.497516  0.830356  0.169644  1
  F  F11  1  0.502484  0.169644  0.830356  1
  F  F12  1  0.497516  0.830356  0.502484  1
  F  F13  1  0.169644  0.502484  0.830356  1
  F  F14  1  0.502484  0.169644  0.497516  1
  F  F15  1  0.830356  0.497516  0.169644  1
  F  F16  1  0.500000  0.500000  0.828555  1
  F  F17  1  0.500000  0.500000  0.171445  1
  F  F18  1  0.171445  0.828555  0.500000  1
  F  F19  1  0.828555  0.171445  0.500000  1
  F  F20  1  0.110547  0.110547  0.113893  1
  F  F21  1  0.889453  0.889453  0.886107  1
  F  F22  1  0.110547  0.110547  0.665014  1
  F  F23  1  0.113893  0.665014  0.110547  1
  F  F24  1  0.889453  0.889453  0.334986  1
  F  F25  1  0.886107  0.334986  0.889453  1
  F  F26  1  0.665014  0.113893  0.110547  1
  F  F27  1  0.334986  0.886107  0.889453  1
