# generated using pymatgen
data_Nd2Ho3Er(IrO7)2
_symmetry_space_group_name_H-M   'P 1'
_cell_length_a   6.44112658
_cell_length_b   6.44122326
_cell_length_c   7.47526500
_cell_angle_alpha   90.00000000
_cell_angle_beta   90.00000000
_cell_angle_gamma   109.63975516
_symmetry_Int_Tables_number   1
_chemical_formula_structural   Nd2Ho3Er(IrO7)2
_chemical_formula_sum   'Nd2 Ho3 Er1 Ir2 O14'
_cell_volume   292.09676675
_cell_formula_units_Z   1
loop_
 _symmetry_equiv_pos_site_id
 _symmetry_equiv_pos_as_xyz
  1  'x, y, z'
loop_
 _atom_site_type_symbol
 _atom_site_label
 _atom_site_symmetry_multiplicity
 _atom_site_fract_x
 _atom_site_fract_y
 _atom_site_fract_z
 _atom_site_occupancy
  Nd  Nd0  1  0.002330  0.001853  0.000562  1
  Nd  Nd1  1  0.002330  0.001853  0.499438  1
  Ho  Ho2  1  0.485371  0.939524  0.750000  1
  Ho  Ho3  1  0.514691  0.062658  0.250000  1
  Ho  Ho4  1  0.939627  0.485067  0.750000  1
  Er  Er5  1  0.061715  0.513717  0.250000  1
  Ir  Ir6  1  0.500930  0.501142  0.000495  1
  Ir  Ir7  1  0.500930  0.501142  0.499505  1
  O  O8  1  0.587900  0.588044  0.750000  1
  O  O9  1  0.403555  0.406118  0.250000  1
  O  O10  1  0.840632  0.121426  0.750000  1
  O  O11  1  0.160200  0.876327  0.250000  1
  O  O12  1  0.121502  0.840090  0.750000  1
  O  O13  1  0.878824  0.160567  0.250000  1
  O  O14  1  0.438050  0.178819  0.966379  1
  O  O15  1  0.561977  0.821685  0.465656  1
  O  O16  1  0.178831  0.439823  0.966999  1
  O  O17  1  0.820873  0.559908  0.464807  1
  O  O18  1  0.438050  0.178819  0.533621  1
  O  O19  1  0.561977  0.821685  0.034344  1
  O  O20  1  0.820873  0.559908  0.035193  1
  O  O21  1  0.178831  0.439823  0.533001  1
