# generated using pymatgen
data_TbIO4
_symmetry_space_group_name_H-M   'P 1'
_cell_length_a   5.01916598
_cell_length_b   5.01916551
_cell_length_c   7.27894000
_cell_angle_alpha   90.00000000
_cell_angle_beta   90.00000000
_cell_angle_gamma   85.71467449
_symmetry_Int_Tables_number   1
_chemical_formula_structural   TbIO4
_chemical_formula_sum   'Tb2 I2 O8'
_cell_volume   182.85858678
_cell_formula_units_Z   2
loop_
 _symmetry_equiv_pos_site_id
 _symmetry_equiv_pos_as_xyz
  1  'x, y, z'
loop_
 _atom_site_type_symbol
 _atom_site_label
 _atom_site_symmetry_multiplicity
 _atom_site_fract_x
 _atom_site_fract_y
 _atom_site_fract_z
 _atom_site_occupancy
  Tb  Tb0  1  0.000000  0.000000  0.000000  1
  Tb  Tb1  1  0.000000  0.000000  0.500000  1
  I  I2  1  0.528181  0.528181  0.250001  1
  I  I3  1  0.471819  0.471819  0.750001  1
  O  O4  1  0.829758  0.236427  0.250001  1
  O  O5  1  0.236427  0.829758  0.250001  1
  O  O6  1  0.763572  0.170241  0.750001  1
  O  O7  1  0.170241  0.763572  0.750001  1
  O  O8  1  0.689485  0.689485  0.052610  1
  O  O9  1  0.689485  0.689485  0.447390  1
  O  O10  1  0.310515  0.310515  0.552610  1
  O  O11  1  0.310515  0.310515  0.947390  1
