# generated using pymatgen
data_BaEu5(Hg2Pb)6
_symmetry_space_group_name_H-M   'P 1'
_cell_length_a   5.33994603
_cell_length_b   7.76736500
_cell_length_c   16.21119800
_cell_angle_alpha   90.00000000
_cell_angle_beta   90.00604080
_cell_angle_gamma   90.00000000
_symmetry_Int_Tables_number   1
_chemical_formula_structural   BaEu5(Hg2Pb)6
_chemical_formula_sum   'Ba1 Eu5 Hg12 Pb6'
_cell_volume   672.39687944
_cell_formula_units_Z   1
loop_
 _symmetry_equiv_pos_site_id
 _symmetry_equiv_pos_as_xyz
  1  'x, y, z'
loop_
 _atom_site_type_symbol
 _atom_site_label
 _atom_site_symmetry_multiplicity
 _atom_site_fract_x
 _atom_site_fract_y
 _atom_site_fract_z
 _atom_site_occupancy
  Ba  Ba0  1  0.500057  0.500000  0.833507  1
  Eu  Eu1  1  0.000016  0.000000  0.001575  1
  Eu  Eu2  1  0.499915  0.500000  0.166848  1
  Eu  Eu3  1  0.999893  0.000000  0.333554  1
  Eu  Eu4  1  0.499999  0.500000  0.499629  1
  Eu  Eu5  1  0.000088  0.000000  0.664883  1
  Hg  Hg6  1  0.499997  0.244248  0.005935  1
  Hg  Hg7  1  0.499997  0.755752  0.005935  1
  Hg  Hg8  1  0.999910  0.249111  0.167568  1
  Hg  Hg9  1  0.999910  0.750889  0.167568  1
  Hg  Hg10  1  0.499915  0.252558  0.333266  1
  Hg  Hg11  1  0.499915  0.747442  0.333266  1
  Hg  Hg12  1  0.999999  0.249476  0.499190  1
  Hg  Hg13  1  0.999999  0.750525  0.499190  1
  Hg  Hg14  1  0.500096  0.244507  0.660819  1
  Hg  Hg15  1  0.500096  0.755493  0.660819  1
  Hg  Hg16  1  0.000075  0.235950  0.833239  1
  Hg  Hg17  1  0.000075  0.764050  0.833239  1
  Pb  Pb18  1  0.999995  0.500000  0.002953  1
  Pb  Pb19  1  0.499884  0.000000  0.169679  1
  Pb  Pb20  1  0.999965  0.500000  0.333136  1
  Pb  Pb21  1  0.499999  0.000000  0.497206  1
  Pb  Pb22  1  0.000056  0.500000  0.663934  1
  Pb  Pb23  1  0.500146  0.000000  0.833065  1
