# generated using pymatgen
data_TmThNi2Hg
_symmetry_space_group_name_H-M   'P 1'
_cell_length_a   7.52288300
_cell_length_b   7.43415200
_cell_length_c   3.62952400
_cell_angle_alpha   90.00000000
_cell_angle_beta   90.00000000
_cell_angle_gamma   90.00000000
_symmetry_Int_Tables_number   1
_chemical_formula_structural   TmThNi2Hg
_chemical_formula_sum   'Tm2 Th2 Ni4 Hg2'
_cell_volume   202.98568729
_cell_formula_units_Z   2
loop_
 _symmetry_equiv_pos_site_id
 _symmetry_equiv_pos_as_xyz
  1  'x, y, z'
loop_
 _atom_site_type_symbol
 _atom_site_label
 _atom_site_symmetry_multiplicity
 _atom_site_fract_x
 _atom_site_fract_y
 _atom_site_fract_z
 _atom_site_occupancy
  Tm  Tm0  1  0.173723  0.675755  0.499999  1
  Tm  Tm1  1  0.673724  0.824245  0.499999  1
  Th  Th2  1  0.324651  0.169876  0.499999  1
  Th  Th3  1  0.824651  0.330123  0.499999  1
  Ni  Ni4  1  0.623508  0.124911  0.000000  1
  Ni  Ni5  1  0.123509  0.375090  0.000000  1
  Ni  Ni6  1  0.882597  0.614183  0.000000  1
  Ni  Ni7  1  0.382597  0.885817  0.000000  1
  Hg  Hg8  1  0.995519  0.984179  0.000000  1
  Hg  Hg9  1  0.495519  0.515821  0.000000  1
