# generated using pymatgen
data_Yb2YAl3Ge2Pt
_symmetry_space_group_name_H-M   'P 1'
_cell_length_a   6.99198157
_cell_length_b   6.99198184
_cell_length_c   4.27747300
_cell_angle_alpha   90.00000000
_cell_angle_beta   90.00000000
_cell_angle_gamma   120.36032839
_symmetry_Int_Tables_number   1
_chemical_formula_structural   Yb2YAl3Ge2Pt
_chemical_formula_sum   'Yb2 Y1 Al3 Ge2 Pt1'
_cell_volume   180.43887585
_cell_formula_units_Z   1
loop_
 _symmetry_equiv_pos_site_id
 _symmetry_equiv_pos_as_xyz
  1  'x, y, z'
loop_
 _atom_site_type_symbol
 _atom_site_label
 _atom_site_symmetry_multiplicity
 _atom_site_fract_x
 _atom_site_fract_y
 _atom_site_fract_z
 _atom_site_occupancy
  Yb  Yb0  1  0.420683  0.000428  0.000000  1
  Yb  Yb1  1  0.000428  0.420683  0.000000  1
  Y  Y2  1  0.578986  0.578986  0.000000  1
  Al  Al3  1  0.767183  0.998448  0.500001  1
  Al  Al4  1  0.232630  0.232629  0.500001  1
  Al  Al5  1  0.998448  0.767184  0.500001  1
  Ge  Ge6  1  0.667011  0.336003  0.500001  1
  Ge  Ge7  1  0.336002  0.667010  0.500001  1
  Pt  Pt8  1  0.998630  0.998630  0.000000  1
