# generated using pymatgen
data_Li2PrDySb4
_symmetry_space_group_name_H-M   'P 1'
_cell_length_a   4.32481000
_cell_length_b   4.32481000
_cell_length_c   10.73455600
_cell_angle_alpha   90.00000000
_cell_angle_beta   90.00000000
_cell_angle_gamma   90.00000000
_symmetry_Int_Tables_number   1
_chemical_formula_structural   Li2PrDySb4
_chemical_formula_sum   'Li2 Pr1 Dy1 Sb4'
_cell_volume   200.77893722
_cell_formula_units_Z   1
loop_
 _symmetry_equiv_pos_site_id
 _symmetry_equiv_pos_as_xyz
  1  'x, y, z'
loop_
 _atom_site_type_symbol
 _atom_site_label
 _atom_site_symmetry_multiplicity
 _atom_site_fract_x
 _atom_site_fract_y
 _atom_site_fract_z
 _atom_site_occupancy
  Li  Li0  1  0.000000  0.000000  0.497193  1
  Li  Li1  1  0.500000  0.500000  0.497193  1
  Pr  Pr2  1  0.000000  0.500000  0.765533  1
  Dy  Dy3  1  0.500000  0.000000  0.234064  1
  Sb  Sb4  1  0.000000  0.000000  0.006700  1
  Sb  Sb5  1  0.500000  0.500000  0.006700  1
  Sb  Sb6  1  0.500000  0.000000  0.661318  1
  Sb  Sb7  1  0.000000  0.500000  0.331296  1
