# generated using pymatgen
data_Pr13Nd3MgIn3Ir4
_symmetry_space_group_name_H-M   'P 1'
_cell_length_a   10.04101428
_cell_length_b   10.07439835
_cell_length_c   10.07439900
_cell_angle_alpha   60.00000114
_cell_angle_beta   59.88995755
_cell_angle_gamma   59.88995271
_symmetry_Int_Tables_number   1
_chemical_formula_structural   Pr13Nd3MgIn3Ir4
_chemical_formula_sum   'Pr13 Nd3 Mg1 In3 Ir4'
_cell_volume   719.41001079
_cell_formula_units_Z   1
loop_
 _symmetry_equiv_pos_site_id
 _symmetry_equiv_pos_as_xyz
  1  'x, y, z'
loop_
 _atom_site_type_symbol
 _atom_site_label
 _atom_site_symmetry_multiplicity
 _atom_site_fract_x
 _atom_site_fract_y
 _atom_site_fract_z
 _atom_site_occupancy
  Pr  Pr0  1  0.957051  0.347650  0.347650  1
  Pr  Pr1  1  0.807213  0.192856  0.192856  1
  Pr  Pr2  1  0.190284  0.809586  0.809586  1
  Pr  Pr3  1  0.190284  0.809586  0.190545  1
  Pr  Pr4  1  0.807213  0.192856  0.807075  1
  Pr  Pr5  1  0.190284  0.190545  0.809586  1
  Pr  Pr6  1  0.807213  0.807075  0.192856  1
  Pr  Pr7  1  0.936966  0.561818  0.561818  1
  Pr  Pr8  1  0.560974  0.939940  0.939940  1
  Pr  Pr9  1  0.560974  0.939940  0.559145  1
  Pr  Pr10  1  0.936966  0.561818  0.939397  1
  Pr  Pr11  1  0.560974  0.559145  0.939940  1
  Pr  Pr12  1  0.936966  0.939397  0.561818  1
  Nd  Nd13  1  0.347881  0.346559  0.346559  1
  Nd  Nd14  1  0.347881  0.346559  0.959000  1
  Nd  Nd15  1  0.347881  0.959000  0.346559  1
  Mg  Mg16  1  0.272427  0.575858  0.575858  1
  In  In17  1  0.579361  0.580815  0.580815  1
  In  In18  1  0.579361  0.580815  0.259010  1
  In  In19  1  0.579361  0.259010  0.580815  1
  Ir  Ir20  1  0.142346  0.140852  0.140852  1
  Ir  Ir21  1  0.142346  0.140852  0.575949  1
  Ir  Ir22  1  0.142346  0.575949  0.140852  1
  Ir  Ir23  1  0.575450  0.141517  0.141517  1
