# generated using pymatgen
data_TmPa3F15
_symmetry_space_group_name_H-M   'P 1'
_cell_length_a   8.65783591
_cell_length_b   8.65783502
_cell_length_c   8.64922288
_cell_angle_alpha   79.63051309
_cell_angle_beta   79.63052082
_cell_angle_gamma   99.93729488
_symmetry_Int_Tables_number   1
_chemical_formula_structural   TmPa3F15
_chemical_formula_sum   'Tm2 Pa6 F30'
_cell_volume   613.08829129
_cell_formula_units_Z   2
loop_
 _symmetry_equiv_pos_site_id
 _symmetry_equiv_pos_as_xyz
  1  'x, y, z'
loop_
 _atom_site_type_symbol
 _atom_site_label
 _atom_site_symmetry_multiplicity
 _atom_site_fract_x
 _atom_site_fract_y
 _atom_site_fract_z
 _atom_site_occupancy
  Tm  Tm0  1  0.678588  0.321412  0.750000  1
  Tm  Tm1  1  0.321412  0.678588  0.250000  1
  Pa  Pa2  1  0.249029  0.750971  0.750000  1
  Pa  Pa3  1  0.750971  0.249029  0.250000  1
  Pa  Pa4  1  0.820395  0.743455  0.328166  1
  Pa  Pa5  1  0.256545  0.179605  0.171834  1
  Pa  Pa6  1  0.179605  0.256545  0.671834  1
  Pa  Pa7  1  0.743455  0.820395  0.828166  1
  F  F8  1  0.149901  0.183041  0.947488  1
  F  F9  1  0.686052  0.550803  0.843581  1
  F  F10  1  0.054559  0.657144  0.314748  1
  F  F11  1  0.657144  0.054559  0.814748  1
  F  F12  1  0.550803  0.686052  0.343581  1
  F  F13  1  0.183041  0.149901  0.447488  1
  F  F14  1  0.850099  0.816959  0.052512  1
  F  F15  1  0.313948  0.449197  0.156419  1
  F  F16  1  0.945441  0.342856  0.685252  1
  F  F17  1  0.342856  0.945441  0.185252  1
  F  F18  1  0.449197  0.313948  0.656419  1
  F  F19  1  0.816959  0.850099  0.552512  1
  F  F20  1  0.968233  0.031767  0.750000  1
  F  F21  1  0.530587  0.748171  0.039311  1
  F  F22  1  0.251829  0.469413  0.460689  1
  F  F23  1  0.469413  0.251829  0.960689  1
  F  F24  1  0.748171  0.530587  0.539311  1
  F  F25  1  0.031767  0.968233  0.250000  1
  F  F26  1  0.224923  0.724112  0.011666  1
  F  F27  1  0.224580  0.487173  0.785059  1
  F  F28  1  0.987042  0.718749  0.775658  1
  F  F29  1  0.718749  0.987042  0.275658  1
  F  F30  1  0.487173  0.224580  0.285059  1
  F  F31  1  0.724112  0.224923  0.511666  1
  F  F32  1  0.775077  0.275888  0.988334  1
  F  F33  1  0.775420  0.512827  0.214941  1
  F  F34  1  0.012958  0.281251  0.224342  1
  F  F35  1  0.281251  0.012958  0.724342  1
  F  F36  1  0.512827  0.775420  0.714941  1
  F  F37  1  0.275888  0.775077  0.488334  1
