# generated using pymatgen
data_Er4Ga16NiRu2
_symmetry_space_group_name_H-M   'P 1'
_cell_length_a   6.10339700
_cell_length_b   6.07303400
_cell_length_c   11.15683700
_cell_angle_alpha   90.00000000
_cell_angle_beta   90.00000000
_cell_angle_gamma   90.00000000
_symmetry_Int_Tables_number   1
_chemical_formula_structural   Er4Ga16NiRu2
_chemical_formula_sum   'Er4 Ga16 Ni1 Ru2'
_cell_volume   413.54085427
_cell_formula_units_Z   1
loop_
 _symmetry_equiv_pos_site_id
 _symmetry_equiv_pos_as_xyz
  1  'x, y, z'
loop_
 _atom_site_type_symbol
 _atom_site_label
 _atom_site_symmetry_multiplicity
 _atom_site_fract_x
 _atom_site_fract_y
 _atom_site_fract_z
 _atom_site_occupancy
  Er  Er0  1  0.500000  0.000000  0.805716  1
  Er  Er1  1  0.000000  0.500000  0.807709  1
  Er  Er2  1  0.500000  0.000000  0.194284  1
  Er  Er3  1  0.000000  0.500000  0.192291  1
  Ga  Ga4  1  0.245357  0.252742  0.618363  1
  Ga  Ga5  1  0.754643  0.747258  0.618363  1
  Ga  Ga6  1  0.754643  0.252742  0.618363  1
  Ga  Ga7  1  0.245357  0.747258  0.618363  1
  Ga  Ga8  1  0.754643  0.747258  0.381637  1
  Ga  Ga9  1  0.245357  0.252742  0.381637  1
  Ga  Ga10  1  0.245357  0.747258  0.381637  1
  Ga  Ga11  1  0.754643  0.252742  0.381637  1
  Ga  Ga12  1  0.287312  0.286125  0.000000  1
  Ga  Ga13  1  0.712688  0.713875  0.000000  1
  Ga  Ga14  1  0.712688  0.286125  0.000000  1
  Ga  Ga15  1  0.287312  0.713875  0.000000  1
  Ga  Ga16  1  0.500000  0.500000  0.803159  1
  Ga  Ga17  1  0.500000  0.500000  0.196841  1
  Ga  Ga18  1  0.000000  0.000000  0.777183  1
  Ga  Ga19  1  0.000000  0.000000  0.222817  1
  Ni  Ni20  1  0.000000  0.500000  0.500000  1
  Ru  Ru21  1  0.500000  0.000000  0.500000  1
  Ru  Ru22  1  0.000000  0.000000  0.000000  1
