# generated using pymatgen
data_Tb4Al3SiRu4
_symmetry_space_group_name_H-M   'P 1'
_cell_length_a   4.49954100
_cell_length_b   7.27305196
_cell_length_c   7.06153870
_cell_angle_alpha   89.65578069
_cell_angle_beta   90.00000000
_cell_angle_gamma   90.00000000
_symmetry_Int_Tables_number   1
_chemical_formula_structural   Tb4Al3SiRu4
_chemical_formula_sum   'Tb4 Al3 Si1 Ru4'
_cell_volume   231.08747627
_cell_formula_units_Z   1
loop_
 _symmetry_equiv_pos_site_id
 _symmetry_equiv_pos_as_xyz
  1  'x, y, z'
loop_
 _atom_site_type_symbol
 _atom_site_label
 _atom_site_symmetry_multiplicity
 _atom_site_fract_x
 _atom_site_fract_y
 _atom_site_fract_z
 _atom_site_occupancy
  Tb  Tb0  1  0.250000  0.980390  0.808473  1
  Tb  Tb1  1  0.750000  0.023456  0.194199  1
  Tb  Tb2  1  0.250000  0.471561  0.689640  1
  Tb  Tb3  1  0.750000  0.520748  0.310982  1
  Al  Al4  1  0.250000  0.311174  0.108864  1
  Al  Al5  1  0.750000  0.686229  0.891698  1
  Al  Al6  1  0.250000  0.808840  0.395533  1
  Si  Si7  1  0.750000  0.192237  0.601374  1
  Ru  Ru8  1  0.750000  0.855708  0.565792  1
  Ru  Ru9  1  0.250000  0.158146  0.444303  1
  Ru  Ru10  1  0.750000  0.333517  0.923489  1
  Ru  Ru11  1  0.250000  0.657995  0.065653  1
