# generated using pymatgen
data_Er2Ga2IrPd
_symmetry_space_group_name_H-M   'P 1'
_cell_length_a   4.40092900
_cell_length_b   6.82400100
_cell_length_c   7.66971800
_cell_angle_alpha   90.00000000
_cell_angle_beta   90.00000000
_cell_angle_gamma   90.00000000
_symmetry_Int_Tables_number   1
_chemical_formula_structural   Er2Ga2IrPd
_chemical_formula_sum   'Er4 Ga4 Ir2 Pd2'
_cell_volume   230.33654068
_cell_formula_units_Z   2
loop_
 _symmetry_equiv_pos_site_id
 _symmetry_equiv_pos_as_xyz
  1  'x, y, z'
loop_
 _atom_site_type_symbol
 _atom_site_label
 _atom_site_symmetry_multiplicity
 _atom_site_fract_x
 _atom_site_fract_y
 _atom_site_fract_z
 _atom_site_occupancy
  Er  Er0  1  0.250000  0.984704  0.303933  1
  Er  Er1  1  0.250000  0.484704  0.196067  1
  Er  Er2  1  0.750000  0.025426  0.687200  1
  Er  Er3  1  0.750000  0.525426  0.812800  1
  Ga  Ga4  1  0.250000  0.332419  0.570097  1
  Ga  Ga5  1  0.250000  0.832419  0.929903  1
  Ga  Ga6  1  0.750000  0.662394  0.426988  1
  Ga  Ga7  1  0.750000  0.162394  0.073012  1
  Ir  Ir8  1  0.750000  0.771460  0.104654  1
  Ir  Ir9  1  0.750000  0.271460  0.395346  1
  Pd  Pd10  1  0.250000  0.223598  0.895492  1
  Pd  Pd11  1  0.250000  0.723598  0.604508  1
