# generated using pymatgen
data_SrCr2PtO6
_symmetry_space_group_name_H-M   'P 1'
_cell_length_a   6.70481312
_cell_length_b   6.70481383
_cell_length_c   6.70481287
_cell_angle_alpha   46.02385916
_cell_angle_beta   46.02385679
_cell_angle_gamma   46.02384363
_symmetry_Int_Tables_number   1
_chemical_formula_structural   SrCr2PtO6
_chemical_formula_sum   'Sr1 Cr2 Pt1 O6'
_cell_volume   142.38174686
_cell_formula_units_Z   1
loop_
 _symmetry_equiv_pos_site_id
 _symmetry_equiv_pos_as_xyz
  1  'x, y, z'
loop_
 _atom_site_type_symbol
 _atom_site_label
 _atom_site_symmetry_multiplicity
 _atom_site_fract_x
 _atom_site_fract_y
 _atom_site_fract_z
 _atom_site_occupancy
  Sr  Sr0  1  0.000000  0.000000  0.000000  1
  Cr  Cr1  1  0.173414  0.173414  0.173414  1
  Cr  Cr2  1  0.826586  0.826586  0.826586  1
  Pt  Pt3  1  0.500000  0.500000  0.500000  1
  O  O4  1  0.426488  0.785961  0.111007  1
  O  O5  1  0.888992  0.573513  0.214040  1
  O  O6  1  0.785960  0.111007  0.426489  1
  O  O7  1  0.214040  0.888993  0.573512  1
  O  O8  1  0.111008  0.426488  0.785960  1
  O  O9  1  0.573513  0.214039  0.888993  1
