# generated using pymatgen
data_Y4B16Mo3W
_symmetry_space_group_name_H-M   'P 1'
_cell_length_a   3.62713400
_cell_length_b   6.03866901
_cell_length_c   11.67045302
_cell_angle_alpha   89.99407438
_cell_angle_beta   90.00000000
_cell_angle_gamma   90.00000000
_symmetry_Int_Tables_number   1
_chemical_formula_structural   Y4B16Mo3W
_chemical_formula_sum   'Y4 B16 Mo3 W1'
_cell_volume   255.61865080
_cell_formula_units_Z   1
loop_
 _symmetry_equiv_pos_site_id
 _symmetry_equiv_pos_as_xyz
  1  'x, y, z'
loop_
 _atom_site_type_symbol
 _atom_site_label
 _atom_site_symmetry_multiplicity
 _atom_site_fract_x
 _atom_site_fract_y
 _atom_site_fract_z
 _atom_site_occupancy
  Y  Y0  1  0.000000  0.126891  0.149650  1
  Y  Y1  1  0.000000  0.873059  0.850138  1
  Y  Y2  1  0.000000  0.627032  0.350181  1
  Y  Y3  1  0.000000  0.373266  0.649921  1
  B  B4  1  0.500000  0.023515  0.693366  1
  B  B5  1  0.500000  0.975933  0.306551  1
  B  B6  1  0.500000  0.523778  0.806536  1
  B  B7  1  0.500000  0.476469  0.193331  1
  B  B8  1  0.500000  0.113512  0.547564  1
  B  B9  1  0.500000  0.886026  0.452764  1
  B  B10  1  0.500000  0.613865  0.952590  1
  B  B11  1  0.500000  0.386256  0.047472  1
  B  B12  1  0.500000  0.287211  0.313579  1
  B  B13  1  0.500000  0.713320  0.686083  1
  B  B14  1  0.500000  0.786550  0.185992  1
  B  B15  1  0.500000  0.213279  0.813838  1
  B  B16  1  0.500000  0.366697  0.468281  1
  B  B17  1  0.500000  0.633814  0.532020  1
  B  B18  1  0.500000  0.866513  0.031883  1
  B  B19  1  0.500000  0.133374  0.968125  1
  Mo  Mo20  1  0.000000  0.869725  0.584043  1
  Mo  Mo21  1  0.000000  0.629697  0.083757  1
  Mo  Mo22  1  0.000000  0.370263  0.916383  1
  W  W23  1  0.000000  0.129954  0.415954  1
