# generated using pymatgen
data_Cs3HoNpBr9
_symmetry_space_group_name_H-M   'P 1'
_cell_length_a   10.52928245
_cell_length_b   10.52928340
_cell_length_c   10.52928306
_cell_angle_alpha   83.41679911
_cell_angle_beta   83.41679606
_cell_angle_gamma   83.41679466
_symmetry_Int_Tables_number   1
_chemical_formula_structural   Cs3HoNpBr9
_chemical_formula_sum   'Cs6 Ho2 Np2 Br18'
_cell_volume   1145.88460066
_cell_formula_units_Z   2
loop_
 _symmetry_equiv_pos_site_id
 _symmetry_equiv_pos_as_xyz
  1  'x, y, z'
loop_
 _atom_site_type_symbol
 _atom_site_label
 _atom_site_symmetry_multiplicity
 _atom_site_fract_x
 _atom_site_fract_y
 _atom_site_fract_z
 _atom_site_occupancy
  Cs  Cs0  1  0.751813  0.412234  0.087916  1
  Cs  Cs1  1  0.087916  0.751813  0.412234  1
  Cs  Cs2  1  0.248187  0.587766  0.912084  1
  Cs  Cs3  1  0.412234  0.087916  0.751813  1
  Cs  Cs4  1  0.912084  0.248187  0.587766  1
  Cs  Cs5  1  0.587766  0.912084  0.248187  1
  Ho  Ho6  1  0.848003  0.848003  0.848003  1
  Ho  Ho7  1  0.151997  0.151997  0.151997  1
  Np  Np8  1  0.348230  0.348230  0.348230  1
  Np  Np9  1  0.651770  0.651770  0.651770  1
  Br  Br10  1  0.412941  0.767318  0.579471  1
  Br  Br11  1  0.232682  0.420529  0.587059  1
  Br  Br12  1  0.402701  0.247312  0.091879  1
  Br  Br13  1  0.091879  0.402701  0.247312  1
  Br  Br14  1  0.917245  0.735929  0.078550  1
  Br  Br15  1  0.921450  0.082755  0.264071  1
  Br  Br16  1  0.597299  0.752688  0.908121  1
  Br  Br17  1  0.752688  0.908121  0.597299  1
  Br  Br18  1  0.579471  0.412941  0.767318  1
  Br  Br19  1  0.247312  0.091879  0.402701  1
  Br  Br20  1  0.767318  0.579471  0.412941  1
  Br  Br21  1  0.735929  0.078550  0.917245  1
  Br  Br22  1  0.082755  0.264071  0.921450  1
  Br  Br23  1  0.420529  0.587059  0.232682  1
  Br  Br24  1  0.587059  0.232682  0.420529  1
  Br  Br25  1  0.908121  0.597299  0.752688  1
  Br  Br26  1  0.264071  0.921450  0.082755  1
  Br  Br27  1  0.078550  0.917245  0.735929  1
