# generated using pymatgen
data_Hf4TiSiSb2
_symmetry_space_group_name_H-M   'P 1'
_cell_length_a   5.34427259
_cell_length_b   8.14665213
_cell_length_c   8.14665234
_cell_angle_alpha   83.82377862
_cell_angle_beta   70.85231753
_cell_angle_gamma   70.85231891
_symmetry_Int_Tables_number   1
_chemical_formula_structural   Hf4TiSiSb2
_chemical_formula_sum   'Hf8 Ti2 Si2 Sb4'
_cell_volume   316.52861071
_cell_formula_units_Z   2
loop_
 _symmetry_equiv_pos_site_id
 _symmetry_equiv_pos_as_xyz
  1  'x, y, z'
loop_
 _atom_site_type_symbol
 _atom_site_label
 _atom_site_symmetry_multiplicity
 _atom_site_fract_x
 _atom_site_fract_y
 _atom_site_fract_z
 _atom_site_occupancy
  Hf  Hf0  1  0.077220  0.131445  0.714115  1
  Hf  Hf1  1  0.922780  0.868555  0.285885  1
  Hf  Hf2  1  0.791335  0.285885  0.131445  1
  Hf  Hf3  1  0.422780  0.285885  0.868555  1
  Hf  Hf4  1  0.208665  0.714115  0.868555  1
  Hf  Hf5  1  0.577220  0.714115  0.131445  1
  Hf  Hf6  1  0.708665  0.868555  0.714115  1
  Hf  Hf7  1  0.291335  0.131445  0.285885  1
  Ti  Ti8  1  0.250000  0.500000  0.500000  1
  Ti  Ti9  1  0.750000  0.500000  0.500000  1
  Si  Si10  1  0.250000  0.000000  0.000000  1
  Si  Si11  1  0.750000  0.000000  0.000000  1
  Sb  Sb12  1  0.157955  0.500000  0.184092  1
  Sb  Sb13  1  0.842045  0.500000  0.815908  1
  Sb  Sb14  1  0.342045  0.815908  0.500000  1
  Sb  Sb15  1  0.657955  0.184092  0.500000  1
