# generated using pymatgen
data_YbPa2Zn11
_symmetry_space_group_name_H-M   'P 1'
_cell_length_a   4.39754560
_cell_length_b   8.13327025
_cell_length_c   8.13327057
_cell_angle_alpha   66.84955400
_cell_angle_beta   74.31532133
_cell_angle_gamma   74.31531704
_symmetry_Int_Tables_number   1
_chemical_formula_structural   YbPa2Zn11
_chemical_formula_sum   'Yb1 Pa2 Zn11'
_cell_volume   253.05309619
_cell_formula_units_Z   1
loop_
 _symmetry_equiv_pos_site_id
 _symmetry_equiv_pos_as_xyz
  1  'x, y, z'
loop_
 _atom_site_type_symbol
 _atom_site_label
 _atom_site_symmetry_multiplicity
 _atom_site_fract_x
 _atom_site_fract_y
 _atom_site_fract_z
 _atom_site_occupancy
  Yb  Yb0  1  0.000000  0.000000  0.000000  1
  Pa  Pa1  1  0.704844  0.295156  0.295156  1
  Pa  Pa2  1  0.295156  0.704844  0.704844  1
  Zn  Zn3  1  0.000000  0.500000  0.500000  1
  Zn  Zn4  1  0.500000  0.681515  0.318485  1
  Zn  Zn5  1  0.500000  0.318485  0.681515  1
  Zn  Zn6  1  0.660037  0.699754  0.980172  1
  Zn  Zn7  1  0.339963  0.300246  0.019828  1
  Zn  Zn8  1  0.660037  0.980172  0.699754  1
  Zn  Zn9  1  0.339963  0.019828  0.300246  1
  Zn  Zn10  1  0.860957  0.419550  0.858535  1
  Zn  Zn11  1  0.139043  0.580450  0.141465  1
  Zn  Zn12  1  0.860957  0.858535  0.419550  1
  Zn  Zn13  1  0.139043  0.141465  0.580450  1
