# generated using pymatgen
data_Ce2Nd3Tc2
_symmetry_space_group_name_H-M   'P 1'
_cell_length_a   9.13736992
_cell_length_b   9.13737015
_cell_length_c   7.14160600
_cell_angle_alpha   85.75594008
_cell_angle_beta   85.75593998
_cell_angle_gamma   41.75605877
_symmetry_Int_Tables_number   1
_chemical_formula_structural   Ce2Nd3Tc2
_chemical_formula_sum   'Ce4 Nd6 Tc4'
_cell_volume   395.84051846
_cell_formula_units_Z   2
loop_
 _symmetry_equiv_pos_site_id
 _symmetry_equiv_pos_as_xyz
  1  'x, y, z'
loop_
 _atom_site_type_symbol
 _atom_site_label
 _atom_site_symmetry_multiplicity
 _atom_site_fract_x
 _atom_site_fract_y
 _atom_site_fract_z
 _atom_site_occupancy
  Ce  Ce0  1  0.008482  0.806955  0.900841  1
  Ce  Ce1  1  0.193045  0.991518  0.599159  1
  Ce  Ce2  1  0.991518  0.193045  0.099159  1
  Ce  Ce3  1  0.806955  0.008482  0.400841  1
  Nd  Nd4  1  0.350562  0.218595  0.819000  1
  Nd  Nd5  1  0.781405  0.649438  0.681000  1
  Nd  Nd6  1  0.649438  0.781405  0.181000  1
  Nd  Nd7  1  0.218595  0.350562  0.319000  1
  Nd  Nd8  1  0.575825  0.424175  0.750000  1
  Nd  Nd9  1  0.424175  0.575825  0.250000  1
  Tc  Tc10  1  0.131287  0.654587  0.599105  1
  Tc  Tc11  1  0.345413  0.868713  0.900895  1
  Tc  Tc12  1  0.868713  0.345413  0.400895  1
  Tc  Tc13  1  0.654587  0.131287  0.099105  1
