# generated using pymatgen
data_Tm12Mn2In2Pt
_symmetry_space_group_name_H-M   'P 1'
_cell_length_a   8.27157145
_cell_length_b   8.27157129
_cell_length_c   8.27157100
_cell_angle_alpha   108.61323146
_cell_angle_beta   108.61322378
_cell_angle_gamma   111.20118293
_symmetry_Int_Tables_number   1
_chemical_formula_structural   Tm12Mn2In2Pt
_chemical_formula_sum   'Tm12 Mn2 In2 Pt1'
_cell_volume   435.35555359
_cell_formula_units_Z   1
loop_
 _symmetry_equiv_pos_site_id
 _symmetry_equiv_pos_as_xyz
  1  'x, y, z'
loop_
 _atom_site_type_symbol
 _atom_site_label
 _atom_site_symmetry_multiplicity
 _atom_site_fract_x
 _atom_site_fract_y
 _atom_site_fract_z
 _atom_site_occupancy
  Tm  Tm0  1  0.195946  0.436727  0.240781  1
  Tm  Tm1  1  0.804054  0.563273  0.759219  1
  Tm  Tm2  1  0.195946  0.955166  0.759219  1
  Tm  Tm3  1  0.955166  0.195946  0.759219  1
  Tm  Tm4  1  0.804054  0.044834  0.240781  1
  Tm  Tm5  1  0.044834  0.804054  0.240781  1
  Tm  Tm6  1  0.436727  0.195946  0.240781  1
  Tm  Tm7  1  0.563273  0.804054  0.759219  1
  Tm  Tm8  1  0.307498  0.307498  0.614997  1
  Tm  Tm9  1  0.692502  0.692502  0.385003  1
  Tm  Tm10  1  0.692502  0.307498  0.000000  1
  Tm  Tm11  1  0.307498  0.692502  0.000000  1
  Mn  Mn12  1  0.387783  0.387783  0.000000  1
  Mn  Mn13  1  0.612217  0.612217  0.000000  1
  In  In14  1  0.000000  0.500000  0.500000  1
  In  In15  1  0.500000  0.000000  0.500000  1
  Pt  Pt16  1  0.000000  0.000000  0.000000  1
