# generated using pymatgen
data_La9Pr7Mg2(CdIr2)2
_symmetry_space_group_name_H-M   'P 1'
_cell_length_a   10.12813102
_cell_length_b   10.12813142
_cell_length_c   10.11768100
_cell_angle_alpha   60.03412978
_cell_angle_beta   60.03412846
_cell_angle_gamma   60.05133747
_symmetry_Int_Tables_number   1
_chemical_formula_structural   La9Pr7Mg2(CdIr2)2
_chemical_formula_sum   'La9 Pr7 Mg2 Cd2 Ir4'
_cell_volume   734.54237740
_cell_formula_units_Z   1
loop_
 _symmetry_equiv_pos_site_id
 _symmetry_equiv_pos_as_xyz
  1  'x, y, z'
loop_
 _atom_site_type_symbol
 _atom_site_label
 _atom_site_symmetry_multiplicity
 _atom_site_fract_x
 _atom_site_fract_y
 _atom_site_fract_z
 _atom_site_occupancy
  La  La0  1  0.346873  0.346873  0.347143  1
  La  La1  1  0.346873  0.346873  0.959111  1
  La  La2  1  0.347172  0.962013  0.345407  1
  La  La3  1  0.962013  0.347172  0.345407  1
  La  La4  1  0.809634  0.188564  0.190563  1
  La  La5  1  0.188564  0.809634  0.811239  1
  La  La6  1  0.188564  0.809634  0.190563  1
  La  La7  1  0.809634  0.188564  0.811239  1
  La  La8  1  0.192002  0.192002  0.807998  1
  Pr  Pr9  1  0.808411  0.808411  0.191589  1
  Pr  Pr10  1  0.937489  0.563721  0.563097  1
  Pr  Pr11  1  0.563721  0.937489  0.935692  1
  Pr  Pr12  1  0.563721  0.937489  0.563097  1
  Pr  Pr13  1  0.937489  0.563721  0.935692  1
  Pr  Pr14  1  0.563503  0.563503  0.936497  1
  Pr  Pr15  1  0.938186  0.938186  0.561814  1
  Mg  Mg16  1  0.575988  0.575988  0.577979  1
  Mg  Mg17  1  0.575988  0.575988  0.270045  1
  Cd  Cd18  1  0.581984  0.257688  0.580163  1
  Cd  Cd19  1  0.257688  0.581984  0.580163  1
  Ir  Ir20  1  0.140991  0.140991  0.140226  1
  Ir  Ir21  1  0.140991  0.140991  0.577791  1
  Ir  Ir22  1  0.145853  0.576665  0.138741  1
  Ir  Ir23  1  0.576665  0.145853  0.138741  1
