# generated using pymatgen
data_PmSiNiPt2
_symmetry_space_group_name_H-M   'P 1'
_cell_length_a   5.96187979
_cell_length_b   5.96187936
_cell_length_c   5.96188054
_cell_angle_alpha   140.28929843
_cell_angle_beta   140.28928937
_cell_angle_gamma   57.41430196
_symmetry_Int_Tables_number   1
_chemical_formula_structural   PmSiNiPt2
_chemical_formula_sum   'Pm1 Si1 Ni1 Pt2'
_cell_volume   85.76435973
_cell_formula_units_Z   1
loop_
 _symmetry_equiv_pos_site_id
 _symmetry_equiv_pos_as_xyz
  1  'x, y, z'
loop_
 _atom_site_type_symbol
 _atom_site_label
 _atom_site_symmetry_multiplicity
 _atom_site_fract_x
 _atom_site_fract_y
 _atom_site_fract_z
 _atom_site_occupancy
  Pm  Pm0  1  0.989300  0.989300  0.000000  1
  Si  Si1  1  0.615971  0.615971  0.000000  1
  Ni  Ni2  1  0.404973  0.404973  0.000000  1
  Pt  Pt3  1  0.744877  0.244877  0.500000  1
  Pt  Pt4  1  0.244877  0.744877  0.500000  1
