# generated using pymatgen
data_Rb3BaNdUTe6
_symmetry_space_group_name_H-M   'P 1'
_cell_length_a   8.25642063
_cell_length_b   8.25642070
_cell_length_c   9.04754277
_cell_angle_alpha   81.05965013
_cell_angle_beta   81.05964308
_cell_angle_gamma   120.04143984
_symmetry_Int_Tables_number   1
_chemical_formula_structural   Rb3BaNdUTe6
_chemical_formula_sum   'Rb3 Ba1 Nd1 U1 Te6'
_cell_volume   507.42666452
_cell_formula_units_Z   1
loop_
 _symmetry_equiv_pos_site_id
 _symmetry_equiv_pos_as_xyz
  1  'x, y, z'
loop_
 _atom_site_type_symbol
 _atom_site_label
 _atom_site_symmetry_multiplicity
 _atom_site_fract_x
 _atom_site_fract_y
 _atom_site_fract_z
 _atom_site_occupancy
  Rb  Rb0  1  0.657903  0.342097  0.500000  1
  Rb  Rb1  1  0.342196  0.657804  0.500000  1
  Rb  Rb2  1  0.999948  0.000052  0.500000  1
  Ba  Ba3  1  0.499994  0.500006  0.000000  1
  Nd  Nd4  1  0.832267  0.167733  0.000000  1
  U  U5  1  0.167707  0.832293  0.000000  1
  Te  Te6  1  0.799907  0.790321  0.204262  1
  Te  Te7  1  0.209679  0.200093  0.795738  1
  Te  Te8  1  0.420032  0.060752  0.206762  1
  Te  Te9  1  0.560477  0.929357  0.793057  1
  Te  Te10  1  0.939248  0.579968  0.793238  1
  Te  Te11  1  0.070643  0.439523  0.206943  1
