# generated using pymatgen
data_Li6Sc12Os5Pt
_symmetry_space_group_name_H-M   'P 1'
_cell_length_a   4.62658000
_cell_length_b   6.54884300
_cell_length_c   13.92926100
_cell_angle_alpha   90.00028395
_cell_angle_beta   89.99867913
_cell_angle_gamma   90.00024633
_symmetry_Int_Tables_number   1
_chemical_formula_structural   Li6Sc12Os5Pt
_chemical_formula_sum   'Li6 Sc12 Os5 Pt1'
_cell_volume   422.03914164
_cell_formula_units_Z   1
loop_
 _symmetry_equiv_pos_site_id
 _symmetry_equiv_pos_as_xyz
  1  'x, y, z'
loop_
 _atom_site_type_symbol
 _atom_site_label
 _atom_site_symmetry_multiplicity
 _atom_site_fract_x
 _atom_site_fract_y
 _atom_site_fract_z
 _atom_site_occupancy
  Li  Li0  1  0.999999  0.500000  0.000040  1
  Li  Li1  1  0.499784  0.000004  0.167180  1
  Li  Li2  1  0.999815  0.499998  0.333336  1
  Li  Li3  1  0.500006  0.999999  0.499520  1
  Li  Li4  1  0.000210  0.500000  0.666624  1
  Li  Li5  1  0.500215  0.999999  0.833302  1
  Sc  Sc6  1  0.499997  0.246825  0.002628  1
  Sc  Sc7  1  0.499999  0.753174  0.002626  1
  Sc  Sc8  1  0.999760  0.249454  0.167004  1
  Sc  Sc9  1  0.999754  0.750549  0.167001  1
  Sc  Sc10  1  0.499761  0.249558  0.333296  1
  Sc  Sc11  1  0.499766  0.750442  0.333292  1
  Sc  Sc12  1  0.000000  0.249433  0.499659  1
  Sc  Sc13  1  0.999992  0.750560  0.499658  1
  Sc  Sc14  1  0.500228  0.246828  0.664072  1
  Sc  Sc15  1  0.500238  0.753169  0.664072  1
  Sc  Sc16  1  0.000228  0.241790  0.833344  1
  Sc  Sc17  1  0.000237  0.758210  0.833345  1
  Os  Os18  1  0.000007  0.000000  0.997767  1
  Os  Os19  1  0.499711  0.499995  0.165471  1
  Os  Os20  1  0.999706  0.000001  0.333315  1
  Os  Os21  1  0.499999  0.500002  0.501187  1
  Os  Os22  1  0.000279  0.000001  0.668904  1
  Pt  Pt23  1  0.500299  0.500000  0.833354  1
