# generated using pymatgen
data_LuHf2Sn3Ir2Rh
_symmetry_space_group_name_H-M   'P 1'
_cell_length_a   7.49217352
_cell_length_b   7.47333132
_cell_length_c   7.27206900
_cell_angle_alpha   90.00000000
_cell_angle_beta   90.00000000
_cell_angle_gamma   119.98967488
_symmetry_Int_Tables_number   1
_chemical_formula_structural   LuHf2Sn3Ir2Rh
_chemical_formula_sum   'Lu2 Hf4 Sn6 Ir4 Rh2'
_cell_volume   352.65972295
_cell_formula_units_Z   2
loop_
 _symmetry_equiv_pos_site_id
 _symmetry_equiv_pos_as_xyz
  1  'x, y, z'
loop_
 _atom_site_type_symbol
 _atom_site_label
 _atom_site_symmetry_multiplicity
 _atom_site_fract_x
 _atom_site_fract_y
 _atom_site_fract_z
 _atom_site_occupancy
  Lu  Lu0  1  0.998617  0.402656  0.250000  1
  Lu  Lu1  1  0.598433  0.595074  0.250000  1
  Hf  Hf2  1  0.999353  0.392538  0.750000  1
  Hf  Hf3  1  0.603861  0.610231  0.750000  1
  Hf  Hf4  1  0.391885  0.996451  0.750000  1
  Hf  Hf5  1  0.402374  0.999376  0.250000  1
  Sn  Sn6  1  0.269083  0.268576  0.504537  1
  Sn  Sn7  1  0.997366  0.730310  0.504984  1
  Sn  Sn8  1  0.997366  0.730310  0.995016  1
  Sn  Sn9  1  0.733738  0.001205  0.496530  1
  Sn  Sn10  1  0.733738  0.001205  0.003470  1
  Sn  Sn11  1  0.269083  0.268576  0.995463  1
  Ir  Ir12  1  0.334461  0.673007  0.520091  1
  Ir  Ir13  1  0.662937  0.328546  0.529597  1
  Ir  Ir14  1  0.334461  0.673007  0.979909  1
  Ir  Ir15  1  0.662937  0.328546  0.970403  1
  Rh  Rh16  1  0.998476  0.000406  0.750000  1
  Rh  Rh17  1  0.011832  0.999979  0.250000  1
