# generated using pymatgen
data_Sc7SeS7
_symmetry_space_group_name_H-M   'P 1'
_cell_length_a   6.42907672
_cell_length_b   7.39534066
_cell_length_c   8.29921691
_cell_angle_alpha   102.90862056
_cell_angle_beta   49.66653840
_cell_angle_gamma   89.84837053
_symmetry_Int_Tables_number   1
_chemical_formula_structural   Sc7SeS7
_chemical_formula_sum   'Sc7 Se1 S7'
_cell_volume   287.37506182
_cell_formula_units_Z   1
loop_
 _symmetry_equiv_pos_site_id
 _symmetry_equiv_pos_as_xyz
  1  'x, y, z'
loop_
 _atom_site_type_symbol
 _atom_site_label
 _atom_site_symmetry_multiplicity
 _atom_site_fract_x
 _atom_site_fract_y
 _atom_site_fract_z
 _atom_site_occupancy
  Sc  Sc0  1  0.492478  0.629204  0.766679  1
  Sc  Sc1  1  0.010580  0.884176  0.758180  1
  Sc  Sc2  1  0.748902  0.260495  0.259567  1
  Sc  Sc3  1  0.487803  0.137685  0.767631  1
  Sc  Sc4  1  0.747613  0.756196  0.245739  1
  Sc  Sc5  1  0.259565  0.013068  0.250293  1
  Sc  Sc6  1  0.992569  0.384356  0.754527  1
  Se  Se7  1  0.884489  0.811184  0.499332  1
  S  S8  1  0.117994  0.445876  0.006497  1
  S  S9  1  0.628955  0.197302  0.005452  1
  S  S10  1  0.869255  0.317757  0.508577  1
  S  S11  1  0.625428  0.697023  0.004867  1
  S  S12  1  0.376143  0.073112  0.507656  1
  S  S13  1  0.123100  0.946401  0.010138  1
  S  S14  1  0.376039  0.570925  0.509938  1
