# generated using pymatgen
data_TmPa3(CdPt2)2
_symmetry_space_group_name_H-M   'P 1'
_cell_length_a   7.84058095
_cell_length_b   7.84058095
_cell_length_c   3.63097000
_cell_angle_alpha   90.00000000
_cell_angle_beta   90.00000000
_cell_angle_gamma   89.11476392
_symmetry_Int_Tables_number   1
_chemical_formula_structural   TmPa3(CdPt2)2
_chemical_formula_sum   'Tm1 Pa3 Cd2 Pt4'
_cell_volume   223.18618544
_cell_formula_units_Z   1
loop_
 _symmetry_equiv_pos_site_id
 _symmetry_equiv_pos_as_xyz
  1  'x, y, z'
loop_
 _atom_site_type_symbol
 _atom_site_label
 _atom_site_symmetry_multiplicity
 _atom_site_fract_x
 _atom_site_fract_y
 _atom_site_fract_z
 _atom_site_occupancy
  Tm  Tm0  1  0.672004  0.172004  0.500000  1
  Pa  Pa1  1  0.170365  0.328478  0.500000  1
  Pa  Pa2  1  0.332275  0.832275  0.500000  1
  Pa  Pa3  1  0.828478  0.670365  0.500000  1
  Cd  Cd4  1  0.502555  0.491789  0.000000  1
  Cd  Cd5  1  0.991789  0.002555  0.000000  1
  Pt  Pt6  1  0.627095  0.860682  0.000000  1
  Pt  Pt7  1  0.136705  0.636705  0.000000  1
  Pt  Pt8  1  0.878052  0.378052  0.000000  1
  Pt  Pt9  1  0.360682  0.127095  0.000000  1
