# generated using pymatgen
data_Tb4Al15Ga(SiIr3)2
_symmetry_space_group_name_H-M   'P 1'
_cell_length_a   7.54790740
_cell_length_b   7.55087636
_cell_length_c   9.38611300
_cell_angle_alpha   90.00000000
_cell_angle_beta   90.00000000
_cell_angle_gamma   119.66444663
_symmetry_Int_Tables_number   1
_chemical_formula_structural   Tb4Al15Ga(SiIr3)2
_chemical_formula_sum   'Tb4 Al15 Ga1 Si2 Ir6'
_cell_volume   464.83506971
_cell_formula_units_Z   1
loop_
 _symmetry_equiv_pos_site_id
 _symmetry_equiv_pos_as_xyz
  1  'x, y, z'
loop_
 _atom_site_type_symbol
 _atom_site_label
 _atom_site_symmetry_multiplicity
 _atom_site_fract_x
 _atom_site_fract_y
 _atom_site_fract_z
 _atom_site_occupancy
  Tb  Tb0  1  0.996055  0.674886  0.250000  1
  Tb  Tb1  1  0.005152  0.325181  0.750000  1
  Tb  Tb2  1  0.673312  0.993834  0.250000  1
  Tb  Tb3  1  0.325272  0.004662  0.750000  1
  Al  Al4  1  0.001297  0.335957  0.075998  1
  Al  Al5  1  0.998673  0.663732  0.923733  1
  Al  Al6  1  0.998673  0.663732  0.576267  1
  Al  Al7  1  0.336396  0.001749  0.423949  1
  Al  Al8  1  0.001297  0.335957  0.424002  1
  Al  Al9  1  0.663728  0.998663  0.576153  1
  Al  Al10  1  0.663728  0.998663  0.923847  1
  Al  Al11  1  0.336396  0.001749  0.076051  1
  Al  Al12  1  0.335775  0.335615  0.557116  1
  Al  Al13  1  0.664633  0.664226  0.444069  1
  Al  Al14  1  0.664633  0.664226  0.055931  1
  Al  Al15  1  0.335775  0.335615  0.942884  1
  Al  Al16  1  0.664316  0.451598  0.750000  1
  Al  Al17  1  0.548422  0.336263  0.250000  1
  Al  Al18  1  0.451496  0.664284  0.750000  1
  Ga  Ga19  1  0.336154  0.548219  0.250000  1
  Si  Si20  1  0.127517  0.127588  0.250000  1
  Si  Si21  1  0.871236  0.871173  0.750000  1
  Ir  Ir22  1  0.671419  0.328608  0.000239  1
  Ir  Ir23  1  0.328412  0.672409  0.998388  1
  Ir  Ir24  1  0.328412  0.672409  0.501612  1
  Ir  Ir25  1  0.671419  0.328608  0.499761  1
  Ir  Ir26  1  0.000201  0.000198  0.000260  1
  Ir  Ir27  1  0.000201  0.000198  0.499740  1
