# generated using pymatgen
data_TbDy6Zn(Co3Sn11)2
_symmetry_space_group_name_H-M   'P 1'
_cell_length_a   9.67945200
_cell_length_b   9.67945135
_cell_length_c   9.97629100
_cell_angle_alpha   90.00000000
_cell_angle_beta   90.00000000
_cell_angle_gamma   120.00000905
_symmetry_Int_Tables_number   1
_chemical_formula_structural   TbDy6Zn(Co3Sn11)2
_chemical_formula_sum   'Tb1 Dy6 Zn1 Co6 Sn22'
_cell_volume   809.47084766
_cell_formula_units_Z   1
loop_
 _symmetry_equiv_pos_site_id
 _symmetry_equiv_pos_as_xyz
  1  'x, y, z'
loop_
 _atom_site_type_symbol
 _atom_site_label
 _atom_site_symmetry_multiplicity
 _atom_site_fract_x
 _atom_site_fract_y
 _atom_site_fract_z
 _atom_site_occupancy
  Tb  Tb0  1  0.000000  0.000000  0.000000  1
  Dy  Dy1  1  0.478964  0.521036  0.305582  1
  Dy  Dy2  1  0.521036  0.478964  0.694418  1
  Dy  Dy3  1  0.478964  0.957926  0.305582  1
  Dy  Dy4  1  0.521036  0.042074  0.694418  1
  Dy  Dy5  1  0.042074  0.521036  0.305582  1
  Dy  Dy6  1  0.957926  0.478964  0.694418  1
  Zn  Zn7  1  0.000000  0.000000  0.500000  1
  Co  Co8  1  0.832238  0.167762  0.197396  1
  Co  Co9  1  0.167762  0.832238  0.802604  1
  Co  Co10  1  0.832238  0.664476  0.197396  1
  Co  Co11  1  0.167762  0.335524  0.802604  1
  Co  Co12  1  0.335524  0.167762  0.197396  1
  Co  Co13  1  0.664476  0.832238  0.802604  1
  Sn  Sn14  1  0.345700  0.000000  0.000000  1
  Sn  Sn15  1  0.654300  0.000000  0.000000  1
  Sn  Sn16  1  0.000000  0.345700  0.000000  1
  Sn  Sn17  1  0.000000  0.654300  0.000000  1
  Sn  Sn18  1  0.654300  0.654300  0.000000  1
  Sn  Sn19  1  0.345700  0.345700  0.000000  1
  Sn  Sn20  1  0.333333  0.666667  0.818559  1
  Sn  Sn21  1  0.666667  0.333333  0.181441  1
  Sn  Sn22  1  0.782993  0.217007  0.453319  1
  Sn  Sn23  1  0.217007  0.782993  0.546681  1
  Sn  Sn24  1  0.782993  0.565987  0.453319  1
  Sn  Sn25  1  0.217007  0.434013  0.546681  1
  Sn  Sn26  1  0.434013  0.217007  0.453319  1
  Sn  Sn27  1  0.565987  0.782993  0.546681  1
  Sn  Sn28  1  0.333333  0.666667  0.116778  1
  Sn  Sn29  1  0.666667  0.333333  0.883222  1
  Sn  Sn30  1  0.113920  0.886080  0.276483  1
  Sn  Sn31  1  0.886080  0.113920  0.723517  1
  Sn  Sn32  1  0.113920  0.227842  0.276483  1
  Sn  Sn33  1  0.886080  0.772158  0.723517  1
  Sn  Sn34  1  0.772158  0.886080  0.276483  1
  Sn  Sn35  1  0.227842  0.113920  0.723517  1
