# generated using pymatgen
data_TbTh2(ZnPd)3
_symmetry_space_group_name_H-M   'P 1'
_cell_length_a   7.56687600
_cell_length_b   7.50627240
_cell_length_c   3.85262200
_cell_angle_alpha   90.00000000
_cell_angle_beta   90.00000000
_cell_angle_gamma   120.26742924
_symmetry_Int_Tables_number   1
_chemical_formula_structural   TbTh2(ZnPd)3
_chemical_formula_sum   'Tb1 Th2 Zn3 Pd3'
_cell_volume   188.99543603
_cell_formula_units_Z   1
loop_
 _symmetry_equiv_pos_site_id
 _symmetry_equiv_pos_as_xyz
  1  'x, y, z'
loop_
 _atom_site_type_symbol
 _atom_site_label
 _atom_site_symmetry_multiplicity
 _atom_site_fract_x
 _atom_site_fract_y
 _atom_site_fract_z
 _atom_site_occupancy
  Tb  Tb0  1  0.402340  0.000000  0.000000  1
  Th  Th1  1  0.001929  0.408821  0.000000  1
  Th  Th2  1  0.593108  0.591179  0.000000  1
  Zn  Zn3  1  0.008820  0.757838  0.500000  1
  Zn  Zn4  1  0.250982  0.242162  0.500000  1
  Zn  Zn5  1  0.741193  0.000000  0.500000  1
  Pd  Pd6  1  0.995167  0.000000  0.000000  1
  Pd  Pd7  1  0.334031  0.661602  0.500000  1
  Pd  Pd8  1  0.672430  0.338398  0.500000  1
