# generated using pymatgen
data_ErTm4Cu5
_symmetry_space_group_name_H-M   'P 1'
_cell_length_a   3.46351100
_cell_length_b   3.46351100
_cell_length_c   17.30074700
_cell_angle_alpha   90.00000000
_cell_angle_beta   90.00000000
_cell_angle_gamma   90.00000000
_symmetry_Int_Tables_number   1
_chemical_formula_structural   ErTm4Cu5
_chemical_formula_sum   'Er1 Tm4 Cu5'
_cell_volume   207.53817708
_cell_formula_units_Z   1
loop_
 _symmetry_equiv_pos_site_id
 _symmetry_equiv_pos_as_xyz
  1  'x, y, z'
loop_
 _atom_site_type_symbol
 _atom_site_label
 _atom_site_symmetry_multiplicity
 _atom_site_fract_x
 _atom_site_fract_y
 _atom_site_fract_z
 _atom_site_occupancy
  Er  Er0  1  0.000000  0.000000  0.000000  1
  Tm  Tm1  1  0.000000  0.000000  0.199280  1
  Tm  Tm2  1  0.000000  0.000000  0.399684  1
  Tm  Tm3  1  0.000000  0.000000  0.600316  1
  Tm  Tm4  1  0.000000  0.000000  0.800720  1
  Cu  Cu5  1  0.500000  0.500000  0.098309  1
  Cu  Cu6  1  0.500000  0.500000  0.299357  1
  Cu  Cu7  1  0.500000  0.500000  0.500000  1
  Cu  Cu8  1  0.500000  0.500000  0.700643  1
  Cu  Cu9  1  0.500000  0.500000  0.901691  1
