# generated using pymatgen
data_Y2Ho4B14RuW
_symmetry_space_group_name_H-M   'P 1'
_cell_length_a   8.08503060
_cell_length_b   8.08502820
_cell_length_c   9.38312000
_cell_angle_alpha   90.00000000
_cell_angle_beta   90.00000000
_cell_angle_gamma   155.06696367
_symmetry_Int_Tables_number   1
_chemical_formula_structural   Y2Ho4B14RuW
_chemical_formula_sum   'Y2 Ho4 B14 Ru1 W1'
_cell_volume   258.56430713
_cell_formula_units_Z   1
loop_
 _symmetry_equiv_pos_site_id
 _symmetry_equiv_pos_as_xyz
  1  'x, y, z'
loop_
 _atom_site_type_symbol
 _atom_site_label
 _atom_site_symmetry_multiplicity
 _atom_site_fract_x
 _atom_site_fract_y
 _atom_site_fract_z
 _atom_site_occupancy
  Y  Y0  1  0.754103  0.245897  0.250000  1
  Y  Y1  1  0.244053  0.755947  0.750000  1
  Ho  Ho2  1  0.894217  0.105783  0.937717  1
  Ho  Ho3  1  0.106944  0.893056  0.058036  1
  Ho  Ho4  1  0.894217  0.105783  0.562283  1
  Ho  Ho5  1  0.106944  0.893056  0.441964  1
  B  B6  1  0.546102  0.453898  0.250000  1
  B  B7  1  0.457974  0.542026  0.750000  1
  B  B8  1  0.521079  0.478921  0.903675  1
  B  B9  1  0.480577  0.519423  0.090544  1
  B  B10  1  0.480577  0.519423  0.409456  1
  B  B11  1  0.521079  0.478921  0.596325  1
  B  B12  1  0.631455  0.368545  0.848994  1
  B  B13  1  0.365379  0.634621  0.146483  1
  B  B14  1  0.726539  0.273461  0.965160  1
  B  B15  1  0.271895  0.728105  0.031621  1
  B  B16  1  0.271895  0.728105  0.468379  1
  B  B17  1  0.726539  0.273461  0.534840  1
  B  B18  1  0.631455  0.368545  0.651006  1
  B  B19  1  0.365379  0.634621  0.353517  1
  Ru  Ru20  1  0.054117  0.945883  0.750000  1
  W  W21  1  0.947482  0.052518  0.250000  1
