# generated using pymatgen
data_Hf16Ta4Si15Sb
_symmetry_space_group_name_H-M   'P 1'
_cell_length_a   7.04774878
_cell_length_b   7.01421269
_cell_length_c   12.84297443
_cell_angle_alpha   89.81101892
_cell_angle_beta   89.54287412
_cell_angle_gamma   90.16217498
_symmetry_Int_Tables_number   1
_chemical_formula_structural   Hf16Ta4Si15Sb
_chemical_formula_sum   'Hf16 Ta4 Si15 Sb1'
_cell_volume   634.85859933
_cell_formula_units_Z   1
loop_
 _symmetry_equiv_pos_site_id
 _symmetry_equiv_pos_as_xyz
  1  'x, y, z'
loop_
 _atom_site_type_symbol
 _atom_site_label
 _atom_site_symmetry_multiplicity
 _atom_site_fract_x
 _atom_site_fract_y
 _atom_site_fract_z
 _atom_site_occupancy
  Hf  Hf0  1  0.496774  0.153085  0.531378  1
  Hf  Hf1  1  0.493860  0.838733  0.028062  1
  Hf  Hf2  1  0.649360  0.996857  0.285784  1
  Hf  Hf3  1  0.341558  0.993817  0.778027  1
  Hf  Hf4  1  0.847534  0.515638  0.965986  1
  Hf  Hf5  1  0.155444  0.499322  0.469565  1
  Hf  Hf6  1  0.002229  0.654402  0.717691  1
  Hf  Hf7  1  0.013123  0.356450  0.228387  1
  Hf  Hf8  1  0.488231  0.361865  0.125233  1
  Hf  Hf9  1  0.502097  0.645719  0.625366  1
  Hf  Hf10  1  0.852775  0.000877  0.871736  1
  Hf  Hf11  1  0.147915  0.997711  0.376764  1
  Hf  Hf12  1  0.646750  0.503079  0.374834  1
  Hf  Hf13  1  0.351822  0.498615  0.872585  1
  Hf  Hf14  1  0.013946  0.842900  0.127490  1
  Hf  Hf15  1  0.998123  0.146542  0.623875  1
  Ta  Ta16  1  0.675030  0.325361  0.749186  1
  Ta  Ta17  1  0.327162  0.673950  0.250891  1
  Ta  Ta18  1  0.825522  0.825522  0.500647  1
  Ta  Ta19  1  0.182054  0.172401  0.997687  1
  Si  Si20  1  0.203191  0.854869  0.572319  1
  Si  Si21  1  0.644401  0.702769  0.819712  1
  Si  Si22  1  0.358230  0.296274  0.323915  1
  Si  Si23  1  0.853795  0.202535  0.428010  1
  Si  Si24  1  0.142918  0.797474  0.926754  1
  Si  Si25  1  0.703264  0.647430  0.178278  1
  Si  Si26  1  0.296719  0.353019  0.677363  1
  Si  Si27  1  0.535772  0.192585  0.927334  1
  Si  Si28  1  0.451266  0.800446  0.436364  1
  Si  Si29  1  0.696370  0.954241  0.683342  1
  Si  Si30  1  0.305464  0.047052  0.185194  1
  Si  Si31  1  0.803080  0.453805  0.565289  1
  Si  Si32  1  0.194836  0.543289  0.062728  1
  Si  Si33  1  0.952774  0.699869  0.318366  1
  Si  Si34  1  0.045973  0.303436  0.814620  1
  Sb  Sb35  1  0.800641  0.148060  0.079237  1
