# generated using pymatgen
data_Dy3(BeSi2)2
_symmetry_space_group_name_H-M   'P 1'
_cell_length_a   3.88992200
_cell_length_b   5.62075210
_cell_length_c   7.85094879
_cell_angle_alpha   98.28230999
_cell_angle_beta   90.00000000
_cell_angle_gamma   110.24480462
_symmetry_Int_Tables_number   1
_chemical_formula_structural   Dy3(BeSi2)2
_chemical_formula_sum   'Dy3 Be2 Si4'
_cell_volume   159.14143011
_cell_formula_units_Z   1
loop_
 _symmetry_equiv_pos_site_id
 _symmetry_equiv_pos_as_xyz
  1  'x, y, z'
loop_
 _atom_site_type_symbol
 _atom_site_label
 _atom_site_symmetry_multiplicity
 _atom_site_fract_x
 _atom_site_fract_y
 _atom_site_fract_z
 _atom_site_occupancy
  Dy  Dy0  1  0.000000  0.000000  0.000000  1
  Dy  Dy1  1  0.335709  0.671421  0.332592  1
  Dy  Dy2  1  0.664290  0.328578  0.667406  1
  Be  Be3  1  0.611268  0.222536  0.282499  1
  Be  Be4  1  0.388731  0.777464  0.717501  1
  Si  Si5  1  0.714813  0.429627  0.063555  1
  Si  Si6  1  0.061857  0.123714  0.384822  1
  Si  Si7  1  0.938142  0.876285  0.615178  1
  Si  Si8  1  0.285188  0.570374  0.936445  1
