# generated using pymatgen
data_TaNb5Re6Si5P
_symmetry_space_group_name_H-M   'P 1'
_cell_length_a   7.53565136
_cell_length_b   7.59768663
_cell_length_c   7.53565130
_cell_angle_alpha   127.51902556
_cell_angle_beta   124.24819787
_cell_angle_gamma   79.89959476
_symmetry_Int_Tables_number   1
_chemical_formula_structural   TaNb5Re6Si5P
_chemical_formula_sum   'Ta1 Nb5 Re6 Si5 P1'
_cell_volume   273.49172431
_cell_formula_units_Z   1
loop_
 _symmetry_equiv_pos_site_id
 _symmetry_equiv_pos_as_xyz
  1  'x, y, z'
loop_
 _atom_site_type_symbol
 _atom_site_label
 _atom_site_symmetry_multiplicity
 _atom_site_fract_x
 _atom_site_fract_y
 _atom_site_fract_z
 _atom_site_occupancy
  Ta  Ta0  1  0.545554  0.089826  0.044272  1
  Nb  Nb1  1  0.441920  0.477432  0.535512  1
  Nb  Nb2  1  0.966122  0.508298  0.042176  1
  Nb  Nb3  1  0.041239  0.078514  0.537275  1
  Nb  Nb4  1  0.757276  0.907808  0.650531  1
  Nb  Nb5  1  0.249557  0.914036  0.164478  1
  Re  Re6  1  0.529448  0.245791  0.777959  1
  Re  Re7  1  0.967831  0.245791  0.216343  1
  Re  Re8  1  0.156649  0.746335  0.653906  1
  Re  Re9  1  0.839040  0.493246  0.586187  1
  Re  Re10  1  0.592428  0.746335  0.089686  1
  Re  Re11  1  0.407060  0.493246  0.154207  1
  Si  Si12  1  0.227510  0.465288  0.737778  1
  Si  Si13  1  0.339906  0.829064  0.502059  1
  Si  Si14  1  0.669566  0.164140  0.499050  1
  Si  Si15  1  0.827005  0.829064  0.989158  1
  Si  Si16  1  0.165090  0.164140  0.994575  1
  P  P17  1  0.776798  0.543845  0.267048  1
