# generated using pymatgen
data_Nd4TlPd3PtPb
_symmetry_space_group_name_H-M   'P 1'
_cell_length_a   3.82598000
_cell_length_b   8.01247118
_cell_length_c   8.00468103
_cell_angle_alpha   89.94704421
_cell_angle_beta   90.00000000
_cell_angle_gamma   90.00000000
_symmetry_Int_Tables_number   1
_chemical_formula_structural   Nd4TlPd3PtPb
_chemical_formula_sum   'Nd4 Tl1 Pd3 Pt1 Pb1'
_cell_volume   245.38783067
_cell_formula_units_Z   1
loop_
 _symmetry_equiv_pos_site_id
 _symmetry_equiv_pos_as_xyz
  1  'x, y, z'
loop_
 _atom_site_type_symbol
 _atom_site_label
 _atom_site_symmetry_multiplicity
 _atom_site_fract_x
 _atom_site_fract_y
 _atom_site_fract_z
 _atom_site_occupancy
  Nd  Nd0  1  0.500000  0.170711  0.674853  1
  Nd  Nd1  1  0.500000  0.822957  0.319733  1
  Nd  Nd2  1  0.500000  0.329218  0.175167  1
  Nd  Nd3  1  0.500000  0.678995  0.833490  1
  Tl  Tl4  1  0.000000  0.007187  0.000293  1
  Pd  Pd5  1  0.000000  0.371439  0.871909  1
  Pd  Pd6  1  0.000000  0.875190  0.623575  1
  Pd  Pd7  1  0.000000  0.122581  0.374522  1
  Pt  Pt8  1  0.000000  0.621618  0.119756  1
  Pb  Pb9  1  0.000000  0.500105  0.506702  1
