# generated using pymatgen
data_Ho3Re3(SnN6)2
_symmetry_space_group_name_H-M   'P 1'
_cell_length_a   11.02580428
_cell_length_b   11.02580467
_cell_length_c   11.02580400
_cell_angle_alpha   109.47121941
_cell_angle_beta   109.47122012
_cell_angle_gamma   109.47122044
_symmetry_Int_Tables_number   1
_chemical_formula_structural   Ho3Re3(SnN6)2
_chemical_formula_sum   'Ho12 Re12 Sn8 N48'
_cell_volume   1031.83192524
_cell_formula_units_Z   4
loop_
 _symmetry_equiv_pos_site_id
 _symmetry_equiv_pos_as_xyz
  1  'x, y, z'
loop_
 _atom_site_type_symbol
 _atom_site_label
 _atom_site_symmetry_multiplicity
 _atom_site_fract_x
 _atom_site_fract_y
 _atom_site_fract_z
 _atom_site_occupancy
  Ho  Ho0  1  0.250000  0.375001  0.125000  1
  Ho  Ho1  1  0.375000  0.750000  0.125000  1
  Ho  Ho2  1  0.375001  0.125000  0.250000  1
  Ho  Ho3  1  0.875000  0.625000  0.250000  1
  Ho  Ho4  1  0.125000  0.250000  0.375001  1
  Ho  Ho5  1  0.750000  0.125000  0.375000  1
  Ho  Ho6  1  0.250000  0.875000  0.625000  1
  Ho  Ho7  1  0.875000  0.750000  0.625000  1
  Ho  Ho8  1  0.125000  0.375000  0.750000  1
  Ho  Ho9  1  0.625000  0.875000  0.750000  1
  Ho  Ho10  1  0.625000  0.250000  0.875000  1
  Ho  Ho11  1  0.750000  0.625000  0.875000  1
  Re  Re12  1  0.750000  0.875000  0.125000  1
  Re  Re13  1  0.875000  0.250000  0.124999  1
  Re  Re14  1  0.625000  0.375000  0.250000  1
  Re  Re15  1  0.124999  0.875000  0.250000  1
  Re  Re16  1  0.625000  0.750000  0.375001  1
  Re  Re17  1  0.250000  0.625000  0.375000  1
  Re  Re18  1  0.750000  0.375001  0.625000  1
  Re  Re19  1  0.375000  0.250000  0.625000  1
  Re  Re20  1  0.875000  0.125000  0.750000  1
  Re  Re21  1  0.375001  0.625000  0.750000  1
  Re  Re22  1  0.250000  0.124999  0.875000  1
  Re  Re23  1  0.125000  0.750000  0.875000  1
  Sn  Sn24  1  0.000000  0.000000  0.000000  1
  Sn  Sn25  1  0.500001  0.000000  0.000000  1
  Sn  Sn26  1  0.500000  0.500000  0.000000  1
  Sn  Sn27  1  0.000000  0.500001  0.000000  1
  Sn  Sn28  1  0.500000  0.000000  0.500000  1
  Sn  Sn29  1  0.000000  0.500000  0.500000  1
  Sn  Sn30  1  0.000000  0.000000  0.500001  1
  Sn  Sn31  1  0.500001  0.500001  0.500001  1
  N  N32  1  0.310985  0.903652  0.027444  1
  N  N33  1  0.216458  0.123792  0.027443  1
  N  N34  1  0.716458  0.689015  0.092667  1
  N  N35  1  0.876208  0.403651  0.092666  1
  N  N36  1  0.623791  0.407333  0.096349  1
  N  N37  1  0.972558  0.689016  0.096350  1
  N  N38  1  0.027443  0.216458  0.123792  1
  N  N39  1  0.596349  0.907334  0.123792  1
  N  N40  1  0.472557  0.596349  0.189016  1
  N  N41  1  0.216459  0.592667  0.189016  1
  N  N42  1  0.123792  0.027443  0.216458  1
  N  N43  1  0.592667  0.189016  0.216459  1
  N  N44  1  0.472557  0.376208  0.283542  1
  N  N45  1  0.310984  0.907333  0.283542  1
  N  N46  1  0.903652  0.027444  0.310985  1
  N  N47  1  0.907333  0.283542  0.310984  1
  N  N48  1  0.283542  0.472557  0.376208  1
  N  N49  1  0.592667  0.903651  0.376208  1
  N  N50  1  0.092666  0.876208  0.403651  1
  N  N51  1  0.810984  0.527443  0.403651  1
  N  N52  1  0.810985  0.783542  0.407334  1
  N  N53  1  0.096349  0.623791  0.407333  1
  N  N54  1  0.596349  0.189016  0.472557  1
  N  N55  1  0.376208  0.283542  0.472557  1
  N  N56  1  0.623792  0.716459  0.527443  1
  N  N57  1  0.403651  0.810984  0.527443  1
  N  N58  1  0.903651  0.376208  0.592667  1
  N  N59  1  0.189016  0.216459  0.592667  1
  N  N60  1  0.907334  0.123792  0.596349  1
  N  N61  1  0.189016  0.472557  0.596349  1
  N  N62  1  0.407333  0.096349  0.623791  1
  N  N63  1  0.716459  0.527443  0.623792  1
  N  N64  1  0.092667  0.716458  0.689015  1
  N  N65  1  0.096350  0.972558  0.689016  1
  N  N66  1  0.689015  0.092667  0.716458  1
  N  N67  1  0.527443  0.623792  0.716459  1
  N  N68  1  0.407334  0.810985  0.783542  1
  N  N69  1  0.876208  0.972557  0.783542  1
  N  N70  1  0.783542  0.407334  0.810985  1
  N  N71  1  0.527443  0.403651  0.810984  1
  N  N72  1  0.403651  0.092666  0.876208  1
  N  N73  1  0.972557  0.783542  0.876208  1
  N  N74  1  0.027444  0.310985  0.903652  1
  N  N75  1  0.376208  0.592667  0.903651  1
  N  N76  1  0.123792  0.596349  0.907334  1
  N  N77  1  0.283542  0.310984  0.907333  1
  N  N78  1  0.689016  0.096350  0.972558  1
  N  N79  1  0.783542  0.876208  0.972557  1
