# generated using pymatgen
data_Dy2Y2Ga12Au
_symmetry_space_group_name_H-M   'P 1'
_cell_length_a   7.53194209
_cell_length_b   7.53704462
_cell_length_c   7.53194180
_cell_angle_alpha   109.42164391
_cell_angle_beta   109.54301548
_cell_angle_gamma   109.42165084
_symmetry_Int_Tables_number   1
_chemical_formula_structural   Dy2Y2Ga12Au
_chemical_formula_sum   'Dy2 Y2 Ga12 Au1'
_cell_volume   329.26013231
_cell_formula_units_Z   1
loop_
 _symmetry_equiv_pos_site_id
 _symmetry_equiv_pos_as_xyz
  1  'x, y, z'
loop_
 _atom_site_type_symbol
 _atom_site_label
 _atom_site_symmetry_multiplicity
 _atom_site_fract_x
 _atom_site_fract_y
 _atom_site_fract_z
 _atom_site_occupancy
  Dy  Dy0  1  0.000000  0.000000  0.500000  1
  Dy  Dy1  1  0.500000  0.000000  0.000000  1
  Y  Y2  1  0.000000  0.500000  0.000000  1
  Y  Y3  1  0.500000  0.500000  0.500000  1
  Ga  Ga4  1  0.749936  0.249630  0.499694  1
  Ga  Ga5  1  0.750000  0.500000  0.250000  1
  Ga  Ga6  1  0.499694  0.249630  0.749936  1
  Ga  Ga7  1  0.250000  0.500000  0.750000  1
  Ga  Ga8  1  0.250064  0.750370  0.500306  1
  Ga  Ga9  1  0.500306  0.750370  0.250064  1
  Ga  Ga10  1  0.695750  0.696549  0.000799  1
  Ga  Ga11  1  0.304322  0.000000  0.304322  1
  Ga  Ga12  1  0.999201  0.303451  0.304250  1
  Ga  Ga13  1  0.304250  0.303451  0.999201  1
  Ga  Ga14  1  0.695678  0.000000  0.695678  1
  Ga  Ga15  1  0.000799  0.696549  0.695750  1
  Au  Au16  1  0.000000  0.000000  0.000000  1
