# generated using pymatgen
data_YPuMnN3
_symmetry_space_group_name_H-M   'P 1'
_cell_length_a   3.35984836
_cell_length_b   3.67895919
_cell_length_c   6.63765093
_cell_angle_alpha   106.08691314
_cell_angle_beta   104.65962654
_cell_angle_gamma   90.00465087
_symmetry_Int_Tables_number   1
_chemical_formula_structural   YPuMnN3
_chemical_formula_sum   'Y1 Pu1 Mn1 N3'
_cell_volume   76.04941758
_cell_formula_units_Z   1
loop_
 _symmetry_equiv_pos_site_id
 _symmetry_equiv_pos_as_xyz
  1  'x, y, z'
loop_
 _atom_site_type_symbol
 _atom_site_label
 _atom_site_symmetry_multiplicity
 _atom_site_fract_x
 _atom_site_fract_y
 _atom_site_fract_z
 _atom_site_occupancy
  Y  Y0  1  0.353574  0.353575  0.707185  1
  Pu  Pu1  1  0.648701  0.648654  0.297390  1
  Mn  Mn2  1  0.000714  0.000745  0.001384  1
  N  N3  1  0.163219  0.163151  0.326433  1
  N  N4  1  0.833030  0.833052  0.666112  1
  N  N5  1  0.000762  0.500822  0.001496  1
