# generated using pymatgen
data_Tb6Tm4BiPb5
_symmetry_space_group_name_H-M   'P 1'
_cell_length_a   6.54042100
_cell_length_b   9.08378658
_cell_length_c   9.07964480
_cell_angle_alpha   120.01509014
_cell_angle_beta   89.99832053
_cell_angle_gamma   90.00335764
_symmetry_Int_Tables_number   1
_chemical_formula_structural   Tb6Tm4BiPb5
_chemical_formula_sum   'Tb6 Tm4 Bi1 Pb5'
_cell_volume   467.09590352
_cell_formula_units_Z   1
loop_
 _symmetry_equiv_pos_site_id
 _symmetry_equiv_pos_as_xyz
  1  'x, y, z'
loop_
 _atom_site_type_symbol
 _atom_site_label
 _atom_site_symmetry_multiplicity
 _atom_site_fract_x
 _atom_site_fract_y
 _atom_site_fract_z
 _atom_site_occupancy
  Tb  Tb0  1  0.749984  0.237518  0.000000  1
  Tb  Tb1  1  0.749928  0.762565  0.759382  1
  Tb  Tb2  1  0.749928  0.003183  0.240618  1
  Tb  Tb3  1  0.250035  0.761230  0.000000  1
  Tb  Tb4  1  0.250074  0.238719  0.239418  1
  Tb  Tb5  1  0.250074  0.999302  0.760582  1
  Tm  Tm6  1  0.500554  0.331722  0.664634  1
  Tm  Tm7  1  0.500554  0.667088  0.335366  1
  Tm  Tm8  1  0.999458  0.667074  0.335358  1
  Tm  Tm9  1  0.999458  0.331716  0.664642  1
  Bi  Bi10  1  0.749990  0.604823  0.000000  1
  Pb  Pb11  1  0.749993  0.396085  0.395968  1
  Pb  Pb12  1  0.749993  0.000117  0.604032  1
  Pb  Pb13  1  0.249976  0.395240  0.000000  1
  Pb  Pb14  1  0.249999  0.604272  0.604928  1
  Pb  Pb15  1  0.249999  0.999344  0.395072  1
