# generated using pymatgen
data_Pr6SiAsBr6
_symmetry_space_group_name_H-M   'P 1'
_cell_length_a   10.48470382
_cell_length_b   10.48470414
_cell_length_c   10.54646374
_cell_angle_alpha   109.47094973
_cell_angle_beta   109.47094712
_cell_angle_gamma   109.23329249
_symmetry_Int_Tables_number   1
_chemical_formula_structural   Pr6SiAsBr6
_chemical_formula_sum   'Pr12 Si2 As2 Br12'
_cell_volume   895.09072936
_cell_formula_units_Z   2
loop_
 _symmetry_equiv_pos_site_id
 _symmetry_equiv_pos_as_xyz
  1  'x, y, z'
loop_
 _atom_site_type_symbol
 _atom_site_label
 _atom_site_symmetry_multiplicity
 _atom_site_fract_x
 _atom_site_fract_y
 _atom_site_fract_z
 _atom_site_occupancy
  Pr  Pr0  1  0.476173  0.486291  0.240052  1
  Pr  Pr1  1  0.746239  0.236122  0.259948  1
  Pr  Pr2  1  0.746253  0.010390  0.486213  1
  Pr  Pr3  1  0.239960  0.475822  0.486213  1
  Pr  Pr4  1  0.263878  0.753761  0.240052  1
  Pr  Pr5  1  0.024178  0.260040  0.013787  1
  Pr  Pr6  1  0.013709  0.023827  0.259948  1
  Pr  Pr7  1  0.489610  0.753747  0.013787  1
  Pr  Pr8  1  0.488221  0.238221  0.476442  1
  Pr  Pr9  1  0.012099  0.487901  0.750000  1
  Pr  Pr10  1  0.261779  0.011779  0.023558  1
  Pr  Pr11  1  0.237901  0.262099  0.750000  1
  Si  Si12  1  0.250226  0.249774  0.250000  1
  Si  Si13  1  0.499774  0.000226  0.250000  1
  As  As14  1  0.999565  0.249565  0.499130  1
  As  As15  1  0.250435  0.500435  0.000870  1
  Br  Br16  1  0.249541  0.752503  0.746269  1
  Br  Br17  1  0.506233  0.503272  0.753731  1
  Br  Br18  1  0.991703  0.745170  0.995400  1
  Br  Br19  1  0.747497  0.250459  0.753731  1
  Br  Br20  1  0.996728  0.993767  0.746269  1
  Br  Br21  1  0.249770  0.996302  0.504600  1
  Br  Br22  1  0.754830  0.508297  0.504600  1
  Br  Br23  1  0.503698  0.250230  0.995400  1
  Br  Br24  1  0.753310  0.746690  0.250000  1
  Br  Br25  1  0.746135  0.996135  0.992270  1
  Br  Br26  1  0.996690  0.503310  0.250000  1
  Br  Br27  1  0.503865  0.753865  0.507730  1
