# generated using pymatgen
data_Ce19HoSi15Cl
_symmetry_space_group_name_H-M   'P 1'
_cell_length_a   7.63722208
_cell_length_b   7.72480741
_cell_length_c   14.83223400
_cell_angle_alpha   89.57406087
_cell_angle_beta   85.08497818
_cell_angle_gamma   89.79177370
_symmetry_Int_Tables_number   1
_chemical_formula_structural   Ce19HoSi15Cl
_chemical_formula_sum   'Ce19 Ho1 Si15 Cl1'
_cell_volume   871.79782420
_cell_formula_units_Z   1
loop_
 _symmetry_equiv_pos_site_id
 _symmetry_equiv_pos_as_xyz
  1  'x, y, z'
loop_
 _atom_site_type_symbol
 _atom_site_label
 _atom_site_symmetry_multiplicity
 _atom_site_fract_x
 _atom_site_fract_y
 _atom_site_fract_z
 _atom_site_occupancy
  Ce  Ce0  1  0.869380  0.333230  0.612185  1
  Ce  Ce1  1  0.479773  0.683662  0.898498  1
  Ce  Ce2  1  0.973819  0.823034  0.898472  1
  Ce  Ce3  1  0.167359  0.673711  0.125066  1
  Ce  Ce4  1  0.672695  0.816143  0.127609  1
  Ce  Ce5  1  0.331617  0.177275  0.877798  1
  Ce  Ce6  1  0.122662  0.666434  0.386156  1
  Ce  Ce7  1  0.025120  0.184607  0.103695  1
  Ce  Ce8  1  0.378209  0.167313  0.616480  1
  Ce  Ce9  1  0.837480  0.507973  0.240362  1
  Ce  Ce10  1  0.337949  0.990921  0.252583  1
  Ce  Ce11  1  0.484493  0.305983  0.400995  1
  Ce  Ce12  1  0.820939  0.317606  0.876389  1
  Ce  Ce13  1  0.019446  0.829837  0.605402  1
  Ce  Ce14  1  0.510294  0.694115  0.600926  1
  Ce  Ce15  1  0.991376  0.179937  0.398449  1
  Ce  Ce16  1  0.623274  0.830033  0.381774  1
  Ce  Ce17  1  0.664773  0.010504  0.748584  1
  Ce  Ce18  1  0.525027  0.314614  0.103310  1
  Ho  Ho19  1  0.171095  0.506188  0.748556  1
  Si  Si20  1  0.444299  0.594311  0.256630  1
  Si  Si21  1  0.216937  0.367865  0.253016  1
  Si  Si22  1  0.550473  0.405785  0.745904  1
  Si  Si23  1  0.640937  0.020246  0.960386  1
  Si  Si24  1  0.053218  0.110366  0.747613  1
  Si  Si25  1  0.787538  0.628380  0.748171  1
  Si  Si26  1  0.717988  0.128426  0.252809  1
  Si  Si27  1  0.283928  0.969212  0.457583  1
  Si  Si28  1  0.950516  0.901209  0.254652  1
  Si  Si29  1  0.356989  0.971954  0.044607  1
  Si  Si30  1  0.720623  0.024430  0.538866  1
  Si  Si31  1  0.139583  0.477118  0.953710  1
  Si  Si32  1  0.215573  0.478588  0.547019  1
  Si  Si33  1  0.855400  0.523334  0.038464  1
  Si  Si34  1  0.283834  0.873372  0.751059  1
  Cl  Cl35  1  0.775382  0.512286  0.446221  1
