# generated using pymatgen
data_Tc(Te2Mo)2
_symmetry_space_group_name_H-M   'P 1'
_cell_length_a   7.11394426
_cell_length_b   7.20345507
_cell_length_c   7.16141140
_cell_angle_alpha   93.21804957
_cell_angle_beta   93.38217877
_cell_angle_gamma   92.13268874
_symmetry_Int_Tables_number   1
_chemical_formula_structural   Tc(Te2Mo)2
_chemical_formula_sum   'Tc2 Te8 Mo4'
_cell_volume   365.46699553
_cell_formula_units_Z   2
loop_
 _symmetry_equiv_pos_site_id
 _symmetry_equiv_pos_as_xyz
  1  'x, y, z'
loop_
 _atom_site_type_symbol
 _atom_site_label
 _atom_site_symmetry_multiplicity
 _atom_site_fract_x
 _atom_site_fract_y
 _atom_site_fract_z
 _atom_site_occupancy
  Tc  Tc0  1  0.447523  0.751194  0.585036  1
  Tc  Tc1  1  0.750778  0.582656  0.455195  1
  Te  Te2  1  0.261068  0.622210  0.878779  1
  Te  Te3  1  0.611240  0.877733  0.271068  1
  Te  Te4  1  0.885530  0.266211  0.615575  1
  Te  Te5  1  0.741831  0.378804  0.123750  1
  Te  Te6  1  0.390304  0.116843  0.738425  1
  Te  Te7  1  0.114281  0.738555  0.381161  1
  Te  Te8  1  0.784122  0.786486  0.785856  1
  Te  Te9  1  0.211792  0.215645  0.200983  1
  Mo  Mo10  1  0.586679  0.455401  0.756047  1
  Mo  Mo11  1  0.549052  0.246315  0.414842  1
  Mo  Mo12  1  0.253062  0.414990  0.545820  1
  Mo  Mo13  1  0.412737  0.546958  0.247463  1
