# generated using pymatgen
data_Nd2ThSi4
_symmetry_space_group_name_H-M   'P 1'
_cell_length_a   3.98845194
_cell_length_b   4.39966432
_cell_length_c   9.44027000
_cell_angle_alpha   76.51565886
_cell_angle_beta   77.81603130
_cell_angle_gamma   90.00458799
_symmetry_Int_Tables_number   1
_chemical_formula_structural   Nd2ThSi4
_chemical_formula_sum   'Nd2 Th1 Si4'
_cell_volume   157.24947646
_cell_formula_units_Z   1
loop_
 _symmetry_equiv_pos_site_id
 _symmetry_equiv_pos_as_xyz
  1  'x, y, z'
loop_
 _atom_site_type_symbol
 _atom_site_label
 _atom_site_symmetry_multiplicity
 _atom_site_fract_x
 _atom_site_fract_y
 _atom_site_fract_z
 _atom_site_occupancy
  Nd  Nd0  1  0.681597  0.181944  0.636920  1
  Nd  Nd1  1  0.318407  0.818060  0.363078  1
  Th  Th2  1  0.000001  0.999999  0.000001  1
  Si  Si3  1  0.855163  0.354316  0.289837  1
  Si  Si4  1  0.144834  0.645683  0.710164  1
  Si  Si5  1  0.565367  0.565729  0.868657  1
  Si  Si6  1  0.434632  0.434270  0.131344  1
