# generated using pymatgen
data_HoMgNi12P7
_symmetry_space_group_name_H-M   'P 1'
_cell_length_a   9.05824200
_cell_length_b   9.05824314
_cell_length_c   3.62193900
_cell_angle_alpha   90.00000000
_cell_angle_beta   90.00000000
_cell_angle_gamma   119.99999584
_symmetry_Int_Tables_number   1
_chemical_formula_structural   HoMgNi12P7
_chemical_formula_sum   'Ho1 Mg1 Ni12 P7'
_cell_volume   257.37103819
_cell_formula_units_Z   1
loop_
 _symmetry_equiv_pos_site_id
 _symmetry_equiv_pos_as_xyz
  1  'x, y, z'
loop_
 _atom_site_type_symbol
 _atom_site_label
 _atom_site_symmetry_multiplicity
 _atom_site_fract_x
 _atom_site_fract_y
 _atom_site_fract_z
 _atom_site_occupancy
  Ho  Ho0  1  0.000000  0.000000  0.000000  1
  Mg  Mg1  1  0.333333  0.666667  0.500000  1
  Ni  Ni2  1  0.103435  0.398670  0.000000  1
  Ni  Ni3  1  0.295236  0.896565  0.000000  1
  Ni  Ni4  1  0.601330  0.704764  0.000000  1
  Ni  Ni5  1  0.821017  0.609158  0.000000  1
  Ni  Ni6  1  0.788141  0.178983  0.000000  1
  Ni  Ni7  1  0.390842  0.211859  0.000000  1
  Ni  Ni8  1  0.051384  0.763675  0.500000  1
  Ni  Ni9  1  0.712292  0.948616  0.500000  1
  Ni  Ni10  1  0.236325  0.287708  0.500000  1
  Ni  Ni11  1  0.879123  0.424917  0.500000  1
  Ni  Ni12  1  0.545794  0.120877  0.500000  1
  Ni  Ni13  1  0.575083  0.454206  0.500000  1
  P  P14  1  0.079151  0.628027  0.000000  1
  P  P15  1  0.548876  0.920849  0.000000  1
  P  P16  1  0.371973  0.451124  0.000000  1
  P  P17  1  0.779390  0.738856  0.500000  1
  P  P18  1  0.959466  0.220610  0.500000  1
  P  P19  1  0.261144  0.040534  0.500000  1
  P  P20  1  0.666667  0.333333  0.000000  1
