# generated using pymatgen
data_Y2P6Rh12Pb
_symmetry_space_group_name_H-M   'P 1'
_cell_length_a   9.81360900
_cell_length_b   9.81360851
_cell_length_c   3.89248200
_cell_angle_alpha   90.00000000
_cell_angle_beta   90.00000000
_cell_angle_gamma   119.99999153
_symmetry_Int_Tables_number   1
_chemical_formula_structural   Y2P6Rh12Pb
_chemical_formula_sum   'Y2 P6 Rh12 Pb1'
_cell_volume   324.64951711
_cell_formula_units_Z   1
loop_
 _symmetry_equiv_pos_site_id
 _symmetry_equiv_pos_as_xyz
  1  'x, y, z'
loop_
 _atom_site_type_symbol
 _atom_site_label
 _atom_site_symmetry_multiplicity
 _atom_site_fract_x
 _atom_site_fract_y
 _atom_site_fract_z
 _atom_site_occupancy
  Y  Y0  1  0.333333  0.666667  0.753183  1
  Y  Y1  1  0.666667  0.333333  0.246817  1
  P  P2  1  0.406310  0.288223  0.744743  1
  P  P3  1  0.711777  0.118087  0.744743  1
  P  P4  1  0.881913  0.593690  0.744743  1
  P  P5  1  0.593690  0.711777  0.255257  1
  P  P6  1  0.288223  0.881913  0.255257  1
  P  P7  1  0.118087  0.406310  0.255257  1
  Rh  Rh8  1  0.454083  0.067011  0.746320  1
  Rh  Rh9  1  0.932989  0.387072  0.746320  1
  Rh  Rh10  1  0.612928  0.545917  0.746320  1
  Rh  Rh11  1  0.545917  0.932989  0.253680  1
  Rh  Rh12  1  0.067011  0.612928  0.253680  1
  Rh  Rh13  1  0.387072  0.454083  0.253680  1
  Rh  Rh14  1  0.164598  0.293943  0.762461  1
  Rh  Rh15  1  0.706057  0.870655  0.762461  1
  Rh  Rh16  1  0.129345  0.835402  0.762461  1
  Rh  Rh17  1  0.835402  0.706057  0.237539  1
  Rh  Rh18  1  0.293943  0.129345  0.237539  1
  Rh  Rh19  1  0.870655  0.164598  0.237539  1
  Pb  Pb20  1  0.000000  0.000000  0.500000  1
