# generated using pymatgen
data_Dy7Y(TmBi)12
_symmetry_space_group_name_H-M   'P 1'
_cell_length_a   8.21371014
_cell_length_b   9.43834400
_cell_length_c   12.01443720
_cell_angle_alpha   90.00000000
_cell_angle_beta   89.97885925
_cell_angle_gamma   90.00000000
_symmetry_Int_Tables_number   1
_chemical_formula_structural   Dy7Y(TmBi)12
_chemical_formula_sum   'Dy7 Y1 Tm12 Bi12'
_cell_volume   931.40502565
_cell_formula_units_Z   1
loop_
 _symmetry_equiv_pos_site_id
 _symmetry_equiv_pos_as_xyz
  1  'x, y, z'
loop_
 _atom_site_type_symbol
 _atom_site_label
 _atom_site_symmetry_multiplicity
 _atom_site_fract_x
 _atom_site_fract_y
 _atom_site_fract_z
 _atom_site_occupancy
  Dy  Dy0  1  0.186469  0.750000  0.718648  1
  Dy  Dy1  1  0.686508  0.750000  0.781381  1
  Dy  Dy2  1  0.813498  0.250000  0.281350  1
  Dy  Dy3  1  0.313498  0.250000  0.218606  1
  Dy  Dy4  1  0.353736  0.750000  0.216242  1
  Dy  Dy5  1  0.853755  0.750000  0.283728  1
  Dy  Dy6  1  0.646239  0.250000  0.783766  1
  Y  Y7  1  0.146304  0.250000  0.716077  1
  Tm  Tm8  1  0.025038  0.750000  0.988955  1
  Tm  Tm9  1  0.525010  0.750000  0.511045  1
  Tm  Tm10  1  0.974960  0.250000  0.011081  1
  Tm  Tm11  1  0.474953  0.250000  0.488946  1
  Tm  Tm12  1  0.306879  0.434469  0.940554  1
  Tm  Tm13  1  0.806736  0.065577  0.559539  1
  Tm  Tm14  1  0.693188  0.934414  0.059541  1
  Tm  Tm15  1  0.193206  0.565633  0.440447  1
  Tm  Tm16  1  0.693188  0.565586  0.059541  1
  Tm  Tm17  1  0.193206  0.934367  0.440447  1
  Tm  Tm18  1  0.306879  0.065531  0.940554  1
  Tm  Tm19  1  0.806736  0.434423  0.559539  1
  Bi  Bi20  1  0.433873  0.003856  0.672595  1
  Bi  Bi21  1  0.933684  0.496178  0.827414  1
  Bi  Bi22  1  0.566249  0.503925  0.327401  1
  Bi  Bi23  1  0.066244  0.996117  0.172623  1
  Bi  Bi24  1  0.566249  0.996075  0.327401  1
  Bi  Bi25  1  0.066244  0.503883  0.172623  1
  Bi  Bi26  1  0.433873  0.496144  0.672595  1
  Bi  Bi27  1  0.933684  0.003822  0.827414  1
  Bi  Bi28  1  0.406784  0.750000  0.957750  1
  Bi  Bi29  1  0.906768  0.750000  0.542254  1
  Bi  Bi30  1  0.593232  0.250000  0.042209  1
  Bi  Bi31  1  0.093131  0.250000  0.457731  1
