# generated using pymatgen
data_Y6Tm4TlSb5
_symmetry_space_group_name_H-M   'P 1'
_cell_length_a   6.36917500
_cell_length_b   8.93910203
_cell_length_c   8.95029300
_cell_angle_alpha   119.95865098
_cell_angle_beta   90.00000000
_cell_angle_gamma   89.99999359
_symmetry_Int_Tables_number   1
_chemical_formula_structural   Y6Tm4TlSb5
_chemical_formula_sum   'Y6 Tm4 Tl1 Sb5'
_cell_volume   441.49497311
_cell_formula_units_Z   1
loop_
 _symmetry_equiv_pos_site_id
 _symmetry_equiv_pos_as_xyz
  1  'x, y, z'
loop_
 _atom_site_type_symbol
 _atom_site_label
 _atom_site_symmetry_multiplicity
 _atom_site_fract_x
 _atom_site_fract_y
 _atom_site_fract_z
 _atom_site_occupancy
  Y  Y0  1  0.749999  0.243795  0.000000  1
  Y  Y1  1  0.750001  0.753613  0.756322  1
  Y  Y2  1  0.750001  0.997291  0.243678  1
  Y  Y3  1  0.249999  0.756020  0.000000  1
  Y  Y4  1  0.249998  0.247122  0.245362  1
  Y  Y5  1  0.249998  0.001760  0.754638  1
  Tm  Tm6  1  0.499114  0.334906  0.668690  1
  Tm  Tm7  1  0.499114  0.666217  0.331310  1
  Tm  Tm8  1  0.000890  0.666217  0.331310  1
  Tm  Tm9  1  0.000890  0.334907  0.668690  1
  Tl  Tl10  1  0.750000  0.605205  0.000000  1
  Sb  Sb11  1  0.750000  0.390426  0.391239  1
  Sb  Sb12  1  0.750000  0.999189  0.608761  1
  Sb  Sb13  1  0.249999  0.392164  0.000000  1
  Sb  Sb14  1  0.250000  0.609971  0.608774  1
  Sb  Sb15  1  0.250000  0.001197  0.391226  1
