# generated using pymatgen
data_ErLu3Mg2(B2Rh5)2
_symmetry_space_group_name_H-M   'P 1'
_cell_length_a   9.56298951
_cell_length_b   9.56298951
_cell_length_c   3.16006900
_cell_angle_alpha   90.00000000
_cell_angle_beta   90.00000000
_cell_angle_gamma   90.13369233
_symmetry_Int_Tables_number   1
_chemical_formula_structural   ErLu3Mg2(B2Rh5)2
_chemical_formula_sum   'Er1 Lu3 Mg2 B4 Rh10'
_cell_volume   288.98995133
_cell_formula_units_Z   1
loop_
 _symmetry_equiv_pos_site_id
 _symmetry_equiv_pos_as_xyz
  1  'x, y, z'
loop_
 _atom_site_type_symbol
 _atom_site_label
 _atom_site_symmetry_multiplicity
 _atom_site_fract_x
 _atom_site_fract_y
 _atom_site_fract_z
 _atom_site_occupancy
  Er  Er0  1  0.824583  0.675417  0.000000  1
  Lu  Lu1  1  0.675634  0.175746  0.000000  1
  Lu  Lu2  1  0.324254  0.824366  0.000000  1
  Lu  Lu3  1  0.175687  0.324313  0.000000  1
  Mg  Mg4  1  0.000079  0.000171  0.000000  1
  Mg  Mg5  1  0.499829  0.499921  0.000000  1
  B  B6  1  0.123488  0.622933  0.000000  1
  B  B7  1  0.877067  0.376512  0.000000  1
  B  B8  1  0.622802  0.877198  0.000000  1
  B  B9  1  0.376512  0.123488  0.000000  1
  Rh  Rh10  1  0.499885  0.000115  0.500000  1
  Rh  Rh11  1  0.000938  0.499062  0.500000  1
  Rh  Rh12  1  0.223169  0.070589  0.500000  1
  Rh  Rh13  1  0.776427  0.930672  0.500000  1
  Rh  Rh14  1  0.071631  0.777243  0.500000  1
  Rh  Rh15  1  0.722757  0.428369  0.500000  1
  Rh  Rh16  1  0.929354  0.222835  0.500000  1
  Rh  Rh17  1  0.277165  0.570646  0.500000  1
  Rh  Rh18  1  0.569328  0.723573  0.500000  1
  Rh  Rh19  1  0.429411  0.276831  0.500000  1
