# generated using pymatgen
data_Hf4ScRe17Tc7
_symmetry_space_group_name_H-M   'P 1'
_cell_length_a   8.46582216
_cell_length_b   8.46582216
_cell_length_c   8.45426823
_cell_angle_alpha   109.48891116
_cell_angle_beta   109.48891087
_cell_angle_gamma   109.58197728
_symmetry_Int_Tables_number   1
_chemical_formula_structural   Hf4ScRe17Tc7
_chemical_formula_sum   'Hf4 Sc1 Re17 Tc7'
_cell_volume   465.59293799
_cell_formula_units_Z   1
loop_
 _symmetry_equiv_pos_site_id
 _symmetry_equiv_pos_as_xyz
  1  'x, y, z'
loop_
 _atom_site_type_symbol
 _atom_site_label
 _atom_site_symmetry_multiplicity
 _atom_site_fract_x
 _atom_site_fract_y
 _atom_site_fract_z
 _atom_site_occupancy
  Hf  Hf0  1  0.627385  0.999408  0.999422  1
  Hf  Hf1  1  0.999408  0.627385  0.999422  1
  Hf  Hf2  1  0.001539  0.001539  0.629999  1
  Hf  Hf3  1  0.370190  0.370190  0.370921  1
  Sc  Sc4  1  0.998743  0.998743  0.999391  1
  Re  Re5  1  0.000747  0.676116  0.396066  1
  Re  Re6  1  0.676116  0.000747  0.396066  1
  Re  Re7  1  0.603501  0.603501  0.278408  1
  Re  Re8  1  0.279282  0.605038  0.603970  1
  Re  Re9  1  0.605038  0.279282  0.603970  1
  Re  Re10  1  0.376745  0.195024  0.001219  1
  Re  Re11  1  0.180600  0.806520  0.805663  1
  Re  Re12  1  0.375181  0.000859  0.194240  1
  Re  Re13  1  0.195024  0.376745  0.001219  1
  Re  Re14  1  0.000859  0.375181  0.194240  1
  Re  Re15  1  0.806520  0.180600  0.805663  1
  Re  Re16  1  0.806307  0.806307  0.181428  1
  Re  Re17  1  0.000769  0.193808  0.377083  1
  Re  Re18  1  0.193808  0.000769  0.377083  1
  Re  Re19  1  0.622650  0.622650  0.815767  1
  Re  Re20  1  0.815987  0.623126  0.622386  1
  Re  Re21  1  0.623126  0.815987  0.622386  1
  Tc  Tc22  1  0.396237  0.677975  0.000675  1
  Tc  Tc23  1  0.720281  0.322893  0.322564  1
  Tc  Tc24  1  0.397561  0.002170  0.678526  1
  Tc  Tc25  1  0.677975  0.396237  0.000675  1
  Tc  Tc26  1  0.002170  0.397561  0.678526  1
  Tc  Tc27  1  0.322893  0.720281  0.322564  1
  Tc  Tc28  1  0.323354  0.323354  0.720460  1
