# generated using pymatgen
data_Dy4LuIr2Rh
_symmetry_space_group_name_H-M   'P 1'
_cell_length_a   10.82180500
_cell_length_b   10.82180500
_cell_length_c   6.35474400
_cell_angle_alpha   90.00000000
_cell_angle_beta   90.00000000
_cell_angle_gamma   90.00000000
_symmetry_Int_Tables_number   1
_chemical_formula_structural   Dy4LuIr2Rh
_chemical_formula_sum   'Dy16 Lu4 Ir8 Rh4'
_cell_volume   744.21336974
_cell_formula_units_Z   4
loop_
 _symmetry_equiv_pos_site_id
 _symmetry_equiv_pos_as_xyz
  1  'x, y, z'
loop_
 _atom_site_type_symbol
 _atom_site_label
 _atom_site_symmetry_multiplicity
 _atom_site_fract_x
 _atom_site_fract_y
 _atom_site_fract_z
 _atom_site_occupancy
  Dy  Dy0  1  0.289521  0.088592  0.379968  1
  Dy  Dy1  1  0.289521  0.911408  0.879968  1
  Dy  Dy2  1  0.710479  0.088592  0.879968  1
  Dy  Dy3  1  0.710479  0.911408  0.379968  1
  Dy  Dy4  1  0.588592  0.789521  0.879968  1
  Dy  Dy5  1  0.588592  0.210479  0.379968  1
  Dy  Dy6  1  0.411408  0.789521  0.379968  1
  Dy  Dy7  1  0.411408  0.210479  0.879968  1
  Dy  Dy8  1  0.210479  0.411408  0.620032  1
  Dy  Dy9  1  0.210479  0.588592  0.120032  1
  Dy  Dy10  1  0.789521  0.411408  0.120032  1
  Dy  Dy11  1  0.789521  0.588592  0.620032  1
  Dy  Dy12  1  0.911408  0.710479  0.120032  1
  Dy  Dy13  1  0.911408  0.289521  0.620032  1
  Dy  Dy14  1  0.088592  0.710479  0.620032  1
  Dy  Dy15  1  0.088592  0.289521  0.120032  1
  Lu  Lu16  1  0.000000  0.000000  0.500000  1
  Lu  Lu17  1  0.000000  0.000000  0.000000  1
  Lu  Lu18  1  0.500000  0.500000  0.000000  1
  Lu  Lu19  1  0.500000  0.500000  0.500000  1
  Ir  Ir20  1  0.848198  0.151802  0.250000  1
  Ir  Ir21  1  0.848198  0.848198  0.750000  1
  Ir  Ir22  1  0.151802  0.151802  0.750000  1
  Ir  Ir23  1  0.151802  0.848198  0.250000  1
  Ir  Ir24  1  0.651802  0.348198  0.750000  1
  Ir  Ir25  1  0.651802  0.651802  0.250000  1
  Ir  Ir26  1  0.348198  0.348198  0.250000  1
  Ir  Ir27  1  0.348198  0.651802  0.750000  1
  Rh  Rh28  1  0.500000  0.000000  0.124592  1
  Rh  Rh29  1  0.500000  0.000000  0.624592  1
  Rh  Rh30  1  0.000000  0.500000  0.875408  1
  Rh  Rh31  1  0.000000  0.500000  0.375408  1
