# generated using pymatgen
data_SbI16
_symmetry_space_group_name_H-M   'P 1'
_cell_length_a   9.06294447
_cell_length_b   10.51557762
_cell_length_c   12.91373496
_cell_angle_alpha   99.91421054
_cell_angle_beta   97.77514669
_cell_angle_gamma   122.82614688
_symmetry_Int_Tables_number   1
_chemical_formula_structural   SbI16
_chemical_formula_sum   'Sb1 I16'
_cell_volume   979.11703853
_cell_formula_units_Z   1
loop_
 _symmetry_equiv_pos_site_id
 _symmetry_equiv_pos_as_xyz
  1  'x, y, z'
loop_
 _atom_site_type_symbol
 _atom_site_label
 _atom_site_symmetry_multiplicity
 _atom_site_fract_x
 _atom_site_fract_y
 _atom_site_fract_z
 _atom_site_occupancy
  Sb  Sb0  1  0.000000  0.000000  0.000000  1
  I  I1  1  0.793522  0.937598  0.178010  1
  I  I2  1  0.206478  0.062402  0.821990  1
  I  I3  1  0.341802  0.211657  0.189261  1
  I  I4  1  0.658198  0.788343  0.810739  1
  I  I5  1  0.964740  0.271267  0.980107  1
  I  I6  1  0.035260  0.728733  0.019893  1
  I  I7  1  0.386233  0.506803  0.315617  1
  I  I8  1  0.613767  0.493197  0.684383  1
  I  I9  1  0.925138  0.571921  0.244353  1
  I  I10  1  0.074862  0.428079  0.755647  1
  I  I11  1  0.423174  0.840402  0.097120  1
  I  I12  1  0.576826  0.159598  0.902880  1
  I  I13  1  0.549794  0.216075  0.546064  1
  I  I14  1  0.450206  0.783925  0.453936  1
  I  I15  1  0.779773  0.403656  0.390068  1
  I  I16  1  0.220227  0.596344  0.609932  1
