# generated using pymatgen
data_DyLu(SiTc2)4
_symmetry_space_group_name_H-M   'P 1'
_cell_length_a   7.33245832
_cell_length_b   7.33245832
_cell_length_c   4.13671600
_cell_angle_alpha   90.00000000
_cell_angle_beta   90.00000000
_cell_angle_gamma   90.98396574
_symmetry_Int_Tables_number   1
_chemical_formula_structural   DyLu(SiTc2)4
_chemical_formula_sum   'Dy1 Lu1 Si4 Tc8'
_cell_volume   222.37751143
_cell_formula_units_Z   1
loop_
 _symmetry_equiv_pos_site_id
 _symmetry_equiv_pos_as_xyz
  1  'x, y, z'
loop_
 _atom_site_type_symbol
 _atom_site_label
 _atom_site_symmetry_multiplicity
 _atom_site_fract_x
 _atom_site_fract_y
 _atom_site_fract_z
 _atom_site_occupancy
  Dy  Dy0  1  0.000000  0.000000  0.000000  1
  Lu  Lu1  1  0.500000  0.500000  0.500000  1
  Si  Si2  1  0.789444  0.210556  0.500000  1
  Si  Si3  1  0.210556  0.789444  0.500000  1
  Si  Si4  1  0.294355  0.294355  0.000000  1
  Si  Si5  1  0.705645  0.705645  0.000000  1
  Tc  Tc6  1  0.652523  0.901592  0.500000  1
  Tc  Tc7  1  0.347477  0.098408  0.500000  1
  Tc  Tc8  1  0.159568  0.591019  0.000000  1
  Tc  Tc9  1  0.840432  0.408981  0.000000  1
  Tc  Tc10  1  0.901592  0.652523  0.500000  1
  Tc  Tc11  1  0.098408  0.347477  0.500000  1
  Tc  Tc12  1  0.591019  0.159568  0.000000  1
  Tc  Tc13  1  0.408981  0.840432  0.000000  1
