# generated using pymatgen
data_TaSb3O10
_symmetry_space_group_name_H-M   'P 1'
_cell_length_a   4.87936385
_cell_length_b   5.53050049
_cell_length_c   6.91442573
_cell_angle_alpha   102.41197717
_cell_angle_beta   110.39063022
_cell_angle_gamma   90.32113042
_symmetry_Int_Tables_number   1
_chemical_formula_structural   TaSb3O10
_chemical_formula_sum   'Ta1 Sb3 O10'
_cell_volume   170.14684133
_cell_formula_units_Z   1
loop_
 _symmetry_equiv_pos_site_id
 _symmetry_equiv_pos_as_xyz
  1  'x, y, z'
loop_
 _atom_site_type_symbol
 _atom_site_label
 _atom_site_symmetry_multiplicity
 _atom_site_fract_x
 _atom_site_fract_y
 _atom_site_fract_z
 _atom_site_occupancy
  Ta  Ta0  1  0.127329  0.222963  0.739857  1
  Sb  Sb1  1  0.877844  0.786001  0.276239  1
  Sb  Sb2  1  0.402889  0.282723  0.290332  1
  Sb  Sb3  1  0.608805  0.719835  0.718318  1
  O  O4  1  0.915421  0.747341  0.996142  1
  O  O5  1  0.098822  0.250201  0.007133  1
  O  O6  1  0.680402  0.456043  0.203635  1
  O  O7  1  0.517836  0.955768  0.201015  1
  O  O8  1  0.279825  0.626246  0.406721  1
  O  O9  1  0.123786  0.122031  0.404960  1
  O  O10  1  0.867358  0.880230  0.592415  1
  O  O11  1  0.719597  0.378330  0.595691  1
  O  O12  1  0.318649  0.532807  0.780707  1
  O  O13  1  0.461437  0.039485  0.786837  1
