# generated using pymatgen
data_CsCrCuNiSe4
_symmetry_space_group_name_H-M   'P 1'
_cell_length_a   10.38365427
_cell_length_b   10.38365495
_cell_length_c   7.80047400
_cell_angle_alpha   90.00000000
_cell_angle_beta   90.00000000
_cell_angle_gamma   149.62831404
_symmetry_Int_Tables_number   1
_chemical_formula_structural   CsCrCuNiSe4
_chemical_formula_sum   'Cs2 Cr2 Cu2 Ni2 Se8'
_cell_volume   425.24081703
_cell_formula_units_Z   2
loop_
 _symmetry_equiv_pos_site_id
 _symmetry_equiv_pos_as_xyz
  1  'x, y, z'
loop_
 _atom_site_type_symbol
 _atom_site_label
 _atom_site_symmetry_multiplicity
 _atom_site_fract_x
 _atom_site_fract_y
 _atom_site_fract_z
 _atom_site_occupancy
  Cs  Cs0  1  0.177180  0.546280  0.750000  1
  Cs  Cs1  1  0.546280  0.177180  0.250000  1
  Cr  Cr2  1  0.703528  0.504862  0.750000  1
  Cr  Cr3  1  0.504862  0.703528  0.250000  1
  Cu  Cu4  1  0.613644  0.613644  0.500000  1
  Cu  Cu5  1  0.613644  0.613644  0.000000  1
  Ni  Ni6  1  0.001880  0.205040  0.250000  1
  Ni  Ni7  1  0.205040  0.001880  0.750000  1
  Se  Se8  1  0.747377  0.950554  0.009510  1
  Se  Se9  1  0.354021  0.343233  0.750000  1
  Se  Se10  1  0.343233  0.354021  0.250000  1
  Se  Se11  1  0.950554  0.747377  0.509510  1
  Se  Se12  1  0.558801  0.173829  0.750000  1
  Se  Se13  1  0.950554  0.747377  0.990490  1
  Se  Se14  1  0.173829  0.558801  0.250000  1
  Se  Se15  1  0.747377  0.950554  0.490490  1
