# generated using pymatgen
data_Tb3Er13(In3Ir)2
_symmetry_space_group_name_H-M   'P 1'
_cell_length_a   10.35774800
_cell_length_b   10.35774759
_cell_length_c   7.05646600
_cell_angle_alpha   90.00000000
_cell_angle_beta   90.00000000
_cell_angle_gamma   119.99999492
_symmetry_Int_Tables_number   1
_chemical_formula_structural   Tb3Er13(In3Ir)2
_chemical_formula_sum   'Tb3 Er13 In6 Ir2'
_cell_volume   655.61453199
_cell_formula_units_Z   1
loop_
 _symmetry_equiv_pos_site_id
 _symmetry_equiv_pos_as_xyz
  1  'x, y, z'
loop_
 _atom_site_type_symbol
 _atom_site_label
 _atom_site_symmetry_multiplicity
 _atom_site_fract_x
 _atom_site_fract_y
 _atom_site_fract_z
 _atom_site_occupancy
  Tb  Tb0  1  0.532837  0.065674  0.792768  1
  Tb  Tb1  1  0.934326  0.467163  0.792768  1
  Tb  Tb2  1  0.532837  0.467163  0.792768  1
  Er  Er3  1  0.465799  0.931599  0.293269  1
  Er  Er4  1  0.068401  0.534201  0.293269  1
  Er  Er5  1  0.465799  0.534201  0.293269  1
  Er  Er6  1  0.823447  0.646896  0.497171  1
  Er  Er7  1  0.353104  0.176553  0.497171  1
  Er  Er8  1  0.823447  0.176553  0.497171  1
  Er  Er9  1  0.176507  0.353013  0.999642  1
  Er  Er10  1  0.646987  0.823493  0.999642  1
  Er  Er11  1  0.176507  0.823493  0.999642  1
  Er  Er12  1  0.666667  0.333333  0.175670  1
  Er  Er13  1  0.333333  0.666667  0.675428  1
  Er  Er14  1  0.000000  0.000000  0.778531  1
  Er  Er15  1  0.000000  0.000000  0.278831  1
  In  In16  1  0.837424  0.674850  0.040881  1
  In  In17  1  0.325150  0.162576  0.040881  1
  In  In18  1  0.837424  0.162576  0.040881  1
  In  In19  1  0.162975  0.325949  0.540325  1
  In  In20  1  0.674051  0.837025  0.540325  1
  In  In21  1  0.162975  0.837025  0.540325  1
  Ir  Ir22  1  0.666667  0.333333  0.566620  1
  Ir  Ir23  1  0.333333  0.666667  0.068655  1
