# generated using pymatgen
data_Pr5Nd3(Y3Pb4)4
_symmetry_space_group_name_H-M   'P 1'
_cell_length_a   8.29699919
_cell_length_b   8.34139318
_cell_length_c   15.79059100
_cell_angle_alpha   90.00048769
_cell_angle_beta   89.96937365
_cell_angle_gamma   90.03040866
_symmetry_Int_Tables_number   1
_chemical_formula_structural   Pr5Nd3(Y3Pb4)4
_chemical_formula_sum   'Pr5 Nd3 Y12 Pb16'
_cell_volume   1092.84331841
_cell_formula_units_Z   1
loop_
 _symmetry_equiv_pos_site_id
 _symmetry_equiv_pos_as_xyz
  1  'x, y, z'
loop_
 _atom_site_type_symbol
 _atom_site_label
 _atom_site_symmetry_multiplicity
 _atom_site_fract_x
 _atom_site_fract_y
 _atom_site_fract_z
 _atom_site_occupancy
  Pr  Pr0  1  0.471071  0.677516  0.598767  1
  Pr  Pr1  1  0.971023  0.822484  0.901299  1
  Pr  Pr2  1  0.528959  0.322578  0.098657  1
  Pr  Pr3  1  0.029030  0.177251  0.401339  1
  Pr  Pr4  1  0.529108  0.322414  0.401062  1
  Nd  Nd5  1  0.029709  0.177254  0.099017  1
  Nd  Nd6  1  0.470262  0.677508  0.900860  1
  Nd  Nd7  1  0.970529  0.822708  0.599184  1
  Y  Y8  1  0.628654  0.158948  0.621782  1
  Y  Y9  1  0.128570  0.341104  0.878301  1
  Y  Y10  1  0.371527  0.840955  0.121462  1
  Y  Y11  1  0.871576  0.659094  0.378259  1
  Y  Y12  1  0.371407  0.840997  0.378320  1
  Y  Y13  1  0.871800  0.659000  0.121601  1
  Y  Y14  1  0.628288  0.159008  0.878384  1
  Y  Y15  1  0.128777  0.340914  0.621747  1
  Y  Y16  1  0.795501  0.495176  0.750031  1
  Y  Y17  1  0.295522  0.004838  0.750085  1
  Y  Y18  1  0.204503  0.505017  0.249759  1
  Y  Y19  1  0.704581  0.995142  0.249782  1
  Pb  Pb20  1  0.709707  0.961832  0.457285  1
  Pb  Pb21  1  0.209397  0.537293  0.042778  1
  Pb  Pb22  1  0.290478  0.037310  0.957152  1
  Pb  Pb23  1  0.791373  0.462973  0.543262  1
  Pb  Pb24  1  0.290103  0.036832  0.543403  1
  Pb  Pb25  1  0.790092  0.463194  0.956765  1
  Pb  Pb26  1  0.709894  0.963125  0.043265  1
  Pb  Pb27  1  0.208864  0.537548  0.456863  1
  Pb  Pb28  1  0.432225  0.372227  0.750166  1
  Pb  Pb29  1  0.932315  0.127759  0.750003  1
  Pb  Pb30  1  0.567784  0.627920  0.249922  1
  Pb  Pb31  1  0.067614  0.872414  0.249912  1
  Pb  Pb32  1  0.661164  0.851798  0.750382  1
  Pb  Pb33  1  0.161269  0.648344  0.749780  1
  Pb  Pb34  1  0.338142  0.147732  0.249840  1
  Pb  Pb35  1  0.839183  0.351794  0.249525  1
