# generated using pymatgen
data_Mn14AlCr6(WC3)2
_symmetry_space_group_name_H-M   'P 1'
_cell_length_a   7.44003671
_cell_length_b   7.44891113
_cell_length_c   7.44891194
_cell_angle_alpha   60.14076545
_cell_angle_beta   60.03941160
_cell_angle_gamma   60.03940160
_symmetry_Int_Tables_number   1
_chemical_formula_structural   Mn14AlCr6(WC3)2
_chemical_formula_sum   'Mn14 Al1 Cr6 W2 C6'
_cell_volume   292.39138723
_cell_formula_units_Z   1
loop_
 _symmetry_equiv_pos_site_id
 _symmetry_equiv_pos_as_xyz
  1  'x, y, z'
loop_
 _atom_site_type_symbol
 _atom_site_label
 _atom_site_symmetry_multiplicity
 _atom_site_fract_x
 _atom_site_fract_y
 _atom_site_fract_z
 _atom_site_occupancy
  Mn  Mn0  1  0.616171  0.614107  0.153551  1
  Mn  Mn1  1  0.616171  0.153550  0.614107  1
  Mn  Mn2  1  0.153750  0.615522  0.615522  1
  Mn  Mn3  1  0.615207  0.615522  0.615522  1
  Mn  Mn4  1  0.385061  0.382895  0.846982  1
  Mn  Mn5  1  0.385061  0.846982  0.382895  1
  Mn  Mn6  1  0.847711  0.383967  0.383967  1
  Mn  Mn7  1  0.384354  0.383967  0.383967  1
  Mn  Mn8  1  0.999883  0.999800  0.342103  1
  Mn  Mn9  1  0.658214  0.999800  0.342103  1
  Mn  Mn10  1  0.998796  0.659031  0.343376  1
  Mn  Mn11  1  0.658214  0.342103  0.999800  1
  Mn  Mn12  1  0.999883  0.342103  0.999800  1
  Mn  Mn13  1  0.998796  0.343376  0.659031  1
  Al  Al14  1  0.996621  0.003379  0.003379  1
  Cr  Cr15  1  0.342921  0.655933  0.000772  1
  Cr  Cr16  1  0.342921  0.000772  0.655933  1
  Cr  Cr17  1  0.342049  0.000208  0.000208  1
  Cr  Cr18  1  0.000373  0.000772  0.655933  1
  Cr  Cr19  1  0.000373  0.655933  0.000772  1
  Cr  Cr20  1  0.657535  0.000208  0.000208  1
  W  W21  1  0.751170  0.748830  0.748830  1
  W  W22  1  0.249459  0.250541  0.250541  1
  C  C23  1  0.721523  0.722300  0.280337  1
  C  C24  1  0.275840  0.722300  0.280337  1
  C  C25  1  0.724265  0.275735  0.275735  1
  C  C26  1  0.275840  0.280337  0.722300  1
  C  C27  1  0.721523  0.280337  0.722300  1
  C  C28  1  0.280314  0.719686  0.719686  1
