# generated using pymatgen
data_MnH4F7
_symmetry_space_group_name_H-M   'P 1'
_cell_length_a   3.92210696
_cell_length_b   6.52058866
_cell_length_c   6.16089554
_cell_angle_alpha   95.34992376
_cell_angle_beta   76.10439722
_cell_angle_gamma   76.93168809
_symmetry_Int_Tables_number   1
_chemical_formula_structural   MnH4F7
_chemical_formula_sum   'Mn1 H4 F7'
_cell_volume   147.16445919
_cell_formula_units_Z   1
loop_
 _symmetry_equiv_pos_site_id
 _symmetry_equiv_pos_as_xyz
  1  'x, y, z'
loop_
 _atom_site_type_symbol
 _atom_site_label
 _atom_site_symmetry_multiplicity
 _atom_site_fract_x
 _atom_site_fract_y
 _atom_site_fract_z
 _atom_site_occupancy
  Mn  Mn0  1  0.293731  0.236719  0.576186  1
  H  H1  1  0.761379  0.976351  0.131517  1
  H  H2  1  0.200399  0.918873  0.837597  1
  H  H3  1  0.381604  0.549579  0.306833  1
  H  H4  1  0.803870  0.490380  0.007380  1
  F  F5  1  0.983190  0.874447  0.023186  1
  F  F6  1  0.449766  0.104287  0.277581  1
  F  F7  1  0.563136  0.583762  0.104790  1
  F  F8  1  0.793876  0.236327  0.576667  1
  F  F9  1  0.226992  0.535086  0.460828  1
  F  F10  1  0.375672  0.940004  0.695140  1
  F  F11  1  0.131857  0.369464  0.874370  1
