# generated using pymatgen
data_TbFe4MoP3
_symmetry_space_group_name_H-M   'P 1'
_cell_length_a   3.71061800
_cell_length_b   10.41931700
_cell_length_c   12.02547200
_cell_angle_alpha   90.00000000
_cell_angle_beta   90.00000000
_cell_angle_gamma   90.00000000
_symmetry_Int_Tables_number   1
_chemical_formula_structural   TbFe4MoP3
_chemical_formula_sum   'Tb4 Fe16 Mo4 P12'
_cell_volume   464.93006364
_cell_formula_units_Z   4
loop_
 _symmetry_equiv_pos_site_id
 _symmetry_equiv_pos_as_xyz
  1  'x, y, z'
loop_
 _atom_site_type_symbol
 _atom_site_label
 _atom_site_symmetry_multiplicity
 _atom_site_fract_x
 _atom_site_fract_y
 _atom_site_fract_z
 _atom_site_occupancy
  Tb  Tb0  1  0.250000  0.583250  0.708610  1
  Tb  Tb1  1  0.250000  0.916750  0.208610  1
  Tb  Tb2  1  0.750000  0.416750  0.291390  1
  Tb  Tb3  1  0.750000  0.083250  0.791390  1
  Fe  Fe4  1  0.250000  0.410653  0.493058  1
  Fe  Fe5  1  0.250000  0.089347  0.993058  1
  Fe  Fe6  1  0.750000  0.589347  0.506942  1
  Fe  Fe7  1  0.750000  0.910653  0.006942  1
  Fe  Fe8  1  0.250000  0.217016  0.176829  1
  Fe  Fe9  1  0.250000  0.282984  0.676829  1
  Fe  Fe10  1  0.750000  0.782984  0.823171  1
  Fe  Fe11  1  0.750000  0.717016  0.323171  1
  Fe  Fe12  1  0.250000  0.877350  0.700486  1
  Fe  Fe13  1  0.250000  0.622650  0.200486  1
  Fe  Fe14  1  0.750000  0.122650  0.299514  1
  Fe  Fe15  1  0.750000  0.377350  0.799514  1
  Fe  Fe16  1  0.250000  0.463687  0.933370  1
  Fe  Fe17  1  0.250000  0.036313  0.433370  1
  Fe  Fe18  1  0.750000  0.536313  0.066630  1
  Fe  Fe19  1  0.750000  0.963687  0.566630  1
  Mo  Mo20  1  0.250000  0.706454  0.988233  1
  Mo  Mo21  1  0.250000  0.793546  0.488233  1
  Mo  Mo22  1  0.750000  0.293546  0.011767  1
  Mo  Mo23  1  0.750000  0.206454  0.511767  1
  P  P24  1  0.250000  0.425044  0.112857  1
  P  P25  1  0.250000  0.074956  0.612857  1
  P  P26  1  0.750000  0.574956  0.887143  1
  P  P27  1  0.750000  0.925044  0.387143  1
  P  P28  1  0.250000  0.267656  0.866223  1
  P  P29  1  0.250000  0.232344  0.366223  1
  P  P30  1  0.750000  0.732344  0.133777  1
  P  P31  1  0.750000  0.767656  0.633777  1
  P  P32  1  0.250000  0.595380  0.387833  1
  P  P33  1  0.250000  0.904620  0.887833  1
  P  P34  1  0.750000  0.404620  0.612167  1
  P  P35  1  0.750000  0.095380  0.112167  1
