# generated using pymatgen
data_PrNdEr(SnIr)3
_symmetry_space_group_name_H-M   'P 1'
_cell_length_a   7.38852884
_cell_length_b   7.61764785
_cell_length_c   4.17065300
_cell_angle_alpha   90.00000000
_cell_angle_beta   90.00000000
_cell_angle_gamma   121.13864023
_symmetry_Int_Tables_number   1
_chemical_formula_structural   PrNdEr(SnIr)3
_chemical_formula_sum   'Pr1 Nd1 Er1 Sn3 Ir3'
_cell_volume   200.91638564
_cell_formula_units_Z   1
loop_
 _symmetry_equiv_pos_site_id
 _symmetry_equiv_pos_as_xyz
  1  'x, y, z'
loop_
 _atom_site_type_symbol
 _atom_site_label
 _atom_site_symmetry_multiplicity
 _atom_site_fract_x
 _atom_site_fract_y
 _atom_site_fract_z
 _atom_site_occupancy
  Pr  Pr0  1  0.412105  0.411696  0.500000  1
  Nd  Nd1  1  0.588611  0.999519  0.500000  1
  Er  Er2  1  0.999941  0.597804  0.500000  1
  Sn  Sn3  1  0.745341  0.747203  0.000000  1
  Sn  Sn4  1  0.255163  0.001277  0.000000  1
  Sn  Sn5  1  0.999425  0.246017  0.000000  1
  Ir  Ir6  1  0.691472  0.348369  0.000000  1
  Ir  Ir7  1  0.308781  0.658958  0.000000  1
  Ir  Ir8  1  0.999162  0.989156  0.500000  1
