# generated using pymatgen
data_Hf8Al14SiRh7
_symmetry_space_group_name_H-M   'P 1'
_cell_length_a   8.85344895
_cell_length_b   8.85344911
_cell_length_c   8.85344841
_cell_angle_alpha   120.24448833
_cell_angle_beta   119.74339920
_cell_angle_gamma   90.01103576
_symmetry_Int_Tables_number   1
_chemical_formula_structural   Hf8Al14SiRh7
_chemical_formula_sum   'Hf8 Al14 Si1 Rh7'
_cell_volume   490.74040772
_cell_formula_units_Z   1
loop_
 _symmetry_equiv_pos_site_id
 _symmetry_equiv_pos_as_xyz
  1  'x, y, z'
loop_
 _atom_site_type_symbol
 _atom_site_label
 _atom_site_symmetry_multiplicity
 _atom_site_fract_x
 _atom_site_fract_y
 _atom_site_fract_z
 _atom_site_occupancy
  Hf  Hf0  1  0.804045  0.298623  0.090947  1
  Hf  Hf1  1  0.207677  0.298623  0.494578  1
  Hf  Hf2  1  0.195678  0.695678  0.500000  1
  Hf  Hf3  1  0.207677  0.713099  0.909053  1
  Hf  Hf4  1  0.804045  0.713099  0.505422  1
  Hf  Hf5  1  0.788028  0.288028  0.500000  1
  Hf  Hf6  1  0.379699  0.120515  0.740816  1
  Hf  Hf7  1  0.379699  0.638883  0.259184  1
  Al  Al8  1  0.161213  0.331749  0.170536  1
  Al  Al9  1  0.161213  0.990677  0.829464  1
  Al  Al10  1  0.153072  0.339039  0.814032  1
  Al  Al11  1  0.525007  0.339039  0.185968  1
  Al  Al12  1  0.836254  0.661691  0.825437  1
  Al  Al13  1  0.836254  0.010817  0.174563  1
  Al  Al14  1  0.835024  0.663548  0.171475  1
  Al  Al15  1  0.492072  0.663548  0.828525  1
  Al  Al16  1  0.379980  0.120517  0.259462  1
  Al  Al17  1  0.861056  0.120517  0.740538  1
  Al  Al18  1  0.622179  0.878843  0.256663  1
  Al  Al19  1  0.622179  0.365516  0.743337  1
  Al  Al20  1  0.622365  0.879169  0.743196  1
  Al  Al21  1  0.135971  0.879169  0.256804  1
  Si  Si22  1  0.991629  0.491629  0.500000  1
  Rh  Rh23  1  0.999500  0.999348  0.501576  1
  Rh  Rh24  1  0.497772  0.999348  0.999848  1
  Rh  Rh25  1  0.498524  0.498524  0.000000  1
  Rh  Rh26  1  0.497772  0.497924  0.498424  1
  Rh  Rh27  1  0.999500  0.497924  0.000152  1
  Rh  Rh28  1  0.999635  0.999635  0.000000  1
  Rh  Rh29  1  0.505279  0.005279  0.500000  1
