# generated using pymatgen
data_Er2BeB3Ru5
_symmetry_space_group_name_H-M   'P 1'
_cell_length_a   3.09553900
_cell_length_b   8.76377974
_cell_length_c   10.30341971
_cell_angle_alpha   90.09401531
_cell_angle_beta   90.00000000
_cell_angle_gamma   90.00000000
_symmetry_Int_Tables_number   1
_chemical_formula_structural   Er2BeB3Ru5
_chemical_formula_sum   'Er4 Be2 B6 Ru10'
_cell_volume   279.51720193
_cell_formula_units_Z   2
loop_
 _symmetry_equiv_pos_site_id
 _symmetry_equiv_pos_as_xyz
  1  'x, y, z'
loop_
 _atom_site_type_symbol
 _atom_site_label
 _atom_site_symmetry_multiplicity
 _atom_site_fract_x
 _atom_site_fract_y
 _atom_site_fract_z
 _atom_site_occupancy
  Er  Er0  1  0.500000  0.841520  0.183085  1
  Er  Er1  1  0.500000  0.158480  0.816915  1
  Er  Er2  1  0.500000  0.657457  0.680970  1
  Er  Er3  1  0.500000  0.342543  0.319030  1
  Be  Be4  1  0.500000  0.962988  0.593159  1
  Be  Be5  1  0.500000  0.037012  0.406841  1
  B  B6  1  0.500000  0.852826  0.898873  1
  B  B7  1  0.500000  0.147174  0.101127  1
  B  B8  1  0.500000  0.653506  0.403441  1
  B  B9  1  0.500000  0.346494  0.596559  1
  B  B10  1  0.500000  0.466354  0.910812  1
  B  B11  1  0.500000  0.533646  0.089188  1
  Ru  Ru12  1  0.000000  0.656185  0.956762  1
  Ru  Ru13  1  0.000000  0.343815  0.043238  1
  Ru  Ru14  1  0.000000  0.831770  0.449440  1
  Ru  Ru15  1  0.000000  0.168230  0.550560  1
  Ru  Ru16  1  0.000000  0.000000  0.000000  1
  Ru  Ru17  1  0.000000  0.407536  0.761457  1
  Ru  Ru18  1  0.000000  0.592464  0.238543  1
  Ru  Ru19  1  0.000000  0.500000  0.500000  1
  Ru  Ru20  1  0.000000  0.898650  0.749185  1
  Ru  Ru21  1  0.000000  0.101350  0.250815  1
