# generated using pymatgen
data_Tm5P12Ir(Ru8Pt)2
_symmetry_space_group_name_H-M   'P 1'
_cell_length_a   12.58605963
_cell_length_b   12.62141360
_cell_length_c   3.96008900
_cell_angle_alpha   90.00000000
_cell_angle_beta   90.00000000
_cell_angle_gamma   120.52035525
_symmetry_Int_Tables_number   1
_chemical_formula_structural   Tm5P12Ir(Ru8Pt)2
_chemical_formula_sum   'Tm5 P12 Ir1 Ru16 Pt2'
_cell_volume   541.91627981
_cell_formula_units_Z   1
loop_
 _symmetry_equiv_pos_site_id
 _symmetry_equiv_pos_as_xyz
  1  'x, y, z'
loop_
 _atom_site_type_symbol
 _atom_site_label
 _atom_site_symmetry_multiplicity
 _atom_site_fract_x
 _atom_site_fract_y
 _atom_site_fract_z
 _atom_site_occupancy
  Tm  Tm0  1  0.338015  0.673121  0.500000  1
  Tm  Tm1  1  0.665198  0.330246  0.500000  1
  Tm  Tm2  1  0.184588  0.184719  0.000000  1
  Tm  Tm3  1  0.814496  0.001087  0.000000  1
  Tm  Tm4  1  0.998543  0.811745  0.000000  1
  P  P5  1  0.315415  0.838828  0.000000  1
  P  P6  1  0.168057  0.473281  0.000000  1
  P  P7  1  0.529858  0.703812  0.000000  1
  P  P8  1  0.829088  0.307649  0.000000  1
  P  P9  1  0.477480  0.170824  0.000000  1
  P  P10  1  0.690509  0.519086  0.000000  1
  P  P11  1  0.370599  0.359516  0.500000  1
  P  P12  1  0.630782  0.002657  0.500000  1
  P  P13  1  0.988318  0.627327  0.500000  1
  P  P14  1  0.816606  0.814267  0.500000  1
  P  P15  1  0.180352  0.995454  0.500000  1
  P  P16  1  0.000815  0.184005  0.500000  1
  Ir  Ir17  1  0.999258  0.999962  0.500000  1
  Ru  Ru18  1  0.188051  0.810634  0.500000  1
  Ru  Ru19  1  0.188677  0.378863  0.500000  1
  Ru  Ru20  1  0.626604  0.809771  0.500000  1
  Ru  Ru21  1  0.817565  0.195154  0.500000  1
  Ru  Ru22  1  0.376537  0.178722  0.500000  1
  Ru  Ru23  1  0.799848  0.618497  0.500000  1
  Ru  Ru24  1  0.511354  0.875918  0.000000  1
  Ru  Ru25  1  0.634105  0.128103  0.000000  1
  Ru  Ru26  1  0.488053  0.363450  0.000000  1
  Ru  Ru27  1  0.873564  0.508637  0.000000  1
  Ru  Ru28  1  0.546864  0.552336  0.500000  1
  Ru  Ru29  1  0.443578  0.994863  0.500000  1
  Ru  Ru30  1  0.006442  0.452461  0.500000  1
  Ru  Ru31  1  0.717289  0.716319  0.000000  1
  Ru  Ru32  1  0.278184  0.997048  0.000000  1
  Ru  Ru33  1  0.000976  0.282457  0.000000  1
  Pt  Pt34  1  0.136366  0.636463  0.000000  1
  Pt  Pt35  1  0.367970  0.502719  0.000000  1
