# generated using pymatgen
data_Ti6C3O2
_symmetry_space_group_name_H-M   'P 1'
_cell_length_a   3.05563048
_cell_length_b   5.28321746
_cell_length_c   8.08305901
_cell_angle_alpha   96.92845853
_cell_angle_beta   78.95476542
_cell_angle_gamma   73.25986664
_symmetry_Int_Tables_number   1
_chemical_formula_structural   Ti6C3O2
_chemical_formula_sum   'Ti6 C3 O2'
_cell_volume   120.47981551
_cell_formula_units_Z   1
loop_
 _symmetry_equiv_pos_site_id
 _symmetry_equiv_pos_as_xyz
  1  'x, y, z'
loop_
 _atom_site_type_symbol
 _atom_site_label
 _atom_site_symmetry_multiplicity
 _atom_site_fract_x
 _atom_site_fract_y
 _atom_site_fract_z
 _atom_site_occupancy
  Ti  Ti0  1  0.706455  0.655737  0.677163  1
  Ti  Ti1  1  0.553209  0.126056  0.515230  1
  Ti  Ti2  1  0.229342  0.113126  0.177957  1
  Ti  Ti3  1  0.889677  0.113061  0.856325  1
  Ti  Ti4  1  0.366874  0.655436  0.355514  1
  Ti  Ti5  1  0.043285  0.642140  0.018207  1
  C  C6  1  0.798094  0.884113  0.266636  1
  C  C7  1  0.469707  0.875774  0.932008  1
  C  C8  1  0.126463  0.892970  0.601391  1
  O  O9  1  0.963368  0.386995  0.431335  1
  O  O10  1  0.632930  0.381165  0.102582  1
