# generated using pymatgen
data_Tm5Pa3(TcB6)4
_symmetry_space_group_name_H-M   'P 1'
_cell_length_a   3.68868500
_cell_length_b   9.10863643
_cell_length_c   11.46609705
_cell_angle_alpha   90.11889651
_cell_angle_beta   90.00000000
_cell_angle_gamma   90.00000000
_symmetry_Int_Tables_number   1
_chemical_formula_structural   Tm5Pa3(TcB6)4
_chemical_formula_sum   'Tm5 Pa3 Tc4 B24'
_cell_volume   385.24731055
_cell_formula_units_Z   1
loop_
 _symmetry_equiv_pos_site_id
 _symmetry_equiv_pos_as_xyz
  1  'x, y, z'
loop_
 _atom_site_type_symbol
 _atom_site_label
 _atom_site_symmetry_multiplicity
 _atom_site_fract_x
 _atom_site_fract_y
 _atom_site_fract_z
 _atom_site_occupancy
  Tm  Tm0  1  0.000000  0.179358  0.913261  1
  Tm  Tm1  1  0.000000  0.945275  0.373884  1
  Tm  Tm2  1  0.000000  0.055780  0.627982  1
  Tm  Tm3  1  0.000000  0.443101  0.125265  1
  Tm  Tm4  1  0.000000  0.553876  0.873606  1
  Pa  Pa5  1  0.000000  0.321598  0.413500  1
  Pa  Pa6  1  0.000000  0.677866  0.587284  1
  Pa  Pa7  1  0.000000  0.823591  0.085846  1
  Tc  Tc8  1  0.000000  0.638839  0.321306  1
  Tc  Tc9  1  0.000000  0.363096  0.676195  1
  Tc  Tc10  1  0.000000  0.138265  0.180868  1
  Tc  Tc11  1  0.000000  0.859767  0.821127  1
  B  B12  1  0.500000  0.553679  0.432559  1
  B  B13  1  0.500000  0.446745  0.566563  1
  B  B14  1  0.500000  0.053510  0.067369  1
  B  B15  1  0.500000  0.946164  0.933050  1
  B  B16  1  0.500000  0.749571  0.420143  1
  B  B17  1  0.500000  0.250915  0.580687  1
  B  B18  1  0.500000  0.248570  0.079111  1
  B  B19  1  0.500000  0.751313  0.920149  1
  B  B20  1  0.500000  0.792837  0.265387  1
  B  B21  1  0.500000  0.207395  0.734819  1
  B  B22  1  0.500000  0.292725  0.233507  1
  B  B23  1  0.500000  0.707025  0.765814  1
  B  B24  1  0.500000  0.632145  0.184220  1
  B  B25  1  0.500000  0.367561  0.815201  1
  B  B26  1  0.500000  0.132328  0.315443  1
  B  B27  1  0.500000  0.868114  0.685726  1
  B  B28  1  0.500000  0.982750  0.213027  1
  B  B29  1  0.500000  0.018295  0.787169  1
  B  B30  1  0.500000  0.482715  0.285688  1
  B  B31  1  0.500000  0.516678  0.714059  1
  B  B32  1  0.500000  0.607454  0.029701  1
  B  B33  1  0.500000  0.390914  0.969682  1
  B  B34  1  0.500000  0.107981  0.470624  1
  B  B35  1  0.500000  0.892203  0.530182  1
