# generated using pymatgen
data_Tb4Al24IrPt8
_symmetry_space_group_name_H-M   'P 1'
_cell_length_a   7.52794787
_cell_length_b   7.55013921
_cell_length_c   13.20473516
_cell_angle_alpha   84.61235839
_cell_angle_beta   79.11340795
_cell_angle_gamma   59.91601787
_symmetry_Int_Tables_number   1
_chemical_formula_structural   Tb4Al24IrPt8
_chemical_formula_sum   'Tb4 Al24 Ir1 Pt8'
_cell_volume   637.72926186
_cell_formula_units_Z   1
loop_
 _symmetry_equiv_pos_site_id
 _symmetry_equiv_pos_as_xyz
  1  'x, y, z'
loop_
 _atom_site_type_symbol
 _atom_site_label
 _atom_site_symmetry_multiplicity
 _atom_site_fract_x
 _atom_site_fract_y
 _atom_site_fract_z
 _atom_site_occupancy
  Tb  Tb0  1  0.393493  0.168359  0.808825  1
  Tb  Tb1  1  0.606507  0.831641  0.191175  1
  Tb  Tb2  1  0.733758  0.498429  0.808756  1
  Tb  Tb3  1  0.266242  0.501571  0.191244  1
  Al  Al4  1  0.687134  0.830583  0.945895  1
  Al  Al5  1  0.312866  0.169417  0.054105  1
  Al  Al6  1  0.146617  0.832145  0.561665  1
  Al  Al7  1  0.853383  0.167855  0.438335  1
  Al  Al8  1  0.479976  0.166719  0.558997  1
  Al  Al9  1  0.520024  0.833281  0.441003  1
  Al  Al10  1  0.217013  0.165074  0.329174  1
  Al  Al11  1  0.782987  0.834926  0.670826  1
  Al  Al12  1  0.436773  0.507048  0.670751  1
  Al  Al13  1  0.563227  0.492952  0.329249  1
  Al  Al14  1  0.109600  0.160040  0.668869  1
  Al  Al15  1  0.890400  0.839960  0.331131  1
  Al  Al16  1  0.349232  0.499359  0.945979  1
  Al  Al17  1  0.650768  0.500641  0.054021  1
  Al  Al18  1  0.014920  0.171256  0.955133  1
  Al  Al19  1  0.985080  0.828744  0.044867  1
  Al  Al20  1  0.186402  0.499363  0.441194  1
  Al  Al21  1  0.813598  0.500637  0.558806  1
  Al  Al22  1  0.734962  0.163586  0.183254  1
  Al  Al23  1  0.265038  0.836414  0.816746  1
  Al  Al24  1  0.061117  0.629883  0.817352  1
  Al  Al25  1  0.938883  0.370117  0.182648  1
  Al  Al26  1  0.855999  0.041342  0.816381  1
  Al  Al27  1  0.144001  0.958658  0.183620  1
  Ir  Ir28  1  0.000000  0.500000  0.000000  1
  Pt  Pt29  1  0.120226  0.492525  0.638376  1
  Pt  Pt30  1  0.879774  0.507475  0.361624  1
  Pt  Pt31  1  0.657442  0.171150  0.999929  1
  Pt  Pt32  1  0.342558  0.828850  0.000071  1
  Pt  Pt33  1  0.537756  0.166842  0.362013  1
  Pt  Pt34  1  0.462244  0.833158  0.637987  1
  Pt  Pt35  1  0.779285  0.174702  0.636740  1
  Pt  Pt36  1  0.220715  0.825298  0.363260  1
