# generated using pymatgen
data_CeDy(Co5P3)2
_symmetry_space_group_name_H-M   'P 1'
_cell_length_a   3.67019500
_cell_length_b   10.32227800
_cell_length_c   11.71942400
_cell_angle_alpha   90.00000000
_cell_angle_beta   90.00000000
_cell_angle_gamma   90.00000000
_symmetry_Int_Tables_number   1
_chemical_formula_structural   CeDy(Co5P3)2
_chemical_formula_sum   'Ce2 Dy2 Co20 P12'
_cell_volume   443.98771915
_cell_formula_units_Z   2
loop_
 _symmetry_equiv_pos_site_id
 _symmetry_equiv_pos_as_xyz
  1  'x, y, z'
loop_
 _atom_site_type_symbol
 _atom_site_label
 _atom_site_symmetry_multiplicity
 _atom_site_fract_x
 _atom_site_fract_y
 _atom_site_fract_z
 _atom_site_occupancy
  Ce  Ce0  1  0.750000  0.416043  0.297829  1
  Ce  Ce1  1  0.750000  0.083957  0.797829  1
  Dy  Dy2  1  0.250000  0.583738  0.701521  1
  Dy  Dy3  1  0.250000  0.916262  0.201521  1
  Co  Co4  1  0.250000  0.716100  0.993570  1
  Co  Co5  1  0.250000  0.783900  0.493570  1
  Co  Co6  1  0.750000  0.283792  0.011080  1
  Co  Co7  1  0.750000  0.216208  0.511080  1
  Co  Co8  1  0.250000  0.406475  0.487441  1
  Co  Co9  1  0.250000  0.093525  0.987441  1
  Co  Co10  1  0.750000  0.593149  0.512026  1
  Co  Co11  1  0.750000  0.906851  0.012026  1
  Co  Co12  1  0.250000  0.220537  0.176639  1
  Co  Co13  1  0.250000  0.279463  0.676639  1
  Co  Co14  1  0.750000  0.778687  0.823298  1
  Co  Co15  1  0.750000  0.721313  0.323298  1
  Co  Co16  1  0.250000  0.884857  0.698528  1
  Co  Co17  1  0.250000  0.615143  0.198528  1
  Co  Co18  1  0.750000  0.115961  0.301748  1
  Co  Co19  1  0.750000  0.384039  0.801748  1
  Co  Co20  1  0.250000  0.471560  0.930487  1
  Co  Co21  1  0.250000  0.028440  0.430487  1
  Co  Co22  1  0.750000  0.532568  0.067369  1
  Co  Co23  1  0.750000  0.967432  0.567369  1
  P  P24  1  0.250000  0.417270  0.109037  1
  P  P25  1  0.250000  0.082730  0.609037  1
  P  P26  1  0.750000  0.582619  0.886452  1
  P  P27  1  0.750000  0.917381  0.386452  1
  P  P28  1  0.250000  0.275858  0.871355  1
  P  P29  1  0.250000  0.224142  0.371355  1
  P  P30  1  0.750000  0.728518  0.130294  1
  P  P31  1  0.750000  0.771482  0.630294  1
  P  P32  1  0.250000  0.605202  0.392168  1
  P  P33  1  0.250000  0.894798  0.892168  1
  P  P34  1  0.750000  0.398770  0.609160  1
  P  P35  1  0.750000  0.101230  0.109160  1
