# generated using pymatgen
data_Y15Lu5(GaBi2)4
_symmetry_space_group_name_H-M   'P 1'
_cell_length_a   8.11615601
_cell_length_b   9.27470318
_cell_length_c   11.99425965
_cell_angle_alpha   89.96336615
_cell_angle_beta   89.93283752
_cell_angle_gamma   90.04440155
_symmetry_Int_Tables_number   1
_chemical_formula_structural   Y15Lu5(GaBi2)4
_chemical_formula_sum   'Y15 Lu5 Ga4 Bi8'
_cell_volume   902.86607473
_cell_formula_units_Z   1
loop_
 _symmetry_equiv_pos_site_id
 _symmetry_equiv_pos_as_xyz
  1  'x, y, z'
loop_
 _atom_site_type_symbol
 _atom_site_label
 _atom_site_symmetry_multiplicity
 _atom_site_fract_x
 _atom_site_fract_y
 _atom_site_fract_z
 _atom_site_occupancy
  Y  Y0  1  0.034992  0.251458  0.508857  1
  Y  Y1  1  0.962396  0.748839  0.491020  1
  Y  Y2  1  0.463658  0.747385  0.008853  1
  Y  Y3  1  0.536862  0.251881  0.991062  1
  Y  Y4  1  0.347163  0.250557  0.295093  1
  Y  Y5  1  0.653461  0.748618  0.704760  1
  Y  Y6  1  0.153971  0.747979  0.794784  1
  Y  Y7  1  0.845689  0.250708  0.206002  1
  Y  Y8  1  0.177647  0.250731  0.788103  1
  Y  Y9  1  0.821919  0.749152  0.212249  1
  Y  Y10  1  0.321271  0.748908  0.288060  1
  Y  Y11  1  0.678197  0.249669  0.711000  1
  Y  Y12  1  0.185028  0.053066  0.058041  1
  Y  Y13  1  0.814985  0.946772  0.942031  1
  Y  Y14  1  0.315795  0.947104  0.557583  1
  Lu  Lu15  1  0.818775  0.556811  0.943188  1
  Lu  Lu16  1  0.682743  0.057102  0.442880  1
  Lu  Lu17  1  0.181669  0.442557  0.056929  1
  Lu  Lu18  1  0.681586  0.443170  0.443303  1
  Lu  Lu19  1  0.318720  0.557432  0.556499  1
  Ga  Ga20  1  0.412549  0.253461  0.537818  1
  Ga  Ga21  1  0.589676  0.749563  0.460423  1
  Ga  Ga22  1  0.087816  0.745931  0.038431  1
  Ga  Ga23  1  0.912244  0.253610  0.961947  1
  Bi  Bi24  1  0.056061  0.001212  0.323019  1
  Bi  Bi25  1  0.944173  0.998569  0.677900  1
  Bi  Bi26  1  0.443270  0.998514  0.822225  1
  Bi  Bi27  1  0.944137  0.500682  0.677957  1
  Bi  Bi28  1  0.557222  0.000728  0.178116  1
  Bi  Bi29  1  0.055671  0.498710  0.322172  1
  Bi  Bi30  1  0.556003  0.498687  0.178224  1
  Bi  Bi31  1  0.444653  0.500434  0.821467  1
