# generated using pymatgen
data_Th2Ti3Mn9P7
_symmetry_space_group_name_H-M   'P 1'
_cell_length_a   9.62251800
_cell_length_b   9.62251970
_cell_length_c   3.62376400
_cell_angle_alpha   90.00000000
_cell_angle_beta   90.00000000
_cell_angle_gamma   119.99999415
_symmetry_Int_Tables_number   1
_chemical_formula_structural   Th2Ti3Mn9P7
_chemical_formula_sum   'Th2 Ti3 Mn9 P7'
_cell_volume   290.58159587
_cell_formula_units_Z   1
loop_
 _symmetry_equiv_pos_site_id
 _symmetry_equiv_pos_as_xyz
  1  'x, y, z'
loop_
 _atom_site_type_symbol
 _atom_site_label
 _atom_site_symmetry_multiplicity
 _atom_site_fract_x
 _atom_site_fract_y
 _atom_site_fract_z
 _atom_site_occupancy
  Th  Th0  1  0.333333  0.666667  0.000000  1
  Th  Th1  1  0.000000  0.000000  0.500000  1
  Ti  Ti2  1  0.784915  0.232840  0.500000  1
  Ti  Ti3  1  0.767160  0.552075  0.500000  1
  Ti  Ti4  1  0.447925  0.215085  0.500000  1
  Mn  Mn5  1  0.043185  0.281368  0.000000  1
  Mn  Mn6  1  0.718632  0.761815  0.000000  1
  Mn  Mn7  1  0.238185  0.956815  0.000000  1
  Mn  Mn8  1  0.546501  0.052734  0.000000  1
  Mn  Mn9  1  0.947266  0.493767  0.000000  1
  Mn  Mn10  1  0.506233  0.453499  0.000000  1
  Mn  Mn11  1  0.616677  0.896546  0.500000  1
  Mn  Mn12  1  0.103454  0.720130  0.500000  1
  Mn  Mn13  1  0.279870  0.383323  0.500000  1
  P  P14  1  0.779040  0.037226  0.000000  1
  P  P15  1  0.962774  0.741814  0.000000  1
  P  P16  1  0.258186  0.220960  0.000000  1
  P  P17  1  0.378329  0.923260  0.500000  1
  P  P18  1  0.076740  0.455070  0.500000  1
  P  P19  1  0.544930  0.621671  0.500000  1
  P  P20  1  0.666667  0.333333  0.000000  1
