# generated using pymatgen
data_K4Hf6IrI18
_symmetry_space_group_name_H-M   'P 1'
_cell_length_a   11.31254694
_cell_length_b   11.46140520
_cell_length_c   11.57674700
_cell_angle_alpha   118.59586823
_cell_angle_beta   100.05830490
_cell_angle_gamma   103.72721094
_symmetry_Int_Tables_number   1
_chemical_formula_structural   K4Hf6IrI18
_chemical_formula_sum   'K4 Hf6 Ir1 I18'
_cell_volume   1204.95824597
_cell_formula_units_Z   1
loop_
 _symmetry_equiv_pos_site_id
 _symmetry_equiv_pos_as_xyz
  1  'x, y, z'
loop_
 _atom_site_type_symbol
 _atom_site_label
 _atom_site_symmetry_multiplicity
 _atom_site_fract_x
 _atom_site_fract_y
 _atom_site_fract_z
 _atom_site_occupancy
  K  K0  1  0.650397  0.537990  0.226396  1
  K  K1  1  0.349603  0.462010  0.773604  1
  K  K2  1  0.683866  0.223922  0.563489  1
  K  K3  1  0.316134  0.776078  0.436511  1
  Hf  Hf4  1  0.149417  0.055412  0.229089  1
  Hf  Hf5  1  0.850583  0.944588  0.770911  1
  Hf  Hf6  1  0.862353  0.126599  0.132800  1
  Hf  Hf7  1  0.137647  0.873401  0.867200  1
  Hf  Hf8  1  0.144680  0.237995  0.045059  1
  Hf  Hf9  1  0.855320  0.762005  0.954941  1
  Ir  Ir10  1  0.000000  0.000000  0.000000  1
  I  I11  1  0.007755  0.412707  0.198582  1
  I  I12  1  0.992245  0.587293  0.801418  1
  I  I13  1  0.330650  0.335202  0.313469  1
  I  I14  1  0.669350  0.664798  0.686531  1
  I  I15  1  0.320907  0.520942  0.099613  1
  I  I16  1  0.679093  0.479058  0.900387  1
  I  I17  1  0.004190  0.794214  0.210703  1
  I  I18  1  0.995810  0.205786  0.789297  1
  I  I19  1  0.703349  0.276014  0.288392  1
  I  I20  1  0.296651  0.723986  0.711608  1
  I  I21  1  0.318571  0.127403  0.901843  1
  I  I22  1  0.681429  0.872597  0.098157  1
  I  I23  1  0.014651  0.205813  0.410619  1
  I  I24  1  0.985349  0.794187  0.589381  1
  I  I25  1  0.322732  0.921730  0.110048  1
  I  I26  1  0.677268  0.078270  0.889952  1
  I  I27  1  0.332064  0.120627  0.501297  1
  I  I28  1  0.667936  0.879373  0.498703  1
