# generated using pymatgen
data_YbTh3(PdPt)6
_symmetry_space_group_name_H-M   'P 1'
_cell_length_a   5.92220625
_cell_length_b   5.91075810
_cell_length_c   9.72396562
_cell_angle_alpha   89.96759994
_cell_angle_beta   90.03803398
_cell_angle_gamma   119.97153020
_symmetry_Int_Tables_number   1
_chemical_formula_structural   YbTh3(PdPt)6
_chemical_formula_sum   'Yb1 Th3 Pd6 Pt6'
_cell_volume   294.86631944
_cell_formula_units_Z   1
loop_
 _symmetry_equiv_pos_site_id
 _symmetry_equiv_pos_as_xyz
  1  'x, y, z'
loop_
 _atom_site_type_symbol
 _atom_site_label
 _atom_site_symmetry_multiplicity
 _atom_site_fract_x
 _atom_site_fract_y
 _atom_site_fract_z
 _atom_site_occupancy
  Yb  Yb0  1  0.333376  0.666725  0.249862  1
  Th  Th1  1  0.000189  0.000401  0.493378  1
  Th  Th2  1  0.000204  0.000500  0.006697  1
  Th  Th3  1  0.665886  0.332199  0.750043  1
  Pd  Pd4  1  0.002120  0.501233  0.001768  1
  Pd  Pd5  1  0.823690  0.647834  0.249704  1
  Pd  Pd6  1  0.351758  0.175975  0.249402  1
  Pd  Pd7  1  0.824478  0.175350  0.249667  1
  Pd  Pd8  1  0.652492  0.826429  0.750532  1
  Pd  Pd9  1  0.173345  0.826469  0.750319  1
  Pt  Pt10  1  0.499344  0.501197  0.498250  1
  Pt  Pt11  1  0.499089  0.998234  0.498036  1
  Pt  Pt12  1  0.001922  0.501161  0.498180  1
  Pt  Pt13  1  0.499637  0.501199  0.001710  1
  Pt  Pt14  1  0.499532  0.998659  0.002031  1
  Pt  Pt15  1  0.172935  0.346436  0.750421  1
