# generated using pymatgen
data_Nd3Y(ScIr)4
_symmetry_space_group_name_H-M   'P 1'
_cell_length_a   7.21943523
_cell_length_b   4.31754100
_cell_length_c   8.85813008
_cell_angle_alpha   90.00000000
_cell_angle_beta   89.63558051
_cell_angle_gamma   90.00000000
_symmetry_Int_Tables_number   1
_chemical_formula_structural   Nd3Y(ScIr)4
_chemical_formula_sum   'Nd3 Y1 Sc4 Ir4'
_cell_volume   276.10416872
_cell_formula_units_Z   1
loop_
 _symmetry_equiv_pos_site_id
 _symmetry_equiv_pos_as_xyz
  1  'x, y, z'
loop_
 _atom_site_type_symbol
 _atom_site_label
 _atom_site_symmetry_multiplicity
 _atom_site_fract_x
 _atom_site_fract_y
 _atom_site_fract_z
 _atom_site_occupancy
  Nd  Nd0  1  0.483667  0.250000  0.320546  1
  Nd  Nd1  1  0.016622  0.750000  0.823545  1
  Nd  Nd2  1  0.515316  0.750000  0.677208  1
  Y  Y3  1  0.979939  0.250000  0.175290  1
  Sc  Sc4  1  0.864678  0.250000  0.561662  1
  Sc  Sc5  1  0.361319  0.250000  0.938824  1
  Sc  Sc6  1  0.137544  0.750000  0.431157  1
  Sc  Sc7  1  0.639633  0.750000  0.065181  1
  Ir  Ir8  1  0.735496  0.250000  0.903785  1
  Ir  Ir9  1  0.235209  0.250000  0.600170  1
  Ir  Ir10  1  0.262894  0.750000  0.104768  1
  Ir  Ir11  1  0.767680  0.750000  0.397864  1
