# generated using pymatgen
data_Pa6Fe16Si7
_symmetry_space_group_name_H-M   'P 1'
_cell_length_a   8.28721996
_cell_length_b   8.28722036
_cell_length_c   8.28721900
_cell_angle_alpha   60.00000142
_cell_angle_beta   59.99999984
_cell_angle_gamma   59.99999686
_symmetry_Int_Tables_number   1
_chemical_formula_structural   Pa6Fe16Si7
_chemical_formula_sum   'Pa6 Fe16 Si7'
_cell_volume   402.44965977
_cell_formula_units_Z   1
loop_
 _symmetry_equiv_pos_site_id
 _symmetry_equiv_pos_as_xyz
  1  'x, y, z'
loop_
 _atom_site_type_symbol
 _atom_site_label
 _atom_site_symmetry_multiplicity
 _atom_site_fract_x
 _atom_site_fract_y
 _atom_site_fract_z
 _atom_site_occupancy
  Pa  Pa0  1  0.716837  0.283164  0.283164  1
  Pa  Pa1  1  0.283164  0.716837  0.716837  1
  Pa  Pa2  1  0.283164  0.716837  0.283164  1
  Pa  Pa3  1  0.283164  0.283164  0.716837  1
  Pa  Pa4  1  0.716837  0.283164  0.716837  1
  Pa  Pa5  1  0.716837  0.716837  0.283164  1
  Fe  Fe6  1  0.323889  0.323889  0.323889  1
  Fe  Fe7  1  0.323889  0.323889  0.028332  1
  Fe  Fe8  1  0.028332  0.323889  0.323889  1
  Fe  Fe9  1  0.323889  0.028332  0.323889  1
  Fe  Fe10  1  0.676110  0.676110  0.676110  1
  Fe  Fe11  1  0.676110  0.676110  0.971668  1
  Fe  Fe12  1  0.676110  0.971668  0.676110  1
  Fe  Fe13  1  0.971668  0.676110  0.676110  1
  Fe  Fe14  1  0.122346  0.122346  0.122346  1
  Fe  Fe15  1  0.122346  0.122346  0.632962  1
  Fe  Fe16  1  0.632962  0.122346  0.122346  1
  Fe  Fe17  1  0.122346  0.632962  0.122346  1
  Fe  Fe18  1  0.877654  0.877654  0.877654  1
  Fe  Fe19  1  0.877654  0.877654  0.367039  1
  Fe  Fe20  1  0.877654  0.367039  0.877654  1
  Fe  Fe21  1  0.367039  0.877654  0.877654  1
  Si  Si22  1  0.500000  0.000000  0.000000  1
  Si  Si23  1  0.000000  0.500000  0.500000  1
  Si  Si24  1  0.000000  0.500000  0.000000  1
  Si  Si25  1  0.000000  0.000000  0.500000  1
  Si  Si26  1  0.500000  0.000000  0.500000  1
  Si  Si27  1  0.500000  0.500000  0.000000  1
  Si  Si28  1  0.000000  0.000000  0.000000  1
