# generated using pymatgen
data_Y3Mg3Si2Ni
_symmetry_space_group_name_H-M   'P 1'
_cell_length_a   7.20567600
_cell_length_b   7.20567510
_cell_length_c   4.23015900
_cell_angle_alpha   90.00000000
_cell_angle_beta   90.00000000
_cell_angle_gamma   119.99999497
_symmetry_Int_Tables_number   1
_chemical_formula_structural   Y3Mg3Si2Ni
_chemical_formula_sum   'Y3 Mg3 Si2 Ni1'
_cell_volume   190.21149172
_cell_formula_units_Z   1
loop_
 _symmetry_equiv_pos_site_id
 _symmetry_equiv_pos_as_xyz
  1  'x, y, z'
loop_
 _atom_site_type_symbol
 _atom_site_label
 _atom_site_symmetry_multiplicity
 _atom_site_fract_x
 _atom_site_fract_y
 _atom_site_fract_z
 _atom_site_occupancy
  Y  Y0  1  0.000000  0.588047  0.000000  1
  Y  Y1  1  0.411953  0.411953  0.000000  1
  Y  Y2  1  0.588047  0.000000  0.000000  1
  Mg  Mg3  1  0.241096  0.000000  0.500000  1
  Mg  Mg4  1  0.758904  0.758904  0.500000  1
  Mg  Mg5  1  0.000000  0.241096  0.500000  1
  Si  Si6  1  0.666667  0.333333  0.500000  1
  Si  Si7  1  0.333333  0.666667  0.500000  1
  Ni  Ni8  1  0.000000  0.000000  0.000000  1
