# generated using pymatgen
data_LiNd2Si3P3Pd20
_symmetry_space_group_name_H-M   'P 1'
_cell_length_a   8.68673128
_cell_length_b   8.68625448
_cell_length_c   8.69105701
_cell_angle_alpha   59.98534458
_cell_angle_beta   59.97988834
_cell_angle_gamma   60.03475822
_symmetry_Int_Tables_number   1
_chemical_formula_structural   LiNd2Si3P3Pd20
_chemical_formula_sum   'Li1 Nd2 Si3 P3 Pd20'
_cell_volume   463.70979064
_cell_formula_units_Z   1
loop_
 _symmetry_equiv_pos_site_id
 _symmetry_equiv_pos_as_xyz
  1  'x, y, z'
loop_
 _atom_site_type_symbol
 _atom_site_label
 _atom_site_symmetry_multiplicity
 _atom_site_fract_x
 _atom_site_fract_y
 _atom_site_fract_z
 _atom_site_occupancy
  Li  Li0  1  0.000205  0.999795  0.000205  1
  Nd  Nd1  1  0.249678  0.250322  0.249678  1
  Nd  Nd2  1  0.749678  0.750322  0.749678  1
  Si  Si3  1  0.737588  0.262412  0.261265  1
  Si  Si4  1  0.261265  0.738735  0.737588  1
  Si  Si5  1  0.262222  0.737778  0.262222  1
  P  P6  1  0.738861  0.261139  0.738861  1
  P  P7  1  0.260612  0.261992  0.738008  1
  P  P8  1  0.738008  0.739388  0.260612  1
  Pd  Pd9  1  0.385275  0.385157  0.387071  1
  Pd  Pd10  1  0.614827  0.613318  0.613439  1
  Pd  Pd11  1  0.386682  0.385173  0.841585  1
  Pd  Pd12  1  0.387071  0.842498  0.385275  1
  Pd  Pd13  1  0.614843  0.614725  0.157502  1
  Pd  Pd14  1  0.613439  0.158415  0.614827  1
  Pd  Pd15  1  0.841585  0.386561  0.386682  1
  Pd  Pd16  1  0.157502  0.612929  0.614843  1
  Pd  Pd17  1  0.344538  0.001795  0.998205  1
  Pd  Pd18  1  0.656501  0.999987  0.000013  1
  Pd  Pd19  1  0.000013  0.343499  0.656501  1
  Pd  Pd20  1  0.998205  0.655462  0.344538  1
  Pd  Pd21  1  0.002422  0.344275  0.998751  1
  Pd  Pd22  1  0.655725  0.997578  0.345448  1
  Pd  Pd23  1  0.998751  0.654552  0.002422  1
  Pd  Pd24  1  0.345448  0.001249  0.655725  1
  Pd  Pd25  1  0.000034  0.999966  0.346086  1
  Pd  Pd26  1  0.998193  0.001807  0.654740  1
  Pd  Pd27  1  0.654740  0.345260  0.998193  1
  Pd  Pd28  1  0.346086  0.653914  0.000034  1
