# generated using pymatgen
data_Dy8N7
_symmetry_space_group_name_H-M   'P 1'
_cell_length_a   6.03281565
_cell_length_b   6.96955656
_cell_length_c   6.03219902
_cell_angle_alpha   89.97102081
_cell_angle_beta   80.51809456
_cell_angle_gamma   73.11089901
_symmetry_Int_Tables_number   1
_chemical_formula_structural   Dy8N7
_chemical_formula_sum   'Dy8 N7'
_cell_volume   239.07357789
_cell_formula_units_Z   1
loop_
 _symmetry_equiv_pos_site_id
 _symmetry_equiv_pos_as_xyz
  1  'x, y, z'
loop_
 _atom_site_type_symbol
 _atom_site_label
 _atom_site_symmetry_multiplicity
 _atom_site_fract_x
 _atom_site_fract_y
 _atom_site_fract_z
 _atom_site_occupancy
  Dy  Dy0  1  0.578209  0.190781  0.559548  1
  Dy  Dy1  1  0.070293  0.558563  0.800829  1
  Dy  Dy2  1  0.086296  0.312953  0.299056  1
  Dy  Dy3  1  0.587308  0.686904  0.537466  1
  Dy  Dy4  1  0.586402  0.429151  0.059876  1
  Dy  Dy5  1  0.078061  0.074579  0.798724  1
  Dy  Dy6  1  0.077093  0.816868  0.321102  1
  Dy  Dy7  1  0.594148  0.945171  0.057710  1
  N  N8  1  0.835555  0.376167  0.682946  1
  N  N9  1  0.828975  0.127527  0.175573  1
  N  N10  1  0.332223  0.251946  0.929249  1
  N  N11  1  0.836978  0.875686  0.676683  1
  N  N12  1  0.332890  0.999701  0.429644  1
  N  N13  1  0.331485  0.504033  0.428912  1
  N  N14  1  0.827282  0.628100  0.181952  1
