# generated using pymatgen
data_Sr7Yb3(InSb3)4
_symmetry_space_group_name_H-M   'P 1'
_cell_length_a   4.71817100
_cell_length_b   12.55782270
_cell_length_c   14.66228712
_cell_angle_alpha   89.85824714
_cell_angle_beta   90.00000000
_cell_angle_gamma   90.00000000
_symmetry_Int_Tables_number   1
_chemical_formula_structural   Sr7Yb3(InSb3)4
_chemical_formula_sum   'Sr7 Yb3 In4 Sb12'
_cell_volume   868.73719114
_cell_formula_units_Z   1
loop_
 _symmetry_equiv_pos_site_id
 _symmetry_equiv_pos_as_xyz
  1  'x, y, z'
loop_
 _atom_site_type_symbol
 _atom_site_label
 _atom_site_symmetry_multiplicity
 _atom_site_fract_x
 _atom_site_fract_y
 _atom_site_fract_z
 _atom_site_occupancy
  Sr  Sr0  1  0.500000  0.173489  0.016426  1
  Sr  Sr1  1  0.500000  0.411289  0.248054  1
  Sr  Sr2  1  0.500000  0.826181  0.980417  1
  Sr  Sr3  1  0.500000  0.324261  0.520084  1
  Sr  Sr4  1  0.500000  0.588801  0.751938  1
  Sr  Sr5  1  0.500000  0.911792  0.251446  1
  Sr  Sr6  1  0.500000  0.675497  0.482158  1
  Yb  Yb7  1  0.500000  0.089110  0.747709  1
  Yb  Yb8  1  0.500000  0.000579  0.501610  1
  Yb  Yb9  1  0.500000  0.498934  0.999380  1
  In  In10  1  0.000000  0.327942  0.715059  1
  In  In11  1  0.000000  0.170553  0.214262  1
  In  In12  1  0.000000  0.671446  0.285313  1
  In  In13  1  0.000000  0.830364  0.785779  1
  Sb  Sb14  1  0.000000  0.646770  0.909568  1
  Sb  Sb15  1  0.500000  0.662035  0.170721  1
  Sb  Sb16  1  0.000000  0.029672  0.898542  1
  Sb  Sb17  1  0.000000  0.473222  0.404434  1
  Sb  Sb18  1  0.500000  0.333810  0.827758  1
  Sb  Sb19  1  0.500000  0.161665  0.329246  1
  Sb  Sb20  1  0.000000  0.352808  0.090196  1
  Sb  Sb21  1  0.000000  0.142145  0.598168  1
  Sb  Sb22  1  0.000000  0.975106  0.092771  1
  Sb  Sb23  1  0.500000  0.842881  0.673177  1
  Sb  Sb24  1  0.000000  0.526296  0.596026  1
  Sb  Sb25  1  0.000000  0.853352  0.409758  1
