# generated using pymatgen
data_Be8V2TcMo
_symmetry_space_group_name_H-M   'P 1'
_cell_length_a   4.37579400
_cell_length_b   4.37579334
_cell_length_c   7.14896300
_cell_angle_alpha   90.00000000
_cell_angle_beta   90.00000000
_cell_angle_gamma   120.00000501
_symmetry_Int_Tables_number   1
_chemical_formula_structural   Be8V2TcMo
_chemical_formula_sum   'Be8 V2 Tc1 Mo1'
_cell_volume   118.54611619
_cell_formula_units_Z   1
loop_
 _symmetry_equiv_pos_site_id
 _symmetry_equiv_pos_as_xyz
  1  'x, y, z'
loop_
 _atom_site_type_symbol
 _atom_site_label
 _atom_site_symmetry_multiplicity
 _atom_site_fract_x
 _atom_site_fract_y
 _atom_site_fract_z
 _atom_site_occupancy
  Be  Be0  1  0.000000  0.000000  0.001401  1
  Be  Be1  1  0.000000  0.000000  0.500576  1
  Be  Be2  1  0.830239  0.660478  0.249456  1
  Be  Be3  1  0.170045  0.829955  0.750736  1
  Be  Be4  1  0.659910  0.829955  0.750736  1
  Be  Be5  1  0.339522  0.169761  0.249456  1
  Be  Be6  1  0.830239  0.169761  0.249456  1
  Be  Be7  1  0.170045  0.340090  0.750736  1
  V  V8  1  0.666667  0.333333  0.938469  1
  V  V9  1  0.333333  0.666667  0.432558  1
  Tc  Tc10  1  0.333333  0.666667  0.062256  1
  Mo  Mo11  1  0.666667  0.333333  0.564166  1
