# generated using pymatgen
data_La5Yb3(CdCo)2
_symmetry_space_group_name_H-M   'P 1'
_cell_length_a   9.89707529
_cell_length_b   9.89707470
_cell_length_c   9.89707600
_cell_angle_alpha   60.00000234
_cell_angle_beta   60.00000432
_cell_angle_gamma   60.00000476
_symmetry_Int_Tables_number   1
_chemical_formula_structural   La5Yb3(CdCo)2
_chemical_formula_sum   'La10 Yb6 Cd4 Co4'
_cell_volume   685.49717180
_cell_formula_units_Z   2
loop_
 _symmetry_equiv_pos_site_id
 _symmetry_equiv_pos_as_xyz
  1  'x, y, z'
loop_
 _atom_site_type_symbol
 _atom_site_label
 _atom_site_symmetry_multiplicity
 _atom_site_fract_x
 _atom_site_fract_y
 _atom_site_fract_z
 _atom_site_occupancy
  La  La0  1  0.810442  0.189559  0.189559  1
  La  La1  1  0.189560  0.810441  0.810441  1
  La  La2  1  0.189559  0.810442  0.189559  1
  La  La3  1  0.189559  0.189559  0.810442  1
  La  La4  1  0.810441  0.189560  0.810441  1
  La  La5  1  0.810441  0.810441  0.189560  1
  La  La6  1  0.345217  0.345217  0.345217  1
  La  La7  1  0.345217  0.345217  0.964349  1
  La  La8  1  0.964349  0.345217  0.345217  1
  La  La9  1  0.345217  0.964349  0.345217  1
  Yb  Yb10  1  0.939685  0.560315  0.560315  1
  Yb  Yb11  1  0.560316  0.939684  0.939684  1
  Yb  Yb12  1  0.560315  0.939685  0.560315  1
  Yb  Yb13  1  0.560315  0.560315  0.939685  1
  Yb  Yb14  1  0.939684  0.560316  0.939684  1
  Yb  Yb15  1  0.939684  0.939684  0.560316  1
  Cd  Cd16  1  0.579689  0.579689  0.579689  1
  Cd  Cd17  1  0.579689  0.579689  0.260931  1
  Cd  Cd18  1  0.260931  0.579689  0.579689  1
  Cd  Cd19  1  0.579689  0.260931  0.579689  1
  Co  Co20  1  0.138328  0.138328  0.138328  1
  Co  Co21  1  0.138328  0.138328  0.585015  1
  Co  Co22  1  0.585015  0.138328  0.138328  1
  Co  Co23  1  0.138328  0.585015  0.138328  1
