# generated using pymatgen
data_La8AlHgIrOs
_symmetry_space_group_name_H-M   'P 1'
_cell_length_a   10.04692244
_cell_length_b   10.04692129
_cell_length_c   10.12980654
_cell_angle_alpha   59.74185713
_cell_angle_beta   59.74186842
_cell_angle_gamma   59.58466403
_symmetry_Int_Tables_number   1
_chemical_formula_structural   La8AlHgIrOs
_chemical_formula_sum   'La16 Al2 Hg2 Ir2 Os2'
_cell_volume   717.91911751
_cell_formula_units_Z   2
loop_
 _symmetry_equiv_pos_site_id
 _symmetry_equiv_pos_as_xyz
  1  'x, y, z'
loop_
 _atom_site_type_symbol
 _atom_site_label
 _atom_site_symmetry_multiplicity
 _atom_site_fract_x
 _atom_site_fract_y
 _atom_site_fract_z
 _atom_site_occupancy
  La  La0  1  0.596615  0.596615  0.599614  1
  La  La1  1  0.597460  0.597460  0.205382  1
  La  La2  1  0.596222  0.205439  0.598986  1
  La  La3  1  0.205439  0.596222  0.598986  1
  La  La4  1  0.059746  0.440376  0.444198  1
  La  La5  1  0.440701  0.059863  0.055517  1
  La  La6  1  0.440376  0.059746  0.444198  1
  La  La7  1  0.059863  0.440701  0.055517  1
  La  La8  1  0.443398  0.443398  0.056350  1
  La  La9  1  0.057236  0.057236  0.443255  1
  La  La10  1  0.193743  0.806001  0.812007  1
  La  La11  1  0.805105  0.193990  0.190196  1
  La  La12  1  0.806001  0.193743  0.812007  1
  La  La13  1  0.193990  0.805105  0.190196  1
  La  La14  1  0.808876  0.808876  0.191982  1
  La  La15  1  0.191207  0.191207  0.809325  1
  Al  Al16  1  0.822716  0.521040  0.827654  1
  Al  Al17  1  0.521040  0.822716  0.827654  1
  Hg  Hg18  1  0.828477  0.828477  0.835320  1
  Hg  Hg19  1  0.828571  0.828571  0.507258  1
  Ir  Ir20  1  0.391590  0.830813  0.388390  1
  Ir  Ir21  1  0.830813  0.391590  0.388390  1
  Os  Os22  1  0.390833  0.390833  0.385509  1
  Os  Os23  1  0.389979  0.389979  0.832113  1
