# generated using pymatgen
data_Y2Er6Ga12CoCu3
_symmetry_space_group_name_H-M   'P 1'
_cell_length_a   6.94230900
_cell_length_b   8.77968007
_cell_length_c   8.77968100
_cell_angle_alpha   119.99999973
_cell_angle_beta   90.00000000
_cell_angle_gamma   90.00000000
_symmetry_Int_Tables_number   1
_chemical_formula_structural   Y2Er6Ga12CoCu3
_chemical_formula_sum   'Y2 Er6 Ga12 Co1 Cu3'
_cell_volume   463.43838303
_cell_formula_units_Z   1
loop_
 _symmetry_equiv_pos_site_id
 _symmetry_equiv_pos_as_xyz
  1  'x, y, z'
loop_
 _atom_site_type_symbol
 _atom_site_label
 _atom_site_symmetry_multiplicity
 _atom_site_fract_x
 _atom_site_fract_y
 _atom_site_fract_z
 _atom_site_occupancy
  Y  Y0  1  0.746044  0.000000  0.000000  1
  Y  Y1  1  0.250514  0.000000  0.000000  1
  Er  Er2  1  0.749657  0.484754  0.515246  1
  Er  Er3  1  0.256592  0.522855  0.477145  1
  Er  Er4  1  0.749657  0.030491  0.515246  1
  Er  Er5  1  0.256592  0.954288  0.477145  1
  Er  Er6  1  0.749657  0.484754  0.969509  1
  Er  Er7  1  0.256592  0.522855  0.045712  1
  Ga  Ga8  1  0.961358  0.830472  0.169528  1
  Ga  Ga9  1  0.041195  0.171191  0.828809  1
  Ga  Ga10  1  0.961358  0.339057  0.169528  1
  Ga  Ga11  1  0.462395  0.170490  0.829510  1
  Ga  Ga12  1  0.041195  0.657616  0.828809  1
  Ga  Ga13  1  0.542043  0.826244  0.173756  1
  Ga  Ga14  1  0.961358  0.830472  0.660943  1
  Ga  Ga15  1  0.462395  0.659018  0.829510  1
  Ga  Ga16  1  0.041195  0.171191  0.342384  1
  Ga  Ga17  1  0.542043  0.347512  0.173756  1
  Ga  Ga18  1  0.462395  0.170490  0.340982  1
  Ga  Ga19  1  0.542043  0.826244  0.652488  1
  Co  Co20  1  0.513161  0.666667  0.333333  1
  Cu  Cu21  1  0.948678  0.666667  0.333333  1
  Cu  Cu22  1  0.046063  0.333333  0.666667  1
  Cu  Cu23  1  0.455818  0.333333  0.666667  1
