# generated using pymatgen
data_Sc9Re2Tc2P
_symmetry_space_group_name_H-M   'P 1'
_cell_length_a   8.62414317
_cell_length_b   8.62421979
_cell_length_c   8.56852900
_cell_angle_alpha   90.00000000
_cell_angle_beta   90.00000000
_cell_angle_gamma   119.87424827
_symmetry_Int_Tables_number   1
_chemical_formula_structural   Sc9Re2Tc2P
_chemical_formula_sum   'Sc18 Re4 Tc4 P2'
_cell_volume   552.61364244
_cell_formula_units_Z   2
loop_
 _symmetry_equiv_pos_site_id
 _symmetry_equiv_pos_as_xyz
  1  'x, y, z'
loop_
 _atom_site_type_symbol
 _atom_site_label
 _atom_site_symmetry_multiplicity
 _atom_site_fract_x
 _atom_site_fract_y
 _atom_site_fract_z
 _atom_site_occupancy
  Sc  Sc0  1  0.197376  0.802626  0.451384  1
  Sc  Sc1  1  0.197913  0.396008  0.452002  1
  Sc  Sc2  1  0.603999  0.802090  0.452001  1
  Sc  Sc3  1  0.802639  0.197361  0.548782  1
  Sc  Sc4  1  0.802059  0.605267  0.548669  1
  Sc  Sc5  1  0.394739  0.197952  0.548671  1
  Sc  Sc6  1  0.802639  0.197361  0.951218  1
  Sc  Sc7  1  0.802059  0.605267  0.951331  1
  Sc  Sc8  1  0.394739  0.197952  0.951329  1
  Sc  Sc9  1  0.197376  0.802626  0.048616  1
  Sc  Sc10  1  0.197913  0.396008  0.047998  1
  Sc  Sc11  1  0.603999  0.802090  0.047999  1
  Sc  Sc12  1  0.538522  0.461489  0.250000  1
  Sc  Sc13  1  0.537888  0.076585  0.250000  1
  Sc  Sc14  1  0.923405  0.462118  0.250000  1
  Sc  Sc15  1  0.461551  0.538448  0.750000  1
  Sc  Sc16  1  0.463041  0.923300  0.750000  1
  Sc  Sc17  1  0.076706  0.536958  0.750000  1
  Re  Re18  1  0.107205  0.213167  0.750000  1
  Re  Re19  1  0.786807  0.892742  0.750000  1
  Re  Re20  1  0.998271  0.001751  0.499096  1
  Re  Re21  1  0.998271  0.001751  0.000904  1
  Tc  Tc22  1  0.892943  0.107053  0.250000  1
  Tc  Tc23  1  0.891589  0.782838  0.250000  1
  Tc  Tc24  1  0.217143  0.108401  0.250000  1
  Tc  Tc25  1  0.109425  0.890570  0.750000  1
  P  P26  1  0.333215  0.666786  0.250000  1
  P  P27  1  0.666570  0.333436  0.750000  1
