# generated using pymatgen
data_Cu7BrO8
_symmetry_space_group_name_H-M   'P 1'
_cell_length_a   6.40180223
_cell_length_b   6.40180223
_cell_length_c   6.40180100
_cell_angle_alpha   60.00001150
_cell_angle_beta   60.00001150
_cell_angle_gamma   60.00000170
_symmetry_Int_Tables_number   1
_chemical_formula_structural   Cu7BrO8
_chemical_formula_sum   'Cu7 Br1 O8'
_cell_volume   185.52043739
_cell_formula_units_Z   1
loop_
 _symmetry_equiv_pos_site_id
 _symmetry_equiv_pos_as_xyz
  1  'x, y, z'
loop_
 _atom_site_type_symbol
 _atom_site_label
 _atom_site_symmetry_multiplicity
 _atom_site_fract_x
 _atom_site_fract_y
 _atom_site_fract_z
 _atom_site_occupancy
  Cu  Cu0  1  0.000000  0.000000  0.500000  1
  Cu  Cu1  1  0.500000  0.000000  0.500000  1
  Cu  Cu2  1  0.000000  0.500000  0.500000  1
  Cu  Cu3  1  0.500000  0.500000  0.000000  1
  Cu  Cu4  1  0.000000  0.500000  0.000000  1
  Cu  Cu5  1  0.500000  0.000000  0.000000  1
  Cu  Cu6  1  0.000000  0.000000  0.000000  1
  Br  Br7  1  0.500000  0.500000  0.500000  1
  O  O8  1  0.859987  0.859987  0.420039  1
  O  O9  1  0.859987  0.420039  0.859987  1
  O  O10  1  0.420039  0.859987  0.859987  1
  O  O11  1  0.859987  0.859987  0.859987  1
  O  O12  1  0.140013  0.140013  0.579961  1
  O  O13  1  0.140013  0.579961  0.140013  1
  O  O14  1  0.579961  0.140013  0.140013  1
  O  O15  1  0.140013  0.140013  0.140013  1
