# generated using pymatgen
data_HfSc2(GaNi)3
_symmetry_space_group_name_H-M   'P 1'
_cell_length_a   6.89379241
_cell_length_b   6.91901856
_cell_length_c   3.39581300
_cell_angle_alpha   90.00000000
_cell_angle_beta   90.00000000
_cell_angle_gamma   120.12112505
_symmetry_Int_Tables_number   1
_chemical_formula_structural   HfSc2(GaNi)3
_chemical_formula_sum   'Hf1 Sc2 Ga3 Ni3'
_cell_volume   140.10244927
_cell_formula_units_Z   1
loop_
 _symmetry_equiv_pos_site_id
 _symmetry_equiv_pos_as_xyz
  1  'x, y, z'
loop_
 _atom_site_type_symbol
 _atom_site_label
 _atom_site_symmetry_multiplicity
 _atom_site_fract_x
 _atom_site_fract_y
 _atom_site_fract_z
 _atom_site_occupancy
  Hf  Hf0  1  0.000000  0.593331  0.500000  1
  Sc  Sc1  1  0.404953  0.405488  0.500000  1
  Sc  Sc2  1  0.595047  0.000536  0.500000  1
  Ga  Ga3  1  0.736133  0.738109  0.000000  1
  Ga  Ga4  1  0.263867  0.001975  0.000000  1
  Ga  Ga5  1  0.000000  0.259591  0.000000  1
  Ni  Ni6  1  0.671968  0.337941  0.000000  1
  Ni  Ni7  1  0.328032  0.665973  0.000000  1
  Ni  Ni8  1  0.000000  0.997056  0.500000  1
