# generated using pymatgen
data_Li3Al2Zn4Pt3
_symmetry_space_group_name_H-M   'P 1'
_cell_length_a   4.31631601
_cell_length_b   6.03154300
_cell_length_c   13.07467902
_cell_angle_alpha   90.00000000
_cell_angle_beta   89.99433280
_cell_angle_gamma   90.00000000
_symmetry_Int_Tables_number   1
_chemical_formula_structural   Li3Al2Zn4Pt3
_chemical_formula_sum   'Li6 Al4 Zn8 Pt6'
_cell_volume   340.38678788
_cell_formula_units_Z   2
loop_
 _symmetry_equiv_pos_site_id
 _symmetry_equiv_pos_as_xyz
  1  'x, y, z'
loop_
 _atom_site_type_symbol
 _atom_site_label
 _atom_site_symmetry_multiplicity
 _atom_site_fract_x
 _atom_site_fract_y
 _atom_site_fract_z
 _atom_site_occupancy
  Li  Li0  1  0.000006  0.500000  0.993198  1
  Li  Li1  1  0.499876  0.000000  0.173474  1
  Li  Li2  1  0.999896  0.500000  0.341989  1
  Li  Li3  1  0.500016  0.000000  0.500279  1
  Li  Li4  1  0.000135  0.500000  0.666391  1
  Li  Li5  1  0.500086  0.000000  0.824676  1
  Al  Al6  1  0.499997  0.245534  0.998997  1
  Al  Al7  1  0.499997  0.754467  0.998997  1
  Al  Al8  1  0.999907  0.254475  0.167674  1
  Al  Al9  1  0.999907  0.745525  0.167674  1
  Zn  Zn10  1  0.499892  0.259651  0.332833  1
  Zn  Zn11  1  0.499892  0.740349  0.332833  1
  Zn  Zn12  1  0.000009  0.241694  0.498867  1
  Zn  Zn13  1  0.000009  0.758304  0.498867  1
  Zn  Zn14  1  0.500124  0.258305  0.667805  1
  Zn  Zn15  1  0.500124  0.741695  0.667805  1
  Zn  Zn16  1  0.000073  0.240353  0.833831  1
  Zn  Zn17  1  0.000073  0.759647  0.833831  1
  Pt  Pt18  1  0.999994  0.000000  0.008835  1
  Pt  Pt19  1  0.499895  0.500000  0.157826  1
  Pt  Pt20  1  0.999872  0.000000  0.324447  1
  Pt  Pt21  1  0.499994  0.500000  0.500787  1
  Pt  Pt22  1  0.000141  0.000000  0.665862  1
  Pt  Pt23  1  0.500084  0.500000  0.842221  1
