# generated using pymatgen
data_PrNd4InSi2
_symmetry_space_group_name_H-M   'P 1'
_cell_length_a   7.91442007
_cell_length_b   7.91441954
_cell_length_c   9.27180822
_cell_angle_alpha   115.23448429
_cell_angle_beta   115.23448264
_cell_angle_gamma   90.06396387
_symmetry_Int_Tables_number   1
_chemical_formula_structural   PrNd4InSi2
_chemical_formula_sum   'Pr2 Nd8 In2 Si4'
_cell_volume   463.19253407
_cell_formula_units_Z   2
loop_
 _symmetry_equiv_pos_site_id
 _symmetry_equiv_pos_as_xyz
  1  'x, y, z'
loop_
 _atom_site_type_symbol
 _atom_site_label
 _atom_site_symmetry_multiplicity
 _atom_site_fract_x
 _atom_site_fract_y
 _atom_site_fract_z
 _atom_site_occupancy
  Pr  Pr0  1  0.184270  0.684270  0.722774  1
  Pr  Pr1  1  0.538504  0.038504  0.722774  1
  Nd  Nd2  1  0.500238  0.500238  0.000475  1
  Nd  Nd3  1  0.000238  0.000238  0.000475  1
  Nd  Nd4  1  0.961082  0.814696  0.275778  1
  Nd  Nd5  1  0.314696  0.461082  0.275778  1
  Nd  Nd6  1  0.814461  0.314461  0.275678  1
  Nd  Nd7  1  0.461217  0.961217  0.275678  1
  Nd  Nd8  1  0.038441  0.185772  0.724212  1
  Nd  Nd9  1  0.685772  0.538441  0.724212  1
  In  In10  1  0.749518  0.749518  0.499035  1
  In  In11  1  0.249518  0.249518  0.499035  1
  Si  Si12  1  0.616934  0.884421  0.001356  1
  Si  Si13  1  0.384421  0.116934  0.001356  1
  Si  Si14  1  0.884914  0.384914  0.000692  1
  Si  Si15  1  0.115778  0.615778  0.000692  1
