# generated using pymatgen
data_HgPt4Pb3O14
_symmetry_space_group_name_H-M   'P 1'
_cell_length_a   7.44258243
_cell_length_b   7.31982294
_cell_length_c   7.44258200
_cell_angle_alpha   59.44365017
_cell_angle_beta   59.99999302
_cell_angle_gamma   59.44365517
_symmetry_Int_Tables_number   1
_chemical_formula_structural   HgPt4Pb3O14
_chemical_formula_sum   'Hg1 Pt4 Pb3 O14'
_cell_volume   284.26875214
_cell_formula_units_Z   1
loop_
 _symmetry_equiv_pos_site_id
 _symmetry_equiv_pos_as_xyz
  1  'x, y, z'
loop_
 _atom_site_type_symbol
 _atom_site_label
 _atom_site_symmetry_multiplicity
 _atom_site_fract_x
 _atom_site_fract_y
 _atom_site_fract_z
 _atom_site_occupancy
  Hg  Hg0  1  0.125000  0.625000  0.125000  1
  Pt  Pt1  1  0.625000  0.625000  0.125000  1
  Pt  Pt2  1  0.625000  0.625000  0.625000  1
  Pt  Pt3  1  0.625000  0.125000  0.625000  1
  Pt  Pt4  1  0.125000  0.625000  0.625000  1
  Pb  Pb5  1  0.125000  0.125000  0.125000  1
  Pb  Pb6  1  0.625000  0.125000  0.125000  1
  Pb  Pb7  1  0.125000  0.125000  0.625000  1
  O  O8  1  0.707580  0.290588  0.294253  1
  O  O9  1  0.707580  0.290588  0.707580  1
  O  O10  1  0.996688  0.009935  0.996688  1
  O  O11  1  0.294169  0.708166  0.294169  1
  O  O12  1  0.703496  0.708166  0.294169  1
  O  O13  1  0.955831  0.541834  0.546504  1
  O  O14  1  0.294169  0.708166  0.703496  1
  O  O15  1  0.253312  0.240065  0.253312  1
  O  O16  1  0.955831  0.541834  0.955831  1
  O  O17  1  0.542420  0.959412  0.542420  1
  O  O18  1  0.546504  0.541834  0.955831  1
  O  O19  1  0.955747  0.959412  0.542420  1
  O  O20  1  0.542420  0.959412  0.955747  1
  O  O21  1  0.294253  0.290588  0.707580  1
