# generated using pymatgen
data_Tb3YbReRu7
_symmetry_space_group_name_H-M   'P 1'
_cell_length_a   5.17486742
_cell_length_b   5.43185560
_cell_length_c   9.04348859
_cell_angle_alpha   90.00000045
_cell_angle_beta   89.79430449
_cell_angle_gamma   121.65682743
_symmetry_Int_Tables_number   1
_chemical_formula_structural   Tb3YbReRu7
_chemical_formula_sum   'Tb3 Yb1 Re1 Ru7'
_cell_volume   216.37877960
_cell_formula_units_Z   1
loop_
 _symmetry_equiv_pos_site_id
 _symmetry_equiv_pos_as_xyz
  1  'x, y, z'
loop_
 _atom_site_type_symbol
 _atom_site_label
 _atom_site_symmetry_multiplicity
 _atom_site_fract_x
 _atom_site_fract_y
 _atom_site_fract_z
 _atom_site_occupancy
  Tb  Tb0  1  0.654847  0.327423  0.559794  1
  Tb  Tb1  1  0.656115  0.328057  0.934569  1
  Tb  Tb2  1  0.327126  0.663563  0.072425  1
  Yb  Yb3  1  0.326201  0.663101  0.434045  1
  Re  Re4  1  0.685121  0.842561  0.748105  1
  Ru  Ru5  1  0.974983  0.987491  0.499337  1
  Ru  Ru6  1  0.976026  0.988012  0.000085  1
  Ru  Ru7  1  0.835585  0.163574  0.250719  1
  Ru  Ru8  1  0.835585  0.672009  0.250719  1
  Ru  Ru9  1  0.360182  0.180090  0.248972  1
  Ru  Ru10  1  0.184115  0.830679  0.750615  1
  Ru  Ru11  1  0.184115  0.353437  0.750615  1
