# generated using pymatgen
data_ErNi3P2
_symmetry_space_group_name_H-M   'P 1'
_cell_length_a   3.75507800
_cell_length_b   10.43400600
_cell_length_c   12.25960000
_cell_angle_alpha   90.00000000
_cell_angle_beta   90.00000000
_cell_angle_gamma   90.00000000
_symmetry_Int_Tables_number   1
_chemical_formula_structural   ErNi3P2
_chemical_formula_sum   'Er6 Ni18 P12'
_cell_volume   480.33733605
_cell_formula_units_Z   6
loop_
 _symmetry_equiv_pos_site_id
 _symmetry_equiv_pos_as_xyz
  1  'x, y, z'
loop_
 _atom_site_type_symbol
 _atom_site_label
 _atom_site_symmetry_multiplicity
 _atom_site_fract_x
 _atom_site_fract_y
 _atom_site_fract_z
 _atom_site_occupancy
  Er  Er0  1  0.000000  0.500000  0.521451  1
  Er  Er1  1  0.500000  0.000000  0.478549  1
  Er  Er2  1  0.500000  0.817146  0.205876  1
  Er  Er3  1  0.500000  0.182854  0.205876  1
  Er  Er4  1  0.000000  0.682854  0.794124  1
  Er  Er5  1  0.000000  0.317146  0.794124  1
  Ni  Ni6  1  0.000000  0.500000  0.983777  1
  Ni  Ni7  1  0.500000  0.000000  0.016223  1
  Ni  Ni8  1  0.500000  0.301036  0.428918  1
  Ni  Ni9  1  0.500000  0.698964  0.428918  1
  Ni  Ni10  1  0.000000  0.198964  0.571082  1
  Ni  Ni11  1  0.000000  0.801036  0.571082  1
  Ni  Ni12  1  0.500000  0.878746  0.711034  1
  Ni  Ni13  1  0.500000  0.121254  0.711034  1
  Ni  Ni14  1  0.000000  0.621254  0.288966  1
  Ni  Ni15  1  0.000000  0.378746  0.288966  1
  Ni  Ni16  1  0.500000  0.332529  0.996071  1
  Ni  Ni17  1  0.500000  0.667471  0.996071  1
  Ni  Ni18  1  0.000000  0.167471  0.003929  1
  Ni  Ni19  1  0.000000  0.832529  0.003929  1
  Ni  Ni20  1  0.500000  0.500000  0.158791  1
  Ni  Ni21  1  0.000000  0.000000  0.841209  1
  Ni  Ni22  1  0.500000  0.500000  0.699638  1
  Ni  Ni23  1  0.000000  0.000000  0.300362  1
  P  P24  1  0.500000  0.313775  0.614484  1
  P  P25  1  0.500000  0.686225  0.614484  1
  P  P26  1  0.000000  0.186225  0.385516  1
  P  P27  1  0.000000  0.813775  0.385516  1
  P  P28  1  0.500000  0.500000  0.876305  1
  P  P29  1  0.000000  0.000000  0.123695  1
  P  P30  1  0.500000  0.847325  0.892176  1
  P  P31  1  0.500000  0.152675  0.892176  1
  P  P32  1  0.000000  0.652675  0.107824  1
  P  P33  1  0.000000  0.347325  0.107824  1
  P  P34  1  0.500000  0.500000  0.344737  1
  P  P35  1  0.000000  0.000000  0.655263  1
