# generated using pymatgen
data_TiBe8AlFe2
_symmetry_space_group_name_H-M   'P 1'
_cell_length_a   4.26728600
_cell_length_b   4.26728630
_cell_length_c   6.95282000
_cell_angle_alpha   90.00000000
_cell_angle_beta   90.00000000
_cell_angle_gamma   119.99998220
_symmetry_Int_Tables_number   1
_chemical_formula_structural   TiBe8AlFe2
_chemical_formula_sum   'Ti1 Be8 Al1 Fe2'
_cell_volume   109.64661473
_cell_formula_units_Z   1
loop_
 _symmetry_equiv_pos_site_id
 _symmetry_equiv_pos_as_xyz
  1  'x, y, z'
loop_
 _atom_site_type_symbol
 _atom_site_label
 _atom_site_symmetry_multiplicity
 _atom_site_fract_x
 _atom_site_fract_y
 _atom_site_fract_z
 _atom_site_occupancy
  Ti  Ti0  1  0.666667  0.333333  0.564704  1
  Be  Be1  1  0.000000  0.000000  0.996701  1
  Be  Be2  1  0.000000  0.000000  0.489664  1
  Be  Be3  1  0.830152  0.660305  0.246468  1
  Be  Be4  1  0.169119  0.830881  0.754275  1
  Be  Be5  1  0.661762  0.830881  0.754275  1
  Be  Be6  1  0.339695  0.169848  0.246468  1
  Be  Be7  1  0.830152  0.169848  0.246468  1
  Be  Be8  1  0.169119  0.338238  0.754275  1
  Al  Al9  1  0.333333  0.666667  0.064118  1
  Fe  Fe10  1  0.666667  0.333333  0.934586  1
  Fe  Fe11  1  0.333333  0.666667  0.447998  1
