# generated using pymatgen
data_Sr5Y(PtO6)2
_symmetry_space_group_name_H-M   'P 1'
_cell_length_a   5.87317423
_cell_length_b   6.00130253
_cell_length_c   8.36227293
_cell_angle_alpha   89.84281139
_cell_angle_beta   90.60730208
_cell_angle_gamma   90.05758962
_symmetry_Int_Tables_number   1
_chemical_formula_structural   Sr5Y(PtO6)2
_chemical_formula_sum   'Sr5 Y1 Pt2 O12'
_cell_volume   294.72468007
_cell_formula_units_Z   1
loop_
 _symmetry_equiv_pos_site_id
 _symmetry_equiv_pos_as_xyz
  1  'x, y, z'
loop_
 _atom_site_type_symbol
 _atom_site_label
 _atom_site_symmetry_multiplicity
 _atom_site_fract_x
 _atom_site_fract_y
 _atom_site_fract_z
 _atom_site_occupancy
  Sr  Sr0  1  0.489125  0.546056  0.253628  1
  Sr  Sr1  1  0.986530  0.953057  0.746889  1
  Sr  Sr2  1  0.510875  0.453944  0.746372  1
  Sr  Sr3  1  0.013470  0.046943  0.253111  1
  Sr  Sr4  1  0.500000  0.000000  0.000000  1
  Y  Y5  1  0.000000  0.500000  0.500000  1
  Pt  Pt6  1  0.000000  0.500000  0.000000  1
  Pt  Pt7  1  0.500000  0.000000  0.500000  1
  O  O8  1  0.228139  0.796584  0.456825  1
  O  O9  1  0.723460  0.675708  0.953527  1
  O  O10  1  0.771861  0.203416  0.543175  1
  O  O11  1  0.276540  0.324292  0.046473  1
  O  O12  1  0.698160  0.727811  0.549780  1
  O  O13  1  0.168783  0.775204  0.050840  1
  O  O14  1  0.301840  0.272189  0.450220  1
  O  O15  1  0.831217  0.224796  0.949160  1
  O  O16  1  0.589655  0.971182  0.276428  1
  O  O17  1  0.086781  0.529434  0.764755  1
  O  O18  1  0.410345  0.028818  0.723572  1
  O  O19  1  0.913219  0.470566  0.235245  1
