# generated using pymatgen
data_RbSm(WO4)2
_symmetry_space_group_name_H-M   'P 1'
_cell_length_a   7.71737179
_cell_length_b   7.71737143
_cell_length_c   7.55414499
_cell_angle_alpha   62.61388208
_cell_angle_beta   62.61387858
_cell_angle_gamma   89.02833753
_symmetry_Int_Tables_number   1
_chemical_formula_structural   RbSm(WO4)2
_chemical_formula_sum   'Rb2 Sm2 W4 O16'
_cell_volume   343.73614511
_cell_formula_units_Z   2
loop_
 _symmetry_equiv_pos_site_id
 _symmetry_equiv_pos_as_xyz
  1  'x, y, z'
loop_
 _atom_site_type_symbol
 _atom_site_label
 _atom_site_symmetry_multiplicity
 _atom_site_fract_x
 _atom_site_fract_y
 _atom_site_fract_z
 _atom_site_occupancy
  Rb  Rb0  1  0.203153  0.796847  0.750000  1
  Rb  Rb1  1  0.796847  0.203153  0.250000  1
  Sm  Sm2  1  0.775072  0.224928  0.750000  1
  Sm  Sm3  1  0.224928  0.775072  0.250000  1
  W  W4  1  0.698478  0.688395  0.782017  1
  W  W5  1  0.301522  0.311605  0.217983  1
  W  W6  1  0.311605  0.301522  0.717983  1
  W  W7  1  0.688395  0.698478  0.282017  1
  O  O8  1  0.623851  0.749249  0.560140  1
  O  O9  1  0.376149  0.250751  0.439860  1
  O  O10  1  0.250751  0.376149  0.939860  1
  O  O11  1  0.749249  0.623851  0.060140  1
  O  O12  1  0.373746  0.063118  0.869411  1
  O  O13  1  0.626254  0.936882  0.130589  1
  O  O14  1  0.936882  0.626254  0.630589  1
  O  O15  1  0.063118  0.373746  0.369411  1
  O  O16  1  0.589616  0.372109  0.969241  1
  O  O17  1  0.410384  0.627891  0.030759  1
  O  O18  1  0.627891  0.410384  0.530759  1
  O  O19  1  0.372109  0.589616  0.469241  1
  O  O20  1  0.779146  0.951199  0.692976  1
  O  O21  1  0.220854  0.048801  0.307024  1
  O  O22  1  0.048801  0.220854  0.807024  1
  O  O23  1  0.951199  0.779146  0.192976  1
