# generated using pymatgen
data_Er4Zr3TcF28
_symmetry_space_group_name_H-M   'P 1'
_cell_length_a   5.63509773
_cell_length_b   8.96806390
_cell_length_c   12.13937312
_cell_angle_alpha   62.68599101
_cell_angle_beta   89.95760811
_cell_angle_gamma   89.94149479
_symmetry_Int_Tables_number   1
_chemical_formula_structural   Er4Zr3TcF28
_chemical_formula_sum   'Er4 Zr3 Tc1 F28'
_cell_volume   545.07475470
_cell_formula_units_Z   1
loop_
 _symmetry_equiv_pos_site_id
 _symmetry_equiv_pos_as_xyz
  1  'x, y, z'
loop_
 _atom_site_type_symbol
 _atom_site_label
 _atom_site_symmetry_multiplicity
 _atom_site_fract_x
 _atom_site_fract_y
 _atom_site_fract_z
 _atom_site_occupancy
  Er  Er0  1  0.756563  0.817972  0.764293  1
  Er  Er1  1  0.256645  0.183761  0.733286  1
  Er  Er2  1  0.243028  0.182767  0.239365  1
  Er  Er3  1  0.744463  0.813988  0.266037  1
  Zr  Zr4  1  0.757016  0.272906  0.957954  1
  Zr  Zr5  1  0.255712  0.725649  0.542821  1
  Zr  Zr6  1  0.244362  0.724682  0.044116  1
  Tc  Tc7  1  0.740176  0.272656  0.456530  1
  F  F8  1  0.457112  0.708913  0.914474  1
  F  F9  1  0.937683  0.294140  0.581849  1
  F  F10  1  0.543545  0.289070  0.087022  1
  F  F11  1  0.042972  0.710333  0.413899  1
  F  F12  1  0.445060  0.273359  0.545697  1
  F  F13  1  0.938353  0.729007  0.950389  1
  F  F14  1  0.561955  0.726642  0.451053  1
  F  F15  1  0.062032  0.269815  0.051592  1
  F  F16  1  0.782399  0.527690  0.859583  1
  F  F17  1  0.275259  0.470869  0.638822  1
  F  F18  1  0.217564  0.470517  0.143084  1
  F  F19  1  0.721703  0.518521  0.359783  1
  F  F20  1  0.758587  0.019365  0.060233  1
  F  F21  1  0.258086  0.979515  0.440855  1
  F  F22  1  0.242028  0.978197  0.939407  1
  F  F23  1  0.745884  0.026901  0.551316  1
  F  F24  1  0.971426  0.734326  0.643676  1
  F  F25  1  0.473811  0.268611  0.854365  1
  F  F26  1  0.024738  0.273819  0.361987  1
  F  F27  1  0.527745  0.729521  0.146465  1
  F  F28  1  0.042506  0.749336  0.175203  1
  F  F29  1  0.547580  0.254368  0.326803  1
  F  F30  1  0.959996  0.250509  0.824962  1
  F  F31  1  0.460516  0.751010  0.673291  1
  F  F32  1  0.425404  0.971545  0.235173  1
  F  F33  1  0.924815  0.028215  0.266524  1
  F  F34  1  0.576702  0.029648  0.765963  1
  F  F35  1  0.076569  0.971856  0.732131  1
