# generated using pymatgen
data_Dy12Co4CuSn
_symmetry_space_group_name_H-M   'P 1'
_cell_length_a   8.30412074
_cell_length_b   8.30412061
_cell_length_c   8.30412084
_cell_angle_alpha   106.88680142
_cell_angle_beta   110.27170740
_cell_angle_gamma   111.28736629
_symmetry_Int_Tables_number   1
_chemical_formula_structural   Dy12Co4CuSn
_chemical_formula_sum   'Dy12 Co4 Cu1 Sn1'
_cell_volume   440.11258466
_cell_formula_units_Z   1
loop_
 _symmetry_equiv_pos_site_id
 _symmetry_equiv_pos_as_xyz
  1  'x, y, z'
loop_
 _atom_site_type_symbol
 _atom_site_label
 _atom_site_symmetry_multiplicity
 _atom_site_fract_x
 _atom_site_fract_y
 _atom_site_fract_z
 _atom_site_occupancy
  Dy  Dy0  1  0.475908  0.290838  0.185070  1
  Dy  Dy1  1  0.105768  0.290838  0.814930  1
  Dy  Dy2  1  0.894232  0.709162  0.185070  1
  Dy  Dy3  1  0.524092  0.709162  0.814930  1
  Dy  Dy4  1  0.305665  0.620411  0.314746  1
  Dy  Dy5  1  0.305665  0.990919  0.685254  1
  Dy  Dy6  1  0.694335  0.379589  0.685254  1
  Dy  Dy7  1  0.694335  0.009081  0.314746  1
  Dy  Dy8  1  0.199714  0.214698  0.414411  1
  Dy  Dy9  1  0.800286  0.785302  0.585589  1
  Dy  Dy10  1  0.199714  0.785302  0.985015  1
  Dy  Dy11  1  0.800286  0.214698  0.014985  1
  Co  Co12  1  0.500000  0.612300  0.112300  1
  Co  Co13  1  0.500000  0.387700  0.887700  1
  Co  Co14  1  0.376998  0.000000  0.376998  1
  Co  Co15  1  0.623002  0.000000  0.623002  1
  Cu  Cu16  1  0.000000  0.000000  0.000000  1
  Sn  Sn17  1  0.000000  0.500000  0.500000  1
