# generated using pymatgen
data_Pr4AgPtAu2
_symmetry_space_group_name_H-M   'P 1'
_cell_length_a   4.82288600
_cell_length_b   5.90887785
_cell_length_c   7.50614118
_cell_angle_alpha   90.88095832
_cell_angle_beta   90.00000000
_cell_angle_gamma   90.00000000
_symmetry_Int_Tables_number   1
_chemical_formula_structural   Pr4AgPtAu2
_chemical_formula_sum   'Pr4 Ag1 Pt1 Au2'
_cell_volume   213.88355785
_cell_formula_units_Z   1
loop_
 _symmetry_equiv_pos_site_id
 _symmetry_equiv_pos_as_xyz
  1  'x, y, z'
loop_
 _atom_site_type_symbol
 _atom_site_label
 _atom_site_symmetry_multiplicity
 _atom_site_fract_x
 _atom_site_fract_y
 _atom_site_fract_z
 _atom_site_occupancy
  Pr  Pr0  1  0.250000  0.858079  0.696877  1
  Pr  Pr1  1  0.250000  0.651063  0.171794  1
  Pr  Pr2  1  0.750000  0.138891  0.309351  1
  Pr  Pr3  1  0.750000  0.355936  0.822748  1
  Ag  Ag4  1  0.750000  0.641433  0.461794  1
  Pt  Pt5  1  0.750000  0.843570  0.957893  1
  Au  Au6  1  0.250000  0.357225  0.536217  1
  Au  Au7  1  0.250000  0.153803  0.043325  1
