# generated using pymatgen
data_DyHo2Pa(ReB6)2
_symmetry_space_group_name_H-M   'P 1'
_cell_length_a   3.70043700
_cell_length_b   9.16758176
_cell_length_c   11.53640000
_cell_angle_alpha   90.34432021
_cell_angle_beta   90.00000000
_cell_angle_gamma   90.00000000
_symmetry_Int_Tables_number   1
_chemical_formula_structural   DyHo2Pa(ReB6)2
_chemical_formula_sum   'Dy2 Ho4 Pa2 Re4 B24'
_cell_volume   391.35444444
_cell_formula_units_Z   2
loop_
 _symmetry_equiv_pos_site_id
 _symmetry_equiv_pos_as_xyz
  1  'x, y, z'
loop_
 _atom_site_type_symbol
 _atom_site_label
 _atom_site_symmetry_multiplicity
 _atom_site_fract_x
 _atom_site_fract_y
 _atom_site_fract_z
 _atom_site_occupancy
  Dy  Dy0  1  0.000000  0.824004  0.085552  1
  Dy  Dy1  1  0.000000  0.175996  0.914448  1
  Ho  Ho2  1  0.000000  0.944727  0.372515  1
  Ho  Ho3  1  0.000000  0.055273  0.627485  1
  Ho  Ho4  1  0.000000  0.443791  0.126562  1
  Ho  Ho5  1  0.000000  0.556209  0.873438  1
  Pa  Pa6  1  0.000000  0.321562  0.413144  1
  Pa  Pa7  1  0.000000  0.678438  0.586856  1
  Re  Re8  1  0.000000  0.635215  0.324694  1
  Re  Re9  1  0.000000  0.364785  0.675306  1
  Re  Re10  1  0.000000  0.140535  0.181774  1
  Re  Re11  1  0.000000  0.859465  0.818226  1
  B  B12  1  0.500000  0.553545  0.432919  1
  B  B13  1  0.500000  0.446455  0.567081  1
  B  B14  1  0.500000  0.053541  0.067394  1
  B  B15  1  0.500000  0.946459  0.932606  1
  B  B16  1  0.500000  0.748306  0.419488  1
  B  B17  1  0.500000  0.251694  0.580512  1
  B  B18  1  0.500000  0.247985  0.080322  1
  B  B19  1  0.500000  0.752015  0.919678  1
  B  B20  1  0.500000  0.791408  0.265586  1
  B  B21  1  0.500000  0.208592  0.734414  1
  B  B22  1  0.500000  0.292040  0.233842  1
  B  B23  1  0.500000  0.707960  0.766158  1
  B  B24  1  0.500000  0.631359  0.185501  1
  B  B25  1  0.500000  0.368641  0.814499  1
  B  B26  1  0.500000  0.132112  0.314084  1
  B  B27  1  0.500000  0.867888  0.685916  1
  B  B28  1  0.500000  0.982389  0.212203  1
  B  B29  1  0.500000  0.017611  0.787797  1
  B  B30  1  0.500000  0.482977  0.286706  1
  B  B31  1  0.500000  0.517023  0.713294  1
  B  B32  1  0.500000  0.604899  0.029361  1
  B  B33  1  0.500000  0.395101  0.970639  1
  B  B34  1  0.500000  0.110307  0.469500  1
  B  B35  1  0.500000  0.889693  0.530500  1
