# generated using pymatgen
data_Ce2Mg6Cd11Ru4
_symmetry_space_group_name_H-M   'P 1'
_cell_length_a   8.62631648
_cell_length_b   8.62450634
_cell_length_c   8.62450602
_cell_angle_alpha   107.01512145
_cell_angle_beta   111.06888100
_cell_angle_gamma   110.34898357
_symmetry_Int_Tables_number   1
_chemical_formula_structural   Ce2Mg6Cd11Ru4
_chemical_formula_sum   'Ce2 Mg6 Cd11 Ru4'
_cell_volume   493.29667400
_cell_formula_units_Z   1
loop_
 _symmetry_equiv_pos_site_id
 _symmetry_equiv_pos_as_xyz
  1  'x, y, z'
loop_
 _atom_site_type_symbol
 _atom_site_label
 _atom_site_symmetry_multiplicity
 _atom_site_fract_x
 _atom_site_fract_y
 _atom_site_fract_z
 _atom_site_occupancy
  Ce  Ce0  1  0.000000  0.346088  0.346088  1
  Ce  Ce1  1  0.000000  0.647872  0.647872  1
  Mg  Mg2  1  0.246104  0.760170  0.108773  1
  Mg  Mg3  1  0.753896  0.862668  0.514065  1
  Mg  Mg4  1  0.749746  0.509523  0.860373  1
  Mg  Mg5  1  0.250254  0.110628  0.759778  1
  Mg  Mg6  1  0.348671  0.486274  0.240207  1
  Mg  Mg7  1  0.651329  0.891537  0.137604  1
  Cd  Cd8  1  0.000000  0.995657  0.995657  1
  Cd  Cd9  1  0.335710  0.501132  0.837470  1
  Cd  Cd10  1  0.664290  0.501760  0.165423  1
  Cd  Cd11  1  0.664707  0.164261  0.498670  1
  Cd  Cd12  1  0.335293  0.833963  0.499554  1
  Cd  Cd13  1  0.432685  0.150578  0.149071  1
  Cd  Cd14  1  0.567315  0.716385  0.717892  1
  Cd  Cd15  1  0.997923  0.850373  0.283246  1
  Cd  Cd16  1  0.002077  0.285323  0.852450  1
  Cd  Cd17  1  0.350367  0.239341  0.491321  1
  Cd  Cd18  1  0.649633  0.140954  0.888974  1
  Ru  Ru19  1  0.670032  0.506590  0.502714  1
  Ru  Ru20  1  0.329968  0.832682  0.836558  1
  Ru  Ru21  1  0.003851  0.501680  0.168412  1
  Ru  Ru22  1  0.996149  0.164560  0.497829  1
