# generated using pymatgen
data_Np2InCl7
_symmetry_space_group_name_H-M   'P 1'
_cell_length_a   13.11860400
_cell_length_b   7.08820600
_cell_length_c   12.98528200
_cell_angle_alpha   90.00000000
_cell_angle_beta   90.00000000
_cell_angle_gamma   90.00000000
_symmetry_Int_Tables_number   1
_chemical_formula_structural   Np2InCl7
_chemical_formula_sum   'Np8 In4 Cl28'
_cell_volume   1207.46719052
_cell_formula_units_Z   4
loop_
 _symmetry_equiv_pos_site_id
 _symmetry_equiv_pos_as_xyz
  1  'x, y, z'
loop_
 _atom_site_type_symbol
 _atom_site_label
 _atom_site_symmetry_multiplicity
 _atom_site_fract_x
 _atom_site_fract_y
 _atom_site_fract_z
 _atom_site_occupancy
  Np  Np0  1  0.263791  0.750000  0.037247  1
  Np  Np1  1  0.749853  0.750000  0.161905  1
  Np  Np2  1  0.249853  0.750000  0.338094  1
  Np  Np3  1  0.763791  0.750000  0.462753  1
  Np  Np4  1  0.236209  0.250000  0.537246  1
  Np  Np5  1  0.750148  0.250000  0.661906  1
  Np  Np6  1  0.250148  0.250000  0.838095  1
  Np  Np7  1  0.736209  0.250000  0.962754  1
  In  In8  1  0.036422  0.250000  0.197895  1
  In  In9  1  0.536422  0.250000  0.302104  1
  In  In10  1  0.463578  0.750000  0.697896  1
  In  In11  1  0.963578  0.750000  0.802105  1
  Cl  Cl12  1  0.873454  0.508127  0.046233  1
  Cl  Cl13  1  0.873454  0.991873  0.046233  1
  Cl  Cl14  1  0.614628  0.012165  0.084821  1
  Cl  Cl15  1  0.614628  0.487835  0.084821  1
  Cl  Cl16  1  0.102690  0.750000  0.182340  1
  Cl  Cl17  1  0.329788  0.502890  0.189613  1
  Cl  Cl18  1  0.329788  0.997110  0.189613  1
  Cl  Cl19  1  0.829788  0.502890  0.310387  1
  Cl  Cl20  1  0.829788  0.997110  0.310387  1
  Cl  Cl21  1  0.602690  0.750000  0.317660  1
  Cl  Cl22  1  0.114628  0.012165  0.415179  1
  Cl  Cl23  1  0.114628  0.487835  0.415179  1
  Cl  Cl24  1  0.373454  0.508127  0.453767  1
  Cl  Cl25  1  0.373454  0.991873  0.453767  1
  Cl  Cl26  1  0.626547  0.008127  0.546233  1
  Cl  Cl27  1  0.626547  0.491873  0.546233  1
  Cl  Cl28  1  0.885372  0.512165  0.584821  1
  Cl  Cl29  1  0.885372  0.987836  0.584821  1
  Cl  Cl30  1  0.397310  0.250000  0.682340  1
  Cl  Cl31  1  0.170212  0.002890  0.689613  1
  Cl  Cl32  1  0.170212  0.497110  0.689613  1
  Cl  Cl33  1  0.670212  0.002890  0.810387  1
  Cl  Cl34  1  0.670212  0.497110  0.810387  1
  Cl  Cl35  1  0.897310  0.250000  0.817660  1
  Cl  Cl36  1  0.385372  0.512165  0.915179  1
  Cl  Cl37  1  0.385372  0.987836  0.915179  1
  Cl  Cl38  1  0.126547  0.008127  0.953767  1
  Cl  Cl39  1  0.126547  0.491873  0.953767  1
