# generated using pymatgen
data_SmDy2(P2Rh3)3
_symmetry_space_group_name_H-M   'P 1'
_cell_length_a   3.93529400
_cell_length_b   11.21281200
_cell_length_c   12.79464400
_cell_angle_alpha   90.00000000
_cell_angle_beta   90.00000000
_cell_angle_gamma   90.00000000
_symmetry_Int_Tables_number   1
_chemical_formula_structural   SmDy2(P2Rh3)3
_chemical_formula_sum   'Sm2 Dy4 P12 Rh18'
_cell_volume   564.57277356
_cell_formula_units_Z   2
loop_
 _symmetry_equiv_pos_site_id
 _symmetry_equiv_pos_as_xyz
  1  'x, y, z'
loop_
 _atom_site_type_symbol
 _atom_site_label
 _atom_site_symmetry_multiplicity
 _atom_site_fract_x
 _atom_site_fract_y
 _atom_site_fract_z
 _atom_site_occupancy
  Sm  Sm0  1  0.000000  0.500000  0.521362  1
  Sm  Sm1  1  0.500000  0.000000  0.478638  1
  Dy  Dy2  1  0.500000  0.814511  0.204515  1
  Dy  Dy3  1  0.500000  0.185489  0.204515  1
  Dy  Dy4  1  0.000000  0.685489  0.795485  1
  Dy  Dy5  1  0.000000  0.314511  0.795485  1
  P  P6  1  0.500000  0.500000  0.878559  1
  P  P7  1  0.000000  0.000000  0.121441  1
  P  P8  1  0.500000  0.500000  0.349745  1
  P  P9  1  0.000000  0.000000  0.650255  1
  P  P10  1  0.500000  0.314355  0.619162  1
  P  P11  1  0.500000  0.685645  0.619162  1
  P  P12  1  0.000000  0.185645  0.380838  1
  P  P13  1  0.000000  0.814355  0.380838  1
  P  P14  1  0.500000  0.846469  0.893077  1
  P  P15  1  0.500000  0.153531  0.893077  1
  P  P16  1  0.000000  0.653531  0.106923  1
  P  P17  1  0.000000  0.346469  0.106923  1
  Rh  Rh18  1  0.500000  0.500000  0.168973  1
  Rh  Rh19  1  0.000000  0.000000  0.831027  1
  Rh  Rh20  1  0.500000  0.500000  0.702362  1
  Rh  Rh21  1  0.000000  0.000000  0.297638  1
  Rh  Rh22  1  0.000000  0.500000  0.978585  1
  Rh  Rh23  1  0.500000  0.000000  0.021415  1
  Rh  Rh24  1  0.500000  0.334246  0.993991  1
  Rh  Rh25  1  0.500000  0.665754  0.993991  1
  Rh  Rh26  1  0.000000  0.165754  0.006009  1
  Rh  Rh27  1  0.000000  0.834246  0.006009  1
  Rh  Rh28  1  0.500000  0.293417  0.430227  1
  Rh  Rh29  1  0.500000  0.706583  0.430227  1
  Rh  Rh30  1  0.000000  0.206583  0.569773  1
  Rh  Rh31  1  0.000000  0.793417  0.569773  1
  Rh  Rh32  1  0.500000  0.872665  0.711784  1
  Rh  Rh33  1  0.500000  0.127335  0.711784  1
  Rh  Rh34  1  0.000000  0.627335  0.288216  1
  Rh  Rh35  1  0.000000  0.372665  0.288216  1
