# generated using pymatgen
data_MgNb8CoSe16
_symmetry_space_group_name_H-M   'P 1'
_cell_length_a   7.00246200
_cell_length_b   7.00246115
_cell_length_c   13.05708100
_cell_angle_alpha   90.00000000
_cell_angle_beta   90.00000000
_cell_angle_gamma   120.00000401
_symmetry_Int_Tables_number   1
_chemical_formula_structural   MgNb8CoSe16
_chemical_formula_sum   'Mg1 Nb8 Co1 Se16'
_cell_volume   554.47016327
_cell_formula_units_Z   1
loop_
 _symmetry_equiv_pos_site_id
 _symmetry_equiv_pos_as_xyz
  1  'x, y, z'
loop_
 _atom_site_type_symbol
 _atom_site_label
 _atom_site_symmetry_multiplicity
 _atom_site_fract_x
 _atom_site_fract_y
 _atom_site_fract_z
 _atom_site_occupancy
  Mg  Mg0  1  0.000000  0.000000  0.500000  1
  Nb  Nb1  1  0.000000  0.000000  0.238038  1
  Nb  Nb2  1  0.000000  0.000000  0.761962  1
  Nb  Nb3  1  0.508237  0.016475  0.238998  1
  Nb  Nb4  1  0.983525  0.491763  0.238998  1
  Nb  Nb5  1  0.508237  0.491763  0.238998  1
  Nb  Nb6  1  0.491763  0.983525  0.761002  1
  Nb  Nb7  1  0.016475  0.508237  0.761002  1
  Nb  Nb8  1  0.491763  0.508237  0.761002  1
  Co  Co9  1  0.000000  0.000000  0.000000  1
  Se  Se10  1  0.333333  0.666667  0.893268  1
  Se  Se11  1  0.666667  0.333333  0.106732  1
  Se  Se12  1  0.666667  0.333333  0.373116  1
  Se  Se13  1  0.333333  0.666667  0.626884  1
  Se  Se14  1  0.168804  0.831196  0.366210  1
  Se  Se15  1  0.168804  0.337608  0.366210  1
  Se  Se16  1  0.662392  0.831196  0.366210  1
  Se  Se17  1  0.831196  0.168804  0.633790  1
  Se  Se18  1  0.831196  0.662392  0.633790  1
  Se  Se19  1  0.337608  0.168804  0.633790  1
  Se  Se20  1  0.832334  0.167666  0.886640  1
  Se  Se21  1  0.832334  0.664667  0.886640  1
  Se  Se22  1  0.335333  0.167666  0.886640  1
  Se  Se23  1  0.167666  0.832334  0.113360  1
  Se  Se24  1  0.167666  0.335333  0.113360  1
  Se  Se25  1  0.664667  0.832334  0.113360  1
