# generated using pymatgen
data_LiTh4Si6Pd
_symmetry_space_group_name_H-M   'P 1'
_cell_length_a   8.22950200
_cell_length_b   8.22950031
_cell_length_c   8.46214900
_cell_angle_alpha   90.00000000
_cell_angle_beta   90.00000000
_cell_angle_gamma   119.99999070
_symmetry_Int_Tables_number   1
_chemical_formula_structural   LiTh4Si6Pd
_chemical_formula_sum   'Li2 Th8 Si12 Pd2'
_cell_volume   496.31609791
_cell_formula_units_Z   2
loop_
 _symmetry_equiv_pos_site_id
 _symmetry_equiv_pos_as_xyz
  1  'x, y, z'
loop_
 _atom_site_type_symbol
 _atom_site_label
 _atom_site_symmetry_multiplicity
 _atom_site_fract_x
 _atom_site_fract_y
 _atom_site_fract_z
 _atom_site_occupancy
  Li  Li0  1  0.333333  0.666667  0.002205  1
  Li  Li1  1  0.666667  0.333333  0.997795  1
  Th  Th2  1  0.500429  0.000859  0.246261  1
  Th  Th3  1  0.499571  0.999141  0.753739  1
  Th  Th4  1  0.999141  0.499571  0.246261  1
  Th  Th5  1  0.000859  0.500429  0.753739  1
  Th  Th6  1  0.500429  0.499571  0.246261  1
  Th  Th7  1  0.499571  0.500429  0.753739  1
  Th  Th8  1  0.000000  0.000000  0.248581  1
  Th  Th9  1  0.000000  0.000000  0.751419  1
  Si  Si10  1  0.167878  0.335756  0.999106  1
  Si  Si11  1  0.832122  0.664244  0.000894  1
  Si  Si12  1  0.664244  0.832122  0.999106  1
  Si  Si13  1  0.834938  0.669878  0.501558  1
  Si  Si14  1  0.335756  0.167878  0.000894  1
  Si  Si15  1  0.165062  0.330122  0.498442  1
  Si  Si16  1  0.167878  0.832122  0.999106  1
  Si  Si17  1  0.330122  0.165062  0.501558  1
  Si  Si18  1  0.832122  0.167878  0.000894  1
  Si  Si19  1  0.669878  0.834938  0.498442  1
  Si  Si20  1  0.834938  0.165062  0.501558  1
  Si  Si21  1  0.165062  0.834938  0.498442  1
  Pd  Pd22  1  0.666667  0.333333  0.500885  1
  Pd  Pd23  1  0.333333  0.666667  0.499115  1
