# generated using pymatgen
data_Ta6Si6Tc5Ru
_symmetry_space_group_name_H-M   'P 1'
_cell_length_a   7.52635757
_cell_length_b   7.51489014
_cell_length_c   7.53584125
_cell_angle_alpha   127.39758623
_cell_angle_beta   123.99461839
_cell_angle_gamma   80.48940326
_symmetry_Int_Tables_number   1
_chemical_formula_structural   Ta6Si6Tc5Ru
_chemical_formula_sum   'Ta6 Si6 Tc5 Ru1'
_cell_volume   270.72534027
_cell_formula_units_Z   1
loop_
 _symmetry_equiv_pos_site_id
 _symmetry_equiv_pos_as_xyz
  1  'x, y, z'
loop_
 _atom_site_type_symbol
 _atom_site_label
 _atom_site_symmetry_multiplicity
 _atom_site_fract_x
 _atom_site_fract_y
 _atom_site_fract_z
 _atom_site_occupancy
  Ta  Ta0  1  0.944056  0.907386  0.464649  1
  Ta  Ta1  1  0.053810  0.507165  0.956212  1
  Ta  Ta2  1  0.534282  0.504215  0.464163  1
  Ta  Ta3  1  0.466577  0.935676  0.969048  1
  Ta  Ta4  1  0.749814  0.083052  0.839253  1
  Ta  Ta5  1  0.250641  0.093809  0.339394  1
  Si  Si6  1  0.727066  0.481617  0.254132  1
  Si  Si7  1  0.280794  0.510970  0.732077  1
  Si  Si8  1  0.668770  0.175182  0.510902  1
  Si  Si9  1  0.327133  0.838216  0.499535  1
  Si  Si10  1  0.165125  0.172566  0.003174  1
  Si  Si11  1  0.836013  0.834548  0.009330  1
  Tc  Tc12  1  0.476850  0.752526  0.229804  1
  Tc  Tc13  1  0.018433  0.751759  0.773228  1
  Tc  Tc14  1  0.901974  0.250510  0.408410  1
  Tc  Tc15  1  0.093312  0.503101  0.343231  1
  Tc  Tc16  1  0.341428  0.251934  0.846051  1
  Ru  Ru17  1  0.663922  0.503567  0.915206  1
