# generated using pymatgen
data_Dy2HoZnSi2Ag3
_symmetry_space_group_name_H-M   'P 1'
_cell_length_a   7.12385406
_cell_length_b   7.12385354
_cell_length_c   4.15214600
_cell_angle_alpha   90.00000000
_cell_angle_beta   90.00000000
_cell_angle_gamma   119.98545998
_symmetry_Int_Tables_number   1
_chemical_formula_structural   Dy2HoZnSi2Ag3
_chemical_formula_sum   'Dy2 Ho1 Zn1 Si2 Ag3'
_cell_volume   182.51428244
_cell_formula_units_Z   1
loop_
 _symmetry_equiv_pos_site_id
 _symmetry_equiv_pos_as_xyz
  1  'x, y, z'
loop_
 _atom_site_type_symbol
 _atom_site_label
 _atom_site_symmetry_multiplicity
 _atom_site_fract_x
 _atom_site_fract_y
 _atom_site_fract_z
 _atom_site_occupancy
  Dy  Dy0  1  0.580377  0.999960  0.500000  1
  Dy  Dy1  1  0.999960  0.580377  0.500000  1
  Ho  Ho2  1  0.419728  0.419728  0.500000  1
  Zn  Zn3  1  0.000158  0.000158  0.500000  1
  Si  Si4  1  0.666380  0.333465  0.000000  1
  Si  Si5  1  0.333465  0.666380  0.000000  1
  Ag  Ag6  1  0.747587  0.747587  0.000000  1
  Ag  Ag7  1  0.252165  0.000179  0.000000  1
  Ag  Ag8  1  0.000179  0.252165  0.000000  1
