# generated using pymatgen
data_K4Mn3FeP4(O4F)4
_symmetry_space_group_name_H-M   'P 1'
_cell_length_a   6.44680100
_cell_length_b   10.80440100
_cell_length_c   13.05242200
_cell_angle_alpha   90.00000000
_cell_angle_beta   90.00000000
_cell_angle_gamma   90.00000000
_symmetry_Int_Tables_number   1
_chemical_formula_structural   K4Mn3FeP4(O4F)4
_chemical_formula_sum   'K8 Mn6 Fe2 P8 O32 F8'
_cell_volume   909.15109394
_cell_formula_units_Z   2
loop_
 _symmetry_equiv_pos_site_id
 _symmetry_equiv_pos_as_xyz
  1  'x, y, z'
loop_
 _atom_site_type_symbol
 _atom_site_label
 _atom_site_symmetry_multiplicity
 _atom_site_fract_x
 _atom_site_fract_y
 _atom_site_fract_z
 _atom_site_occupancy
  K  K0  1  0.768993  0.200153  0.375876  1
  K  K1  1  0.304641  0.939210  0.895738  1
  K  K2  1  0.804643  0.445416  0.602664  1
  K  K3  1  0.195357  0.945416  0.397336  1
  K  K4  1  0.695359  0.439210  0.104262  1
  K  K5  1  0.271420  0.702618  0.126046  1
  K  K6  1  0.728580  0.202618  0.873954  1
  K  K7  1  0.231007  0.700153  0.624124  1
  Mn  Mn8  1  0.751645  0.749900  0.253896  1
  Mn  Mn9  1  0.248355  0.249900  0.746104  1
  Mn  Mn10  1  0.748878  0.747686  0.754477  1
  Mn  Mn11  1  0.251122  0.247686  0.245523  1
  Mn  Mn12  1  0.488164  0.495716  0.385065  1
  Mn  Mn13  1  0.511836  0.995716  0.614935  1
  Fe  Fe14  1  0.004639  0.499028  0.887966  1
  Fe  Fe15  1  0.995361  0.999028  0.112034  1
  P  P16  1  0.998197  0.494548  0.318810  1
  P  P17  1  0.497862  0.996832  0.181056  1
  P  P18  1  0.502138  0.496832  0.818944  1
  P  P19  1  0.001803  0.994548  0.681190  1
  P  P20  1  0.172219  0.246358  0.996156  1
  P  P21  1  0.827781  0.746358  0.003844  1
  P  P22  1  0.326947  0.251341  0.500692  1
  P  P23  1  0.673053  0.751341  0.499308  1
  O  O24  1  0.311987  0.969053  0.109988  1
  O  O25  1  0.815837  0.022448  0.610343  1
  O  O26  1  0.309037  0.526855  0.883601  1
  O  O27  1  0.690963  0.026855  0.116399  1
  O  O28  1  0.047927  0.383173  0.244596  1
  O  O29  1  0.952073  0.883173  0.755404  1
  O  O30  1  0.462113  0.383970  0.746052  1
  O  O31  1  0.537887  0.883970  0.253948  1
  O  O32  1  0.524567  0.866408  0.514066  1
  O  O33  1  0.475433  0.366408  0.485934  1
  O  O34  1  0.979879  0.857304  0.016395  1
  O  O35  1  0.020121  0.357304  0.983605  1
  O  O36  1  0.806945  0.463288  0.386070  1
  O  O37  1  0.193055  0.963288  0.613930  1
  O  O38  1  0.688013  0.469053  0.890012  1
  O  O39  1  0.184163  0.522448  0.389657  1
  O  O40  1  0.528712  0.638778  0.489063  1
  O  O41  1  0.471288  0.138778  0.510937  1
  O  O42  1  0.966600  0.628902  0.991638  1
  O  O43  1  0.441793  0.106760  0.255496  1
  O  O44  1  0.807923  0.771890  0.401434  1
  O  O45  1  0.192077  0.271890  0.598566  1
  O  O46  1  0.682663  0.765476  0.912072  1
  O  O47  1  0.317337  0.265476  0.087928  1
  O  O48  1  0.694688  0.728965  0.103275  1
  O  O49  1  0.305312  0.228965  0.896725  1
  O  O50  1  0.817212  0.734994  0.592641  1
  O  O51  1  0.182788  0.234994  0.407359  1
  O  O52  1  0.948530  0.605792  0.246310  1
  O  O53  1  0.051470  0.105792  0.753690  1
  O  O54  1  0.558207  0.606760  0.744504  1
  O  O55  1  0.033400  0.128902  0.008362  1
  F  F56  1  0.997425  0.874647  0.227036  1
  F  F57  1  0.002575  0.374647  0.772964  1
  F  F58  1  0.508779  0.858584  0.731927  1
  F  F59  1  0.491221  0.358584  0.268073  1
  F  F60  1  0.020563  0.122261  0.228712  1
  F  F61  1  0.979437  0.622261  0.771288  1
  F  F62  1  0.488238  0.110247  0.726879  1
  F  F63  1  0.511762  0.610247  0.273121  1
