# generated using pymatgen
data_Zr12Al5Tc7N4
_symmetry_space_group_name_H-M   'P 1'
_cell_length_a   8.65010986
_cell_length_b   8.65011035
_cell_length_c   8.66116591
_cell_angle_alpha   60.04220870
_cell_angle_beta   60.04220799
_cell_angle_gamma   59.99999924
_symmetry_Int_Tables_number   1
_chemical_formula_structural   Zr12Al5Tc7N4
_chemical_formula_sum   'Zr12 Al5 Tc7 N4'
_cell_volume   458.54441116
_cell_formula_units_Z   1
loop_
 _symmetry_equiv_pos_site_id
 _symmetry_equiv_pos_as_xyz
  1  'x, y, z'
loop_
 _atom_site_type_symbol
 _atom_site_label
 _atom_site_symmetry_multiplicity
 _atom_site_fract_x
 _atom_site_fract_y
 _atom_site_fract_z
 _atom_site_occupancy
  Zr  Zr0  1  0.808272  0.194318  0.189138  1
  Zr  Zr1  1  0.194318  0.808272  0.189138  1
  Zr  Zr2  1  0.808272  0.808272  0.189138  1
  Zr  Zr3  1  0.187489  0.811501  0.813520  1
  Zr  Zr4  1  0.811501  0.187489  0.813520  1
  Zr  Zr5  1  0.187489  0.187489  0.813520  1
  Zr  Zr6  1  0.439227  0.060176  0.061372  1
  Zr  Zr7  1  0.060176  0.439227  0.061372  1
  Zr  Zr8  1  0.439227  0.439227  0.061372  1
  Zr  Zr9  1  0.059372  0.440319  0.440935  1
  Zr  Zr10  1  0.440319  0.059372  0.440935  1
  Zr  Zr11  1  0.059372  0.059372  0.440935  1
  Al  Al12  1  0.418753  0.418753  0.743740  1
  Al  Al13  1  0.419751  0.419751  0.418788  1
  Al  Al14  1  0.741710  0.419751  0.418788  1
  Al  Al15  1  0.419751  0.741710  0.418788  1
  Al  Al16  1  0.834214  0.834214  0.497359  1
  Tc  Tc17  1  0.830867  0.830867  0.820472  1
  Tc  Tc18  1  0.517794  0.830867  0.820472  1
  Tc  Tc19  1  0.830867  0.517794  0.820472  1
  Tc  Tc20  1  0.628035  0.628035  0.115893  1
  Tc  Tc21  1  0.623636  0.623636  0.634946  1
  Tc  Tc22  1  0.117784  0.623636  0.634946  1
  Tc  Tc23  1  0.623636  0.117784  0.634946  1
  N  N24  1  0.125455  0.125455  0.623634  1
  N  N25  1  0.124414  0.124414  0.127286  1
  N  N26  1  0.623886  0.124414  0.127286  1
  N  N27  1  0.124414  0.623886  0.127286  1
