# generated using pymatgen
data_Sm5NiRhO12
_symmetry_space_group_name_H-M   'P 1'
_cell_length_a   6.89989264
_cell_length_b   6.89989208
_cell_length_c   7.40814900
_cell_angle_alpha   74.50697087
_cell_angle_beta   74.50697215
_cell_angle_gamma   50.65175023
_symmetry_Int_Tables_number   1
_chemical_formula_structural   Sm5NiRhO12
_chemical_formula_sum   'Sm5 Ni1 Rh1 O12'
_cell_volume   260.55646228
_cell_formula_units_Z   1
loop_
 _symmetry_equiv_pos_site_id
 _symmetry_equiv_pos_as_xyz
  1  'x, y, z'
loop_
 _atom_site_type_symbol
 _atom_site_label
 _atom_site_symmetry_multiplicity
 _atom_site_fract_x
 _atom_site_fract_y
 _atom_site_fract_z
 _atom_site_occupancy
  Sm  Sm0  1  0.315128  0.295725  0.356741  1
  Sm  Sm1  1  0.704275  0.684872  0.643259  1
  Sm  Sm2  1  0.695286  0.690087  0.165062  1
  Sm  Sm3  1  0.309913  0.304714  0.834938  1
  Sm  Sm4  1  0.997719  0.002281  0.500000  1
  Ni  Ni5  1  0.746083  0.253917  0.000000  1
  Rh  Rh6  1  0.236347  0.763653  0.000000  1
  O  O7  1  0.101914  0.596521  0.575151  1
  O  O8  1  0.981471  0.017166  0.172214  1
  O  O9  1  0.403479  0.898086  0.424849  1
  O  O10  1  0.507965  0.492001  0.174020  1
  O  O11  1  0.098119  0.578361  0.080448  1
  O  O12  1  0.908469  0.400809  0.422245  1
  O  O13  1  0.982834  0.018529  0.827786  1
  O  O14  1  0.599191  0.091530  0.577755  1
  O  O15  1  0.507999  0.492035  0.825980  1
  O  O16  1  0.581832  0.099662  0.078922  1
  O  O17  1  0.421639  0.901881  0.919552  1
  O  O18  1  0.900338  0.418168  0.921078  1
