# generated using pymatgen
data_Rb2Si(PdSe2)3
_symmetry_space_group_name_H-M   'P 1'
_cell_length_a   8.37441615
_cell_length_b   8.37441622
_cell_length_c   8.37441642
_cell_angle_alpha   51.21907553
_cell_angle_beta   51.21906894
_cell_angle_gamma   51.21907701
_symmetry_Int_Tables_number   1
_chemical_formula_structural   Rb2Si(PdSe2)3
_chemical_formula_sum   'Rb2 Si1 Pd3 Se6'
_cell_volume   329.37132891
_cell_formula_units_Z   1
loop_
 _symmetry_equiv_pos_site_id
 _symmetry_equiv_pos_as_xyz
  1  'x, y, z'
loop_
 _atom_site_type_symbol
 _atom_site_label
 _atom_site_symmetry_multiplicity
 _atom_site_fract_x
 _atom_site_fract_y
 _atom_site_fract_z
 _atom_site_occupancy
  Rb  Rb0  1  0.799217  0.799217  0.799217  1
  Rb  Rb1  1  0.200783  0.200783  0.200783  1
  Si  Si2  1  0.000000  0.000000  0.000000  1
  Pd  Pd3  1  0.500000  0.500000  0.000000  1
  Pd  Pd4  1  0.500000  0.000000  0.500000  1
  Pd  Pd5  1  0.000000  0.500000  0.500000  1
  Se  Se6  1  0.772639  0.772639  0.270321  1
  Se  Se7  1  0.270321  0.772639  0.772639  1
  Se  Se8  1  0.772639  0.270321  0.772639  1
  Se  Se9  1  0.729679  0.227361  0.227361  1
  Se  Se10  1  0.227361  0.227361  0.729679  1
  Se  Se11  1  0.227361  0.729679  0.227361  1
