# generated using pymatgen
data_Nd3TmAu5
_symmetry_space_group_name_H-M   'P 1'
_cell_length_a   8.20831754
_cell_length_b   8.20831758
_cell_length_c   8.20831731
_cell_angle_alpha   65.70933697
_cell_angle_beta   65.70933383
_cell_angle_gamma   65.70931610
_symmetry_Int_Tables_number   1
_chemical_formula_structural   Nd3TmAu5
_chemical_formula_sum   'Nd6 Tm2 Au10'
_cell_volume   439.51045504
_cell_formula_units_Z   2
loop_
 _symmetry_equiv_pos_site_id
 _symmetry_equiv_pos_as_xyz
  1  'x, y, z'
loop_
 _atom_site_type_symbol
 _atom_site_label
 _atom_site_symmetry_multiplicity
 _atom_site_fract_x
 _atom_site_fract_y
 _atom_site_fract_z
 _atom_site_occupancy
  Nd  Nd0  1  0.892358  0.185542  0.621220  1
  Nd  Nd1  1  0.621220  0.892358  0.185542  1
  Nd  Nd2  1  0.185542  0.621220  0.892358  1
  Nd  Nd3  1  0.107642  0.814458  0.378780  1
  Nd  Nd4  1  0.378780  0.107642  0.814458  1
  Nd  Nd5  1  0.814458  0.378780  0.107642  1
  Tm  Tm6  1  0.656977  0.656977  0.656977  1
  Tm  Tm7  1  0.343023  0.343023  0.343023  1
  Au  Au8  1  0.000000  0.000000  0.000000  1
  Au  Au9  1  0.500000  0.500000  0.500000  1
  Au  Au10  1  0.804083  0.804083  0.804083  1
  Au  Au11  1  0.195917  0.195917  0.195917  1
  Au  Au12  1  0.940028  0.548192  0.321005  1
  Au  Au13  1  0.321005  0.940028  0.548192  1
  Au  Au14  1  0.548192  0.321005  0.940028  1
  Au  Au15  1  0.059972  0.451808  0.678995  1
  Au  Au16  1  0.678995  0.059972  0.451808  1
  Au  Au17  1  0.451808  0.678995  0.059972  1
