# generated using pymatgen
data_Hf6Zr2Co7Si14Os
_symmetry_space_group_name_H-M   'P 1'
_cell_length_a   9.49121862
_cell_length_b   9.48430821
_cell_length_c   9.49862466
_cell_angle_alpha   94.06526412
_cell_angle_beta   94.22866809
_cell_angle_gamma   148.76530726
_symmetry_Int_Tables_number   1
_chemical_formula_structural   Hf6Zr2Co7Si14Os
_chemical_formula_sum   'Hf6 Zr2 Co7 Si14 Os1'
_cell_volume   427.08249279
_cell_formula_units_Z   1
loop_
 _symmetry_equiv_pos_site_id
 _symmetry_equiv_pos_as_xyz
  1  'x, y, z'
loop_
 _atom_site_type_symbol
 _atom_site_label
 _atom_site_symmetry_multiplicity
 _atom_site_fract_x
 _atom_site_fract_y
 _atom_site_fract_z
 _atom_site_occupancy
  Hf  Hf0  1  0.137885  0.138339  0.275772  1
  Hf  Hf1  1  0.862335  0.862057  0.724654  1
  Hf  Hf2  1  0.861762  0.137220  0.001345  1
  Hf  Hf3  1  0.138851  0.863458  0.000439  1
  Hf  Hf4  1  0.499729  0.303851  0.804055  1
  Hf  Hf5  1  0.501608  0.695869  0.196789  1
  Zr  Zr6  1  0.694445  0.500715  0.196198  1
  Zr  Zr7  1  0.305121  0.500077  0.804711  1
  Co  Co8  1  0.104068  0.603322  0.207055  1
  Co  Co9  1  0.099787  0.896866  0.499692  1
  Co  Co10  1  0.399269  0.602246  0.498152  1
  Co  Co11  1  0.599279  0.395410  0.499804  1
  Co  Co12  1  0.899116  0.103068  0.498286  1
  Co  Co13  1  0.898298  0.398754  0.796661  1
  Co  Co14  1  0.602316  0.101530  0.204080  1
  Si  Si15  1  0.505293  0.098474  0.586687  1
  Si  Si16  1  0.502112  0.909210  0.407074  1
  Si  Si17  1  0.904794  0.497802  0.407038  1
  Si  Si18  1  0.081957  0.488897  0.586821  1
  Si  Si19  1  0.750368  0.751045  0.000276  1
  Si  Si20  1  0.249821  0.249127  0.000180  1
  Si  Si21  1  0.289880  0.289545  0.579591  1
  Si  Si22  1  0.710327  0.710435  0.420709  1
  Si  Si23  1  0.722546  0.304471  0.005416  1
  Si  Si24  1  0.283604  0.701546  0.005786  1
  Si  Si25  1  0.000480  0.300639  0.300042  1
  Si  Si26  1  0.988303  0.693740  0.698476  1
  Si  Si27  1  0.708620  0.004080  0.697954  1
  Si  Si28  1  0.300383  0.999446  0.300921  1
  Os  Os29  1  0.397646  0.898765  0.795339  1
