# generated using pymatgen
data_ReP6PbO18
_symmetry_space_group_name_H-M   'P 1'
_cell_length_a   6.89592700
_cell_length_b   6.89592641
_cell_length_c   10.60200000
_cell_angle_alpha   90.00000000
_cell_angle_beta   90.00000000
_cell_angle_gamma   120.00000761
_symmetry_Int_Tables_number   1
_chemical_formula_structural   ReP6PbO18
_chemical_formula_sum   'Re1 P6 Pb1 O18'
_cell_volume   436.62004722
_cell_formula_units_Z   1
loop_
 _symmetry_equiv_pos_site_id
 _symmetry_equiv_pos_as_xyz
  1  'x, y, z'
loop_
 _atom_site_type_symbol
 _atom_site_label
 _atom_site_symmetry_multiplicity
 _atom_site_fract_x
 _atom_site_fract_y
 _atom_site_fract_z
 _atom_site_occupancy
  Re  Re0  1  0.000000  0.000000  0.000000  1
  P  P1  1  0.727057  0.122797  0.781397  1
  P  P2  1  0.877203  0.272943  0.218603  1
  P  P3  1  0.727057  0.604260  0.218603  1
  P  P4  1  0.877203  0.604260  0.781397  1
  P  P5  1  0.395740  0.272943  0.781397  1
  P  P6  1  0.395740  0.122797  0.218603  1
  Pb  Pb7  1  0.000000  0.000000  0.500000  1
  O  O8  1  0.899007  0.513116  0.193125  1
  O  O9  1  0.899007  0.385892  0.806875  1
  O  O10  1  0.486884  0.100993  0.806875  1
  O  O11  1  0.614108  0.100993  0.193125  1
  O  O12  1  0.743284  0.051640  0.652010  1
  O  O13  1  0.757304  0.998250  0.891861  1
  O  O14  1  0.486884  0.385892  0.193125  1
  O  O15  1  0.743284  0.691645  0.347990  1
  O  O16  1  0.757304  0.759055  0.108139  1
  O  O17  1  0.614108  0.513116  0.806875  1
  O  O18  1  0.948360  0.256716  0.347990  1
  O  O19  1  0.001750  0.242696  0.108139  1
  O  O20  1  0.240945  0.242696  0.891861  1
  O  O21  1  0.308355  0.256716  0.652010  1
  O  O22  1  0.001750  0.759055  0.891861  1
  O  O23  1  0.948360  0.691645  0.652010  1
  O  O24  1  0.240945  0.998250  0.108139  1
  O  O25  1  0.308355  0.051640  0.347990  1
