# generated using pymatgen
data_Nd12Ru3PtBr12
_symmetry_space_group_name_H-M   'P 1'
_cell_length_a   10.48071386
_cell_length_b   10.48071351
_cell_length_c   10.43344700
_cell_angle_alpha   109.37989158
_cell_angle_beta   109.37989091
_cell_angle_gamma   109.56239095
_symmetry_Int_Tables_number   1
_chemical_formula_structural   Nd12Ru3PtBr12
_chemical_formula_sum   'Nd12 Ru3 Pt1 Br12'
_cell_volume   883.23429785
_cell_formula_units_Z   1
loop_
 _symmetry_equiv_pos_site_id
 _symmetry_equiv_pos_as_xyz
  1  'x, y, z'
loop_
 _atom_site_type_symbol
 _atom_site_label
 _atom_site_symmetry_multiplicity
 _atom_site_fract_x
 _atom_site_fract_y
 _atom_site_fract_z
 _atom_site_occupancy
  Nd  Nd0  1  0.262225  0.740542  0.229930  1
  Nd  Nd1  1  0.478317  0.740542  0.010612  1
  Nd  Nd2  1  0.233578  0.467156  0.483578  1
  Nd  Nd3  1  0.015457  0.030917  0.265457  1
  Nd  Nd4  1  0.233578  0.266422  0.750000  1
  Nd  Nd5  1  0.015457  0.484543  0.750000  1
  Nd  Nd6  1  0.478317  0.237775  0.467704  1
  Nd  Nd7  1  0.262225  0.021683  0.032296  1
  Nd  Nd8  1  0.759458  0.237775  0.270070  1
  Nd  Nd9  1  0.759458  0.021683  0.489388  1
  Nd  Nd10  1  0.469083  0.484543  0.234543  1
  Nd  Nd11  1  0.032844  0.266422  0.016422  1
  Ru  Ru12  1  0.249935  0.499870  0.999935  1
  Ru  Ru13  1  0.000130  0.250065  0.500065  1
  Ru  Ru14  1  0.249935  0.250065  0.250000  1
  Pt  Pt15  1  0.500000  0.000000  0.250000  1
  Br  Br16  1  0.248906  0.994856  0.503731  1
  Br  Br17  1  0.511877  0.505939  0.755939  1
  Br  Br18  1  0.248906  0.754050  0.745175  1
  Br  Br19  1  0.990964  0.745483  0.995483  1
  Br  Br20  1  0.994061  0.505939  0.250000  1
  Br  Br21  1  0.745950  0.994856  0.991122  1
  Br  Br22  1  0.754517  0.745483  0.250000  1
  Br  Br23  1  0.505144  0.754050  0.508878  1
  Br  Br24  1  0.505144  0.251094  0.996269  1
  Br  Br25  1  0.754517  0.509036  0.504517  1
  Br  Br26  1  0.745950  0.251094  0.754825  1
  Br  Br27  1  0.994061  0.988123  0.744061  1
