# generated using pymatgen
data_Yb3TiFeC6
_symmetry_space_group_name_H-M   'P 1'
_cell_length_a   8.15174700
_cell_length_b   8.15174613
_cell_length_c   5.13352200
_cell_angle_alpha   90.00000000
_cell_angle_beta   90.00000000
_cell_angle_gamma   119.99998919
_symmetry_Int_Tables_number   1
_chemical_formula_structural   Yb3TiFeC6
_chemical_formula_sum   'Yb6 Ti2 Fe2 C12'
_cell_volume   295.42513637
_cell_formula_units_Z   2
loop_
 _symmetry_equiv_pos_site_id
 _symmetry_equiv_pos_as_xyz
  1  'x, y, z'
loop_
 _atom_site_type_symbol
 _atom_site_label
 _atom_site_symmetry_multiplicity
 _atom_site_fract_x
 _atom_site_fract_y
 _atom_site_fract_z
 _atom_site_occupancy
  Yb  Yb0  1  0.603736  0.676349  0.750000  1
  Yb  Yb1  1  0.927388  0.603736  0.250000  1
  Yb  Yb2  1  0.676349  0.072612  0.250000  1
  Yb  Yb3  1  0.323651  0.927388  0.750000  1
  Yb  Yb4  1  0.072612  0.396264  0.750000  1
  Yb  Yb5  1  0.396264  0.323651  0.250000  1
  Ti  Ti6  1  0.000000  0.000000  0.500000  1
  Ti  Ti7  1  0.000000  0.000000  0.000000  1
  Fe  Fe8  1  0.666667  0.333333  0.750000  1
  Fe  Fe9  1  0.333333  0.666667  0.250000  1
  C  C10  1  0.956633  0.761331  0.750000  1
  C  C11  1  0.195301  0.956633  0.250000  1
  C  C12  1  0.761331  0.804699  0.250000  1
  C  C13  1  0.238669  0.195301  0.750000  1
  C  C14  1  0.804699  0.043367  0.750000  1
  C  C15  1  0.043367  0.238669  0.250000  1
  C  C16  1  0.854325  0.572327  0.750000  1
  C  C17  1  0.281996  0.854325  0.250000  1
  C  C18  1  0.572327  0.718004  0.250000  1
  C  C19  1  0.427673  0.281996  0.750000  1
  C  C20  1  0.145675  0.427673  0.250000  1
  C  C21  1  0.718004  0.145675  0.750000  1
