# generated using pymatgen
data_Dy2Tm2Cd3Co2
_symmetry_space_group_name_H-M   'P 1'
_cell_length_a   3.68350700
_cell_length_b   7.34004812
_cell_length_c   7.91938282
_cell_angle_alpha   71.11180045
_cell_angle_beta   90.00000000
_cell_angle_gamma   90.00000000
_symmetry_Int_Tables_number   1
_chemical_formula_structural   Dy2Tm2Cd3Co2
_chemical_formula_sum   'Dy2 Tm2 Cd3 Co2'
_cell_volume   202.58751593
_cell_formula_units_Z   1
loop_
 _symmetry_equiv_pos_site_id
 _symmetry_equiv_pos_as_xyz
  1  'x, y, z'
loop_
 _atom_site_type_symbol
 _atom_site_label
 _atom_site_symmetry_multiplicity
 _atom_site_fract_x
 _atom_site_fract_y
 _atom_site_fract_z
 _atom_site_occupancy
  Dy  Dy0  1  0.500000  0.397321  0.311590  1
  Dy  Dy1  1  0.500000  0.602679  0.688410  1
  Tm  Tm2  1  0.500000  0.903714  0.225038  1
  Tm  Tm3  1  0.500000  0.096286  0.774962  1
  Cd  Cd4  1  0.000000  0.708337  0.002166  1
  Cd  Cd5  1  0.000000  0.291663  0.997834  1
  Cd  Cd6  1  0.000000  0.000000  0.500000  1
  Co  Co7  1  0.000000  0.650221  0.395986  1
  Co  Co8  1  0.000000  0.349779  0.604014  1
