# generated using pymatgen
data_Tb7Y5Co4BiRu
_symmetry_space_group_name_H-M   'P 1'
_cell_length_a   8.37200256
_cell_length_b   8.37830776
_cell_length_c   8.37200295
_cell_angle_alpha   111.14084172
_cell_angle_beta   110.38162411
_cell_angle_gamma   106.89247353
_symmetry_Int_Tables_number   1
_chemical_formula_structural   Tb7Y5Co4BiRu
_chemical_formula_sum   'Tb7 Y5 Co4 Bi1 Ru1'
_cell_volume   451.52463985
_cell_formula_units_Z   1
loop_
 _symmetry_equiv_pos_site_id
 _symmetry_equiv_pos_as_xyz
  1  'x, y, z'
loop_
 _atom_site_type_symbol
 _atom_site_label
 _atom_site_symmetry_multiplicity
 _atom_site_fract_x
 _atom_site_fract_y
 _atom_site_fract_z
 _atom_site_occupancy
  Tb  Tb0  1  0.311155  0.620623  0.309468  1
  Tb  Tb1  1  0.688779  0.998476  0.309697  1
  Tb  Tb2  1  0.311424  0.002078  0.690654  1
  Tb  Tb3  1  0.597490  0.792381  0.805437  1
  Tb  Tb4  1  0.402481  0.207757  0.194856  1
  Tb  Tb5  1  0.986946  0.792381  0.194890  1
  Tb  Tb6  1  0.012900  0.207757  0.805277  1
  Y  Y7  1  0.816249  0.710576  0.526982  1
  Y  Y8  1  0.183834  0.289385  0.473070  1
  Y  Y9  1  0.183594  0.710576  0.894329  1
  Y  Y10  1  0.816314  0.289385  0.105550  1
  Y  Y11  1  0.688521  0.380768  0.692247  1
  Co  Co12  1  0.620996  0.999110  0.620728  1
  Co  Co13  1  0.378382  0.999110  0.378114  1
  Co  Co14  1  0.110898  0.610898  0.500000  1
  Co  Co15  1  0.889822  0.388958  0.499136  1
  Bi  Bi16  1  0.500283  0.499923  0.999641  1
  Ru  Ru17  1  0.999931  0.999856  0.999925  1
