# generated using pymatgen
data_TbEu2Dy3(RuO7)2
_symmetry_space_group_name_H-M   'P 1'
_cell_length_a   6.44859142
_cell_length_b   6.44814832
_cell_length_c   7.46544900
_cell_angle_alpha   90.00000000
_cell_angle_beta   90.00000000
_cell_angle_gamma   109.64935074
_symmetry_Int_Tables_number   1
_chemical_formula_structural   TbEu2Dy3(RuO7)2
_chemical_formula_sum   'Tb1 Eu2 Dy3 Ru2 O14'
_cell_volume   292.34779291
_cell_formula_units_Z   1
loop_
 _symmetry_equiv_pos_site_id
 _symmetry_equiv_pos_as_xyz
  1  'x, y, z'
loop_
 _atom_site_type_symbol
 _atom_site_label
 _atom_site_symmetry_multiplicity
 _atom_site_fract_x
 _atom_site_fract_y
 _atom_site_fract_z
 _atom_site_occupancy
  Tb  Tb0  1  0.481007  0.928371  0.750000  1
  Eu  Eu1  1  0.000026  0.000197  0.499785  1
  Eu  Eu2  1  0.000026  0.000197  0.000215  1
  Dy  Dy3  1  0.518289  0.070225  0.250000  1
  Dy  Dy4  1  0.929627  0.481650  0.750000  1
  Dy  Dy5  1  0.070199  0.518479  0.250000  1
  Ru  Ru6  1  0.500128  0.499973  0.499824  1
  Ru  Ru7  1  0.500128  0.499973  0.000176  1
  O  O8  1  0.590924  0.589853  0.750000  1
  O  O9  1  0.409024  0.409318  0.250000  1
  O  O10  1  0.841515  0.114980  0.750000  1
  O  O11  1  0.159564  0.885524  0.250000  1
  O  O12  1  0.112252  0.840348  0.750000  1
  O  O13  1  0.885861  0.159972  0.250000  1
  O  O14  1  0.444105  0.184206  0.961860  1
  O  O15  1  0.556231  0.815673  0.460145  1
  O  O16  1  0.184341  0.445252  0.961143  1
  O  O17  1  0.816039  0.555339  0.461008  1
  O  O18  1  0.444105  0.184206  0.538140  1
  O  O19  1  0.556231  0.815673  0.039855  1
  O  O20  1  0.816039  0.555339  0.038992  1
  O  O21  1  0.184341  0.445252  0.538857  1
