# generated using pymatgen
data_Er3Tm7(SnSb)3
_symmetry_space_group_name_H-M   'P 1'
_cell_length_a   8.87057400
_cell_length_b   8.86345102
_cell_length_c   6.35259600
_cell_angle_alpha   90.00000000
_cell_angle_beta   90.00000000
_cell_angle_gamma   120.02658012
_symmetry_Int_Tables_number   1
_chemical_formula_structural   Er3Tm7(SnSb)3
_chemical_formula_sum   'Er3 Tm7 Sn3 Sb3'
_cell_volume   432.43422376
_cell_formula_units_Z   1
loop_
 _symmetry_equiv_pos_site_id
 _symmetry_equiv_pos_as_xyz
  1  'x, y, z'
loop_
 _atom_site_type_symbol
 _atom_site_label
 _atom_site_symmetry_multiplicity
 _atom_site_fract_x
 _atom_site_fract_y
 _atom_site_fract_z
 _atom_site_occupancy
  Er  Er0  1  0.001084  0.759677  0.750000  1
  Er  Er1  1  0.757477  0.000000  0.750000  1
  Er  Er2  1  0.241408  0.240323  0.750000  1
  Tm  Tm3  1  0.001528  0.242333  0.250000  1
  Tm  Tm4  1  0.759195  0.757667  0.250000  1
  Tm  Tm5  1  0.239061  0.000000  0.250000  1
  Tm  Tm6  1  0.332702  0.666354  0.500352  1
  Tm  Tm7  1  0.666348  0.333646  0.999648  1
  Tm  Tm8  1  0.666348  0.333646  0.500352  1
  Tm  Tm9  1  0.332702  0.666354  0.999648  1
  Sn  Sn10  1  0.393381  0.000000  0.750000  1
  Sn  Sn11  1  0.392556  0.392527  0.250000  1
  Sn  Sn12  1  0.000029  0.607473  0.250000  1
  Sb  Sb13  1  0.999311  0.391189  0.750000  1
  Sb  Sb14  1  0.608123  0.608811  0.750000  1
  Sb  Sb15  1  0.608746  0.000000  0.250000  1
