# generated using pymatgen
data_K2VAuS4
_symmetry_space_group_name_H-M   'P 1'
_cell_length_a   13.10268375
_cell_length_b   11.68308056
_cell_length_c   7.17982753
_cell_angle_alpha   84.40241620
_cell_angle_beta   62.54878718
_cell_angle_gamma   33.04880419
_symmetry_Int_Tables_number   1
_chemical_formula_structural   K2VAuS4
_chemical_formula_sum   'K4 V2 Au2 S8'
_cell_volume   426.75437254
_cell_formula_units_Z   2
loop_
 _symmetry_equiv_pos_site_id
 _symmetry_equiv_pos_as_xyz
  1  'x, y, z'
loop_
 _atom_site_type_symbol
 _atom_site_label
 _atom_site_symmetry_multiplicity
 _atom_site_fract_x
 _atom_site_fract_y
 _atom_site_fract_z
 _atom_site_occupancy
  K  K0  1  0.069616  0.069616  0.430384  1
  K  K1  1  0.180384  0.180384  0.819616  1
  K  K2  1  0.430384  0.430384  0.069616  1
  K  K3  1  0.819616  0.819616  0.180384  1
  V  V4  1  0.000000  0.000000  0.000000  1
  V  V5  1  0.250000  0.250000  0.250000  1
  Au  Au6  1  0.500000  0.500000  0.500000  1
  Au  Au7  1  0.750000  0.750000  0.750000  1
  S  S8  1  0.750909  0.363528  0.048309  1
  S  S9  1  0.048309  0.837254  0.750909  1
  S  S10  1  0.837254  0.048309  0.363528  1
  S  S11  1  0.363528  0.750909  0.837254  1
  S  S12  1  0.499091  0.886472  0.201691  1
  S  S13  1  0.412746  0.201691  0.886472  1
  S  S14  1  0.201691  0.412746  0.499091  1
  S  S15  1  0.886472  0.499091  0.412746  1
