# generated using pymatgen
data_Lu10PPdPb6
_symmetry_space_group_name_H-M   'P 1'
_cell_length_a   8.99367100
_cell_length_b   8.99367163
_cell_length_c   6.67479200
_cell_angle_alpha   90.00000000
_cell_angle_beta   90.00000000
_cell_angle_gamma   120.00000135
_symmetry_Int_Tables_number   1
_chemical_formula_structural   Lu10PPdPb6
_chemical_formula_sum   'Lu10 P1 Pd1 Pb6'
_cell_volume   467.56542178
_cell_formula_units_Z   1
loop_
 _symmetry_equiv_pos_site_id
 _symmetry_equiv_pos_as_xyz
  1  'x, y, z'
loop_
 _atom_site_type_symbol
 _atom_site_label
 _atom_site_symmetry_multiplicity
 _atom_site_fract_x
 _atom_site_fract_y
 _atom_site_fract_z
 _atom_site_occupancy
  Lu  Lu0  1  0.244055  0.000000  0.238461  1
  Lu  Lu1  1  0.755945  0.000000  0.761539  1
  Lu  Lu2  1  0.000000  0.244055  0.238461  1
  Lu  Lu3  1  0.000000  0.755945  0.761539  1
  Lu  Lu4  1  0.755945  0.755945  0.238461  1
  Lu  Lu5  1  0.244055  0.244055  0.761539  1
  Lu  Lu6  1  0.333333  0.666667  0.000000  1
  Lu  Lu7  1  0.666667  0.333333  0.000000  1
  Lu  Lu8  1  0.666667  0.333333  0.500000  1
  Lu  Lu9  1  0.333333  0.666667  0.500000  1
  P  P10  1  0.000000  0.000000  0.000000  1
  Pd  Pd11  1  0.000000  0.000000  0.500000  1
  Pb  Pb12  1  0.602851  0.000000  0.249461  1
  Pb  Pb13  1  0.397149  0.000000  0.750539  1
  Pb  Pb14  1  0.000000  0.602851  0.249461  1
  Pb  Pb15  1  0.000000  0.397149  0.750539  1
  Pb  Pb16  1  0.397149  0.397149  0.249461  1
  Pb  Pb17  1  0.602851  0.602851  0.750539  1
