# generated using pymatgen
data_Pr2AsSe
_symmetry_space_group_name_H-M   'P 1'
_cell_length_a   7.45217773
_cell_length_b   7.45217765
_cell_length_c   7.45217768
_cell_angle_alpha   33.44799562
_cell_angle_beta   33.44799688
_cell_angle_gamma   33.44800087
_symmetry_Int_Tables_number   1
_chemical_formula_structural   Pr2AsSe
_chemical_formula_sum   'Pr2 As1 Se1'
_cell_volume   111.96991522
_cell_formula_units_Z   1
loop_
 _symmetry_equiv_pos_site_id
 _symmetry_equiv_pos_as_xyz
  1  'x, y, z'
loop_
 _atom_site_type_symbol
 _atom_site_label
 _atom_site_symmetry_multiplicity
 _atom_site_fract_x
 _atom_site_fract_y
 _atom_site_fract_z
 _atom_site_occupancy
  Pr  Pr0  1  0.253797  0.253797  0.253797  1
  Pr  Pr1  1  0.746203  0.746203  0.746203  1
  As  As2  1  0.000000  0.000000  0.000000  1
  Se  Se3  1  0.500000  0.500000  0.500000  1
