# generated using pymatgen
data_Nb12Ni8Sn4CN3
_symmetry_space_group_name_H-M   'P 1'
_cell_length_a   8.29057426
_cell_length_b   8.32123836
_cell_length_c   8.29057400
_cell_angle_alpha   60.12182649
_cell_angle_beta   60.00000105
_cell_angle_gamma   60.12183072
_symmetry_Int_Tables_number   1
_chemical_formula_structural   Nb12Ni8Sn4CN3
_chemical_formula_sum   'Nb12 Ni8 Sn4 C1 N3'
_cell_volume   405.17203143
_cell_formula_units_Z   1
loop_
 _symmetry_equiv_pos_site_id
 _symmetry_equiv_pos_as_xyz
  1  'x, y, z'
loop_
 _atom_site_type_symbol
 _atom_site_label
 _atom_site_symmetry_multiplicity
 _atom_site_fract_x
 _atom_site_fract_y
 _atom_site_fract_z
 _atom_site_occupancy
  Nb  Nb0  1  0.431542  0.068857  0.068058  1
  Nb  Nb1  1  0.066576  0.432977  0.433869  1
  Nb  Nb2  1  0.066576  0.432977  0.066576  1
  Nb  Nb3  1  0.068058  0.068857  0.431542  1
  Nb  Nb4  1  0.431542  0.068857  0.431542  1
  Nb  Nb5  1  0.433869  0.432977  0.066576  1
  Nb  Nb6  1  0.183424  0.817023  0.183424  1
  Nb  Nb7  1  0.818458  0.181143  0.818458  1
  Nb  Nb8  1  0.818458  0.181143  0.181942  1
  Nb  Nb9  1  0.181942  0.181143  0.818458  1
  Nb  Nb10  1  0.183424  0.817023  0.816131  1
  Nb  Nb11  1  0.816131  0.817023  0.183424  1
  Ni  Ni12  1  0.837808  0.838487  0.837808  1
  Ni  Ni13  1  0.837808  0.838487  0.485895  1
  Ni  Ni14  1  0.485895  0.838487  0.837808  1
  Ni  Ni15  1  0.837293  0.488122  0.837293  1
  Ni  Ni16  1  0.412192  0.411513  0.412192  1
  Ni  Ni17  1  0.412192  0.411513  0.764105  1
  Ni  Ni18  1  0.412707  0.761878  0.412707  1
  Ni  Ni19  1  0.764105  0.411513  0.412192  1
  Sn  Sn20  1  0.625000  0.625000  0.625000  1
  Sn  Sn21  1  0.625000  0.625000  0.125000  1
  Sn  Sn22  1  0.125000  0.625000  0.625000  1
  Sn  Sn23  1  0.625000  0.125000  0.625000  1
  C  C24  1  0.125000  0.625000  0.125000  1
  N  N25  1  0.625000  0.125000  0.125000  1
  N  N26  1  0.125000  0.125000  0.625000  1
  N  N27  1  0.125000  0.125000  0.125000  1
