# generated using pymatgen
data_Tb3YGa18(TcPd2)2
_symmetry_space_group_name_H-M   'P 1'
_cell_length_a   7.65533841
_cell_length_b   7.65529258
_cell_length_c   9.63038003
_cell_angle_alpha   90.15708125
_cell_angle_beta   90.15519849
_cell_angle_gamma   120.34729560
_symmetry_Int_Tables_number   1
_chemical_formula_structural   Tb3YGa18(TcPd2)2
_chemical_formula_sum   'Tb3 Y1 Ga18 Tc2 Pd4'
_cell_volume   487.03841152
_cell_formula_units_Z   1
loop_
 _symmetry_equiv_pos_site_id
 _symmetry_equiv_pos_as_xyz
  1  'x, y, z'
loop_
 _atom_site_type_symbol
 _atom_site_label
 _atom_site_symmetry_multiplicity
 _atom_site_fract_x
 _atom_site_fract_y
 _atom_site_fract_z
 _atom_site_occupancy
  Tb  Tb0  1  0.004785  0.335236  0.753441  1
  Tb  Tb1  1  0.664759  0.995217  0.246557  1
  Tb  Tb2  1  0.335244  0.004794  0.753435  1
  Y  Y3  1  0.995213  0.664768  0.246540  1
  Ga  Ga4  1  0.129018  0.129044  0.251029  1
  Ga  Ga5  1  0.870961  0.870963  0.748971  1
  Ga  Ga6  1  0.002993  0.335754  0.079653  1
  Ga  Ga7  1  0.996997  0.664252  0.920349  1
  Ga  Ga8  1  0.001021  0.667908  0.581996  1
  Ga  Ga9  1  0.332092  0.998989  0.418015  1
  Ga  Ga10  1  0.998990  0.332083  0.418025  1
  Ga  Ga11  1  0.667906  0.001013  0.581993  1
  Ga  Ga12  1  0.664264  0.997004  0.920346  1
  Ga  Ga13  1  0.335729  0.002994  0.079657  1
  Ga  Ga14  1  0.334222  0.334222  0.572358  1
  Ga  Ga15  1  0.665765  0.665771  0.427647  1
  Ga  Ga16  1  0.660024  0.660001  0.062357  1
  Ga  Ga17  1  0.339981  0.339982  0.937636  1
  Ga  Ga18  1  0.335884  0.545003  0.246457  1
  Ga  Ga19  1  0.664135  0.455015  0.753544  1
  Ga  Ga20  1  0.544990  0.335849  0.246453  1
  Ga  Ga21  1  0.455013  0.664136  0.753539  1
  Tc  Tc22  1  0.675142  0.324839  0.000007  1
  Tc  Tc23  1  0.324870  0.675172  0.000010  1
  Pd  Pd24  1  0.330142  0.669851  0.499994  1
  Pd  Pd25  1  0.669867  0.330159  0.499990  1
  Pd  Pd26  1  0.999994  0.999995  0.000007  1
  Pd  Pd27  1  0.000000  0.999986  0.499994  1
