# generated using pymatgen
data_Yb10Rh3Au
_symmetry_space_group_name_H-M   'P 1'
_cell_length_a   8.63893349
_cell_length_b   8.62024142
_cell_length_c   7.49273100
_cell_angle_alpha   82.71152285
_cell_angle_beta   83.02801814
_cell_angle_gamma   43.62325604
_symmetry_Int_Tables_number   1
_chemical_formula_structural   Yb10Rh3Au
_chemical_formula_sum   'Yb10 Rh3 Au1'
_cell_volume   381.49227433
_cell_formula_units_Z   1
loop_
 _symmetry_equiv_pos_site_id
 _symmetry_equiv_pos_as_xyz
  1  'x, y, z'
loop_
 _atom_site_type_symbol
 _atom_site_label
 _atom_site_symmetry_multiplicity
 _atom_site_fract_x
 _atom_site_fract_y
 _atom_site_fract_z
 _atom_site_occupancy
  Yb  Yb0  1  0.358545  0.200652  0.810384  1
  Yb  Yb1  1  0.794400  0.636433  0.679021  1
  Yb  Yb2  1  0.632702  0.790950  0.178208  1
  Yb  Yb3  1  0.189105  0.372603  0.328906  1
  Yb  Yb4  1  0.423011  0.582094  0.257594  1
  Yb  Yb5  1  0.574421  0.433925  0.737928  1
  Yb  Yb6  1  0.806821  0.017950  0.429521  1
  Yb  Yb7  1  0.984870  0.200094  0.084350  1
  Yb  Yb8  1  0.198334  0.983021  0.584883  1
  Yb  Yb9  1  0.040594  0.783963  0.912108  1
  Rh  Rh10  1  0.180741  0.593731  0.581631  1
  Rh  Rh11  1  0.396576  0.823928  0.920437  1
  Rh  Rh12  1  0.824365  0.397939  0.417181  1
  Au  Au13  1  0.595517  0.182716  0.077845  1
