# generated using pymatgen
data_Lu2Mn5(PIr)7
_symmetry_space_group_name_H-M   'P 1'
_cell_length_a   9.35139814
_cell_length_b   9.38423986
_cell_length_c   3.83397600
_cell_angle_alpha   90.00000000
_cell_angle_beta   90.00000000
_cell_angle_gamma   119.93755714
_symmetry_Int_Tables_number   1
_chemical_formula_structural   Lu2Mn5(PIr)7
_chemical_formula_sum   'Lu2 Mn5 P7 Ir7'
_cell_volume   291.56043538
_cell_formula_units_Z   1
loop_
 _symmetry_equiv_pos_site_id
 _symmetry_equiv_pos_as_xyz
  1  'x, y, z'
loop_
 _atom_site_type_symbol
 _atom_site_label
 _atom_site_symmetry_multiplicity
 _atom_site_fract_x
 _atom_site_fract_y
 _atom_site_fract_z
 _atom_site_occupancy
  Lu  Lu0  1  0.001117  0.999674  0.000000  1
  Lu  Lu1  1  0.667193  0.332501  0.500000  1
  Mn  Mn2  1  0.225061  0.399424  0.000000  1
  Mn  Mn3  1  0.604241  0.825560  0.000000  1
  Mn  Mn4  1  0.171977  0.775097  0.000000  1
  Mn  Mn5  1  0.431783  0.889280  0.500000  1
  Mn  Mn6  1  0.110264  0.543047  0.500000  1
  P  P7  1  0.442283  0.362534  0.000000  1
  P  P8  1  0.631814  0.074505  0.000000  1
  P  P9  1  0.921461  0.553986  0.000000  1
  P  P10  1  0.055288  0.268583  0.500000  1
  P  P11  1  0.733785  0.792065  0.500000  1
  P  P12  1  0.214471  0.941416  0.500000  1
  P  P13  1  0.335702  0.670577  0.000000  1
  Ir  Ir14  1  0.693367  0.596268  0.000000  1
  Ir  Ir15  1  0.399797  0.094585  0.000000  1
  Ir  Ir16  1  0.904106  0.304267  0.000000  1
  Ir  Ir17  1  0.274274  0.219795  0.500000  1
  Ir  Ir18  1  0.779003  0.055096  0.500000  1
  Ir  Ir19  1  0.943071  0.724024  0.500000  1
  Ir  Ir20  1  0.459939  0.577717  0.500000  1
