# generated using pymatgen
data_HoTmCo2(SnH)2
_symmetry_space_group_name_H-M   'P 1'
_cell_length_a   4.24921600
_cell_length_b   7.06223500
_cell_length_c   8.11976500
_cell_angle_alpha   89.99926799
_cell_angle_beta   90.00000000
_cell_angle_gamma   90.00000000
_symmetry_Int_Tables_number   1
_chemical_formula_structural   HoTmCo2(SnH)2
_chemical_formula_sum   'Ho2 Tm2 Co4 Sn4 H4'
_cell_volume   243.66571898
_cell_formula_units_Z   2
loop_
 _symmetry_equiv_pos_site_id
 _symmetry_equiv_pos_as_xyz
  1  'x, y, z'
loop_
 _atom_site_type_symbol
 _atom_site_label
 _atom_site_symmetry_multiplicity
 _atom_site_fract_x
 _atom_site_fract_y
 _atom_site_fract_z
 _atom_site_occupancy
  Ho  Ho0  1  0.250000  0.487051  0.186334  1
  Ho  Ho1  1  0.750000  0.512949  0.813666  1
  Tm  Tm2  1  0.750000  0.013150  0.684849  1
  Tm  Tm3  1  0.250000  0.986850  0.315151  1
  Co  Co4  1  0.750000  0.774438  0.104013  1
  Co  Co5  1  0.250000  0.225562  0.895987  1
  Co  Co6  1  0.250000  0.727592  0.602745  1
  Co  Co7  1  0.750000  0.272408  0.397255  1
  Sn  Sn8  1  0.750000  0.656111  0.426353  1
  Sn  Sn9  1  0.250000  0.343889  0.573647  1
  Sn  Sn10  1  0.250000  0.845258  0.925402  1
  Sn  Sn11  1  0.750000  0.154742  0.074598  1
  H  H12  1  0.250000  0.447542  0.919141  1
  H  H13  1  0.750000  0.552458  0.080859  1
  H  H14  1  0.750000  0.050619  0.419802  1
  H  H15  1  0.250000  0.949381  0.580198  1
