# generated using pymatgen
data_Lu3Cd3PtAu2
_symmetry_space_group_name_H-M   'P 1'
_cell_length_a   7.79842000
_cell_length_b   7.79841965
_cell_length_c   3.71738300
_cell_angle_alpha   90.00000000
_cell_angle_beta   90.00000000
_cell_angle_gamma   120.00000036
_symmetry_Int_Tables_number   1
_chemical_formula_structural   Lu3Cd3PtAu2
_chemical_formula_sum   'Lu3 Cd3 Pt1 Au2'
_cell_volume   195.78578723
_cell_formula_units_Z   1
loop_
 _symmetry_equiv_pos_site_id
 _symmetry_equiv_pos_as_xyz
  1  'x, y, z'
loop_
 _atom_site_type_symbol
 _atom_site_label
 _atom_site_symmetry_multiplicity
 _atom_site_fract_x
 _atom_site_fract_y
 _atom_site_fract_z
 _atom_site_occupancy
  Lu  Lu0  1  0.589104  0.980607  0.000000  1
  Lu  Lu1  1  0.019393  0.608497  0.000000  1
  Lu  Lu2  1  0.391503  0.410896  0.000000  1
  Cd  Cd3  1  0.271039  0.002168  0.500000  1
  Cd  Cd4  1  0.997832  0.268871  0.500000  1
  Cd  Cd5  1  0.731129  0.728961  0.500000  1
  Pt  Pt6  1  0.333333  0.666667  0.500000  1
  Au  Au7  1  0.666667  0.333333  0.500000  1
  Au  Au8  1  0.000000  0.000000  0.000000  1
