# generated using pymatgen
data_SrZnSiRh3
_symmetry_space_group_name_H-M   'P 1'
_cell_length_a   5.65628028
_cell_length_b   6.79595442
_cell_length_c   6.79595300
_cell_angle_alpha   66.04546829
_cell_angle_beta   65.14186693
_cell_angle_gamma   65.14186073
_symmetry_Int_Tables_number   1
_chemical_formula_structural   SrZnSiRh3
_chemical_formula_sum   'Sr2 Zn2 Si2 Rh6'
_cell_volume   206.56144957
_cell_formula_units_Z   2
loop_
 _symmetry_equiv_pos_site_id
 _symmetry_equiv_pos_as_xyz
  1  'x, y, z'
loop_
 _atom_site_type_symbol
 _atom_site_label
 _atom_site_symmetry_multiplicity
 _atom_site_fract_x
 _atom_site_fract_y
 _atom_site_fract_z
 _atom_site_occupancy
  Sr  Sr0  1  0.514440  0.744767  0.744767  1
  Sr  Sr1  1  0.485560  0.255233  0.255233  1
  Zn  Zn2  1  0.193835  0.571524  0.571524  1
  Zn  Zn3  1  0.806165  0.428476  0.428476  1
  Si  Si4  1  0.143998  0.094232  0.094232  1
  Si  Si5  1  0.856002  0.905768  0.905768  1
  Rh  Rh6  1  0.500000  0.214790  0.785210  1
  Rh  Rh7  1  0.000000  0.770737  0.229263  1
  Rh  Rh8  1  0.500000  0.785210  0.214790  1
  Rh  Rh9  1  0.000000  0.229263  0.770737  1
  Rh  Rh10  1  0.000000  0.500000  0.000000  1
  Rh  Rh11  1  0.000000  0.000000  0.500000  1
