# generated using pymatgen
data_Er2Mn4Fe10(SiC)3
_symmetry_space_group_name_H-M   'P 1'
_cell_length_a   6.41572960
_cell_length_b   6.42686755
_cell_length_c   6.42686590
_cell_angle_alpha   83.24136468
_cell_angle_beta   83.26085348
_cell_angle_gamma   83.26087112
_symmetry_Int_Tables_number   1
_chemical_formula_structural   Er2Mn4Fe10(SiC)3
_chemical_formula_sum   'Er2 Mn4 Fe10 Si3 C3'
_cell_volume   259.89515426
_cell_formula_units_Z   1
loop_
 _symmetry_equiv_pos_site_id
 _symmetry_equiv_pos_as_xyz
  1  'x, y, z'
loop_
 _atom_site_type_symbol
 _atom_site_label
 _atom_site_symmetry_multiplicity
 _atom_site_fract_x
 _atom_site_fract_y
 _atom_site_fract_z
 _atom_site_occupancy
  Er  Er0  1  0.654378  0.654873  0.653707  1
  Er  Er1  1  0.345622  0.346293  0.345127  1
  Mn  Mn2  1  0.719409  0.283255  0.998945  1
  Mn  Mn3  1  0.000000  0.717815  0.282185  1
  Mn  Mn4  1  0.280591  0.001055  0.716745  1
  Mn  Mn5  1  0.000000  0.281842  0.718158  1
  Fe  Fe6  1  0.715401  0.000115  0.284127  1
  Fe  Fe7  1  0.284599  0.715873  0.999885  1
  Fe  Fe8  1  0.339144  0.861052  0.342502  1
  Fe  Fe9  1  0.343210  0.338065  0.860230  1
  Fe  Fe10  1  0.860855  0.341871  0.338605  1
  Fe  Fe11  1  0.656790  0.139770  0.661935  1
  Fe  Fe12  1  0.660856  0.657498  0.138948  1
  Fe  Fe13  1  0.139145  0.661395  0.658129  1
  Fe  Fe14  1  0.902451  0.903115  0.904030  1
  Fe  Fe15  1  0.097549  0.095970  0.096885  1
  Si  Si16  1  0.996542  0.001583  0.499218  1
  Si  Si17  1  0.500000  0.998061  0.001939  1
  Si  Si18  1  0.003458  0.500782  0.998417  1
  C  C19  1  0.500662  0.500018  0.999449  1
  C  C20  1  0.000000  0.499148  0.500852  1
  C  C21  1  0.499338  0.000551  0.499982  1
