# generated using pymatgen
data_Er10Ga3CoSnBi
_symmetry_space_group_name_H-M   'P 1'
_cell_length_a   8.57230634
_cell_length_b   8.70483349
_cell_length_c   7.92163989
_cell_angle_alpha   61.86072893
_cell_angle_beta   63.25677458
_cell_angle_gamma   54.57471173
_symmetry_Int_Tables_number   1
_chemical_formula_structural   Er10Ga3CoSnBi
_chemical_formula_sum   'Er10 Ga3 Co1 Sn1 Bi1'
_cell_volume   411.71959971
_cell_formula_units_Z   1
loop_
 _symmetry_equiv_pos_site_id
 _symmetry_equiv_pos_as_xyz
  1  'x, y, z'
loop_
 _atom_site_type_symbol
 _atom_site_label
 _atom_site_symmetry_multiplicity
 _atom_site_fract_x
 _atom_site_fract_y
 _atom_site_fract_z
 _atom_site_occupancy
  Er  Er0  1  0.796668  0.486613  0.518541  1
  Er  Er1  1  0.457298  0.807374  0.187602  1
  Er  Er2  1  0.301282  0.979411  0.721706  1
  Er  Er3  1  0.996838  0.283976  0.015292  1
  Er  Er4  1  0.187602  0.547727  0.457298  1
  Er  Er5  1  0.518541  0.198177  0.796668  1
  Er  Er6  1  0.721706  0.997601  0.301282  1
  Er  Er7  1  0.015292  0.703894  0.996838  1
  Er  Er8  1  0.504158  0.504016  0.996063  1
  Er  Er9  1  0.996063  0.995763  0.504158  1
  Ga  Ga10  1  0.867188  0.132812  0.867188  1
  Ga  Ga11  1  0.640305  0.359811  0.362083  1
  Ga  Ga12  1  0.362083  0.637800  0.640305  1
  Co  Co13  1  0.121971  0.878029  0.121971  1
  Sn  Sn14  1  0.756352  0.743648  0.756352  1
  Bi  Bi15  1  0.256651  0.243349  0.256651  1
