# generated using pymatgen
data_Tb3Dy5Cd3SnAu8
_symmetry_space_group_name_H-M   'P 1'
_cell_length_a   8.02248713
_cell_length_b   8.02598009
_cell_length_c   7.37306504
_cell_angle_alpha   90.00119951
_cell_angle_beta   89.98857348
_cell_angle_gamma   90.01721543
_symmetry_Int_Tables_number   1
_chemical_formula_structural   Tb3Dy5Cd3SnAu8
_chemical_formula_sum   'Tb3 Dy5 Cd3 Sn1 Au8'
_cell_volume   474.73925468
_cell_formula_units_Z   1
loop_
 _symmetry_equiv_pos_site_id
 _symmetry_equiv_pos_as_xyz
  1  'x, y, z'
loop_
 _atom_site_type_symbol
 _atom_site_label
 _atom_site_symmetry_multiplicity
 _atom_site_fract_x
 _atom_site_fract_y
 _atom_site_fract_z
 _atom_site_occupancy
  Tb  Tb0  1  0.844421  0.167849  0.500175  1
  Tb  Tb1  1  0.155633  0.832075  0.500171  1
  Tb  Tb2  1  0.332190  0.344400  0.999725  1
  Dy  Dy3  1  0.667915  0.655620  0.999806  1
  Dy  Dy4  1  0.685529  0.673975  0.500223  1
  Dy  Dy5  1  0.314560  0.326084  0.500174  1
  Dy  Dy6  1  0.173894  0.814422  0.999840  1
  Dy  Dy7  1  0.826008  0.185606  0.999853  1
  Cd  Cd8  1  0.500026  0.999973  0.249952  1
  Cd  Cd9  1  0.999927  0.500046  0.750068  1
  Cd  Cd10  1  0.500008  0.999984  0.750049  1
  Sn  Sn11  1  0.999903  0.500033  0.249955  1
  Au  Au12  1  0.621125  0.365150  0.268558  1
  Au  Au13  1  0.379242  0.635169  0.268478  1
  Au  Au14  1  0.132616  0.124929  0.767772  1
  Au  Au15  1  0.867046  0.874686  0.768376  1
  Au  Au16  1  0.375316  0.632719  0.732431  1
  Au  Au17  1  0.625007  0.367649  0.732428  1
  Au  Au18  1  0.864559  0.878630  0.230714  1
  Au  Au19  1  0.135074  0.121003  0.231254  1
