# generated using pymatgen
data_Dy4Ho(In2Au)2
_symmetry_space_group_name_H-M   'P 1'
_cell_length_a   3.67376400
_cell_length_b   8.22402801
_cell_length_c   18.45880701
_cell_angle_alpha   90.00409689
_cell_angle_beta   90.00000000
_cell_angle_gamma   90.00000000
_symmetry_Int_Tables_number   1
_chemical_formula_structural   Dy4Ho(In2Au)2
_chemical_formula_sum   'Dy8 Ho2 In8 Au4'
_cell_volume   557.69848252
_cell_formula_units_Z   2
loop_
 _symmetry_equiv_pos_site_id
 _symmetry_equiv_pos_as_xyz
  1  'x, y, z'
loop_
 _atom_site_type_symbol
 _atom_site_label
 _atom_site_symmetry_multiplicity
 _atom_site_fract_x
 _atom_site_fract_y
 _atom_site_fract_z
 _atom_site_occupancy
  Dy  Dy0  1  0.000000  0.500000  0.500000  1
  Dy  Dy1  1  0.000000  0.000000  0.000000  1
  Dy  Dy2  1  0.000000  0.736829  0.281624  1
  Dy  Dy3  1  0.000000  0.263171  0.718376  1
  Dy  Dy4  1  0.000000  0.763352  0.781574  1
  Dy  Dy5  1  0.000000  0.236648  0.218426  1
  Dy  Dy6  1  0.000000  0.618589  0.079643  1
  Dy  Dy7  1  0.000000  0.381411  0.920357  1
  Ho  Ho8  1  0.000000  0.881476  0.579866  1
  Ho  Ho9  1  0.000000  0.118524  0.420134  1
  In  In10  1  0.500000  0.712545  0.932422  1
  In  In11  1  0.500000  0.287455  0.067578  1
  In  In12  1  0.500000  0.787998  0.432670  1
  In  In13  1  0.500000  0.212002  0.567330  1
  In  In14  1  0.500000  0.580951  0.646632  1
  In  In15  1  0.500000  0.419049  0.353368  1
  In  In16  1  0.500000  0.919658  0.146750  1
  In  In17  1  0.500000  0.080342  0.853250  1
  Au  Au18  1  0.500000  0.525994  0.196463  1
  Au  Au19  1  0.500000  0.474006  0.803537  1
  Au  Au20  1  0.500000  0.973675  0.696070  1
  Au  Au21  1  0.500000  0.026325  0.303930  1
