# generated using pymatgen
data_Zr3ZnFe7Co
_symmetry_space_group_name_H-M   'P 1'
_cell_length_a   8.49201241
_cell_length_b   8.49568288
_cell_length_c   8.49201398
_cell_angle_alpha   33.71111675
_cell_angle_beta   33.49436564
_cell_angle_gamma   33.71111149
_symmetry_Int_Tables_number   1
_chemical_formula_structural   Zr3ZnFe7Co
_chemical_formula_sum   'Zr3 Zn1 Fe7 Co1'
_cell_volume   167.47874374
_cell_formula_units_Z   1
loop_
 _symmetry_equiv_pos_site_id
 _symmetry_equiv_pos_as_xyz
  1  'x, y, z'
loop_
 _atom_site_type_symbol
 _atom_site_label
 _atom_site_symmetry_multiplicity
 _atom_site_fract_x
 _atom_site_fract_y
 _atom_site_fract_z
 _atom_site_occupancy
  Zr  Zr0  1  0.624222  0.623292  0.624222  1
  Zr  Zr1  1  0.005381  0.005625  0.005381  1
  Zr  Zr2  1  0.496926  0.493766  0.496926  1
  Zn  Zn3  1  0.128167  0.125139  0.128167  1
  Fe  Fe4  1  0.061758  0.560179  0.061758  1
  Fe  Fe5  1  0.060801  0.564513  0.563185  1
  Fe  Fe6  1  0.560931  0.062052  0.062117  1
  Fe  Fe7  1  0.812409  0.812365  0.812409  1
  Fe  Fe8  1  0.310920  0.314756  0.310920  1
  Fe  Fe9  1  0.563185  0.564513  0.060801  1
  Fe  Fe10  1  0.062117  0.062052  0.560931  1
  Co  Co11  1  0.563183  0.061750  0.563183  1
