# generated using pymatgen
data_SmHo3GaBr6
_symmetry_space_group_name_H-M   'P 1'
_cell_length_a   4.06890500
_cell_length_b   13.29797902
_cell_length_c   14.06115400
_cell_angle_alpha   90.38165502
_cell_angle_beta   90.00000000
_cell_angle_gamma   90.00000000
_symmetry_Int_Tables_number   1
_chemical_formula_structural   SmHo3GaBr6
_chemical_formula_sum   'Sm2 Ho6 Ga2 Br12'
_cell_volume   760.80704109
_cell_formula_units_Z   2
loop_
 _symmetry_equiv_pos_site_id
 _symmetry_equiv_pos_as_xyz
  1  'x, y, z'
loop_
 _atom_site_type_symbol
 _atom_site_label
 _atom_site_symmetry_multiplicity
 _atom_site_fract_x
 _atom_site_fract_y
 _atom_site_fract_z
 _atom_site_occupancy
  Sm  Sm0  1  0.000000  0.624588  0.917204  1
  Sm  Sm1  1  0.000000  0.375412  0.082796  1
  Ho  Ho2  1  0.500000  0.117737  0.340882  1
  Ho  Ho3  1  0.500000  0.882263  0.659118  1
  Ho  Ho4  1  0.500000  0.619482  0.161146  1
  Ho  Ho5  1  0.500000  0.380518  0.838854  1
  Ho  Ho6  1  0.000000  0.119821  0.579790  1
  Ho  Ho7  1  0.000000  0.880179  0.420210  1
  Ga  Ga8  1  0.500000  0.000000  0.500000  1
  Ga  Ga9  1  0.500000  0.500000  0.000000  1
  Br  Br10  1  0.500000  0.238906  0.167999  1
  Br  Br11  1  0.500000  0.761094  0.832001  1
  Br  Br12  1  0.500000  0.747081  0.336426  1
  Br  Br13  1  0.500000  0.252919  0.663574  1
  Br  Br14  1  0.000000  0.253630  0.411828  1
  Br  Br15  1  0.000000  0.746370  0.588172  1
  Br  Br16  1  0.000000  0.755631  0.093683  1
  Br  Br17  1  0.000000  0.244369  0.906317  1
  Br  Br18  1  0.000000  0.001500  0.244420  1
  Br  Br19  1  0.000000  0.998500  0.755580  1
  Br  Br20  1  0.000000  0.506910  0.259523  1
  Br  Br21  1  0.000000  0.493090  0.740477  1
