# generated using pymatgen
data_Cs3WF8
_symmetry_space_group_name_H-M   'P 1'
_cell_length_a   9.16470082
_cell_length_b   9.15223611
_cell_length_c   7.10296900
_cell_angle_alpha   90.00000000
_cell_angle_beta   90.00000000
_cell_angle_gamma   119.95501799
_symmetry_Int_Tables_number   1
_chemical_formula_structural   Cs3WF8
_chemical_formula_sum   'Cs6 W2 F16'
_cell_volume   516.19373856
_cell_formula_units_Z   2
loop_
 _symmetry_equiv_pos_site_id
 _symmetry_equiv_pos_as_xyz
  1  'x, y, z'
loop_
 _atom_site_type_symbol
 _atom_site_label
 _atom_site_symmetry_multiplicity
 _atom_site_fract_x
 _atom_site_fract_y
 _atom_site_fract_z
 _atom_site_occupancy
  Cs  Cs0  1  0.156714  0.314866  0.242572  1
  Cs  Cs1  1  0.843286  0.685134  0.742573  1
  Cs  Cs2  1  0.686124  0.843062  0.245530  1
  Cs  Cs3  1  0.156714  0.841849  0.242572  1
  Cs  Cs4  1  0.843286  0.158151  0.742573  1
  Cs  Cs5  1  0.313876  0.156938  0.745531  1
  W  W6  1  0.334675  0.667338  0.734511  1
  W  W7  1  0.665325  0.332662  0.234511  1
  F  F8  1  0.000163  0.000081  0.001483  1
  F  F9  1  0.999837  0.999919  0.501483  1
  F  F10  1  0.426424  0.565922  0.554493  1
  F  F11  1  0.573576  0.434078  0.054493  1
  F  F12  1  0.426424  0.860502  0.554493  1
  F  F13  1  0.143026  0.571513  0.554589  1
  F  F14  1  0.856974  0.428487  0.054589  1
  F  F15  1  0.573576  0.139498  0.054493  1
  F  F16  1  0.336903  0.668452  0.017334  1
  F  F17  1  0.663097  0.331548  0.517334  1
  F  F18  1  0.210175  0.788081  0.810532  1
  F  F19  1  0.789825  0.211919  0.310532  1
  F  F20  1  0.210175  0.422093  0.810532  1
  F  F21  1  0.576165  0.788083  0.816511  1
  F  F22  1  0.423835  0.211917  0.316511  1
  F  F23  1  0.789825  0.577907  0.310532  1
