# generated using pymatgen
data_Er3Tm(GaCo)4
_symmetry_space_group_name_H-M   'P 1'
_cell_length_a   4.07818600
_cell_length_b   6.65782901
_cell_length_c   7.61569501
_cell_angle_alpha   90.00588482
_cell_angle_beta   90.00000000
_cell_angle_gamma   90.00000000
_symmetry_Int_Tables_number   1
_chemical_formula_structural   Er3Tm(GaCo)4
_chemical_formula_sum   'Er3 Tm1 Ga4 Co4'
_cell_volume   206.78032211
_cell_formula_units_Z   1
loop_
 _symmetry_equiv_pos_site_id
 _symmetry_equiv_pos_as_xyz
  1  'x, y, z'
loop_
 _atom_site_type_symbol
 _atom_site_label
 _atom_site_symmetry_multiplicity
 _atom_site_fract_x
 _atom_site_fract_y
 _atom_site_fract_z
 _atom_site_occupancy
  Er  Er0  1  0.250000  0.026612  0.815563  1
  Er  Er1  1  0.750000  0.973416  0.184413  1
  Er  Er2  1  0.750000  0.473374  0.315642  1
  Tm  Tm3  1  0.250000  0.526643  0.684463  1
  Ga  Ga4  1  0.750000  0.347331  0.936273  1
  Ga  Ga5  1  0.250000  0.152761  0.436351  1
  Ga  Ga6  1  0.250000  0.652702  0.063595  1
  Ga  Ga7  1  0.750000  0.847198  0.563682  1
  Co  Co8  1  0.750000  0.228880  0.619348  1
  Co  Co9  1  0.250000  0.771157  0.380740  1
  Co  Co10  1  0.750000  0.728725  0.880613  1
  Co  Co11  1  0.250000  0.271201  0.119317  1
