# generated using pymatgen
data_KEr(ReH9)2
_symmetry_space_group_name_H-M   'P 1'
_cell_length_a   5.27166788
_cell_length_b   5.27182932
_cell_length_c   8.92335997
_cell_angle_alpha   93.76909271
_cell_angle_beta   86.23198664
_cell_angle_gamma   125.72178520
_symmetry_Int_Tables_number   1
_chemical_formula_structural   KEr(ReH9)2
_chemical_formula_sum   'K1 Er1 Re2 H18'
_cell_volume   200.78534594
_cell_formula_units_Z   1
loop_
 _symmetry_equiv_pos_site_id
 _symmetry_equiv_pos_as_xyz
  1  'x, y, z'
loop_
 _atom_site_type_symbol
 _atom_site_label
 _atom_site_symmetry_multiplicity
 _atom_site_fract_x
 _atom_site_fract_y
 _atom_site_fract_z
 _atom_site_occupancy
  K  K0  1  0.000000  0.000000  0.000000  1
  Er  Er1  1  0.000000  0.000000  0.500000  1
  Re  Re2  1  0.336338  0.663907  0.710853  1
  Re  Re3  1  0.663662  0.336093  0.289147  1
  H  H4  1  0.388544  0.611548  0.522330  1
  H  H5  1  0.611456  0.388452  0.477670  1
  H  H6  1  0.411792  0.588309  0.873753  1
  H  H7  1  0.588208  0.411691  0.126247  1
  H  H8  1  0.470479  0.962397  0.839405  1
  H  H9  1  0.962207  0.470322  0.160648  1
  H  H10  1  0.597061  0.017579  0.639361  1
  H  H11  1  0.017319  0.596784  0.360609  1
  H  H12  1  0.529521  0.037603  0.160595  1
  H  H13  1  0.037793  0.529678  0.839352  1
  H  H14  1  0.402939  0.982421  0.360639  1
  H  H15  1  0.982681  0.403216  0.639391  1
  H  H16  1  0.698762  0.730740  0.706047  1
  H  H17  1  0.730678  0.698502  0.293942  1
  H  H18  1  0.301238  0.269260  0.293953  1
  H  H19  1  0.269322  0.301498  0.706058  1
  H  H20  1  0.156759  0.843364  0.683157  1
  H  H21  1  0.843241  0.156636  0.316843  1
