# generated using pymatgen
data_TbEr3(Ir2O7)2
_symmetry_space_group_name_H-M   'P 1'
_cell_length_a   7.23979775
_cell_length_b   7.20446268
_cell_length_c   7.20446100
_cell_angle_alpha   60.00000311
_cell_angle_beta   60.16132348
_cell_angle_gamma   60.16133149
_symmetry_Int_Tables_number   1
_chemical_formula_structural   TbEr3(Ir2O7)2
_chemical_formula_sum   'Tb1 Er3 Ir4 O14'
_cell_volume   266.36015295
_cell_formula_units_Z   1
loop_
 _symmetry_equiv_pos_site_id
 _symmetry_equiv_pos_as_xyz
  1  'x, y, z'
loop_
 _atom_site_type_symbol
 _atom_site_label
 _atom_site_symmetry_multiplicity
 _atom_site_fract_x
 _atom_site_fract_y
 _atom_site_fract_z
 _atom_site_occupancy
  Tb  Tb0  1  0.625000  0.125000  0.125000  1
  Er  Er1  1  0.125000  0.625000  0.125000  1
  Er  Er2  1  0.125000  0.125000  0.625000  1
  Er  Er3  1  0.125000  0.125000  0.125000  1
  Ir  Ir4  1  0.125000  0.625000  0.625000  1
  Ir  Ir5  1  0.625000  0.125000  0.625000  1
  Ir  Ir6  1  0.625000  0.625000  0.125000  1
  Ir  Ir7  1  0.625000  0.625000  0.625000  1
  O  O8  1  0.718510  0.709067  0.286212  1
  O  O9  1  0.286799  0.286957  0.713122  1
  O  O10  1  0.718510  0.286212  0.709067  1
  O  O11  1  0.286799  0.713122  0.286957  1
  O  O12  1  0.286799  0.713122  0.713122  1
  O  O13  1  0.718510  0.286212  0.286212  1
  O  O14  1  0.531490  0.540933  0.963788  1
  O  O15  1  0.963201  0.963043  0.536878  1
  O  O16  1  0.531490  0.963788  0.540933  1
  O  O17  1  0.963201  0.536878  0.963043  1
  O  O18  1  0.963201  0.536878  0.536878  1
  O  O19  1  0.531490  0.963788  0.963788  1
  O  O20  1  0.247170  0.250944  0.250944  1
  O  O21  1  0.002830  0.999056  0.999056  1
