# generated using pymatgen
data_Li4Sn20Ir7Rh5
_symmetry_space_group_name_H-M   'P 1'
_cell_length_a   5.52133235
_cell_length_b   9.89937400
_cell_length_c   12.94663880
_cell_angle_alpha   90.00029847
_cell_angle_beta   90.04064130
_cell_angle_gamma   90.00130289
_symmetry_Int_Tables_number   1
_chemical_formula_structural   Li4Sn20Ir7Rh5
_chemical_formula_sum   'Li4 Sn20 Ir7 Rh5'
_cell_volume   707.63376091
_cell_formula_units_Z   1
loop_
 _symmetry_equiv_pos_site_id
 _symmetry_equiv_pos_as_xyz
  1  'x, y, z'
loop_
 _atom_site_type_symbol
 _atom_site_label
 _atom_site_symmetry_multiplicity
 _atom_site_fract_x
 _atom_site_fract_y
 _atom_site_fract_z
 _atom_site_occupancy
  Li  Li0  1  0.597552  0.109235  0.250000  1
  Li  Li1  1  0.596767  0.390891  0.749987  1
  Li  Li2  1  0.403169  0.608999  0.249937  1
  Li  Li3  1  0.402707  0.890802  0.749910  1
  Sn  Sn4  1  0.866641  0.126711  0.063578  1
  Sn  Sn5  1  0.627047  0.826337  0.111646  1
  Sn  Sn6  1  0.133717  0.873072  0.563671  1
  Sn  Sn7  1  0.624841  0.674700  0.612015  1
  Sn  Sn8  1  0.866974  0.126477  0.436405  1
  Sn  Sn9  1  0.133034  0.628359  0.063275  1
  Sn  Sn10  1  0.373882  0.324668  0.111512  1
  Sn  Sn11  1  0.627536  0.826503  0.388387  1
  Sn  Sn12  1  0.133713  0.873071  0.936306  1
  Sn  Sn13  1  0.372341  0.173668  0.888147  1
  Sn  Sn14  1  0.626557  0.675090  0.888249  1
  Sn  Sn15  1  0.372546  0.325308  0.389073  1
  Sn  Sn16  1  0.374110  0.174291  0.611650  1
  Sn  Sn17  1  0.867022  0.371841  0.936823  1
  Sn  Sn18  1  0.843822  0.424257  0.250121  1
  Sn  Sn19  1  0.156604  0.576027  0.749615  1
  Sn  Sn20  1  0.133396  0.627360  0.436432  1
  Sn  Sn21  1  0.841612  0.076129  0.749937  1
  Sn  Sn22  1  0.159178  0.923798  0.250152  1
  Sn  Sn23  1  0.866411  0.372214  0.563188  1
  Ir  Ir24  1  0.646477  0.550196  0.421416  1
  Ir  Ir25  1  0.351862  0.450114  0.921357  1
  Ir  Ir26  1  0.647995  0.549859  0.078613  1
  Ir  Ir27  1  0.092940  0.305174  0.749861  1
  Ir  Ir28  1  0.906382  0.805633  0.750054  1
  Ir  Ir29  1  0.906788  0.695249  0.249962  1
  Ir  Ir30  1  0.093832  0.194542  0.249989  1
  Rh  Rh31  1  0.646033  0.949222  0.921162  1
  Rh  Rh32  1  0.353892  0.050744  0.078794  1
  Rh  Rh33  1  0.354506  0.051020  0.421079  1
  Rh  Rh34  1  0.646091  0.948937  0.578833  1
  Rh  Rh35  1  0.352023  0.449503  0.578867  1
