# generated using pymatgen
data_TbSm5C2Br7
_symmetry_space_group_name_H-M   'P 1'
_cell_length_a   10.74307428
_cell_length_b   10.74307438
_cell_length_c   12.21044155
_cell_angle_alpha   57.48013718
_cell_angle_beta   57.48013693
_cell_angle_gamma   20.90859406
_symmetry_Int_Tables_number   1
_chemical_formula_structural   TbSm5C2Br7
_chemical_formula_sum   'Tb1 Sm5 C2 Br7'
_cell_volume   421.12948590
_cell_formula_units_Z   1
loop_
 _symmetry_equiv_pos_site_id
 _symmetry_equiv_pos_as_xyz
  1  'x, y, z'
loop_
 _atom_site_type_symbol
 _atom_site_label
 _atom_site_symmetry_multiplicity
 _atom_site_fract_x
 _atom_site_fract_y
 _atom_site_fract_z
 _atom_site_occupancy
  Tb  Tb0  1  0.769714  0.769714  0.164665  1
  Sm  Sm1  1  0.229833  0.229833  0.838053  1
  Sm  Sm2  1  0.314440  0.314440  0.364546  1
  Sm  Sm3  1  0.130078  0.130078  0.442243  1
  Sm  Sm4  1  0.869467  0.869467  0.558216  1
  Sm  Sm5  1  0.686071  0.686071  0.635567  1
  C  C6  1  0.280127  0.280127  0.607252  1
  C  C7  1  0.720491  0.720491  0.389325  1
  Br  Br8  1  0.167080  0.167080  0.163376  1
  Br  Br9  1  0.836177  0.836177  0.836567  1
  Br  Br10  1  0.057751  0.057751  0.719667  1
  Br  Br11  1  0.942394  0.942394  0.279504  1
  Br  Br12  1  0.500326  0.500326  0.499561  1
  Br  Br13  1  0.386407  0.386407  0.068860  1
  Br  Br14  1  0.609644  0.609644  0.932597  1
