# generated using pymatgen
data_Tm9Lu(AlSb2)2
_symmetry_space_group_name_H-M   'P 1'
_cell_length_a   8.70115012
_cell_length_b   8.71617684
_cell_length_c   6.32640800
_cell_angle_alpha   89.99521449
_cell_angle_beta   90.00958096
_cell_angle_gamma   119.94297921
_symmetry_Int_Tables_number   1
_chemical_formula_structural   Tm9Lu(AlSb2)2
_chemical_formula_sum   'Tm9 Lu1 Al2 Sb4'
_cell_volume   415.75718849
_cell_formula_units_Z   1
loop_
 _symmetry_equiv_pos_site_id
 _symmetry_equiv_pos_as_xyz
  1  'x, y, z'
loop_
 _atom_site_type_symbol
 _atom_site_label
 _atom_site_symmetry_multiplicity
 _atom_site_fract_x
 _atom_site_fract_y
 _atom_site_fract_z
 _atom_site_occupancy
  Tm  Tm0  1  0.659112  0.318222  0.500000  1
  Tm  Tm1  1  0.659278  0.318553  0.000000  1
  Tm  Tm2  1  0.340788  0.681578  0.500000  1
  Tm  Tm3  1  0.242920  0.999920  0.249793  1
  Tm  Tm4  1  0.757001  0.999920  0.750207  1
  Tm  Tm5  1  0.988647  0.232841  0.249932  1
  Tm  Tm6  1  0.755747  0.767041  0.249991  1
  Tm  Tm7  1  0.244193  0.232841  0.750068  1
  Tm  Tm8  1  0.011295  0.767041  0.750009  1
  Lu  Lu9  1  0.341241  0.682483  0.000000  1
  Al  Al10  1  0.600056  0.999529  0.249443  1
  Al  Al11  1  0.399473  0.999529  0.750557  1
  Sb  Sb12  1  0.994073  0.605570  0.249690  1
  Sb  Sb13  1  0.387880  0.394679  0.249647  1
  Sb  Sb14  1  0.611498  0.605570  0.750310  1
  Sb  Sb15  1  0.006798  0.394679  0.750353  1
