# generated using pymatgen
data_ErTl3(SO4)6
_symmetry_space_group_name_H-M   'P 1'
_cell_length_a   8.67139033
_cell_length_b   8.67065480
_cell_length_c   9.36287300
_cell_angle_alpha   62.39810595
_cell_angle_beta   62.42953451
_cell_angle_gamma   60.04712107
_symmetry_Int_Tables_number   1
_chemical_formula_structural   ErTl3(SO4)6
_chemical_formula_sum   'Er1 Tl3 S6 O24'
_cell_volume   515.36671138
_cell_formula_units_Z   1
loop_
 _symmetry_equiv_pos_site_id
 _symmetry_equiv_pos_as_xyz
  1  'x, y, z'
loop_
 _atom_site_type_symbol
 _atom_site_label
 _atom_site_symmetry_multiplicity
 _atom_site_fract_x
 _atom_site_fract_y
 _atom_site_fract_z
 _atom_site_occupancy
  Er  Er0  1  0.847286  0.847552  0.457666  1
  Tl  Tl1  1  0.649289  0.648119  0.054768  1
  Tl  Tl2  1  0.356132  0.355812  0.931755  1
  Tl  Tl3  1  0.153467  0.153862  0.539746  1
  S  S4  1  0.747891  0.448457  0.752828  1
  S  S5  1  0.050152  0.747916  0.753394  1
  S  S6  1  0.542100  0.957856  0.246453  1
  S  S7  1  0.958134  0.253534  0.246533  1
  S  S8  1  0.253648  0.542729  0.245887  1
  S  S9  1  0.448751  0.050254  0.752747  1
  O  O10  1  0.929400  0.684316  0.928055  1
  O  O11  1  0.460688  0.928613  0.926509  1
  O  O12  1  0.645136  0.983561  0.318240  1
  O  O13  1  0.348209  0.976528  0.361094  1
  O  O14  1  0.002742  0.951690  0.711348  1
  O  O15  1  0.712987  0.637501  0.629180  1
  O  O16  1  0.683391  0.460528  0.926591  1
  O  O17  1  0.640997  0.765324  0.231358  1
  O  O18  1  0.951510  0.333583  0.712308  1
  O  O19  1  0.249119  0.643640  0.750546  1
  O  O20  1  0.643806  0.355590  0.750877  1
  O  O21  1  0.017566  0.712077  0.631667  1
  O  O22  1  0.976630  0.315416  0.360391  1
  O  O23  1  0.362831  0.642143  0.229369  1
  O  O24  1  0.765881  0.361834  0.230666  1
  O  O25  1  0.053567  0.645861  0.318203  1
  O  O26  1  0.355764  0.248969  0.750935  1
  O  O27  1  0.280804  0.544637  0.076422  1
  O  O28  1  0.314557  0.349016  0.360943  1
  O  O29  1  0.983390  0.053123  0.319717  1
  O  O30  1  0.637799  0.019972  0.629356  1
  O  O31  1  0.334121  0.002020  0.711681  1
  O  O32  1  0.544642  0.097005  0.076269  1
  O  O33  1  0.097611  0.280961  0.076500  1
