# generated using pymatgen
data_Tb10Tl7In(CoNi)2
_symmetry_space_group_name_H-M   'P 1'
_cell_length_a   3.59190800
_cell_length_b   8.14162583
_cell_length_c   18.21680254
_cell_angle_alpha   90.09247432
_cell_angle_beta   90.00000000
_cell_angle_gamma   90.00000000
_symmetry_Int_Tables_number   1
_chemical_formula_structural   Tb10Tl7In(CoNi)2
_chemical_formula_sum   'Tb10 Tl7 In1 Co2 Ni2'
_cell_volume   532.73095033
_cell_formula_units_Z   1
loop_
 _symmetry_equiv_pos_site_id
 _symmetry_equiv_pos_as_xyz
  1  'x, y, z'
loop_
 _atom_site_type_symbol
 _atom_site_label
 _atom_site_symmetry_multiplicity
 _atom_site_fract_x
 _atom_site_fract_y
 _atom_site_fract_z
 _atom_site_occupancy
  Tb  Tb0  1  0.000000  0.499836  0.500227  1
  Tb  Tb1  1  0.000000  0.000520  0.999198  1
  Tb  Tb2  1  0.000000  0.737965  0.278527  1
  Tb  Tb3  1  0.000000  0.262595  0.721534  1
  Tb  Tb4  1  0.000000  0.743447  0.780378  1
  Tb  Tb5  1  0.000000  0.257193  0.219551  1
  Tb  Tb6  1  0.000000  0.615779  0.092232  1
  Tb  Tb7  1  0.000000  0.383768  0.908101  1
  Tb  Tb8  1  0.000000  0.883684  0.592290  1
  Tb  Tb9  1  0.000000  0.116494  0.408031  1
  Tl  Tl10  1  0.500000  0.704147  0.931742  1
  Tl  Tl11  1  0.500000  0.297337  0.067313  1
  Tl  Tl12  1  0.500000  0.797277  0.433557  1
  Tl  Tl13  1  0.500000  0.202758  0.566638  1
  Tl  Tl14  1  0.500000  0.574283  0.652191  1
  Tl  Tl15  1  0.500000  0.425634  0.348119  1
  Tl  Tl16  1  0.500000  0.925601  0.152716  1
  In  In17  1  0.500000  0.075877  0.845830  1
  Co  Co18  1  0.500000  0.520626  0.195569  1
  Co  Co19  1  0.500000  0.475660  0.804608  1
  Ni  Ni20  1  0.500000  0.978498  0.697887  1
  Ni  Ni21  1  0.500000  0.021022  0.303760  1
