# generated using pymatgen
data_Yb3ErSc6(Si5Ir2)4
_symmetry_space_group_name_H-M   'P 1'
_cell_length_a   12.52819121
_cell_length_b   12.52819134
_cell_length_c   4.15519500
_cell_angle_alpha   90.00000000
_cell_angle_beta   90.00000000
_cell_angle_gamma   90.02456345
_symmetry_Int_Tables_number   1
_chemical_formula_structural   Yb3ErSc6(Si5Ir2)4
_chemical_formula_sum   'Yb3 Er1 Sc6 Si20 Ir8'
_cell_volume   652.18096686
_cell_formula_units_Z   1
loop_
 _symmetry_equiv_pos_site_id
 _symmetry_equiv_pos_as_xyz
  1  'x, y, z'
loop_
 _atom_site_type_symbol
 _atom_site_label
 _atom_site_symmetry_multiplicity
 _atom_site_fract_x
 _atom_site_fract_y
 _atom_site_fract_z
 _atom_site_occupancy
  Yb  Yb0  1  0.116204  0.615907  0.500000  1
  Yb  Yb1  1  0.884093  0.383796  0.500000  1
  Yb  Yb2  1  0.615047  0.884953  0.500000  1
  Er  Er3  1  0.383626  0.116374  0.500000  1
  Sc  Sc4  1  0.673082  0.172433  0.500000  1
  Sc  Sc5  1  0.327567  0.826918  0.500000  1
  Sc  Sc6  1  0.173942  0.326058  0.500000  1
  Sc  Sc7  1  0.827424  0.672576  0.500000  1
  Sc  Sc8  1  0.000288  0.999934  0.000000  1
  Sc  Sc9  1  0.500066  0.499712  0.000000  1
  Si  Si10  1  0.567284  0.067714  0.000000  1
  Si  Si11  1  0.432286  0.932716  0.000000  1
  Si  Si12  1  0.068345  0.431655  0.000000  1
  Si  Si13  1  0.932094  0.567906  0.000000  1
  Si  Si14  1  0.200610  0.165593  0.000000  1
  Si  Si15  1  0.799223  0.834630  0.000000  1
  Si  Si16  1  0.165961  0.800407  0.000000  1
  Si  Si17  1  0.699593  0.334039  0.000000  1
  Si  Si18  1  0.834138  0.200569  0.000000  1
  Si  Si19  1  0.299431  0.665862  0.000000  1
  Si  Si20  1  0.665370  0.700777  0.000000  1
  Si  Si21  1  0.334407  0.299390  0.000000  1
  Si  Si22  1  0.006693  0.149774  0.500000  1
  Si  Si23  1  0.992966  0.849885  0.500000  1
  Si  Si24  1  0.151048  0.992015  0.500000  1
  Si  Si25  1  0.507985  0.348952  0.500000  1
  Si  Si26  1  0.849267  0.008343  0.500000  1
  Si  Si27  1  0.491657  0.650733  0.500000  1
  Si  Si28  1  0.650115  0.507034  0.500000  1
  Si  Si29  1  0.350226  0.493307  0.500000  1
  Ir  Ir30  1  0.021876  0.242633  0.000000  1
  Ir  Ir31  1  0.978573  0.757147  0.000000  1
  Ir  Ir32  1  0.244767  0.980436  0.000000  1
  Ir  Ir33  1  0.519564  0.255233  0.000000  1
  Ir  Ir34  1  0.756104  0.021138  0.000000  1
  Ir  Ir35  1  0.478862  0.743896  0.000000  1
  Ir  Ir36  1  0.742853  0.521427  0.000000  1
  Ir  Ir37  1  0.257367  0.478124  0.000000  1
