# generated using pymatgen
data_Tb7Sm(PBr6)2
_symmetry_space_group_name_H-M   'P 1'
_cell_length_a   4.02570700
_cell_length_b   13.23358406
_cell_length_c   13.96313061
_cell_angle_alpha   89.75996231
_cell_angle_beta   90.00000000
_cell_angle_gamma   90.00000000
_symmetry_Int_Tables_number   1
_chemical_formula_structural   Tb7Sm(PBr6)2
_chemical_formula_sum   'Tb7 Sm1 P2 Br12'
_cell_volume   743.87272002
_cell_formula_units_Z   1
loop_
 _symmetry_equiv_pos_site_id
 _symmetry_equiv_pos_as_xyz
  1  'x, y, z'
loop_
 _atom_site_type_symbol
 _atom_site_label
 _atom_site_symmetry_multiplicity
 _atom_site_fract_x
 _atom_site_fract_y
 _atom_site_fract_z
 _atom_site_occupancy
  Tb  Tb0  1  0.500000  0.117042  0.343046  1
  Tb  Tb1  1  0.500000  0.882454  0.656690  1
  Tb  Tb2  1  0.500000  0.616900  0.156343  1
  Tb  Tb3  1  0.500000  0.383521  0.843984  1
  Tb  Tb4  1  0.000000  0.884380  0.422890  1
  Tb  Tb5  1  0.000000  0.614715  0.923673  1
  Tb  Tb6  1  0.000000  0.385491  0.076649  1
  Sm  Sm7  1  0.000000  0.115758  0.577373  1
  P  P8  1  0.500000  0.997939  0.498676  1
  P  P9  1  0.500000  0.500193  0.000286  1
  Br  Br10  1  0.500000  0.244641  0.162927  1
  Br  Br11  1  0.500000  0.754710  0.836577  1
  Br  Br12  1  0.500000  0.743469  0.335750  1
  Br  Br13  1  0.500000  0.260620  0.665866  1
  Br  Br14  1  0.000000  0.256458  0.409427  1
  Br  Br15  1  0.000000  0.744501  0.586619  1
  Br  Br16  1  0.000000  0.755094  0.086064  1
  Br  Br17  1  0.000000  0.245163  0.914277  1
  Br  Br18  1  0.000000  0.000620  0.243328  1
  Br  Br19  1  0.000000  0.995446  0.759143  1
  Br  Br20  1  0.000000  0.500216  0.256140  1
  Br  Br21  1  0.000000  0.500667  0.744273  1
