# generated using pymatgen
data_Nd2Ni2Cl
_symmetry_space_group_name_H-M   'P 1'
_cell_length_a   4.01104400
_cell_length_b   4.01104487
_cell_length_c   16.46303800
_cell_angle_alpha   90.00000000
_cell_angle_beta   90.00000000
_cell_angle_gamma   119.99999286
_symmetry_Int_Tables_number   1
_chemical_formula_structural   Nd2Ni2Cl
_chemical_formula_sum   'Nd4 Ni4 Cl2'
_cell_volume   229.38002174
_cell_formula_units_Z   2
loop_
 _symmetry_equiv_pos_site_id
 _symmetry_equiv_pos_as_xyz
  1  'x, y, z'
loop_
 _atom_site_type_symbol
 _atom_site_label
 _atom_site_symmetry_multiplicity
 _atom_site_fract_x
 _atom_site_fract_y
 _atom_site_fract_z
 _atom_site_occupancy
  Nd  Nd0  1  0.000000  0.000000  0.613289  1
  Nd  Nd1  1  0.000000  0.000000  0.386711  1
  Nd  Nd2  1  0.000000  0.000000  0.113289  1
  Nd  Nd3  1  0.000000  0.000000  0.886711  1
  Ni  Ni4  1  0.666667  0.333333  0.500815  1
  Ni  Ni5  1  0.333333  0.666667  0.000815  1
  Ni  Ni6  1  0.666667  0.333333  0.999185  1
  Ni  Ni7  1  0.333333  0.666667  0.499185  1
  Cl  Cl8  1  0.666667  0.333333  0.250000  1
  Cl  Cl9  1  0.333333  0.666667  0.750000  1
