# generated using pymatgen
data_Hf6Zn17Si(Ag2Au)2
_symmetry_space_group_name_H-M   'P 1'
_cell_length_a   8.84434314
_cell_length_b   8.85112192
_cell_length_c   8.85113906
_cell_angle_alpha   60.07619825
_cell_angle_beta   60.16083223
_cell_angle_gamma   60.16080774
_symmetry_Int_Tables_number   1
_chemical_formula_structural   Hf6Zn17Si(Ag2Au)2
_chemical_formula_sum   'Hf6 Zn17 Si1 Ag4 Au2'
_cell_volume   491.41699226
_cell_formula_units_Z   1
loop_
 _symmetry_equiv_pos_site_id
 _symmetry_equiv_pos_as_xyz
  1  'x, y, z'
loop_
 _atom_site_type_symbol
 _atom_site_label
 _atom_site_symmetry_multiplicity
 _atom_site_fract_x
 _atom_site_fract_y
 _atom_site_fract_z
 _atom_site_occupancy
  Hf  Hf0  1  0.710145  0.290314  0.290314  1
  Hf  Hf1  1  0.297282  0.702362  0.702362  1
  Hf  Hf2  1  0.289761  0.706006  0.297866  1
  Hf  Hf3  1  0.706539  0.297295  0.705791  1
  Hf  Hf4  1  0.289760  0.297866  0.706006  1
  Hf  Hf5  1  0.706539  0.705791  0.297295  1
  Zn  Zn6  1  0.633008  0.121597  0.121598  1
  Zn  Zn7  1  0.365889  0.878259  0.878259  1
  Zn  Zn8  1  0.500629  0.999793  0.999793  1
  Zn  Zn9  1  0.001439  0.498950  0.498950  1
  Zn  Zn10  1  0.999579  0.500617  0.000800  1
  Zn  Zn11  1  0.498480  0.000943  0.500897  1
  Zn  Zn12  1  0.999579  0.000801  0.500617  1
  Zn  Zn13  1  0.498480  0.500897  0.000943  1
  Zn  Zn14  1  0.338316  0.336338  0.336338  1
  Zn  Zn15  1  0.662165  0.664773  0.664773  1
  Zn  Zn16  1  0.337925  0.336267  0.989355  1
  Zn  Zn17  1  0.337925  0.989355  0.336267  1
  Zn  Zn18  1  0.660636  0.663551  0.013344  1
  Zn  Zn19  1  0.660635  0.013345  0.663550  1
  Zn  Zn20  1  0.989696  0.336746  0.336745  1
  Zn  Zn21  1  0.007456  0.664396  0.664396  1
  Zn  Zn22  1  0.000674  0.999881  0.999881  1
  Si  Si23  1  0.503446  0.496464  0.496463  1
  Ag  Ag24  1  0.125065  0.119393  0.119393  1
  Ag  Ag25  1  0.877957  0.879945  0.879944  1
  Ag  Ag26  1  0.122881  0.117540  0.638617  1
  Ag  Ag27  1  0.122881  0.638617  0.117540  1
  Au  Au28  1  0.877615  0.880922  0.360979  1
  Au  Au29  1  0.877615  0.360978  0.880922  1
