# generated using pymatgen
data_DyEr15In2(AgIr2)2
_symmetry_space_group_name_H-M   'P 1'
_cell_length_a   9.53946990
_cell_length_b   9.55544831
_cell_length_c   9.54005455
_cell_angle_alpha   59.95118639
_cell_angle_beta   59.96325337
_cell_angle_gamma   59.92735336
_symmetry_Int_Tables_number   1
_chemical_formula_structural   DyEr15In2(AgIr2)2
_chemical_formula_sum   'Dy1 Er15 In2 Ag2 Ir4'
_cell_volume   614.17386899
_cell_formula_units_Z   1
loop_
 _symmetry_equiv_pos_site_id
 _symmetry_equiv_pos_as_xyz
  1  'x, y, z'
loop_
 _atom_site_type_symbol
 _atom_site_label
 _atom_site_symmetry_multiplicity
 _atom_site_fract_x
 _atom_site_fract_y
 _atom_site_fract_z
 _atom_site_occupancy
  Dy  Dy0  1  0.058155  0.065860  0.437317  1
  Er  Er1  1  0.649352  0.048535  0.649640  1
  Er  Er2  1  0.192098  0.807734  0.191898  1
  Er  Er3  1  0.436971  0.063445  0.436653  1
  Er  Er4  1  0.190989  0.189009  0.810696  1
  Er  Er5  1  0.649563  0.652168  0.649604  1
  Er  Er6  1  0.049927  0.650224  0.649175  1
  Er  Er7  1  0.437742  0.065573  0.057624  1
  Er  Er8  1  0.649166  0.650287  0.050008  1
  Er  Er9  1  0.191061  0.809105  0.811055  1
  Er  Er10  1  0.810293  0.189604  0.810812  1
  Er  Er11  1  0.810466  0.189050  0.190819  1
  Er  Er12  1  0.810834  0.809210  0.190958  1
  Er  Er13  1  0.058052  0.439433  0.437315  1
  Er  Er14  1  0.437247  0.438961  0.058087  1
  Er  Er15  1  0.060797  0.439572  0.060485  1
  In  In16  1  0.421541  0.741411  0.421137  1
  In  In17  1  0.421154  0.415781  0.421192  1
  Ag  Ag18  1  0.749368  0.417031  0.417252  1
  Ag  Ag19  1  0.417378  0.416354  0.749836  1
  Ir  Ir20  1  0.857271  0.859028  0.857871  1
  Ir  Ir21  1  0.424813  0.858404  0.858427  1
  Ir  Ir22  1  0.858306  0.858297  0.424678  1
  Ir  Ir23  1  0.857455  0.425927  0.857457  1
