# generated using pymatgen
data_Eu5Pb3F
_symmetry_space_group_name_H-M   'P 1'
_cell_length_a   9.84270768
_cell_length_b   9.84270887
_cell_length_c   9.84270700
_cell_angle_alpha   128.46425130
_cell_angle_beta   128.46424937
_cell_angle_gamma   75.87415491
_symmetry_Int_Tables_number   1
_chemical_formula_structural   Eu5Pb3F
_chemical_formula_sum   'Eu10 Pb6 F2'
_cell_volume   568.51224091
_cell_formula_units_Z   2
loop_
 _symmetry_equiv_pos_site_id
 _symmetry_equiv_pos_as_xyz
  1  'x, y, z'
loop_
 _atom_site_type_symbol
 _atom_site_label
 _atom_site_symmetry_multiplicity
 _atom_site_fract_x
 _atom_site_fract_y
 _atom_site_fract_z
 _atom_site_occupancy
  Eu  Eu0  1  0.500000  0.500000  0.000000  1
  Eu  Eu1  1  0.000000  0.000000  0.000000  1
  Eu  Eu2  1  0.510506  0.011140  0.822538  1
  Eu  Eu3  1  0.188602  0.687967  0.177462  1
  Eu  Eu4  1  0.011140  0.188602  0.500635  1
  Eu  Eu5  1  0.687967  0.510506  0.499365  1
  Eu  Eu6  1  0.489494  0.988860  0.177462  1
  Eu  Eu7  1  0.811398  0.312033  0.822538  1
  Eu  Eu8  1  0.988860  0.811398  0.499365  1
  Eu  Eu9  1  0.312033  0.489494  0.500635  1
  Pb  Pb10  1  0.249973  0.249973  0.000000  1
  Pb  Pb11  1  0.750027  0.750027  0.000000  1
  Pb  Pb12  1  0.868201  0.369683  0.237885  1
  Pb  Pb13  1  0.131799  0.630317  0.762116  1
  Pb  Pb14  1  0.369683  0.131799  0.501482  1
  Pb  Pb15  1  0.630317  0.868201  0.498518  1
  F  F16  1  0.250000  0.750000  0.500000  1
  F  F17  1  0.750000  0.250000  0.500000  1
