# generated using pymatgen
data_Ta2Cl7F3
_symmetry_space_group_name_H-M   'P 1'
_cell_length_a   10.31440219
_cell_length_b   10.31440222
_cell_length_c   13.30573826
_cell_angle_alpha   49.92737640
_cell_angle_beta   49.92737507
_cell_angle_gamma   47.83703721
_symmetry_Int_Tables_number   1
_chemical_formula_structural   Ta2Cl7F3
_chemical_formula_sum   'Ta4 Cl14 F6'
_cell_volume   744.94263233
_cell_formula_units_Z   2
loop_
 _symmetry_equiv_pos_site_id
 _symmetry_equiv_pos_as_xyz
  1  'x, y, z'
loop_
 _atom_site_type_symbol
 _atom_site_label
 _atom_site_symmetry_multiplicity
 _atom_site_fract_x
 _atom_site_fract_y
 _atom_site_fract_z
 _atom_site_occupancy
  Ta  Ta0  1  0.254777  0.180094  0.829435  1
  Ta  Ta1  1  0.819906  0.745223  0.170565  1
  Ta  Ta2  1  0.991008  0.917052  0.264188  1
  Ta  Ta3  1  0.082948  0.008992  0.735812  1
  Cl  Cl4  1  0.096457  0.017986  0.296899  1
  Cl  Cl5  1  0.982014  0.903543  0.703101  1
  Cl  Cl6  1  0.721430  0.196453  0.237057  1
  Cl  Cl7  1  0.803547  0.278570  0.762943  1
  Cl  Cl8  1  0.350248  0.729536  0.768867  1
  Cl  Cl9  1  0.270464  0.649752  0.231133  1
  Cl  Cl10  1  0.333596  0.264230  0.897716  1
  Cl  Cl11  1  0.735770  0.666404  0.102284  1
  Cl  Cl12  1  0.381418  0.325763  0.591352  1
  Cl  Cl13  1  0.674237  0.618582  0.408648  1
  Cl  Cl14  1  0.846528  0.766550  0.495380  1
  Cl  Cl15  1  0.233450  0.153472  0.504620  1
  Cl  Cl16  1  0.507126  0.883747  0.844481  1
  Cl  Cl17  1  0.116253  0.492874  0.155519  1
  F  F18  1  0.155304  0.089700  0.798207  1
  F  F19  1  0.910300  0.844696  0.201793  1
  F  F20  1  0.007604  0.378462  0.850318  1
  F  F21  1  0.621538  0.992396  0.149682  1
  F  F22  1  0.113699  0.044625  0.042114  1
  F  F23  1  0.955375  0.886301  0.957886  1
