# generated using pymatgen
data_La8Zn8CuIr5Rh2
_symmetry_space_group_name_H-M   'P 1'
_cell_length_a   4.06173700
_cell_length_b   7.46320925
_cell_length_c   16.70896356
_cell_angle_alpha   90.39952500
_cell_angle_beta   90.00000000
_cell_angle_gamma   90.00000000
_symmetry_Int_Tables_number   1
_chemical_formula_structural   La8Zn8CuIr5Rh2
_chemical_formula_sum   'La8 Zn8 Cu1 Ir5 Rh2'
_cell_volume   506.49640914
_cell_formula_units_Z   1
loop_
 _symmetry_equiv_pos_site_id
 _symmetry_equiv_pos_as_xyz
  1  'x, y, z'
loop_
 _atom_site_type_symbol
 _atom_site_label
 _atom_site_symmetry_multiplicity
 _atom_site_fract_x
 _atom_site_fract_y
 _atom_site_fract_z
 _atom_site_occupancy
  La  La0  1  0.250000  0.170919  0.939206  1
  La  La1  1  0.250000  0.667999  0.565352  1
  La  La2  1  0.750000  0.323635  0.440714  1
  La  La3  1  0.750000  0.955856  0.280659  1
  La  La4  1  0.750000  0.828213  0.060473  1
  La  La5  1  0.750000  0.449783  0.215419  1
  La  La6  1  0.250000  0.051910  0.715327  1
  La  La7  1  0.250000  0.547779  0.785119  1
  Zn  Zn8  1  0.750000  0.003586  0.560822  1
  Zn  Zn9  1  0.250000  0.627375  0.348580  1
  Zn  Zn10  1  0.750000  0.376810  0.650101  1
  Zn  Zn11  1  0.250000  0.496844  0.059628  1
  Zn  Zn12  1  0.750000  0.502586  0.940776  1
  Zn  Zn13  1  0.250000  0.996062  0.439358  1
  Zn  Zn14  1  0.250000  0.124823  0.149150  1
  Zn  Zn15  1  0.750000  0.876025  0.849170  1
  Cu  Cu16  1  0.750000  0.762301  0.434282  1
  Ir  Ir17  1  0.250000  0.248438  0.315517  1
  Ir  Ir18  1  0.750000  0.252586  0.815221  1
  Ir  Ir19  1  0.750000  0.752525  0.683363  1
  Ir  Ir20  1  0.250000  0.240197  0.564608  1
  Ir  Ir21  1  0.250000  0.746118  0.187487  1
  Rh  Rh22  1  0.750000  0.255746  0.065033  1
  Rh  Rh23  1  0.250000  0.741884  0.934639  1
