# generated using pymatgen
data_ErTm5Co17P12Os
_symmetry_space_group_name_H-M   'P 1'
_cell_length_a   3.67275500
_cell_length_b   10.44487200
_cell_length_c   12.14416200
_cell_angle_alpha   90.00000000
_cell_angle_beta   90.00000000
_cell_angle_gamma   90.00000000
_symmetry_Int_Tables_number   1
_chemical_formula_structural   ErTm5Co17P12Os
_chemical_formula_sum   'Er1 Tm5 Co17 P12 Os1'
_cell_volume   465.86773455
_cell_formula_units_Z   1
loop_
 _symmetry_equiv_pos_site_id
 _symmetry_equiv_pos_as_xyz
  1  'x, y, z'
loop_
 _atom_site_type_symbol
 _atom_site_label
 _atom_site_symmetry_multiplicity
 _atom_site_fract_x
 _atom_site_fract_y
 _atom_site_fract_z
 _atom_site_occupancy
  Er  Er0  1  0.250000  0.750000  0.521922  1
  Tm  Tm1  1  0.750000  0.250000  0.474889  1
  Tm  Tm2  1  0.250000  0.931935  0.792701  1
  Tm  Tm3  1  0.250000  0.568065  0.792701  1
  Tm  Tm4  1  0.750000  0.067472  0.206199  1
  Tm  Tm5  1  0.750000  0.432528  0.206199  1
  Co  Co6  1  0.750000  0.750000  0.160311  1
  Co  Co7  1  0.250000  0.250000  0.296634  1
  Co  Co8  1  0.750000  0.750000  0.704607  1
  Co  Co9  1  0.750000  0.250000  0.012003  1
  Co  Co10  1  0.250000  0.750000  0.985505  1
  Co  Co11  1  0.250000  0.417525  0.009234  1
  Co  Co12  1  0.250000  0.082475  0.009234  1
  Co  Co13  1  0.750000  0.583077  0.994047  1
  Co  Co14  1  0.750000  0.916923  0.994047  1
  Co  Co15  1  0.250000  0.452316  0.569468  1
  Co  Co16  1  0.250000  0.047684  0.569468  1
  Co  Co17  1  0.750000  0.547043  0.431404  1
  Co  Co18  1  0.750000  0.952957  0.431404  1
  Co  Co19  1  0.250000  0.871668  0.290925  1
  Co  Co20  1  0.250000  0.628332  0.290925  1
  Co  Co21  1  0.750000  0.128828  0.708636  1
  Co  Co22  1  0.750000  0.371172  0.708636  1
  P  P23  1  0.250000  0.250000  0.119714  1
  P  P24  1  0.750000  0.750000  0.882299  1
  P  P25  1  0.250000  0.250000  0.647729  1
  P  P26  1  0.750000  0.750000  0.345358  1
  P  P27  1  0.250000  0.437747  0.383244  1
  P  P28  1  0.250000  0.062253  0.383244  1
  P  P29  1  0.750000  0.562786  0.616420  1
  P  P30  1  0.750000  0.937214  0.616420  1
  P  P31  1  0.250000  0.901322  0.108894  1
  P  P32  1  0.250000  0.598678  0.108894  1
  P  P33  1  0.750000  0.093524  0.893029  1
  P  P34  1  0.750000  0.406476  0.893029  1
  Os  Os35  1  0.250000  0.250000  0.840625  1
