# generated using pymatgen
data_CeUReB6
_symmetry_space_group_name_H-M   'P 1'
_cell_length_a   3.69609000
_cell_length_b   9.34281300
_cell_length_c   11.45624400
_cell_angle_alpha   90.00000000
_cell_angle_beta   90.00000000
_cell_angle_gamma   90.00000000
_symmetry_Int_Tables_number   1
_chemical_formula_structural   CeUReB6
_chemical_formula_sum   'Ce4 U4 Re4 B24'
_cell_volume   395.60561672
_cell_formula_units_Z   4
loop_
 _symmetry_equiv_pos_site_id
 _symmetry_equiv_pos_as_xyz
  1  'x, y, z'
loop_
 _atom_site_type_symbol
 _atom_site_label
 _atom_site_symmetry_multiplicity
 _atom_site_fract_x
 _atom_site_fract_y
 _atom_site_fract_z
 _atom_site_occupancy
  Ce  Ce0  1  0.000000  0.335117  0.407852  1
  Ce  Ce1  1  0.000000  0.664883  0.592148  1
  Ce  Ce2  1  0.000000  0.835117  0.092148  1
  Ce  Ce3  1  0.000000  0.164883  0.907852  1
  U  U4  1  0.000000  0.956935  0.396483  1
  U  U5  1  0.000000  0.043065  0.603517  1
  U  U6  1  0.000000  0.456935  0.103517  1
  U  U7  1  0.000000  0.543065  0.896483  1
  Re  Re8  1  0.000000  0.646027  0.318634  1
  Re  Re9  1  0.000000  0.353973  0.681366  1
  Re  Re10  1  0.000000  0.146027  0.181366  1
  Re  Re11  1  0.000000  0.853973  0.818634  1
  B  B12  1  0.500000  0.552739  0.430203  1
  B  B13  1  0.500000  0.447261  0.569797  1
  B  B14  1  0.500000  0.052739  0.069797  1
  B  B15  1  0.500000  0.947261  0.930203  1
  B  B16  1  0.500000  0.743950  0.422368  1
  B  B17  1  0.500000  0.256050  0.577632  1
  B  B18  1  0.500000  0.243950  0.077632  1
  B  B19  1  0.500000  0.756050  0.922368  1
  B  B20  1  0.500000  0.801999  0.274463  1
  B  B21  1  0.500000  0.198001  0.725537  1
  B  B22  1  0.500000  0.301999  0.225537  1
  B  B23  1  0.500000  0.698001  0.774463  1
  B  B24  1  0.500000  0.643566  0.188343  1
  B  B25  1  0.500000  0.356434  0.811657  1
  B  B26  1  0.500000  0.143566  0.311657  1
  B  B27  1  0.500000  0.856434  0.688343  1
  B  B28  1  0.500000  0.988901  0.219628  1
  B  B29  1  0.500000  0.011099  0.780372  1
  B  B30  1  0.500000  0.488901  0.280372  1
  B  B31  1  0.500000  0.511099  0.719628  1
  B  B32  1  0.500000  0.638954  0.038249  1
  B  B33  1  0.500000  0.361046  0.961751  1
  B  B34  1  0.500000  0.138954  0.461751  1
  B  B35  1  0.500000  0.861046  0.538249  1
