# generated using pymatgen
data_Li26Si7Ge
_symmetry_space_group_name_H-M   'P 1'
_cell_length_a   7.92544604
_cell_length_b   15.05149408
_cell_length_c   4.42828300
_cell_angle_alpha   90.00000000
_cell_angle_beta   90.00000000
_cell_angle_gamma   89.98802205
_symmetry_Int_Tables_number   1
_chemical_formula_structural   Li26Si7Ge
_chemical_formula_sum   'Li26 Si7 Ge1'
_cell_volume   528.24900056
_cell_formula_units_Z   1
loop_
 _symmetry_equiv_pos_site_id
 _symmetry_equiv_pos_as_xyz
  1  'x, y, z'
loop_
 _atom_site_type_symbol
 _atom_site_label
 _atom_site_symmetry_multiplicity
 _atom_site_fract_x
 _atom_site_fract_y
 _atom_site_fract_z
 _atom_site_occupancy
  Li  Li0  1  0.500171  0.999559  0.000000  1
  Li  Li1  1  0.152082  0.024598  0.000000  1
  Li  Li2  1  0.769654  0.153935  0.000000  1
  Li  Li3  1  0.092439  0.193056  0.000000  1
  Li  Li4  1  0.593737  0.307372  0.000000  1
  Li  Li5  1  0.268415  0.346433  0.000000  1
  Li  Li6  1  0.652667  0.475125  0.000000  1
  Li  Li7  1  0.000002  0.499999  0.000000  1
  Li  Li8  1  0.347342  0.524923  0.000000  1
  Li  Li9  1  0.731298  0.653941  0.000000  1
  Li  Li10  1  0.406721  0.692991  0.000000  1
  Li  Li11  1  0.906756  0.807019  0.000000  1
  Li  Li12  1  0.231264  0.846062  0.000000  1
  Li  Li13  1  0.847293  0.975087  0.000000  1
  Li  Li14  1  0.258416  0.093537  0.500000  1
  Li  Li15  1  0.597180  0.105872  0.500000  1
  Li  Li16  1  0.906215  0.244923  0.500000  1
  Li  Li17  1  0.406147  0.255664  0.500000  1
  Li  Li18  1  0.096124  0.393796  0.500000  1
  Li  Li19  1  0.759361  0.406057  0.500000  1
  Li  Li20  1  0.240666  0.593952  0.500000  1
  Li  Li21  1  0.903849  0.606206  0.500000  1
  Li  Li22  1  0.593764  0.744934  0.500000  1
  Li  Li23  1  0.093774  0.755099  0.500000  1
  Li  Li24  1  0.403831  0.893817  0.500000  1
  Li  Li25  1  0.740676  0.906067  0.500000  1
  Si  Si26  1  0.916188  0.339772  0.000000  1
  Si  Si27  1  0.083831  0.660204  0.000000  1
  Si  Si28  1  0.583875  0.839745  0.000000  1
  Si  Si29  1  0.926788  0.069233  0.500000  1
  Si  Si30  1  0.426845  0.430812  0.500000  1
  Si  Si31  1  0.573165  0.569153  0.500000  1
  Si  Si32  1  0.073216  0.930784  0.500000  1
  Ge  Ge33  1  0.416255  0.160274  0.000000  1
