# generated using pymatgen
data_DyHo7SiPd24
_symmetry_space_group_name_H-M   'P 1'
_cell_length_a   8.32324822
_cell_length_b   8.32324845
_cell_length_c   8.32324900
_cell_angle_alpha   89.96893330
_cell_angle_beta   89.96893330
_cell_angle_gamma   89.96893711
_symmetry_Int_Tables_number   1
_chemical_formula_structural   DyHo7SiPd24
_chemical_formula_sum   'Dy1 Ho7 Si1 Pd24'
_cell_volume   576.60499586
_cell_formula_units_Z   1
loop_
 _symmetry_equiv_pos_site_id
 _symmetry_equiv_pos_as_xyz
  1  'x, y, z'
loop_
 _atom_site_type_symbol
 _atom_site_label
 _atom_site_symmetry_multiplicity
 _atom_site_fract_x
 _atom_site_fract_y
 _atom_site_fract_z
 _atom_site_occupancy
  Dy  Dy0  1  0.254178  0.254178  0.254178  1
  Ho  Ho1  1  0.746137  0.746137  0.746137  1
  Ho  Ho2  1  0.746111  0.746111  0.253819  1
  Ho  Ho3  1  0.746111  0.253819  0.746111  1
  Ho  Ho4  1  0.253757  0.253757  0.746442  1
  Ho  Ho5  1  0.253757  0.746442  0.253757  1
  Ho  Ho6  1  0.253819  0.746111  0.746111  1
  Ho  Ho7  1  0.746442  0.253757  0.253757  1
  Si  Si8  1  0.000036  0.000036  0.000036  1
  Pd  Pd9  1  0.257184  0.500092  0.999998  1
  Pd  Pd10  1  0.742719  0.500008  0.999961  1
  Pd  Pd11  1  0.999998  0.257184  0.500092  1
  Pd  Pd12  1  0.500092  0.257184  0.999998  1
  Pd  Pd13  1  0.999961  0.742719  0.500008  1
  Pd  Pd14  1  0.500008  0.742719  0.999961  1
  Pd  Pd15  1  0.500092  0.999998  0.257184  1
  Pd  Pd16  1  0.257184  0.999998  0.500092  1
  Pd  Pd17  1  0.500008  0.999961  0.742719  1
  Pd  Pd18  1  0.742719  0.999961  0.500008  1
  Pd  Pd19  1  0.999998  0.500092  0.257184  1
  Pd  Pd20  1  0.999961  0.500008  0.742719  1
  Pd  Pd21  1  0.252280  0.500215  0.500215  1
  Pd  Pd22  1  0.747742  0.499976  0.499976  1
  Pd  Pd23  1  0.500215  0.252280  0.500215  1
  Pd  Pd24  1  0.499976  0.747742  0.499976  1
  Pd  Pd25  1  0.500215  0.500215  0.252280  1
  Pd  Pd26  1  0.499976  0.499976  0.747742  1
  Pd  Pd27  1  0.280028  0.999769  0.999769  1
  Pd  Pd28  1  0.719872  0.999943  0.999943  1
  Pd  Pd29  1  0.999769  0.280028  0.999769  1
  Pd  Pd30  1  0.999943  0.719872  0.999943  1
  Pd  Pd31  1  0.999769  0.999769  0.280028  1
  Pd  Pd32  1  0.999943  0.999943  0.719872  1
