# generated using pymatgen
data_Ba2AgBrO2
_symmetry_space_group_name_H-M   'P 1'
_cell_length_a   10.75116999
_cell_length_b   10.75117008
_cell_length_c   10.75117100
_cell_angle_alpha   23.20896689
_cell_angle_beta   23.20896794
_cell_angle_gamma   23.20897075
_symmetry_Int_Tables_number   1
_chemical_formula_structural   Ba2AgBrO2
_chemical_formula_sum   'Ba2 Ag1 Br1 O2'
_cell_volume   169.42386130
_cell_formula_units_Z   1
loop_
 _symmetry_equiv_pos_site_id
 _symmetry_equiv_pos_as_xyz
  1  'x, y, z'
loop_
 _atom_site_type_symbol
 _atom_site_label
 _atom_site_symmetry_multiplicity
 _atom_site_fract_x
 _atom_site_fract_y
 _atom_site_fract_z
 _atom_site_occupancy
  Ba  Ba0  1  0.254960  0.254960  0.254960  1
  Ba  Ba1  1  0.745040  0.745040  0.745040  1
  Ag  Ag2  1  0.500000  0.500000  0.500000  1
  Br  Br3  1  0.000000  0.000000  0.000000  1
  O  O4  1  0.434402  0.434402  0.434402  1
  O  O5  1  0.565598  0.565598  0.565598  1
