# generated using pymatgen
data_Dy4Ho4Ti3Si16Tc9
_symmetry_space_group_name_H-M   'P 1'
_cell_length_a   6.78264334
_cell_length_b   6.78289822
_cell_length_c   12.94277205
_cell_angle_alpha   90.07138894
_cell_angle_beta   89.93567404
_cell_angle_gamma   89.37489008
_symmetry_Int_Tables_number   1
_chemical_formula_structural   Dy4Ho4Ti3Si16Tc9
_chemical_formula_sum   'Dy4 Ho4 Ti3 Si16 Tc9'
_cell_volume   595.40861941
_cell_formula_units_Z   1
loop_
 _symmetry_equiv_pos_site_id
 _symmetry_equiv_pos_as_xyz
  1  'x, y, z'
loop_
 _atom_site_type_symbol
 _atom_site_label
 _atom_site_symmetry_multiplicity
 _atom_site_fract_x
 _atom_site_fract_y
 _atom_site_fract_z
 _atom_site_occupancy
  Dy  Dy0  1  0.821531  0.512021  0.283135  1
  Dy  Dy1  1  0.490473  0.175544  0.216770  1
  Dy  Dy2  1  0.511945  0.821586  0.716823  1
  Dy  Dy3  1  0.338166  0.001643  0.471765  1
  Ho  Ho4  1  0.998017  0.662031  0.028655  1
  Ho  Ho5  1  0.001007  0.338826  0.528337  1
  Ho  Ho6  1  0.662036  0.997892  0.971155  1
  Ho  Ho7  1  0.175189  0.490181  0.783270  1
  Ti  Ti8  1  0.844406  0.155130  0.748993  1
  Ti  Ti9  1  0.155005  0.844486  0.250950  1
  Ti  Ti10  1  0.334086  0.334192  0.999900  1
  Si  Si11  1  0.014822  0.737104  0.444858  1
  Si  Si12  1  0.977092  0.268833  0.942693  1
  Si  Si13  1  0.737918  0.014797  0.555253  1
  Si  Si14  1  0.197349  0.475009  0.185839  1
  Si  Si15  1  0.801765  0.528213  0.685020  1
  Si  Si16  1  0.474597  0.197579  0.814189  1
  Si  Si17  1  0.528129  0.801010  0.315032  1
  Si  Si18  1  0.268622  0.977020  0.057067  1
  Si  Si19  1  0.788881  0.881545  0.180120  1
  Si  Si20  1  0.318031  0.602888  0.560228  1
  Si  Si21  1  0.692154  0.387825  0.062172  1
  Si  Si22  1  0.603650  0.318119  0.440113  1
  Si  Si23  1  0.387537  0.691970  0.937447  1
  Si  Si24  1  0.116475  0.213003  0.317939  1
  Si  Si25  1  0.212606  0.117317  0.682146  1
  Si  Si26  1  0.881774  0.788687  0.819802  1
  Tc  Tc27  1  0.306731  0.524999  0.368634  1
  Tc  Tc28  1  0.818264  0.017700  0.364229  1
  Tc  Tc29  1  0.988452  0.181166  0.136206  1
  Tc  Tc30  1  0.018123  0.817766  0.636037  1
  Tc  Tc31  1  0.525535  0.307185  0.631794  1
  Tc  Tc32  1  0.180946  0.988480  0.863613  1
  Tc  Tc33  1  0.665996  0.665705  0.500101  1
  Tc  Tc34  1  0.477560  0.684927  0.131534  1
  Tc  Tc35  1  0.685131  0.477622  0.868181  1
