# generated using pymatgen
data_Sc5InBi2Se
_symmetry_space_group_name_H-M   'P 1'
_cell_length_a   8.62694700
_cell_length_b   8.58615094
_cell_length_c   6.24728200
_cell_angle_alpha   90.00000000
_cell_angle_beta   90.00000000
_cell_angle_gamma   119.84369257
_symmetry_Int_Tables_number   1
_chemical_formula_structural   Sc5InBi2Se
_chemical_formula_sum   'Sc10 In2 Bi4 Se2'
_cell_volume   401.38327940
_cell_formula_units_Z   2
loop_
 _symmetry_equiv_pos_site_id
 _symmetry_equiv_pos_as_xyz
  1  'x, y, z'
loop_
 _atom_site_type_symbol
 _atom_site_label
 _atom_site_symmetry_multiplicity
 _atom_site_fract_x
 _atom_site_fract_y
 _atom_site_fract_z
 _atom_site_occupancy
  Sc  Sc0  1  0.662126  0.330130  0.995572  1
  Sc  Sc1  1  0.337874  0.668004  0.995572  1
  Sc  Sc2  1  0.337874  0.668004  0.504428  1
  Sc  Sc3  1  0.662126  0.330130  0.504428  1
  Sc  Sc4  1  0.743049  0.748421  0.750000  1
  Sc  Sc5  1  0.256951  0.005373  0.750000  1
  Sc  Sc6  1  0.000000  0.252001  0.750000  1
  Sc  Sc7  1  0.251256  0.251967  0.250000  1
  Sc  Sc8  1  0.748744  0.000711  0.250000  1
  Sc  Sc9  1  0.000000  0.748239  0.250000  1
  In  In10  1  0.395358  0.395729  0.750000  1
  In  In11  1  0.604642  0.000370  0.750000  1
  Bi  Bi12  1  0.000000  0.605437  0.750000  1
  Bi  Bi13  1  0.602325  0.601387  0.250000  1
  Bi  Bi14  1  0.397675  0.999061  0.250000  1
  Bi  Bi15  1  0.000000  0.396207  0.250000  1
  Se  Se16  1  0.000000  0.999414  0.999803  1
  Se  Se17  1  0.000000  0.999414  0.500197  1
