# generated using pymatgen
data_Ba3SnI2
_symmetry_space_group_name_H-M   'P 1'
_cell_length_a   17.12486614
_cell_length_b   16.35197675
_cell_length_c   8.86793821
_cell_angle_alpha   79.51705794
_cell_angle_beta   69.87260663
_cell_angle_gamma   30.61033023
_symmetry_Int_Tables_number   1
_chemical_formula_structural   Ba3SnI2
_chemical_formula_sum   'Ba12 Sn4 I8'
_cell_volume   1152.86530415
_cell_formula_units_Z   4
loop_
 _symmetry_equiv_pos_site_id
 _symmetry_equiv_pos_as_xyz
  1  'x, y, z'
loop_
 _atom_site_type_symbol
 _atom_site_label
 _atom_site_symmetry_multiplicity
 _atom_site_fract_x
 _atom_site_fract_y
 _atom_site_fract_z
 _atom_site_occupancy
  Ba  Ba0  1  0.032533  0.467467  0.467467  1
  Ba  Ba1  1  0.782533  0.217467  0.217467  1
  Ba  Ba2  1  0.092570  0.586002  0.936474  1
  Ba  Ba3  1  0.865045  0.313526  0.663998  1
  Ba  Ba4  1  0.586002  0.092570  0.384955  1
  Ba  Ba5  1  0.157430  0.663998  0.313526  1
  Ba  Ba6  1  0.313526  0.865045  0.157430  1
  Ba  Ba7  1  0.384955  0.936474  0.586002  1
  Ba  Ba8  1  0.217467  0.782533  0.782533  1
  Ba  Ba9  1  0.467467  0.032533  0.032533  1
  Ba  Ba10  1  0.936474  0.384955  0.092570  1
  Ba  Ba11  1  0.663998  0.157430  0.865045  1
  Sn  Sn12  1  0.333781  0.333781  0.166219  1
  Sn  Sn13  1  0.166219  0.166219  0.333781  1
  Sn  Sn14  1  0.083781  0.083781  0.916219  1
  Sn  Sn15  1  0.916219  0.916219  0.083781  1
  I  I16  1  0.578562  0.578562  0.421438  1
  I  I17  1  0.671438  0.671438  0.828562  1
  I  I18  1  0.253347  0.253347  0.746653  1
  I  I19  1  0.421438  0.421438  0.578562  1
  I  I20  1  0.996653  0.996653  0.503347  1
  I  I21  1  0.746653  0.746653  0.253347  1
  I  I22  1  0.828562  0.828562  0.671438  1
  I  I23  1  0.503347  0.503347  0.996653  1
