# generated using pymatgen
data_Ba2Ca(AgPb)3
_symmetry_space_group_name_H-M   'P 1'
_cell_length_a   5.06698300
_cell_length_b   5.06698189
_cell_length_c   12.97618400
_cell_angle_alpha   90.00000000
_cell_angle_beta   90.00000000
_cell_angle_gamma   120.00000075
_symmetry_Int_Tables_number   1
_chemical_formula_structural   Ba2Ca(AgPb)3
_chemical_formula_sum   'Ba2 Ca1 Ag3 Pb3'
_cell_volume   288.52033144
_cell_formula_units_Z   1
loop_
 _symmetry_equiv_pos_site_id
 _symmetry_equiv_pos_as_xyz
  1  'x, y, z'
loop_
 _atom_site_type_symbol
 _atom_site_label
 _atom_site_symmetry_multiplicity
 _atom_site_fract_x
 _atom_site_fract_y
 _atom_site_fract_z
 _atom_site_occupancy
  Ba  Ba0  1  0.666667  0.333333  0.818612  1
  Ba  Ba1  1  0.666667  0.333333  0.176794  1
  Ca  Ca2  1  0.666667  0.333333  0.497382  1
  Ag  Ag3  1  0.333333  0.666667  0.997941  1
  Ag  Ag4  1  0.000000  0.000000  0.622143  1
  Ag  Ag5  1  0.000000  0.000000  0.372624  1
  Pb  Pb6  1  0.333333  0.666667  0.623767  1
  Pb  Pb7  1  0.333333  0.666667  0.370772  1
  Pb  Pb8  1  0.000000  0.000000  0.997867  1
