# generated using pymatgen
data_Hf18Ti2Fe2Mo5Os
_symmetry_space_group_name_H-M   'P 1'
_cell_length_a   8.34851400
_cell_length_b   8.71206266
_cell_length_c   8.70285063
_cell_angle_alpha   120.03448301
_cell_angle_beta   90.00000000
_cell_angle_gamma   90.00000000
_symmetry_Int_Tables_number   1
_chemical_formula_structural   Hf18Ti2Fe2Mo5Os
_chemical_formula_sum   'Hf18 Ti2 Fe2 Mo5 Os1'
_cell_volume   547.98834349
_cell_formula_units_Z   1
loop_
 _symmetry_equiv_pos_site_id
 _symmetry_equiv_pos_as_xyz
  1  'x, y, z'
loop_
 _atom_site_type_symbol
 _atom_site_label
 _atom_site_symmetry_multiplicity
 _atom_site_fract_x
 _atom_site_fract_y
 _atom_site_fract_z
 _atom_site_occupancy
  Hf  Hf0  1  0.558991  0.797619  0.595239  1
  Hf  Hf1  1  0.560241  0.798205  0.201982  1
  Hf  Hf2  1  0.560235  0.403765  0.201978  1
  Hf  Hf3  1  0.442740  0.202296  0.404591  1
  Hf  Hf4  1  0.441246  0.202215  0.797080  1
  Hf  Hf5  1  0.441254  0.594875  0.797084  1
  Hf  Hf6  1  0.057260  0.202296  0.404591  1
  Hf  Hf7  1  0.058754  0.202215  0.797080  1
  Hf  Hf8  1  0.058746  0.594875  0.797084  1
  Hf  Hf9  1  0.941009  0.797619  0.595239  1
  Hf  Hf10  1  0.939759  0.798205  0.201982  1
  Hf  Hf11  1  0.939765  0.403765  0.201978  1
  Hf  Hf12  1  0.750000  0.457682  0.915376  1
  Hf  Hf13  1  0.750000  0.457759  0.541213  1
  Hf  Hf14  1  0.750000  0.083457  0.541221  1
  Hf  Hf15  1  0.250000  0.541417  0.082829  1
  Hf  Hf16  1  0.250000  0.540928  0.457695  1
  Hf  Hf17  1  0.250000  0.916766  0.457692  1
  Ti  Ti18  1  0.501629  0.001674  0.003347  1
  Ti  Ti19  1  0.998371  0.001674  0.003347  1
  Fe  Fe20  1  0.750000  0.666860  0.333757  1
  Fe  Fe21  1  0.250000  0.331747  0.663449  1
  Mo  Mo22  1  0.750000  0.114846  0.887134  1
  Mo  Mo23  1  0.750000  0.772283  0.887136  1
  Mo  Mo24  1  0.250000  0.885108  0.770204  1
  Mo  Mo25  1  0.250000  0.885623  0.114470  1
  Mo  Mo26  1  0.250000  0.228855  0.114467  1
  Os  Os27  1  0.750000  0.115370  0.230753  1
