# generated using pymatgen
data_Hf8Zr9Si16W3
_symmetry_space_group_name_H-M   'P 1'
_cell_length_a   7.01458569
_cell_length_b   7.01458525
_cell_length_c   12.83146000
_cell_angle_alpha   90.11883468
_cell_angle_beta   89.88116343
_cell_angle_gamma   89.84376604
_symmetry_Int_Tables_number   1
_chemical_formula_structural   Hf8Zr9Si16W3
_chemical_formula_sum   'Hf8 Zr9 Si16 W3'
_cell_volume   631.35933991
_cell_formula_units_Z   1
loop_
 _symmetry_equiv_pos_site_id
 _symmetry_equiv_pos_as_xyz
  1  'x, y, z'
loop_
 _atom_site_type_symbol
 _atom_site_label
 _atom_site_symmetry_multiplicity
 _atom_site_fract_x
 _atom_site_fract_y
 _atom_site_fract_z
 _atom_site_occupancy
  Hf  Hf0  1  0.497223  0.355773  0.127456  1
  Hf  Hf1  1  0.503301  0.645306  0.625758  1
  Hf  Hf2  1  0.853600  0.001111  0.873037  1
  Hf  Hf3  1  0.145714  0.994846  0.377376  1
  Hf  Hf4  1  0.645306  0.503301  0.374242  1
  Hf  Hf5  1  0.355773  0.497223  0.872544  1
  Hf  Hf6  1  0.001111  0.853600  0.126963  1
  Hf  Hf7  1  0.994846  0.145714  0.622624  1
  Zr  Zr8  1  0.174747  0.174747  0.000000  1
  Zr  Zr9  1  0.496797  0.154676  0.529093  1
  Zr  Zr10  1  0.503852  0.846091  0.031642  1
  Zr  Zr11  1  0.653951  0.001878  0.282935  1
  Zr  Zr12  1  0.346682  0.995940  0.780480  1
  Zr  Zr13  1  0.846091  0.503852  0.968358  1
  Zr  Zr14  1  0.154676  0.496797  0.470907  1
  Zr  Zr15  1  0.001878  0.653951  0.717065  1
  Zr  Zr16  1  0.995940  0.346682  0.219520  1
  Si  Si17  1  0.793487  0.145179  0.071036  1
  Si  Si18  1  0.202458  0.853907  0.571593  1
  Si  Si19  1  0.645676  0.702836  0.821425  1
  Si  Si20  1  0.353276  0.296887  0.322495  1
  Si  Si21  1  0.853907  0.202458  0.428407  1
  Si  Si22  1  0.145179  0.793487  0.928964  1
  Si  Si23  1  0.702836  0.645676  0.178575  1
  Si  Si24  1  0.296887  0.353276  0.677505  1
  Si  Si25  1  0.553696  0.201310  0.933114  1
  Si  Si26  1  0.453611  0.800548  0.434633  1
  Si  Si27  1  0.698379  0.952758  0.683045  1
  Si  Si28  1  0.304089  0.043369  0.187046  1
  Si  Si29  1  0.800548  0.453611  0.565367  1
  Si  Si30  1  0.201310  0.553696  0.066886  1
  Si  Si31  1  0.952758  0.698379  0.316955  1
  Si  Si32  1  0.043369  0.304089  0.812954  1
  W  W33  1  0.675638  0.326484  0.748104  1
  W  W34  1  0.326484  0.675638  0.251896  1
  W  W35  1  0.824924  0.824924  0.500000  1
