# generated using pymatgen
data_Tm2Al20IrOs3
_symmetry_space_group_name_H-M   'P 1'
_cell_length_a   6.84885492
_cell_length_b   6.84522718
_cell_length_c   9.14217803
_cell_angle_alpha   90.27929228
_cell_angle_beta   90.22072135
_cell_angle_gamma   96.43213955
_symmetry_Int_Tables_number   1
_chemical_formula_structural   Tm2Al20IrOs3
_chemical_formula_sum   'Tm2 Al20 Ir1 Os3'
_cell_volume   425.89610722
_cell_formula_units_Z   1
loop_
 _symmetry_equiv_pos_site_id
 _symmetry_equiv_pos_as_xyz
  1  'x, y, z'
loop_
 _atom_site_type_symbol
 _atom_site_label
 _atom_site_symmetry_multiplicity
 _atom_site_fract_x
 _atom_site_fract_y
 _atom_site_fract_z
 _atom_site_occupancy
  Tm  Tm0  1  0.632835  0.370851  0.749152  1
  Tm  Tm1  1  0.367165  0.629149  0.250848  1
  Al  Al2  1  0.280246  0.018755  0.747901  1
  Al  Al3  1  0.018298  0.281050  0.249534  1
  Al  Al4  1  0.719754  0.981245  0.252099  1
  Al  Al5  1  0.981702  0.718950  0.750466  1
  Al  Al6  1  0.878416  0.124367  0.951021  1
  Al  Al7  1  0.121584  0.875633  0.048979  1
  Al  Al8  1  0.876285  0.123802  0.547746  1
  Al  Al9  1  0.123715  0.876198  0.452254  1
  Al  Al10  1  0.648239  0.917317  0.749188  1
  Al  Al11  1  0.916623  0.647043  0.250247  1
  Al  Al12  1  0.351761  0.082683  0.250812  1
  Al  Al13  1  0.083377  0.352957  0.749753  1
  Al  Al14  1  0.343416  0.654629  0.897019  1
  Al  Al15  1  0.656584  0.345371  0.102981  1
  Al  Al16  1  0.345142  0.655754  0.600997  1
  Al  Al17  1  0.654858  0.344246  0.399003  1
  Al  Al18  1  0.723378  0.721938  0.999025  1
  Al  Al19  1  0.721762  0.721652  0.500130  1
  Al  Al20  1  0.276622  0.278062  0.000975  1
  Al  Al21  1  0.278238  0.278348  0.499870  1
  Ir  Ir22  1  0.500000  0.000000  0.000000  1
  Os  Os23  1  0.000000  0.500000  0.000000  1
  Os  Os24  1  0.500000  0.000000  0.500000  1
  Os  Os25  1  0.000000  0.500000  0.500000  1
