# generated using pymatgen
data_Rb3La(B2Pt3)6
_symmetry_space_group_name_H-M   'P 1'
_cell_length_a   8.21875654
_cell_length_b   8.21875583
_cell_length_c   8.21875600
_cell_angle_alpha   82.53136572
_cell_angle_beta   82.53136636
_cell_angle_gamma   82.53136675
_symmetry_Int_Tables_number   1
_chemical_formula_structural   Rb3La(B2Pt3)6
_chemical_formula_sum   'Rb3 La1 B12 Pt18'
_cell_volume   542.15737476
_cell_formula_units_Z   1
loop_
 _symmetry_equiv_pos_site_id
 _symmetry_equiv_pos_as_xyz
  1  'x, y, z'
loop_
 _atom_site_type_symbol
 _atom_site_label
 _atom_site_symmetry_multiplicity
 _atom_site_fract_x
 _atom_site_fract_y
 _atom_site_fract_z
 _atom_site_occupancy
  Rb  Rb0  1  0.895872  0.895872  0.895872  1
  Rb  Rb1  1  0.365455  0.365455  0.365455  1
  Rb  Rb2  1  0.134617  0.134617  0.134617  1
  La  La3  1  0.648999  0.648999  0.648999  1
  B  B4  1  0.535717  0.179592  0.850958  1
  B  B5  1  0.850958  0.535717  0.179592  1
  B  B6  1  0.179592  0.850958  0.535717  1
  B  B7  1  0.965309  0.653100  0.301003  1
  B  B8  1  0.456937  0.811124  0.160540  1
  B  B9  1  0.160540  0.456937  0.811124  1
  B  B10  1  0.811124  0.160540  0.456937  1
  B  B11  1  0.042502  0.337821  0.687662  1
  B  B12  1  0.687662  0.042502  0.337821  1
  B  B13  1  0.337821  0.687662  0.042502  1
  B  B14  1  0.301003  0.965309  0.653100  1
  B  B15  1  0.653100  0.301003  0.965309  1
  Pt  Pt16  1  0.421680  0.913955  0.406288  1
  Pt  Pt17  1  0.068961  0.106851  0.572023  1
  Pt  Pt18  1  0.913955  0.406288  0.421680  1
  Pt  Pt19  1  0.572023  0.068961  0.106851  1
  Pt  Pt20  1  0.598213  0.589925  0.058806  1
  Pt  Pt21  1  0.589925  0.058806  0.598213  1
  Pt  Pt22  1  0.058806  0.598213  0.589925  1
  Pt  Pt23  1  0.907776  0.899444  0.440128  1
  Pt  Pt24  1  0.899444  0.440128  0.907776  1
  Pt  Pt25  1  0.440128  0.907776  0.899444  1
  Pt  Pt26  1  0.747183  0.286172  0.209323  1
  Pt  Pt27  1  0.209323  0.747183  0.286172  1
  Pt  Pt28  1  0.286172  0.209323  0.747183  1
  Pt  Pt29  1  0.265337  0.717054  0.763670  1
  Pt  Pt30  1  0.763670  0.265337  0.717054  1
  Pt  Pt31  1  0.717054  0.763670  0.265337  1
  Pt  Pt32  1  0.106851  0.572023  0.068961  1
  Pt  Pt33  1  0.406288  0.421680  0.913955  1
