# generated using pymatgen
data_Th2(Ga3Os)3
_symmetry_space_group_name_H-M   'P 1'
_cell_length_a   7.66538427
_cell_length_b   7.66538291
_cell_length_c   9.64609800
_cell_angle_alpha   90.00000000
_cell_angle_beta   90.00000000
_cell_angle_gamma   119.32932628
_symmetry_Int_Tables_number   1
_chemical_formula_structural   Th2(Ga3Os)3
_chemical_formula_sum   'Th4 Ga18 Os6'
_cell_volume   494.13500548
_cell_formula_units_Z   2
loop_
 _symmetry_equiv_pos_site_id
 _symmetry_equiv_pos_as_xyz
  1  'x, y, z'
loop_
 _atom_site_type_symbol
 _atom_site_label
 _atom_site_symmetry_multiplicity
 _atom_site_fract_x
 _atom_site_fract_y
 _atom_site_fract_z
 _atom_site_occupancy
  Th  Th0  1  0.999980  0.673701  0.250000  1
  Th  Th1  1  0.000020  0.326299  0.750000  1
  Th  Th2  1  0.673701  0.999980  0.250000  1
  Th  Th3  1  0.326299  0.000020  0.750000  1
  Ga  Ga4  1  0.134812  0.134812  0.250000  1
  Ga  Ga5  1  0.865188  0.865188  0.750000  1
  Ga  Ga6  1  0.008574  0.337315  0.075602  1
  Ga  Ga7  1  0.991426  0.662685  0.924398  1
  Ga  Ga8  1  0.991426  0.662685  0.575603  1
  Ga  Ga9  1  0.337315  0.008574  0.424397  1
  Ga  Ga10  1  0.008574  0.337315  0.424397  1
  Ga  Ga11  1  0.662685  0.991426  0.575603  1
  Ga  Ga12  1  0.662685  0.991426  0.924397  1
  Ga  Ga13  1  0.337315  0.008574  0.075603  1
  Ga  Ga14  1  0.337453  0.337453  0.554639  1
  Ga  Ga15  1  0.662547  0.662547  0.445361  1
  Ga  Ga16  1  0.662547  0.662547  0.054639  1
  Ga  Ga17  1  0.337453  0.337453  0.945361  1
  Ga  Ga18  1  0.338787  0.546618  0.250000  1
  Ga  Ga19  1  0.661213  0.453382  0.750000  1
  Ga  Ga20  1  0.546618  0.338787  0.250000  1
  Ga  Ga21  1  0.453382  0.661213  0.750000  1
  Os  Os22  1  0.673324  0.326676  0.000000  1
  Os  Os23  1  0.326676  0.673324  0.000000  1
  Os  Os24  1  0.326676  0.673324  0.500000  1
  Os  Os25  1  0.673324  0.326676  0.500000  1
  Os  Os26  1  0.000000  0.000000  0.000000  1
  Os  Os27  1  0.000000  0.000000  0.500000  1
