# generated using pymatgen
data_Ga3B4Ir9
_symmetry_space_group_name_H-M   'P 1'
_cell_length_a   9.06707500
_cell_length_b   9.06707537
_cell_length_c   5.75128700
_cell_angle_alpha   90.00000000
_cell_angle_beta   90.00000000
_cell_angle_gamma   119.99999501
_symmetry_Int_Tables_number   1
_chemical_formula_structural   Ga3B4Ir9
_chemical_formula_sum   'Ga6 B8 Ir18'
_cell_volume   409.47757958
_cell_formula_units_Z   2
loop_
 _symmetry_equiv_pos_site_id
 _symmetry_equiv_pos_as_xyz
  1  'x, y, z'
loop_
 _atom_site_type_symbol
 _atom_site_label
 _atom_site_symmetry_multiplicity
 _atom_site_fract_x
 _atom_site_fract_y
 _atom_site_fract_z
 _atom_site_occupancy
  Ga  Ga0  1  0.462267  0.012908  0.750000  1
  Ga  Ga1  1  0.449358  0.987092  0.250000  1
  Ga  Ga2  1  0.537733  0.550642  0.250000  1
  Ga  Ga3  1  0.550642  0.537733  0.750000  1
  Ga  Ga4  1  0.987092  0.449358  0.750000  1
  Ga  Ga5  1  0.012908  0.462267  0.250000  1
  B  B6  1  0.806941  0.000000  0.500000  1
  B  B7  1  0.806941  0.000000  0.000000  1
  B  B8  1  0.000000  0.806941  0.500000  1
  B  B9  1  0.193059  0.193059  0.500000  1
  B  B10  1  0.193059  0.193059  0.000000  1
  B  B11  1  0.000000  0.806941  0.000000  1
  B  B12  1  0.666667  0.333333  0.250000  1
  B  B13  1  0.333333  0.666667  0.750000  1
  Ir  Ir14  1  0.811155  0.536286  0.501389  1
  Ir  Ir15  1  0.536286  0.811155  0.498611  1
  Ir  Ir16  1  0.994852  0.177512  0.750000  1
  Ir  Ir17  1  0.274868  0.463714  0.498611  1
  Ir  Ir18  1  0.005148  0.182661  0.250000  1
  Ir  Ir19  1  0.725132  0.188845  0.501389  1
  Ir  Ir20  1  0.817339  0.822488  0.250000  1
  Ir  Ir21  1  0.188845  0.725132  0.498611  1
  Ir  Ir22  1  0.463714  0.274868  0.501389  1
  Ir  Ir23  1  0.811155  0.536286  0.998611  1
  Ir  Ir24  1  0.463714  0.274868  0.998611  1
  Ir  Ir25  1  0.182661  0.005148  0.750000  1
  Ir  Ir26  1  0.177512  0.994852  0.250000  1
  Ir  Ir27  1  0.188845  0.725132  0.001389  1
  Ir  Ir28  1  0.822488  0.817339  0.750000  1
  Ir  Ir29  1  0.725132  0.188845  0.998611  1
  Ir  Ir30  1  0.274868  0.463714  0.001389  1
  Ir  Ir31  1  0.536286  0.811155  0.001389  1
