# generated using pymatgen
data_TbLu2Zr7Sn6
_symmetry_space_group_name_H-M   'P 1'
_cell_length_a   8.67215157
_cell_length_b   8.60956320
_cell_length_c   5.94320200
_cell_angle_alpha   90.00000000
_cell_angle_beta   90.00000000
_cell_angle_gamma   119.76154893
_symmetry_Int_Tables_number   1
_chemical_formula_structural   TbLu2Zr7Sn6
_chemical_formula_sum   'Tb1 Lu2 Zr7 Sn6'
_cell_volume   385.21005406
_cell_formula_units_Z   1
loop_
 _symmetry_equiv_pos_site_id
 _symmetry_equiv_pos_as_xyz
  1  'x, y, z'
loop_
 _atom_site_type_symbol
 _atom_site_label
 _atom_site_symmetry_multiplicity
 _atom_site_fract_x
 _atom_site_fract_y
 _atom_site_fract_z
 _atom_site_occupancy
  Tb  Tb0  1  0.000000  0.764954  0.250000  1
  Lu  Lu1  1  0.755481  0.757572  0.750000  1
  Lu  Lu2  1  0.244519  0.002091  0.750000  1
  Zr  Zr3  1  0.668380  0.331786  0.000959  1
  Zr  Zr4  1  0.331620  0.663407  0.000959  1
  Zr  Zr5  1  0.331620  0.663407  0.499041  1
  Zr  Zr6  1  0.668380  0.331786  0.499041  1
  Zr  Zr7  1  0.000000  0.242084  0.750000  1
  Zr  Zr8  1  0.247540  0.249582  0.250000  1
  Zr  Zr9  1  0.752460  0.002041  0.250000  1
  Sn  Sn10  1  0.393203  0.393892  0.750000  1
  Sn  Sn11  1  0.606797  0.000689  0.750000  1
  Sn  Sn12  1  0.000000  0.598918  0.750000  1
  Sn  Sn13  1  0.602532  0.605782  0.250000  1
  Sn  Sn14  1  0.397468  0.003249  0.250000  1
  Sn  Sn15  1  0.000000  0.388761  0.250000  1
