# generated using pymatgen
data_TcSn14Rh5
_symmetry_space_group_name_H-M   'P 1'
_cell_length_a   8.23990111
_cell_length_b   8.23990066
_cell_length_c   8.23990106
_cell_angle_alpha   109.35981881
_cell_angle_beta   109.35981924
_cell_angle_gamma   109.69425144
_symmetry_Int_Tables_number   1
_chemical_formula_structural   TcSn14Rh5
_chemical_formula_sum   'Tc1 Sn14 Rh5'
_cell_volume   430.66458434
_cell_formula_units_Z   1
loop_
 _symmetry_equiv_pos_site_id
 _symmetry_equiv_pos_as_xyz
  1  'x, y, z'
loop_
 _atom_site_type_symbol
 _atom_site_label
 _atom_site_symmetry_multiplicity
 _atom_site_fract_x
 _atom_site_fract_y
 _atom_site_fract_z
 _atom_site_occupancy
  Tc  Tc0  1  0.347522  0.347522  0.000000  1
  Sn  Sn1  1  0.326912  0.002506  0.000000  1
  Sn  Sn2  1  0.673684  0.000007  0.000000  1
  Sn  Sn3  1  0.002506  0.326912  0.000000  1
  Sn  Sn4  1  0.000007  0.673684  0.000000  1
  Sn  Sn5  1  0.745844  0.496444  0.249399  1
  Sn  Sn6  1  0.496444  0.745844  0.249399  1
  Sn  Sn7  1  0.000007  0.000007  0.326324  1
  Sn  Sn8  1  0.326912  0.326912  0.324405  1
  Sn  Sn9  1  0.749728  0.249728  0.500000  1
  Sn  Sn10  1  0.249728  0.749728  0.500000  1
  Sn  Sn11  1  0.002506  0.002506  0.675595  1
  Sn  Sn12  1  0.673684  0.673684  0.673676  1
  Sn  Sn13  1  0.496444  0.247045  0.750601  1
  Sn  Sn14  1  0.247045  0.496444  0.750601  1
  Rh  Rh15  1  0.659569  0.659569  0.000000  1
  Rh  Rh16  1  0.345406  0.000365  0.345040  1
  Rh  Rh17  1  0.000365  0.345406  0.345040  1
  Rh  Rh18  1  0.655324  0.000365  0.654959  1
  Rh  Rh19  1  0.000365  0.655324  0.654959  1
