# generated using pymatgen
data_MnAlVCo4Si
_symmetry_space_group_name_H-M   'P 1'
_cell_length_a   6.96474723
_cell_length_b   6.96474695
_cell_length_c   6.96474614
_cell_angle_alpha   33.66376512
_cell_angle_beta   33.66376776
_cell_angle_gamma   33.66376851
_symmetry_Int_Tables_number   1
_chemical_formula_structural   MnAlVCo4Si
_chemical_formula_sum   'Mn1 Al1 V1 Co4 Si1'
_cell_volume   92.48117648
_cell_formula_units_Z   1
loop_
 _symmetry_equiv_pos_site_id
 _symmetry_equiv_pos_as_xyz
  1  'x, y, z'
loop_
 _atom_site_type_symbol
 _atom_site_label
 _atom_site_symmetry_multiplicity
 _atom_site_fract_x
 _atom_site_fract_y
 _atom_site_fract_z
 _atom_site_occupancy
  Mn  Mn0  1  0.749367  0.749367  0.749367  1
  Al  Al1  1  0.001698  0.001698  0.001698  1
  V  V2  1  0.250025  0.250025  0.250025  1
  Co  Co3  1  0.874583  0.874583  0.874583  1
  Co  Co4  1  0.375452  0.375452  0.375452  1
  Co  Co5  1  0.129223  0.129223  0.129223  1
  Co  Co6  1  0.620817  0.620817  0.620817  1
  Si  Si7  1  0.498835  0.498835  0.498835  1
