# generated using pymatgen
data_TbY15Cd4(CoNi)2
_symmetry_space_group_name_H-M   'P 1'
_cell_length_a   9.59045346
_cell_length_b   9.59045358
_cell_length_c   9.60410679
_cell_angle_alpha   59.91501295
_cell_angle_beta   59.91501045
_cell_angle_gamma   59.86344888
_symmetry_Int_Tables_number   1
_chemical_formula_structural   TbY15Cd4(CoNi)2
_chemical_formula_sum   'Tb1 Y15 Cd4 Co2 Ni2'
_cell_volume   623.17804463
_cell_formula_units_Z   1
loop_
 _symmetry_equiv_pos_site_id
 _symmetry_equiv_pos_as_xyz
  1  'x, y, z'
loop_
 _atom_site_type_symbol
 _atom_site_label
 _atom_site_symmetry_multiplicity
 _atom_site_fract_x
 _atom_site_fract_y
 _atom_site_fract_z
 _atom_site_occupancy
  Tb  Tb0  1  0.596703  0.596703  0.599373  1
  Y  Y1  1  0.597231  0.597231  0.205651  1
  Y  Y2  1  0.596039  0.207532  0.598119  1
  Y  Y3  1  0.207532  0.596039  0.598119  1
  Y  Y4  1  0.064263  0.437735  0.439815  1
  Y  Y5  1  0.437835  0.064302  0.058123  1
  Y  Y6  1  0.437735  0.064263  0.439815  1
  Y  Y7  1  0.064302  0.437835  0.058123  1
  Y  Y8  1  0.438679  0.438679  0.061361  1
  Y  Y9  1  0.061136  0.061136  0.438924  1
  Y  Y10  1  0.187464  0.811344  0.814192  1
  Y  Y11  1  0.811462  0.187082  0.186959  1
  Y  Y12  1  0.811344  0.187464  0.814192  1
  Y  Y13  1  0.187082  0.811462  0.186959  1
  Y  Y14  1  0.813003  0.813003  0.187231  1
  Y  Y15  1  0.187553  0.187553  0.812428  1
  Cd  Cd16  1  0.829855  0.829855  0.830898  1
  Cd  Cd17  1  0.829966  0.829966  0.509441  1
  Cd  Cd18  1  0.830965  0.506466  0.831442  1
  Cd  Cd19  1  0.506466  0.830965  0.831442  1
  Co  Co20  1  0.392719  0.392719  0.390696  1
  Co  Co21  1  0.393205  0.393205  0.823286  1
  Ni  Ni22  1  0.392968  0.824492  0.391708  1
  Ni  Ni23  1  0.824492  0.392968  0.391708  1
