# generated using pymatgen
data_Nd14DyHo5Sn16
_symmetry_space_group_name_H-M   'P 1'
_cell_length_a   8.24336301
_cell_length_b   8.39721943
_cell_length_c   15.87862900
_cell_angle_alpha   90.01298452
_cell_angle_beta   90.00218942
_cell_angle_gamma   90.01305908
_symmetry_Int_Tables_number   1
_chemical_formula_structural   Nd14DyHo5Sn16
_chemical_formula_sum   'Nd14 Dy1 Ho5 Sn16'
_cell_volume   1099.13972916
_cell_formula_units_Z   1
loop_
 _symmetry_equiv_pos_site_id
 _symmetry_equiv_pos_as_xyz
  1  'x, y, z'
loop_
 _atom_site_type_symbol
 _atom_site_label
 _atom_site_symmetry_multiplicity
 _atom_site_fract_x
 _atom_site_fract_y
 _atom_site_fract_z
 _atom_site_occupancy
  Nd  Nd0  1  0.633397  0.163169  0.379773  1
  Nd  Nd1  1  0.133565  0.336790  0.119968  1
  Nd  Nd2  1  0.632644  0.163798  0.121419  1
  Nd  Nd3  1  0.132680  0.336247  0.378601  1
  Nd  Nd4  1  0.367707  0.836948  0.621473  1
  Nd  Nd5  1  0.867844  0.662969  0.878710  1
  Nd  Nd6  1  0.519688  0.319829  0.901432  1
  Nd  Nd7  1  0.019694  0.180074  0.598658  1
  Nd  Nd8  1  0.480460  0.680664  0.402043  1
  Nd  Nd9  1  0.980290  0.819286  0.098001  1
  Nd  Nd10  1  0.480632  0.680490  0.097098  1
  Nd  Nd11  1  0.980637  0.819649  0.402652  1
  Nd  Nd12  1  0.519319  0.320336  0.598980  1
  Nd  Nd13  1  0.019329  0.179590  0.901107  1
  Dy  Dy14  1  0.866061  0.662693  0.623177  1
  Ho  Ho15  1  0.366026  0.837477  0.876657  1
  Ho  Ho16  1  0.198648  0.503021  0.750285  1
  Ho  Ho17  1  0.698473  0.997061  0.749955  1
  Ho  Ho18  1  0.801349  0.498182  0.250142  1
  Ho  Ho19  1  0.301269  0.001824  0.249776  1
  Sn  Sn20  1  0.294163  0.032265  0.040791  1
  Sn  Sn21  1  0.794131  0.467342  0.458900  1
  Sn  Sn22  1  0.710040  0.961336  0.544341  1
  Sn  Sn23  1  0.210517  0.539248  0.955596  1
  Sn  Sn24  1  0.701351  0.963587  0.955738  1
  Sn  Sn25  1  0.202123  0.536210  0.544274  1
  Sn  Sn26  1  0.292932  0.034767  0.456429  1
  Sn  Sn27  1  0.792931  0.465246  0.043611  1
  Sn  Sn28  1  0.564065  0.619756  0.750185  1
  Sn  Sn29  1  0.064357  0.880545  0.750175  1
  Sn  Sn30  1  0.435546  0.383103  0.250068  1
  Sn  Sn31  1  0.935653  0.117026  0.249821  1
  Sn  Sn32  1  0.327628  0.145428  0.751035  1
  Sn  Sn33  1  0.827456  0.354139  0.749195  1
  Sn  Sn34  1  0.673677  0.852841  0.250010  1
  Sn  Sn35  1  0.173720  0.647069  0.249928  1
