# generated using pymatgen
data_Sc6Al16Fe6Rh
_symmetry_space_group_name_H-M   'P 1'
_cell_length_a   8.57346996
_cell_length_b   8.57248147
_cell_length_c   8.57444600
_cell_angle_alpha   59.99241893
_cell_angle_beta   59.99623398
_cell_angle_gamma   59.99275099
_symmetry_Int_Tables_number   1
_chemical_formula_structural   Sc6Al16Fe6Rh
_chemical_formula_sum   'Sc6 Al16 Fe6 Rh1'
_cell_volume   445.54668178
_cell_formula_units_Z   1
loop_
 _symmetry_equiv_pos_site_id
 _symmetry_equiv_pos_as_xyz
  1  'x, y, z'
loop_
 _atom_site_type_symbol
 _atom_site_label
 _atom_site_symmetry_multiplicity
 _atom_site_fract_x
 _atom_site_fract_y
 _atom_site_fract_z
 _atom_site_occupancy
  Sc  Sc0  1  0.709364  0.290731  0.290529  1
  Sc  Sc1  1  0.709364  0.290731  0.709376  1
  Sc  Sc2  1  0.709455  0.709275  0.290635  1
  Sc  Sc3  1  0.290636  0.709269  0.709471  1
  Sc  Sc4  1  0.290636  0.709269  0.290624  1
  Sc  Sc5  1  0.290545  0.290725  0.709365  1
  Al  Al6  1  0.630924  0.123143  0.122967  1
  Al  Al7  1  0.123116  0.630866  0.123009  1
  Al  Al8  1  0.123001  0.123071  0.630973  1
  Al  Al9  1  0.123001  0.123071  0.122955  1
  Al  Al10  1  0.369076  0.876857  0.877033  1
  Al  Al11  1  0.876884  0.369134  0.876991  1
  Al  Al12  1  0.876999  0.876929  0.369027  1
  Al  Al13  1  0.876999  0.876929  0.877045  1
  Al  Al14  1  0.990636  0.336595  0.336385  1
  Al  Al15  1  0.336510  0.990623  0.336434  1
  Al  Al16  1  0.336479  0.336614  0.990612  1
  Al  Al17  1  0.336479  0.336614  0.336294  1
  Al  Al18  1  0.009364  0.663405  0.663615  1
  Al  Al19  1  0.663490  0.009377  0.663566  1
  Al  Al20  1  0.663521  0.663386  0.009388  1
  Al  Al21  1  0.663521  0.663386  0.663706  1
  Fe  Fe22  1  0.500000  0.000000  0.000000  1
  Fe  Fe23  1  0.500000  0.000000  0.500000  1
  Fe  Fe24  1  0.500000  0.500000  0.000000  1
  Fe  Fe25  1  0.000000  0.500000  0.500000  1
  Fe  Fe26  1  0.000000  0.500000  0.000000  1
  Fe  Fe27  1  0.000000  0.000000  0.500000  1
  Rh  Rh28  1  0.000000  0.000000  0.000000  1
