# generated using pymatgen
data_Ho12Tc3Rh
_symmetry_space_group_name_H-M   'P 1'
_cell_length_a   6.26382709
_cell_length_b   7.36945598
_cell_length_c   9.10690500
_cell_angle_alpha   90.00000000
_cell_angle_beta   90.00000000
_cell_angle_gamma   89.90655996
_symmetry_Int_Tables_number   1
_chemical_formula_structural   Ho12Tc3Rh
_chemical_formula_sum   'Ho12 Tc3 Rh1'
_cell_volume   420.38326482
_cell_formula_units_Z   1
loop_
 _symmetry_equiv_pos_site_id
 _symmetry_equiv_pos_as_xyz
  1  'x, y, z'
loop_
 _atom_site_type_symbol
 _atom_site_label
 _atom_site_symmetry_multiplicity
 _atom_site_fract_x
 _atom_site_fract_y
 _atom_site_fract_z
 _atom_site_occupancy
  Ho  Ho0  1  0.663208  0.173940  0.060904  1
  Ho  Ho1  1  0.168219  0.323184  0.935002  1
  Ho  Ho2  1  0.836286  0.678727  0.438905  1
  Ho  Ho3  1  0.336673  0.824139  0.562700  1
  Ho  Ho4  1  0.336673  0.824139  0.937300  1
  Ho  Ho5  1  0.836286  0.678727  0.061095  1
  Ho  Ho6  1  0.168219  0.323184  0.564998  1
  Ho  Ho7  1  0.663208  0.173940  0.439096  1
  Ho  Ho8  1  0.875485  0.960868  0.750000  1
  Ho  Ho9  1  0.368805  0.542663  0.250000  1
  Ho  Ho10  1  0.626631  0.459220  0.750000  1
  Ho  Ho11  1  0.127793  0.041128  0.250000  1
  Tc  Tc12  1  0.038135  0.612734  0.750000  1
  Tc  Tc13  1  0.539486  0.883813  0.250000  1
  Tc  Tc14  1  0.459620  0.115427  0.750000  1
  Rh  Rh15  1  0.955273  0.384164  0.250000  1
