# generated using pymatgen
data_Pr3Zr(Al8Pt3)3
_symmetry_space_group_name_H-M   'P 1'
_cell_length_a   7.57314366
_cell_length_b   7.57971090
_cell_length_c   13.24515061
_cell_angle_alpha   84.51511644
_cell_angle_beta   79.02083463
_cell_angle_gamma   59.87872201
_symmetry_Int_Tables_number   1
_chemical_formula_structural   Pr3Zr(Al8Pt3)3
_chemical_formula_sum   'Pr3 Zr1 Al24 Pt9'
_cell_volume   645.59710428
_cell_formula_units_Z   1
loop_
 _symmetry_equiv_pos_site_id
 _symmetry_equiv_pos_as_xyz
  1  'x, y, z'
loop_
 _atom_site_type_symbol
 _atom_site_label
 _atom_site_symmetry_multiplicity
 _atom_site_fract_x
 _atom_site_fract_y
 _atom_site_fract_z
 _atom_site_occupancy
  Pr  Pr0  1  0.606540  0.832427  0.190554  1
  Pr  Pr1  1  0.733345  0.498391  0.808368  1
  Pr  Pr2  1  0.267224  0.501530  0.190594  1
  Zr  Zr3  1  0.393825  0.168165  0.807776  1
  Al  Al4  1  0.681637  0.838512  0.941867  1
  Al  Al5  1  0.315382  0.166475  0.049615  1
  Al  Al6  1  0.146225  0.833015  0.562531  1
  Al  Al7  1  0.852657  0.166900  0.439747  1
  Al  Al8  1  0.480152  0.166978  0.561246  1
  Al  Al9  1  0.518583  0.834032  0.442469  1
  Al  Al10  1  0.214606  0.165566  0.334823  1
  Al  Al11  1  0.780044  0.837883  0.670504  1
  Al  Al12  1  0.436269  0.504117  0.670811  1
  Al  Al13  1  0.561734  0.492693  0.334257  1
  Al  Al14  1  0.113178  0.159075  0.669629  1
  Al  Al15  1  0.888571  0.840649  0.335584  1
  Al  Al16  1  0.351892  0.496085  0.941772  1
  Al  Al17  1  0.651452  0.497133  0.053233  1
  Al  Al18  1  0.020008  0.166384  0.951627  1
  Al  Al19  1  0.986163  0.835092  0.041678  1
  Al  Al20  1  0.186446  0.499267  0.442330  1
  Al  Al21  1  0.813882  0.500101  0.559069  1
  Al  Al22  1  0.736421  0.163743  0.184352  1
  Al  Al23  1  0.262623  0.845329  0.815551  1
  Al  Al24  1  0.069749  0.625768  0.814124  1
  Al  Al25  1  0.939757  0.365802  0.185107  1
  Al  Al26  1  0.850505  0.038014  0.814706  1
  Al  Al27  1  0.142016  0.961453  0.184297  1
  Pt  Pt28  1  0.121417  0.491905  0.638447  1
  Pt  Pt29  1  0.878091  0.506109  0.364024  1
  Pt  Pt30  1  0.658965  0.171146  0.997728  1
  Pt  Pt31  1  0.342787  0.828552  0.998029  1
  Pt  Pt32  1  0.538696  0.166740  0.364592  1
  Pt  Pt33  1  0.461740  0.833875  0.638461  1
  Pt  Pt34  1  0.779329  0.174392  0.637366  1
  Pt  Pt35  1  0.217846  0.826819  0.365429  1
  Pt  Pt36  1  0.000244  0.499884  0.997705  1
