# generated using pymatgen
data_Tb11DyOs4
_symmetry_space_group_name_H-M   'P 1'
_cell_length_a   6.35631154
_cell_length_b   7.39513212
_cell_length_c   9.14518063
_cell_angle_alpha   90.00112560
_cell_angle_beta   90.04243534
_cell_angle_gamma   90.02075438
_symmetry_Int_Tables_number   1
_chemical_formula_structural   Tb11DyOs4
_chemical_formula_sum   'Tb11 Dy1 Os4'
_cell_volume   429.87605288
_cell_formula_units_Z   1
loop_
 _symmetry_equiv_pos_site_id
 _symmetry_equiv_pos_as_xyz
  1  'x, y, z'
loop_
 _atom_site_type_symbol
 _atom_site_label
 _atom_site_symmetry_multiplicity
 _atom_site_fract_x
 _atom_site_fract_y
 _atom_site_fract_z
 _atom_site_occupancy
  Tb  Tb0  1  0.330454  0.675431  0.063343  1
  Tb  Tb1  1  0.169367  0.175479  0.436421  1
  Tb  Tb2  1  0.669427  0.324545  0.563376  1
  Tb  Tb3  1  0.830750  0.824763  0.936747  1
  Tb  Tb4  1  0.669420  0.324485  0.936745  1
  Tb  Tb5  1  0.830631  0.824574  0.563357  1
  Tb  Tb6  1  0.330535  0.675407  0.436624  1
  Tb  Tb7  1  0.868498  0.538718  0.249910  1
  Tb  Tb8  1  0.631504  0.038914  0.249852  1
  Tb  Tb9  1  0.131680  0.461142  0.750107  1
  Tb  Tb10  1  0.368234  0.961342  0.750129  1
  Dy  Dy11  1  0.169345  0.175202  0.063514  1
  Os  Os12  1  0.040262  0.884027  0.249827  1
  Os  Os13  1  0.459634  0.383522  0.249795  1
  Os  Os14  1  0.960101  0.116278  0.750295  1
  Os  Os15  1  0.540158  0.616171  0.749957  1
