# generated using pymatgen
data_LaGa3Au
_symmetry_space_group_name_H-M   'P 1'
_cell_length_a   4.41870294
_cell_length_b   4.41870312
_cell_length_c   6.24639666
_cell_angle_alpha   69.28619709
_cell_angle_beta   69.28619627
_cell_angle_gamma   89.99999704
_symmetry_Int_Tables_number   1
_chemical_formula_structural   LaGa3Au
_chemical_formula_sum   'La1 Ga3 Au1'
_cell_volume   105.60626768
_cell_formula_units_Z   1
loop_
 _symmetry_equiv_pos_site_id
 _symmetry_equiv_pos_as_xyz
  1  'x, y, z'
loop_
 _atom_site_type_symbol
 _atom_site_label
 _atom_site_symmetry_multiplicity
 _atom_site_fract_x
 _atom_site_fract_y
 _atom_site_fract_z
 _atom_site_occupancy
  La  La0  1  0.990442  0.990442  0.019117  1
  Ga  Ga1  1  0.749171  0.249171  0.501659  1
  Ga  Ga2  1  0.249171  0.749171  0.501659  1
  Ga  Ga3  1  0.388980  0.388980  0.222041  1
  Au  Au4  1  0.622238  0.622238  0.755523  1
