# generated using pymatgen
data_Lu3Mg(GaPt)4
_symmetry_space_group_name_H-M   'P 1'
_cell_length_a   4.26305600
_cell_length_b   6.77612793
_cell_length_c   7.76944394
_cell_angle_alpha   93.79804599
_cell_angle_beta   90.00000000
_cell_angle_gamma   90.00000000
_symmetry_Int_Tables_number   1
_chemical_formula_structural   Lu3Mg(GaPt)4
_chemical_formula_sum   'Lu3 Mg1 Ga4 Pt4'
_cell_volume   223.94310440
_cell_formula_units_Z   1
loop_
 _symmetry_equiv_pos_site_id
 _symmetry_equiv_pos_as_xyz
  1  'x, y, z'
loop_
 _atom_site_type_symbol
 _atom_site_label
 _atom_site_symmetry_multiplicity
 _atom_site_fract_x
 _atom_site_fract_y
 _atom_site_fract_z
 _atom_site_occupancy
  Lu  Lu0  1  0.250000  0.475676  0.187442  1
  Lu  Lu1  1  0.750000  0.023278  0.678678  1
  Lu  Lu2  1  0.750000  0.530137  0.813535  1
  Mg  Mg3  1  0.250000  0.971776  0.323057  1
  Ga  Ga4  1  0.250000  0.338383  0.560764  1
  Ga  Ga5  1  0.250000  0.854247  0.942580  1
  Ga  Ga6  1  0.750000  0.651965  0.431878  1
  Ga  Ga7  1  0.750000  0.152243  0.063030  1
  Pt  Pt8  1  0.250000  0.236202  0.875225  1
  Pt  Pt9  1  0.250000  0.730503  0.616649  1
  Pt  Pt10  1  0.750000  0.775853  0.124852  1
  Pt  Pt11  1  0.750000  0.259737  0.382308  1
