# generated using pymatgen
data_Sr3Pb(WO4)4
_symmetry_space_group_name_H-M   'P 1'
_cell_length_a   5.12992197
_cell_length_b   5.63852593
_cell_length_c   14.03458499
_cell_angle_alpha   68.68158673
_cell_angle_beta   89.83555042
_cell_angle_gamma   89.88755612
_symmetry_Int_Tables_number   1
_chemical_formula_structural   Sr3Pb(WO4)4
_chemical_formula_sum   'Sr3 Pb1 W4 O16'
_cell_volume   378.17383718
_cell_formula_units_Z   1
loop_
 _symmetry_equiv_pos_site_id
 _symmetry_equiv_pos_as_xyz
  1  'x, y, z'
loop_
 _atom_site_type_symbol
 _atom_site_label
 _atom_site_symmetry_multiplicity
 _atom_site_fract_x
 _atom_site_fract_y
 _atom_site_fract_z
 _atom_site_occupancy
  Sr  Sr0  1  0.718093  0.152432  0.344391  1
  Sr  Sr1  1  0.223865  0.846079  0.156379  1
  Sr  Sr2  1  0.279632  0.842830  0.656385  1
  Pb  Pb3  1  0.772964  0.164274  0.843565  1
  W  W4  1  0.246766  0.587894  0.422925  1
  W  W5  1  0.752278  0.413461  0.078102  1
  W  W6  1  0.749316  0.410544  0.574709  1
  W  W7  1  0.253022  0.587771  0.924885  1
  O  O8  1  0.549673  0.732541  0.466197  1
  O  O9  1  0.057259  0.268057  0.036565  1
  O  O10  1  0.443897  0.266468  0.532807  1
  O  O11  1  0.951299  0.732684  0.968393  1
  O  O12  1  0.938733  0.372406  0.446389  1
  O  O13  1  0.445762  0.633130  0.050486  1
  O  O14  1  0.055156  0.630325  0.550450  1
  O  O15  1  0.562332  0.367060  0.950002  1
  O  O16  1  0.122016  0.894533  0.334091  1
  O  O17  1  0.622428  0.108765  0.166464  1
  O  O18  1  0.877252  0.103150  0.659814  1
  O  O19  1  0.377994  0.890704  0.833864  1
  O  O20  1  0.382585  0.492639  0.321292  1
  O  O21  1  0.881960  0.509930  0.179803  1
  O  O22  1  0.616385  0.502473  0.678621  1
  O  O23  1  0.119336  0.489850  0.823419  1
