# generated using pymatgen
data_Ba2NiH7
_symmetry_space_group_name_H-M   'P 1'
_cell_length_a   8.71307755
_cell_length_b   8.71307763
_cell_length_c   8.41099630
_cell_angle_alpha   71.05561374
_cell_angle_beta   71.05561510
_cell_angle_gamma   71.91397735
_symmetry_Int_Tables_number   1
_chemical_formula_structural   Ba2NiH7
_chemical_formula_sum   'Ba8 Ni4 H28'
_cell_volume   556.03515030
_cell_formula_units_Z   4
loop_
 _symmetry_equiv_pos_site_id
 _symmetry_equiv_pos_as_xyz
  1  'x, y, z'
loop_
 _atom_site_type_symbol
 _atom_site_label
 _atom_site_symmetry_multiplicity
 _atom_site_fract_x
 _atom_site_fract_y
 _atom_site_fract_z
 _atom_site_occupancy
  Ba  Ba0  1  0.262121  0.929797  0.473007  1
  Ba  Ba1  1  0.070203  0.737879  0.026993  1
  Ba  Ba2  1  0.737879  0.070203  0.526993  1
  Ba  Ba3  1  0.929797  0.262121  0.973007  1
  Ba  Ba4  1  0.281925  0.428312  0.479821  1
  Ba  Ba5  1  0.571688  0.718075  0.020179  1
  Ba  Ba6  1  0.718075  0.571688  0.520179  1
  Ba  Ba7  1  0.428312  0.281925  0.979821  1
  Ni  Ni8  1  0.316293  0.029680  0.801133  1
  Ni  Ni9  1  0.970320  0.683707  0.698867  1
  Ni  Ni10  1  0.683707  0.970320  0.198867  1
  Ni  Ni11  1  0.029680  0.316293  0.301133  1
  H  H12  1  0.384123  0.094278  0.600775  1
  H  H13  1  0.905722  0.615877  0.899225  1
  H  H14  1  0.615877  0.905722  0.399225  1
  H  H15  1  0.094278  0.384123  0.100775  1
  H  H16  1  0.373618  0.843769  0.784468  1
  H  H17  1  0.156231  0.626382  0.715532  1
  H  H18  1  0.626382  0.156231  0.215532  1
  H  H19  1  0.843769  0.373618  0.284468  1
  H  H20  1  0.490480  0.021915  0.824884  1
  H  H21  1  0.978085  0.509520  0.675116  1
  H  H22  1  0.509520  0.978085  0.175116  1
  H  H23  1  0.021915  0.490480  0.324884  1
  H  H24  1  0.252079  0.971900  0.001706  1
  H  H25  1  0.028100  0.747921  0.498294  1
  H  H26  1  0.747921  0.028100  0.998294  1
  H  H27  1  0.971900  0.252079  0.501706  1
  H  H28  1  0.252424  0.214162  0.816772  1
  H  H29  1  0.785838  0.747576  0.683228  1
  H  H30  1  0.747576  0.785838  0.183228  1
  H  H31  1  0.214162  0.252424  0.316772  1
  H  H32  1  0.142562  0.037256  0.776089  1
  H  H33  1  0.962744  0.857438  0.723911  1
  H  H34  1  0.857438  0.962744  0.223911  1
  H  H35  1  0.037256  0.142562  0.276089  1
  H  H36  1  0.343360  0.546530  0.127464  1
  H  H37  1  0.453470  0.656640  0.372536  1
  H  H38  1  0.656640  0.453470  0.872536  1
  H  H39  1  0.546530  0.343360  0.627464  1
