# generated using pymatgen
data_Ac3Pr(Si3Ir)2
_symmetry_space_group_name_H-M   'P 1'
_cell_length_a   8.38530200
_cell_length_b   8.38530339
_cell_length_c   8.98161900
_cell_angle_alpha   90.00000000
_cell_angle_beta   90.00000000
_cell_angle_gamma   120.00001030
_symmetry_Int_Tables_number   1
_chemical_formula_structural   Ac3Pr(Si3Ir)2
_chemical_formula_sum   'Ac6 Pr2 Si12 Ir4'
_cell_volume   546.91861328
_cell_formula_units_Z   2
loop_
 _symmetry_equiv_pos_site_id
 _symmetry_equiv_pos_as_xyz
  1  'x, y, z'
loop_
 _atom_site_type_symbol
 _atom_site_label
 _atom_site_symmetry_multiplicity
 _atom_site_fract_x
 _atom_site_fract_y
 _atom_site_fract_z
 _atom_site_occupancy
  Ac  Ac0  1  0.499580  0.500420  0.750000  1
  Ac  Ac1  1  0.500420  0.499580  0.250000  1
  Ac  Ac2  1  0.000841  0.500420  0.750000  1
  Ac  Ac3  1  0.999159  0.499580  0.250000  1
  Ac  Ac4  1  0.499580  0.999159  0.750000  1
  Ac  Ac5  1  0.500420  0.000841  0.250000  1
  Pr  Pr6  1  0.000000  0.000000  0.750000  1
  Pr  Pr7  1  0.000000  0.000000  0.250000  1
  Si  Si8  1  0.834631  0.165369  0.000688  1
  Si  Si9  1  0.165369  0.834631  0.999312  1
  Si  Si10  1  0.330738  0.165369  0.000688  1
  Si  Si11  1  0.165369  0.834631  0.500688  1
  Si  Si12  1  0.669262  0.834631  0.999312  1
  Si  Si13  1  0.834631  0.165369  0.499312  1
  Si  Si14  1  0.834631  0.669262  0.000688  1
  Si  Si15  1  0.669262  0.834631  0.500688  1
  Si  Si16  1  0.165369  0.330738  0.999312  1
  Si  Si17  1  0.330738  0.165369  0.499312  1
  Si  Si18  1  0.165369  0.330738  0.500688  1
  Si  Si19  1  0.834631  0.669262  0.499312  1
  Ir  Ir20  1  0.666667  0.333333  0.997615  1
  Ir  Ir21  1  0.333333  0.666667  0.002385  1
  Ir  Ir22  1  0.333333  0.666667  0.497615  1
  Ir  Ir23  1  0.666667  0.333333  0.502385  1
