# generated using pymatgen
data_Li2YTcH6
_symmetry_space_group_name_H-M   'P 1'
_cell_length_a   4.99552477
_cell_length_b   4.99553051
_cell_length_c   4.99552400
_cell_angle_alpha   120.00011203
_cell_angle_beta   120.00000815
_cell_angle_gamma   59.99988491
_symmetry_Int_Tables_number   1
_chemical_formula_structural   Li2YTcH6
_chemical_formula_sum   'Li2 Y1 Tc1 H6'
_cell_volume   88.15115611
_cell_formula_units_Z   1
loop_
 _symmetry_equiv_pos_site_id
 _symmetry_equiv_pos_as_xyz
  1  'x, y, z'
loop_
 _atom_site_type_symbol
 _atom_site_label
 _atom_site_symmetry_multiplicity
 _atom_site_fract_x
 _atom_site_fract_y
 _atom_site_fract_z
 _atom_site_occupancy
  Li  Li0  1  0.500000  0.500000  0.499999  1
  Li  Li1  1  0.250000  0.250001  0.749999  1
  Y  Y2  1  0.750000  0.750000  0.250000  1
  Tc  Tc3  1  0.000001  0.000000  0.000002  1
  H  H4  1  0.247910  0.247909  0.247910  1
  H  H5  1  0.752090  0.247911  0.247909  1
  H  H6  1  0.247911  0.752091  0.247909  1
  H  H7  1  0.752089  0.247911  0.752088  1
  H  H8  1  0.247911  0.752089  0.752089  1
  H  H9  1  0.752090  0.752090  0.752090  1
