# generated using pymatgen
data_KAl2Au5
_symmetry_space_group_name_H-M   'P 1'
_cell_length_a   7.24976700
_cell_length_b   8.92983700
_cell_length_c   10.27975800
_cell_angle_alpha   90.00000000
_cell_angle_beta   90.00000000
_cell_angle_gamma   90.00000000
_symmetry_Int_Tables_number   1
_chemical_formula_structural   KAl2Au5
_chemical_formula_sum   'K4 Al8 Au20'
_cell_volume   665.50369561
_cell_formula_units_Z   4
loop_
 _symmetry_equiv_pos_site_id
 _symmetry_equiv_pos_as_xyz
  1  'x, y, z'
loop_
 _atom_site_type_symbol
 _atom_site_label
 _atom_site_symmetry_multiplicity
 _atom_site_fract_x
 _atom_site_fract_y
 _atom_site_fract_z
 _atom_site_occupancy
  K  K0  1  0.250000  0.254581  0.127634  1
  K  K1  1  0.250000  0.754581  0.372366  1
  K  K2  1  0.750000  0.745419  0.872366  1
  K  K3  1  0.750000  0.245419  0.627634  1
  Al  Al4  1  0.250000  0.051203  0.617044  1
  Al  Al5  1  0.250000  0.551203  0.882956  1
  Al  Al6  1  0.750000  0.948797  0.382956  1
  Al  Al7  1  0.750000  0.448797  0.117044  1
  Al  Al8  1  0.250000  0.353674  0.487463  1
  Al  Al9  1  0.250000  0.853674  0.012537  1
  Al  Al10  1  0.750000  0.646326  0.512537  1
  Al  Al11  1  0.750000  0.146326  0.987463  1
  Au  Au12  1  0.051969  0.113240  0.401900  1
  Au  Au13  1  0.448031  0.613240  0.098100  1
  Au  Au14  1  0.551969  0.886760  0.598100  1
  Au  Au15  1  0.948031  0.386760  0.901900  1
  Au  Au16  1  0.948031  0.886760  0.598100  1
  Au  Au17  1  0.551969  0.386760  0.901900  1
  Au  Au18  1  0.448031  0.113240  0.401900  1
  Au  Au19  1  0.051969  0.613240  0.098100  1
  Au  Au20  1  0.039711  0.057754  0.867478  1
  Au  Au21  1  0.460289  0.557754  0.632522  1
  Au  Au22  1  0.539711  0.942246  0.132522  1
  Au  Au23  1  0.960289  0.442246  0.367478  1
  Au  Au24  1  0.960289  0.942246  0.132522  1
  Au  Au25  1  0.539711  0.442246  0.367478  1
  Au  Au26  1  0.460289  0.057754  0.867478  1
  Au  Au27  1  0.039711  0.557754  0.632522  1
  Au  Au28  1  0.250000  0.299904  0.734088  1
  Au  Au29  1  0.250000  0.799904  0.765912  1
  Au  Au30  1  0.750000  0.700096  0.265912  1
  Au  Au31  1  0.750000  0.200096  0.234088  1
