# generated using pymatgen
data_Cs3KCdBr6
_symmetry_space_group_name_H-M   'P 1'
_cell_length_a   9.73149474
_cell_length_b   9.73149411
_cell_length_c   9.73149354
_cell_angle_alpha   91.79076962
_cell_angle_beta   91.79076776
_cell_angle_gamma   91.79076951
_symmetry_Int_Tables_number   1
_chemical_formula_structural   Cs3KCdBr6
_chemical_formula_sum   'Cs6 K2 Cd2 Br12'
_cell_volume   920.21262170
_cell_formula_units_Z   2
loop_
 _symmetry_equiv_pos_site_id
 _symmetry_equiv_pos_as_xyz
  1  'x, y, z'
loop_
 _atom_site_type_symbol
 _atom_site_label
 _atom_site_symmetry_multiplicity
 _atom_site_fract_x
 _atom_site_fract_y
 _atom_site_fract_z
 _atom_site_occupancy
  Cs  Cs0  1  0.372942  0.127058  0.750000  1
  Cs  Cs1  1  0.127058  0.750000  0.372942  1
  Cs  Cs2  1  0.750000  0.372942  0.127058  1
  Cs  Cs3  1  0.627058  0.872942  0.250000  1
  Cs  Cs4  1  0.250000  0.627058  0.872942  1
  Cs  Cs5  1  0.872942  0.250000  0.627058  1
  K  K6  1  0.250000  0.250000  0.250000  1
  K  K7  1  0.750000  0.750000  0.750000  1
  Cd  Cd8  1  0.000000  0.000000  0.000000  1
  Cd  Cd9  1  0.500000  0.500000  0.500000  1
  Br  Br10  1  0.953605  0.076514  0.280412  1
  Br  Br11  1  0.076514  0.280412  0.953605  1
  Br  Br12  1  0.280412  0.953605  0.076514  1
  Br  Br13  1  0.576514  0.453605  0.780412  1
  Br  Br14  1  0.780412  0.576514  0.453605  1
  Br  Br15  1  0.453605  0.780412  0.576514  1
  Br  Br16  1  0.219588  0.423486  0.546395  1
  Br  Br17  1  0.423486  0.546395  0.219588  1
  Br  Br18  1  0.546395  0.219588  0.423486  1
  Br  Br19  1  0.923486  0.719588  0.046395  1
  Br  Br20  1  0.046395  0.923486  0.719588  1
  Br  Br21  1  0.719588  0.046395  0.923486  1
