# generated using pymatgen
data_Cs6TlCr(RhBr9)2
_symmetry_space_group_name_H-M   'P 1'
_cell_length_a   7.82019975
_cell_length_b   7.81494144
_cell_length_c   19.92144740
_cell_angle_alpha   90.04797475
_cell_angle_beta   89.95024517
_cell_angle_gamma   120.01941770
_symmetry_Int_Tables_number   1
_chemical_formula_structural   Cs6TlCr(RhBr9)2
_chemical_formula_sum   'Cs6 Tl1 Cr1 Rh2 Br18'
_cell_volume   1054.16811116
_cell_formula_units_Z   1
loop_
 _symmetry_equiv_pos_site_id
 _symmetry_equiv_pos_as_xyz
  1  'x, y, z'
loop_
 _atom_site_type_symbol
 _atom_site_label
 _atom_site_symmetry_multiplicity
 _atom_site_fract_x
 _atom_site_fract_y
 _atom_site_fract_z
 _atom_site_occupancy
  Cs  Cs0  1  0.666552  0.332876  0.933290  1
  Cs  Cs1  1  0.333047  0.665983  0.441722  1
  Cs  Cs2  1  0.666377  0.332645  0.575321  1
  Cs  Cs3  1  0.333148  0.666327  0.066462  1
  Cs  Cs4  1  0.999951  0.999852  0.750271  1
  Cs  Cs5  1  0.999820  0.999482  0.239620  1
  Tl  Tl6  1  0.666523  0.332791  0.347287  1
  Cr  Cr7  1  0.333825  0.668280  0.834689  1
  Rh  Rh8  1  0.333536  0.666786  0.669607  1
  Rh  Rh9  1  0.666364  0.332702  0.161691  1
  Br  Br10  1  0.839472  0.678917  0.414453  1
  Br  Br11  1  0.180405  0.361329  0.901777  1
  Br  Br12  1  0.180610  0.821502  0.901895  1
  Br  Br13  1  0.181043  0.362295  0.598705  1
  Br  Br14  1  0.640434  0.821463  0.901783  1
  Br  Br15  1  0.321040  0.159895  0.414450  1
  Br  Br16  1  0.038916  0.519762  0.749711  1
  Br  Br17  1  0.838737  0.159985  0.414510  1
  Br  Br18  1  0.516460  0.032874  0.239099  1
  Br  Br19  1  0.480566  0.519983  0.749617  1
  Br  Br20  1  0.517018  0.482959  0.239042  1
  Br  Br21  1  0.966286  0.483164  0.239031  1
  Br  Br22  1  0.363583  0.180798  0.089851  1
  Br  Br23  1  0.481473  0.962942  0.749503  1
  Br  Br24  1  0.818432  0.636199  0.089810  1
  Br  Br25  1  0.181586  0.818525  0.598523  1
  Br  Br26  1  0.636993  0.818659  0.598456  1
  Br  Br27  1  0.817801  0.181025  0.089825  1
