# generated using pymatgen
data_Er2Tm2Ga12Ru
_symmetry_space_group_name_H-M   'P 1'
_cell_length_a   7.43316220
_cell_length_b   7.43786841
_cell_length_c   7.43786911
_cell_angle_alpha   109.49049436
_cell_angle_beta   109.47440243
_cell_angle_gamma   109.47440274
_symmetry_Int_Tables_number   1
_chemical_formula_structural   Er2Tm2Ga12Ru
_chemical_formula_sum   'Er2 Tm2 Ga12 Ru1'
_cell_volume   316.45447687
_cell_formula_units_Z   1
loop_
 _symmetry_equiv_pos_site_id
 _symmetry_equiv_pos_as_xyz
  1  'x, y, z'
loop_
 _atom_site_type_symbol
 _atom_site_label
 _atom_site_symmetry_multiplicity
 _atom_site_fract_x
 _atom_site_fract_y
 _atom_site_fract_z
 _atom_site_occupancy
  Er  Er0  1  0.500000  0.000000  0.000000  1
  Er  Er1  1  0.500000  0.500000  0.500000  1
  Tm  Tm2  1  0.000000  0.000000  0.500000  1
  Tm  Tm3  1  0.000000  0.500000  0.000000  1
  Ga  Ga4  1  0.750112  0.249978  0.500134  1
  Ga  Ga5  1  0.750112  0.500134  0.249978  1
  Ga  Ga6  1  0.500000  0.250000  0.750000  1
  Ga  Ga7  1  0.249888  0.499866  0.750022  1
  Ga  Ga8  1  0.249888  0.750022  0.499866  1
  Ga  Ga9  1  0.500000  0.750000  0.250000  1
  Ga  Ga10  1  0.710154  0.710034  0.000120  1
  Ga  Ga11  1  0.289846  0.999880  0.289966  1
  Ga  Ga12  1  0.000000  0.289998  0.289998  1
  Ga  Ga13  1  0.289846  0.289966  0.999880  1
  Ga  Ga14  1  0.710154  0.000120  0.710034  1
  Ga  Ga15  1  0.000000  0.710002  0.710002  1
  Ru  Ru16  1  0.000000  0.000000  0.000000  1
