# generated using pymatgen
data_La6Ho4Tl5BiBr2
_symmetry_space_group_name_H-M   'P 1'
_cell_length_a   9.59688061
_cell_length_b   9.59688218
_cell_length_c   6.91276000
_cell_angle_alpha   90.00000000
_cell_angle_beta   90.00000000
_cell_angle_gamma   120.22435092
_symmetry_Int_Tables_number   1
_chemical_formula_structural   La6Ho4Tl5BiBr2
_chemical_formula_sum   'La6 Ho4 Tl5 Bi1 Br2'
_cell_volume   550.11831867
_cell_formula_units_Z   1
loop_
 _symmetry_equiv_pos_site_id
 _symmetry_equiv_pos_as_xyz
  1  'x, y, z'
loop_
 _atom_site_type_symbol
 _atom_site_label
 _atom_site_symmetry_multiplicity
 _atom_site_fract_x
 _atom_site_fract_y
 _atom_site_fract_z
 _atom_site_occupancy
  La  La0  1  0.731935  0.731935  0.250000  1
  La  La1  1  0.004070  0.733004  0.750000  1
  La  La2  1  0.733004  0.004070  0.750000  1
  La  La3  1  0.264859  0.264859  0.750000  1
  La  La4  1  0.001821  0.269914  0.250000  1
  La  La5  1  0.269914  0.001821  0.250000  1
  Ho  Ho6  1  0.331386  0.666707  0.497598  1
  Ho  Ho7  1  0.666707  0.331386  0.497598  1
  Ho  Ho8  1  0.331386  0.666707  0.002402  1
  Ho  Ho9  1  0.666707  0.331386  0.002402  1
  Tl  Tl10  1  0.394197  0.000980  0.750000  1
  Tl  Tl11  1  0.999122  0.606866  0.250000  1
  Tl  Tl12  1  0.606866  0.999122  0.250000  1
  Tl  Tl13  1  0.000980  0.394197  0.750000  1
  Tl  Tl14  1  0.390063  0.390063  0.250000  1
  Bi  Bi15  1  0.609172  0.609172  0.750000  1
  Br  Br16  1  0.998905  0.998905  0.500306  1
  Br  Br17  1  0.998905  0.998905  0.999694  1
