# generated using pymatgen
data_Cs12K3Rb3(AlBi4)2
_symmetry_space_group_name_H-M   'P 1'
_cell_length_a   11.43538187
_cell_length_b   11.52906636
_cell_length_c   12.03196300
_cell_angle_alpha   90.00000000
_cell_angle_beta   90.00000000
_cell_angle_gamma   119.83595560
_symmetry_Int_Tables_number   1
_chemical_formula_structural   Cs12K3Rb3(AlBi4)2
_chemical_formula_sum   'Cs12 K3 Rb3 Al2 Bi8'
_cell_volume   1376.02858988
_cell_formula_units_Z   1
loop_
 _symmetry_equiv_pos_site_id
 _symmetry_equiv_pos_as_xyz
  1  'x, y, z'
loop_
 _atom_site_type_symbol
 _atom_site_label
 _atom_site_symmetry_multiplicity
 _atom_site_fract_x
 _atom_site_fract_y
 _atom_site_fract_z
 _atom_site_occupancy
  Cs  Cs0  1  0.209466  0.791204  0.956811  1
  Cs  Cs1  1  0.208812  0.417761  0.956366  1
  Cs  Cs2  1  0.582561  0.791694  0.957826  1
  Cs  Cs3  1  0.417981  0.208973  0.458431  1
  Cs  Cs4  1  0.790516  0.581671  0.043029  1
  Cs  Cs5  1  0.790873  0.208474  0.457894  1
  Cs  Cs6  1  0.790516  0.581671  0.456971  1
  Cs  Cs7  1  0.209466  0.791204  0.543189  1
  Cs  Cs8  1  0.582561  0.791694  0.542174  1
  Cs  Cs9  1  0.417981  0.208973  0.041569  1
  Cs  Cs10  1  0.790873  0.208474  0.042106  1
  Cs  Cs11  1  0.208812  0.417761  0.543634  1
  K  K12  1  0.238832  0.119824  0.750000  1
  K  K13  1  0.880563  0.119962  0.750000  1
  K  K14  1  0.760274  0.880284  0.250000  1
  Rb  Rb15  1  0.119098  0.238725  0.250000  1
  Rb  Rb16  1  0.118807  0.880835  0.250000  1
  Rb  Rb17  1  0.880810  0.761798  0.750000  1
  Al  Al18  1  0.333612  0.667194  0.250000  1
  Al  Al19  1  0.666437  0.332735  0.750000  1
  Bi  Bi20  1  0.998986  0.001154  0.997997  1
  Bi  Bi21  1  0.051954  0.526371  0.250000  1
  Bi  Bi22  1  0.477111  0.946815  0.250000  1
  Bi  Bi23  1  0.526068  0.053350  0.750000  1
  Bi  Bi24  1  0.522363  0.469482  0.750000  1
  Bi  Bi25  1  0.998986  0.001154  0.502003  1
  Bi  Bi26  1  0.477881  0.530305  0.250000  1
  Bi  Bi27  1  0.947799  0.470455  0.750000  1
