# generated using pymatgen
data_DyTmMn6Co6P7
_symmetry_space_group_name_H-M   'P 1'
_cell_length_a   9.07468800
_cell_length_b   9.07468771
_cell_length_c   3.63559100
_cell_angle_alpha   90.00000000
_cell_angle_beta   90.00000000
_cell_angle_gamma   120.00000107
_symmetry_Int_Tables_number   1
_chemical_formula_structural   DyTmMn6Co6P7
_chemical_formula_sum   'Dy1 Tm1 Mn6 Co6 P7'
_cell_volume   259.28001148
_cell_formula_units_Z   1
loop_
 _symmetry_equiv_pos_site_id
 _symmetry_equiv_pos_as_xyz
  1  'x, y, z'
loop_
 _atom_site_type_symbol
 _atom_site_label
 _atom_site_symmetry_multiplicity
 _atom_site_fract_x
 _atom_site_fract_y
 _atom_site_fract_z
 _atom_site_occupancy
  Dy  Dy0  1  0.333333  0.666667  0.500000  1
  Tm  Tm1  1  0.666667  0.333333  0.000000  1
  Mn  Mn2  1  0.879660  0.722676  0.000000  1
  Mn  Mn3  1  0.277324  0.156984  0.000000  1
  Mn  Mn4  1  0.843016  0.120340  0.000000  1
  Mn  Mn5  1  0.119894  0.896336  0.500000  1
  Mn  Mn6  1  0.103664  0.223558  0.500000  1
  Mn  Mn7  1  0.776442  0.880106  0.500000  1
  Co  Co8  1  0.369750  0.940538  0.000000  1
  Co  Co9  1  0.059462  0.429211  0.000000  1
  Co  Co10  1  0.570789  0.630250  0.000000  1
  Co  Co11  1  0.948043  0.560188  0.500000  1
  Co  Co12  1  0.439812  0.387855  0.500000  1
  Co  Co13  1  0.612145  0.051957  0.500000  1
  P  P14  1  0.111037  0.698820  0.000000  1
  P  P15  1  0.301180  0.412218  0.000000  1
  P  P16  1  0.587782  0.888963  0.000000  1
  P  P17  1  0.712038  0.592098  0.500000  1
  P  P18  1  0.407902  0.119941  0.500000  1
  P  P19  1  0.880059  0.287962  0.500000  1
  P  P20  1  0.000000  0.000000  0.000000  1
