# generated using pymatgen
data_Er4Co5Si10Os
_symmetry_space_group_name_H-M   'P 1'
_cell_length_a   5.51424804
_cell_length_b   7.90272279
_cell_length_c   7.90272259
_cell_angle_alpha   73.58743079
_cell_angle_beta   69.58100006
_cell_angle_gamma   69.58100328
_symmetry_Int_Tables_number   1
_chemical_formula_structural   Er4Co5Si10Os
_chemical_formula_sum   'Er4 Co5 Si10 Os1'
_cell_volume   297.34902168
_cell_formula_units_Z   1
loop_
 _symmetry_equiv_pos_site_id
 _symmetry_equiv_pos_as_xyz
  1  'x, y, z'
loop_
 _atom_site_type_symbol
 _atom_site_label
 _atom_site_symmetry_multiplicity
 _atom_site_fract_x
 _atom_site_fract_y
 _atom_site_fract_z
 _atom_site_occupancy
  Er  Er0  1  0.376297  0.867806  0.402422  1
  Er  Er1  1  0.646525  0.132194  0.597578  1
  Er  Er2  1  0.853475  0.402422  0.867806  1
  Er  Er3  1  0.123703  0.597578  0.132194  1
  Co  Co4  1  0.250000  0.000000  0.000000  1
  Co  Co5  1  0.152735  0.256450  0.464839  1
  Co  Co6  1  0.874024  0.743550  0.535161  1
  Co  Co7  1  0.625976  0.464839  0.256450  1
  Co  Co8  1  0.347265  0.535161  0.743550  1
  Si  Si9  1  0.750000  0.500000  0.500000  1
  Si  Si10  1  0.250000  0.500000  0.500000  1
  Si  Si11  1  0.528021  0.221979  0.221979  1
  Si  Si12  1  0.971979  0.778021  0.778021  1
  Si  Si13  1  0.477911  0.772089  0.772089  1
  Si  Si14  1  0.022089  0.227911  0.227911  1
  Si  Si15  1  0.117698  0.063898  0.734254  1
  Si  Si16  1  0.915850  0.936102  0.265746  1
  Si  Si17  1  0.584150  0.734254  0.063898  1
  Si  Si18  1  0.382302  0.265746  0.936102  1
  Os  Os19  1  0.750000  0.000000  0.000000  1
