# generated using pymatgen
data_Hf3Co2Si2Ge
_symmetry_space_group_name_H-M   'P 1'
_cell_length_a   3.83643600
_cell_length_b   5.35602939
_cell_length_c   12.89158700
_cell_angle_alpha   90.00000000
_cell_angle_beta   90.00000000
_cell_angle_gamma   110.98612129
_symmetry_Int_Tables_number   1
_chemical_formula_structural   Hf3Co2Si2Ge
_chemical_formula_sum   'Hf6 Co4 Si4 Ge2'
_cell_volume   247.32578617
_cell_formula_units_Z   2
loop_
 _symmetry_equiv_pos_site_id
 _symmetry_equiv_pos_as_xyz
  1  'x, y, z'
loop_
 _atom_site_type_symbol
 _atom_site_label
 _atom_site_symmetry_multiplicity
 _atom_site_fract_x
 _atom_site_fract_y
 _atom_site_fract_z
 _atom_site_occupancy
  Hf  Hf0  1  0.074515  0.149029  0.385743  1
  Hf  Hf1  1  0.925485  0.850971  0.614257  1
  Hf  Hf2  1  0.074515  0.149029  0.114257  1
  Hf  Hf3  1  0.925485  0.850971  0.885743  1
  Hf  Hf4  1  0.364847  0.729692  0.250000  1
  Hf  Hf5  1  0.635153  0.270308  0.750000  1
  Co  Co6  1  0.218718  0.437438  0.922687  1
  Co  Co7  1  0.781282  0.562562  0.077313  1
  Co  Co8  1  0.218718  0.437438  0.577313  1
  Co  Co9  1  0.781282  0.562562  0.422687  1
  Si  Si10  1  0.390822  0.781643  0.457102  1
  Si  Si11  1  0.609178  0.218357  0.542898  1
  Si  Si12  1  0.390822  0.781643  0.042898  1
  Si  Si13  1  0.609178  0.218357  0.957102  1
  Ge  Ge14  1  0.662947  0.325895  0.250000  1
  Ge  Ge15  1  0.337053  0.674105  0.750000  1
