# generated using pymatgen
data_SrAcDy2(AsPt)4
_symmetry_space_group_name_H-M   'P 1'
_cell_length_a   4.33961300
_cell_length_b   4.33961316
_cell_length_c   16.54811200
_cell_angle_alpha   90.00000000
_cell_angle_beta   90.00000000
_cell_angle_gamma   120.00000638
_symmetry_Int_Tables_number   1
_chemical_formula_structural   SrAcDy2(AsPt)4
_chemical_formula_sum   'Sr1 Ac1 Dy2 As4 Pt4'
_cell_volume   269.88644623
_cell_formula_units_Z   1
loop_
 _symmetry_equiv_pos_site_id
 _symmetry_equiv_pos_as_xyz
  1  'x, y, z'
loop_
 _atom_site_type_symbol
 _atom_site_label
 _atom_site_symmetry_multiplicity
 _atom_site_fract_x
 _atom_site_fract_y
 _atom_site_fract_z
 _atom_site_occupancy
  Sr  Sr0  1  0.000000  0.000000  0.500000  1
  Ac  Ac1  1  0.000000  0.000000  0.000000  1
  Dy  Dy2  1  0.000000  0.000000  0.248056  1
  Dy  Dy3  1  0.000000  0.000000  0.751944  1
  As  As4  1  0.333333  0.666667  0.875394  1
  As  As5  1  0.666667  0.333333  0.124606  1
  As  As6  1  0.666667  0.333333  0.370864  1
  As  As7  1  0.333333  0.666667  0.629136  1
  Pt  Pt8  1  0.333333  0.666667  0.351457  1
  Pt  Pt9  1  0.666667  0.333333  0.648543  1
  Pt  Pt10  1  0.666667  0.333333  0.857469  1
  Pt  Pt11  1  0.333333  0.666667  0.142531  1
