# generated using pymatgen
data_Lu3HfAl17SiIr6
_symmetry_space_group_name_H-M   'P 1'
_cell_length_a   7.50492455
_cell_length_b   7.49839517
_cell_length_c   9.29337900
_cell_angle_alpha   90.00000000
_cell_angle_beta   90.00000000
_cell_angle_gamma   119.75131914
_symmetry_Int_Tables_number   1
_chemical_formula_structural   Lu3HfAl17SiIr6
_chemical_formula_sum   'Lu3 Hf1 Al17 Si1 Ir6'
_cell_volume   454.04801078
_cell_formula_units_Z   1
loop_
 _symmetry_equiv_pos_site_id
 _symmetry_equiv_pos_as_xyz
  1  'x, y, z'
loop_
 _atom_site_type_symbol
 _atom_site_label
 _atom_site_symmetry_multiplicity
 _atom_site_fract_x
 _atom_site_fract_y
 _atom_site_fract_z
 _atom_site_occupancy
  Lu  Lu0  1  0.006445  0.323559  0.750000  1
  Lu  Lu1  1  0.671061  0.995425  0.250000  1
  Lu  Lu2  1  0.324961  0.007112  0.750000  1
  Hf  Hf3  1  0.995310  0.671067  0.250000  1
  Al  Al4  1  0.123972  0.121850  0.250000  1
  Al  Al5  1  0.000006  0.336807  0.079013  1
  Al  Al6  1  0.000544  0.663503  0.926336  1
  Al  Al7  1  0.000544  0.663503  0.573664  1
  Al  Al8  1  0.332193  0.998178  0.420906  1
  Al  Al9  1  0.000006  0.336807  0.420987  1
  Al  Al10  1  0.663032  0.999636  0.577275  1
  Al  Al11  1  0.663032  0.999636  0.922725  1
  Al  Al12  1  0.332193  0.998178  0.079094  1
  Al  Al13  1  0.335854  0.336005  0.554038  1
  Al  Al14  1  0.669820  0.667786  0.437088  1
  Al  Al15  1  0.669820  0.667786  0.062912  1
  Al  Al16  1  0.335854  0.336005  0.945962  1
  Al  Al17  1  0.335278  0.549211  0.250000  1
  Al  Al18  1  0.665183  0.451880  0.750000  1
  Al  Al19  1  0.553296  0.341783  0.250000  1
  Al  Al20  1  0.449744  0.663046  0.750000  1
  Si  Si21  1  0.868310  0.867351  0.750000  1
  Ir  Ir22  1  0.673619  0.328731  0.000253  1
  Ir  Ir23  1  0.329286  0.674106  0.000792  1
  Ir  Ir24  1  0.329286  0.674106  0.499208  1
  Ir  Ir25  1  0.673619  0.328731  0.499747  1
  Ir  Ir26  1  0.998868  0.999108  0.994116  1
  Ir  Ir27  1  0.998868  0.999108  0.505884  1
