# generated using pymatgen
data_TbYb5(PrSn2)4
_symmetry_space_group_name_H-M   'P 1'
_cell_length_a   7.98392900
_cell_length_b   8.49379684
_cell_length_c   16.03385434
_cell_angle_alpha   90.10929345
_cell_angle_beta   90.00000000
_cell_angle_gamma   90.00000000
_symmetry_Int_Tables_number   1
_chemical_formula_structural   TbYb5(PrSn2)4
_chemical_formula_sum   'Tb2 Yb10 Pr8 Sn16'
_cell_volume   1087.31575000
_cell_formula_units_Z   2
loop_
 _symmetry_equiv_pos_site_id
 _symmetry_equiv_pos_as_xyz
  1  'x, y, z'
loop_
 _atom_site_type_symbol
 _atom_site_label
 _atom_site_symmetry_multiplicity
 _atom_site_fract_x
 _atom_site_fract_y
 _atom_site_fract_z
 _atom_site_occupancy
  Tb  Tb0  1  0.332577  0.827382  0.875869  1
  Tb  Tb1  1  0.832577  0.672618  0.624131  1
  Yb  Yb2  1  0.666360  0.171707  0.376374  1
  Yb  Yb3  1  0.166360  0.328293  0.123626  1
  Yb  Yb4  1  0.667613  0.172177  0.123620  1
  Yb  Yb5  1  0.167613  0.327823  0.376380  1
  Yb  Yb6  1  0.332774  0.828150  0.622973  1
  Yb  Yb7  1  0.832774  0.671850  0.877027  1
  Yb  Yb8  1  0.162805  0.502664  0.749930  1
  Yb  Yb9  1  0.662805  0.997336  0.750070  1
  Yb  Yb10  1  0.838323  0.494965  0.250256  1
  Yb  Yb11  1  0.338323  0.005035  0.249744  1
  Pr  Pr12  1  0.493781  0.316560  0.904259  1
  Pr  Pr13  1  0.993781  0.183440  0.595741  1
  Pr  Pr14  1  0.505388  0.685855  0.403369  1
  Pr  Pr15  1  0.005388  0.814145  0.096631  1
  Pr  Pr16  1  0.507321  0.684734  0.096530  1
  Pr  Pr17  1  0.007321  0.815266  0.403470  1
  Pr  Pr18  1  0.493643  0.315167  0.595237  1
  Pr  Pr19  1  0.993643  0.184833  0.904763  1
  Sn  Sn20  1  0.328150  0.034626  0.037720  1
  Sn  Sn21  1  0.828150  0.465374  0.462280  1
  Sn  Sn22  1  0.672651  0.962376  0.539399  1
  Sn  Sn23  1  0.172651  0.537624  0.960601  1
  Sn  Sn24  1  0.668017  0.963423  0.959840  1
  Sn  Sn25  1  0.168017  0.536577  0.540160  1
  Sn  Sn26  1  0.329215  0.035834  0.461241  1
  Sn  Sn27  1  0.829215  0.464166  0.038759  1
  Sn  Sn28  1  0.535072  0.608641  0.748914  1
  Sn  Sn29  1  0.035072  0.891359  0.751086  1
  Sn  Sn30  1  0.465565  0.396168  0.249849  1
  Sn  Sn31  1  0.965565  0.103832  0.250151  1
  Sn  Sn32  1  0.289521  0.139682  0.750876  1
  Sn  Sn33  1  0.789521  0.360318  0.749124  1
  Sn  Sn34  1  0.711225  0.858632  0.250043  1
  Sn  Sn35  1  0.211225  0.641368  0.249957  1
