# generated using pymatgen
data_Yb2Ni9MoP6
_symmetry_space_group_name_H-M   'P 1'
_cell_length_a   3.69317300
_cell_length_b   10.44702300
_cell_length_c   11.92575300
_cell_angle_alpha   90.00000000
_cell_angle_beta   90.00000000
_cell_angle_gamma   90.00000000
_symmetry_Int_Tables_number   1
_chemical_formula_structural   Yb2Ni9MoP6
_chemical_formula_sum   'Yb4 Ni18 Mo2 P12'
_cell_volume   460.12731229
_cell_formula_units_Z   2
loop_
 _symmetry_equiv_pos_site_id
 _symmetry_equiv_pos_as_xyz
  1  'x, y, z'
loop_
 _atom_site_type_symbol
 _atom_site_label
 _atom_site_symmetry_multiplicity
 _atom_site_fract_x
 _atom_site_fract_y
 _atom_site_fract_z
 _atom_site_occupancy
  Yb  Yb0  1  0.250000  0.580637  0.704972  1
  Yb  Yb1  1  0.250000  0.919363  0.204972  1
  Yb  Yb2  1  0.750000  0.415526  0.294651  1
  Yb  Yb3  1  0.750000  0.084474  0.794651  1
  Ni  Ni4  1  0.750000  0.285629  0.009478  1
  Ni  Ni5  1  0.750000  0.214371  0.509478  1
  Ni  Ni6  1  0.250000  0.405856  0.486760  1
  Ni  Ni7  1  0.250000  0.094144  0.986760  1
  Ni  Ni8  1  0.750000  0.589633  0.512593  1
  Ni  Ni9  1  0.750000  0.910367  0.012593  1
  Ni  Ni10  1  0.250000  0.219759  0.176984  1
  Ni  Ni11  1  0.250000  0.280241  0.676984  1
  Ni  Ni12  1  0.750000  0.780175  0.822499  1
  Ni  Ni13  1  0.750000  0.719825  0.322499  1
  Ni  Ni14  1  0.250000  0.887799  0.703371  1
  Ni  Ni15  1  0.250000  0.612201  0.203371  1
  Ni  Ni16  1  0.750000  0.119276  0.299241  1
  Ni  Ni17  1  0.750000  0.380724  0.799241  1
  Ni  Ni18  1  0.250000  0.462359  0.930743  1
  Ni  Ni19  1  0.250000  0.037641  0.430743  1
  Ni  Ni20  1  0.750000  0.529596  0.070318  1
  Ni  Ni21  1  0.750000  0.970404  0.570318  1
  Mo  Mo22  1  0.250000  0.706249  0.989324  1
  Mo  Mo23  1  0.250000  0.793751  0.489324  1
  P  P24  1  0.250000  0.416344  0.112462  1
  P  P25  1  0.250000  0.083656  0.612462  1
  P  P26  1  0.750000  0.580445  0.884961  1
  P  P27  1  0.750000  0.919555  0.384961  1
  P  P28  1  0.250000  0.267935  0.868474  1
  P  P29  1  0.250000  0.232065  0.368474  1
  P  P30  1  0.750000  0.732238  0.133837  1
  P  P31  1  0.750000  0.767762  0.633837  1
  P  P32  1  0.250000  0.595511  0.391478  1
  P  P33  1  0.250000  0.904489  0.891478  1
  P  P34  1  0.750000  0.397212  0.607854  1
  P  P35  1  0.750000  0.102788  0.107854  1
