# generated using pymatgen
data_Y4Ho12Cd4RuPt3
_symmetry_space_group_name_H-M   'P 1'
_cell_length_a   9.67453228
_cell_length_b   9.67447320
_cell_length_c   9.67447443
_cell_angle_alpha   59.65799385
_cell_angle_beta   59.63776209
_cell_angle_gamma   59.63776108
_symmetry_Int_Tables_number   1
_chemical_formula_structural   Y4Ho12Cd4RuPt3
_chemical_formula_sum   'Y4 Ho12 Cd4 Ru1 Pt3'
_cell_volume   635.10754733
_cell_formula_units_Z   1
loop_
 _symmetry_equiv_pos_site_id
 _symmetry_equiv_pos_as_xyz
  1  'x, y, z'
loop_
 _atom_site_type_symbol
 _atom_site_label
 _atom_site_symmetry_multiplicity
 _atom_site_fract_x
 _atom_site_fract_y
 _atom_site_fract_z
 _atom_site_occupancy
  Y  Y0  1  0.565081  0.935920  0.565073  1
  Y  Y1  1  0.936691  0.560552  0.936594  1
  Y  Y2  1  0.565081  0.565073  0.935920  1
  Y  Y3  1  0.936691  0.936594  0.560552  1
  Ho  Ho4  1  0.351364  0.351977  0.351977  1
  Ho  Ho5  1  0.349769  0.349364  0.948255  1
  Ho  Ho6  1  0.349769  0.948255  0.349364  1
  Ho  Ho7  1  0.948197  0.349773  0.349773  1
  Ho  Ho8  1  0.814885  0.188721  0.188721  1
  Ho  Ho9  1  0.188842  0.809935  0.809935  1
  Ho  Ho10  1  0.188752  0.814815  0.188762  1
  Ho  Ho11  1  0.809954  0.188862  0.809900  1
  Ho  Ho12  1  0.188752  0.188762  0.814815  1
  Ho  Ho13  1  0.809954  0.809900  0.188862  1
  Ho  Ho14  1  0.936552  0.564556  0.564556  1
  Ho  Ho15  1  0.559916  0.937190  0.937190  1
  Cd  Cd16  1  0.580452  0.580283  0.580283  1
  Cd  Cd17  1  0.581136  0.581395  0.254664  1
  Cd  Cd18  1  0.581136  0.254664  0.581395  1
  Cd  Cd19  1  0.254600  0.581188  0.581188  1
  Ru  Ru20  1  0.143305  0.142911  0.142911  1
  Pt  Pt21  1  0.143596  0.143834  0.571879  1
  Pt  Pt22  1  0.143596  0.571879  0.143834  1
  Pt  Pt23  1  0.571928  0.143596  0.143596  1
