# generated using pymatgen
data_Yb3Ga4Co2Ni7B2
_symmetry_space_group_name_H-M   'P 1'
_cell_length_a   5.15467125
_cell_length_b   5.17870690
_cell_length_c   10.46300400
_cell_angle_alpha   90.00000000
_cell_angle_beta   90.00000000
_cell_angle_gamma   120.15436762
_symmetry_Int_Tables_number   1
_chemical_formula_structural   Yb3Ga4Co2Ni7B2
_chemical_formula_sum   'Yb3 Ga4 Co2 Ni7 B2'
_cell_volume   241.50808485
_cell_formula_units_Z   1
loop_
 _symmetry_equiv_pos_site_id
 _symmetry_equiv_pos_as_xyz
  1  'x, y, z'
loop_
 _atom_site_type_symbol
 _atom_site_label
 _atom_site_symmetry_multiplicity
 _atom_site_fract_x
 _atom_site_fract_y
 _atom_site_fract_z
 _atom_site_occupancy
  Yb  Yb0  1  0.000000  0.000000  0.646100  1
  Yb  Yb1  1  0.000000  0.000000  0.310815  1
  Yb  Yb2  1  0.000000  0.000000  0.994132  1
  Ga  Ga3  1  0.337238  0.668620  0.317827  1
  Ga  Ga4  1  0.662762  0.331380  0.317827  1
  Ga  Ga5  1  0.667868  0.333934  0.688324  1
  Ga  Ga6  1  0.332132  0.666066  0.688324  1
  Co  Co7  1  0.500000  0.000000  0.129571  1
  Co  Co8  1  0.500000  0.500000  0.129571  1
  Ni  Ni9  1  0.000000  0.500000  0.877167  1
  Ni  Ni10  1  0.500000  0.000000  0.502520  1
  Ni  Ni11  1  0.500000  0.500000  0.502520  1
  Ni  Ni12  1  0.000000  0.500000  0.501749  1
  Ni  Ni13  1  0.000000  0.500000  0.130438  1
  Ni  Ni14  1  0.500000  0.000000  0.875396  1
  Ni  Ni15  1  0.500000  0.500000  0.875396  1
  B  B16  1  0.658452  0.329226  0.006163  1
  B  B17  1  0.341548  0.670774  0.006163  1
