# generated using pymatgen
data_SiTe5Rh2
_symmetry_space_group_name_H-M   'P 1'
_cell_length_a   4.00580900
_cell_length_b   8.30536465
_cell_length_c   13.64748744
_cell_angle_alpha   78.00628089
_cell_angle_beta   90.00000000
_cell_angle_gamma   90.00000000
_symmetry_Int_Tables_number   1
_chemical_formula_structural   SiTe5Rh2
_chemical_formula_sum   'Si2 Te10 Rh4'
_cell_volume   444.13618431
_cell_formula_units_Z   2
loop_
 _symmetry_equiv_pos_site_id
 _symmetry_equiv_pos_as_xyz
  1  'x, y, z'
loop_
 _atom_site_type_symbol
 _atom_site_label
 _atom_site_symmetry_multiplicity
 _atom_site_fract_x
 _atom_site_fract_y
 _atom_site_fract_z
 _atom_site_occupancy
  Si  Si0  1  0.500000  0.163181  0.690374  1
  Si  Si1  1  0.500000  0.836819  0.309626  1
  Te  Te2  1  0.000000  0.953447  0.109681  1
  Te  Te3  1  0.000000  0.046553  0.890319  1
  Te  Te4  1  0.000000  0.468880  0.772941  1
  Te  Te5  1  0.000000  0.531120  0.227059  1
  Te  Te6  1  0.500000  0.672715  0.973285  1
  Te  Te7  1  0.500000  0.327285  0.026715  1
  Te  Te8  1  0.500000  0.160051  0.287388  1
  Te  Te9  1  0.500000  0.839949  0.712612  1
  Te  Te10  1  0.000000  0.232920  0.567636  1
  Te  Te11  1  0.000000  0.767080  0.432364  1
  Rh  Rh12  1  0.000000  0.247985  0.153962  1
  Rh  Rh13  1  0.000000  0.752015  0.846038  1
  Rh  Rh14  1  0.500000  0.748016  0.154867  1
  Rh  Rh15  1  0.500000  0.251984  0.845133  1
