# generated using pymatgen
data_Tb2TmHg5
_symmetry_space_group_name_H-M   'P 1'
_cell_length_a   6.38519607
_cell_length_b   6.38519545
_cell_length_c   10.15144900
_cell_angle_alpha   90.00000000
_cell_angle_beta   90.00000000
_cell_angle_gamma   104.98328564
_symmetry_Int_Tables_number   1
_chemical_formula_structural   Tb2TmHg5
_chemical_formula_sum   'Tb4 Tm2 Hg10'
_cell_volume   399.81048148
_cell_formula_units_Z   2
loop_
 _symmetry_equiv_pos_site_id
 _symmetry_equiv_pos_as_xyz
  1  'x, y, z'
loop_
 _atom_site_type_symbol
 _atom_site_label
 _atom_site_symmetry_multiplicity
 _atom_site_fract_x
 _atom_site_fract_y
 _atom_site_fract_z
 _atom_site_occupancy
  Tb  Tb0  1  0.213578  0.786422  0.500000  1
  Tb  Tb1  1  0.213578  0.786422  0.000000  1
  Tb  Tb2  1  0.786422  0.213578  0.500000  1
  Tb  Tb3  1  0.786422  0.213578  0.000000  1
  Tm  Tm4  1  0.569430  0.569430  0.250000  1
  Tm  Tm5  1  0.430570  0.430570  0.750000  1
  Hg  Hg6  1  0.967517  0.967517  0.250000  1
  Hg  Hg7  1  0.032483  0.032483  0.750000  1
  Hg  Hg8  1  0.293542  0.293542  0.030705  1
  Hg  Hg9  1  0.706458  0.706458  0.969295  1
  Hg  Hg10  1  0.293542  0.293542  0.469295  1
  Hg  Hg11  1  0.706458  0.706458  0.530705  1
  Hg  Hg12  1  0.475909  0.035480  0.250000  1
  Hg  Hg13  1  0.964520  0.524091  0.750000  1
  Hg  Hg14  1  0.524091  0.964520  0.750000  1
  Hg  Hg15  1  0.035480  0.475909  0.250000  1
