# generated using pymatgen
data_Er2Lu8(BiSb)3
_symmetry_space_group_name_H-M   'P 1'
_cell_length_a   8.04965600
_cell_length_b   9.29300999
_cell_length_c   11.72647675
_cell_angle_alpha   90.09180189
_cell_angle_beta   90.00000000
_cell_angle_gamma   90.00000000
_symmetry_Int_Tables_number   1
_chemical_formula_structural   Er2Lu8(BiSb)3
_chemical_formula_sum   'Er4 Lu16 Bi6 Sb6'
_cell_volume   877.20422507
_cell_formula_units_Z   2
loop_
 _symmetry_equiv_pos_site_id
 _symmetry_equiv_pos_as_xyz
  1  'x, y, z'
loop_
 _atom_site_type_symbol
 _atom_site_label
 _atom_site_symmetry_multiplicity
 _atom_site_fract_x
 _atom_site_fract_y
 _atom_site_fract_z
 _atom_site_occupancy
  Er  Er0  1  0.314320  0.250942  0.217071  1
  Er  Er1  1  0.814320  0.249058  0.282929  1
  Er  Er2  1  0.684734  0.750053  0.783288  1
  Er  Er3  1  0.184734  0.749947  0.716712  1
  Lu  Lu4  1  0.352753  0.750577  0.216124  1
  Lu  Lu5  1  0.852753  0.749423  0.283876  1
  Lu  Lu6  1  0.647400  0.250035  0.784414  1
  Lu  Lu7  1  0.147400  0.249965  0.715586  1
  Lu  Lu8  1  0.690655  0.565344  0.059109  1
  Lu  Lu9  1  0.190655  0.934656  0.440891  1
  Lu  Lu10  1  0.311101  0.065921  0.941563  1
  Lu  Lu11  1  0.811101  0.434079  0.558437  1
  Lu  Lu12  1  0.310320  0.434578  0.942860  1
  Lu  Lu13  1  0.810320  0.065422  0.557140  1
  Lu  Lu14  1  0.688029  0.934558  0.060352  1
  Lu  Lu15  1  0.188029  0.565442  0.439648  1
  Lu  Lu16  1  0.475231  0.248037  0.487532  1
  Lu  Lu17  1  0.975231  0.251963  0.012468  1
  Lu  Lu18  1  0.525859  0.751862  0.509428  1
  Lu  Lu19  1  0.025859  0.748138  0.990572  1
  Bi  Bi20  1  0.434561  0.495347  0.674513  1
  Bi  Bi21  1  0.934561  0.004653  0.825487  1
  Bi  Bi22  1  0.434468  0.004740  0.674877  1
  Bi  Bi23  1  0.934468  0.495260  0.825123  1
  Bi  Bi24  1  0.565502  0.504641  0.325281  1
  Bi  Bi25  1  0.065502  0.995359  0.174719  1
  Sb  Sb26  1  0.403338  0.750042  0.958961  1
  Sb  Sb27  1  0.903338  0.749958  0.541039  1
  Sb  Sb28  1  0.596820  0.250006  0.041140  1
  Sb  Sb29  1  0.096820  0.249994  0.458860  1
  Sb  Sb30  1  0.564910  0.994882  0.326116  1
  Sb  Sb31  1  0.064910  0.505118  0.173884  1
