# generated using pymatgen
data_LaAl2SiNi
_symmetry_space_group_name_H-M   'P 1'
_cell_length_a   4.18348738
_cell_length_b   4.18463053
_cell_length_c   6.03432200
_cell_angle_alpha   69.71221161
_cell_angle_beta   69.71798828
_cell_angle_gamma   90.00000048
_symmetry_Int_Tables_number   1
_chemical_formula_structural   LaAl2SiNi
_chemical_formula_sum   'La1 Al2 Si1 Ni1'
_cell_volume   92.07052163
_cell_formula_units_Z   1
loop_
 _symmetry_equiv_pos_site_id
 _symmetry_equiv_pos_as_xyz
  1  'x, y, z'
loop_
 _atom_site_type_symbol
 _atom_site_label
 _atom_site_symmetry_multiplicity
 _atom_site_fract_x
 _atom_site_fract_y
 _atom_site_fract_z
 _atom_site_occupancy
  La  La0  1  0.987316  0.987316  0.025367  1
  Al  Al1  1  0.740195  0.240195  0.519611  1
  Al  Al2  1  0.240198  0.740198  0.519603  1
  Si  Si3  1  0.406003  0.406003  0.187993  1
  Ni  Ni4  1  0.626287  0.626287  0.747426  1
