# generated using pymatgen
data_Mn5Si7(Mo6C)2
_symmetry_space_group_name_H-M   'P 1'
_cell_length_a   7.76595881
_cell_length_b   7.76595814
_cell_length_c   7.76595801
_cell_angle_alpha   60.26519748
_cell_angle_beta   60.26520361
_cell_angle_gamma   60.26520018
_symmetry_Int_Tables_number   1
_chemical_formula_structural   Mn5Si7(Mo6C)2
_chemical_formula_sum   'Mn5 Si7 Mo12 C2'
_cell_volume   333.17260210
_cell_formula_units_Z   1
loop_
 _symmetry_equiv_pos_site_id
 _symmetry_equiv_pos_as_xyz
  1  'x, y, z'
loop_
 _atom_site_type_symbol
 _atom_site_label
 _atom_site_symmetry_multiplicity
 _atom_site_fract_x
 _atom_site_fract_y
 _atom_site_fract_z
 _atom_site_occupancy
  Mn  Mn0  1  0.830841  0.830841  0.830841  1
  Mn  Mn1  1  0.625950  0.625950  0.124322  1
  Mn  Mn2  1  0.625950  0.124322  0.625950  1
  Mn  Mn3  1  0.124322  0.625950  0.625950  1
  Mn  Mn4  1  0.624104  0.624104  0.624104  1
  Si  Si5  1  0.414932  0.414932  0.753416  1
  Si  Si6  1  0.414932  0.753416  0.414932  1
  Si  Si7  1  0.753416  0.414932  0.414932  1
  Si  Si8  1  0.414323  0.414323  0.414323  1
  Si  Si9  1  0.835330  0.835330  0.497611  1
  Si  Si10  1  0.835330  0.497611  0.835330  1
  Si  Si11  1  0.497611  0.835330  0.835330  1
  Mo  Mo12  1  0.057599  0.057599  0.442250  1
  Mo  Mo13  1  0.446203  0.053107  0.446203  1
  Mo  Mo14  1  0.053107  0.446203  0.446203  1
  Mo  Mo15  1  0.446203  0.446203  0.053107  1
  Mo  Mo16  1  0.057599  0.442250  0.057599  1
  Mo  Mo17  1  0.442250  0.057599  0.057599  1
  Mo  Mo18  1  0.194131  0.194131  0.806625  1
  Mo  Mo19  1  0.808559  0.186664  0.808559  1
  Mo  Mo20  1  0.186664  0.808559  0.808559  1
  Mo  Mo21  1  0.808559  0.808559  0.186664  1
  Mo  Mo22  1  0.194131  0.806625  0.194131  1
  Mo  Mo23  1  0.806625  0.194131  0.194131  1
  C  C24  1  0.250877  0.250877  0.250877  1
  C  C25  1  0.000451  0.000451  0.000451  1
