# generated using pymatgen
data_Sr6B(AsO4)5
_symmetry_space_group_name_H-M   'P 1'
_cell_length_a   7.33621100
_cell_length_b   7.33621100
_cell_length_c   9.80056700
_cell_angle_alpha   90.00000000
_cell_angle_beta   90.00000000
_cell_angle_gamma   90.00000000
_symmetry_Int_Tables_number   1
_chemical_formula_structural   Sr6B(AsO4)5
_chemical_formula_sum   'Sr6 B1 As5 O20'
_cell_volume   527.46643593
_cell_formula_units_Z   1
loop_
 _symmetry_equiv_pos_site_id
 _symmetry_equiv_pos_as_xyz
  1  'x, y, z'
loop_
 _atom_site_type_symbol
 _atom_site_label
 _atom_site_symmetry_multiplicity
 _atom_site_fract_x
 _atom_site_fract_y
 _atom_site_fract_z
 _atom_site_occupancy
  Sr  Sr0  1  0.000000  0.500000  0.471554  1
  Sr  Sr1  1  0.193389  0.201430  0.834256  1
  Sr  Sr2  1  0.806611  0.798570  0.834256  1
  Sr  Sr3  1  0.500000  0.000000  0.528446  1
  Sr  Sr4  1  0.201430  0.806611  0.165744  1
  Sr  Sr5  1  0.798570  0.193389  0.165744  1
  B  B6  1  0.500000  0.500000  0.000000  1
  As  As7  1  0.691415  0.710962  0.203107  1
  As  As8  1  0.308585  0.289038  0.203107  1
  As  As9  1  0.289038  0.691415  0.796893  1
  As  As10  1  0.000000  0.000000  0.500000  1
  As  As11  1  0.710962  0.308585  0.796893  1
  O  O12  1  0.793050  0.515640  0.255789  1
  O  O13  1  0.669401  0.486275  0.919655  1
  O  O14  1  0.093938  0.829396  0.401634  1
  O  O15  1  0.515640  0.206950  0.744211  1
  O  O16  1  0.569541  0.824845  0.320676  1
  O  O17  1  0.157925  0.153561  0.112361  1
  O  O18  1  0.906062  0.170604  0.401634  1
  O  O19  1  0.170604  0.093938  0.598366  1
  O  O20  1  0.824845  0.430459  0.679324  1
  O  O21  1  0.206950  0.484360  0.255789  1
  O  O22  1  0.486275  0.330599  0.080345  1
  O  O23  1  0.513725  0.669401  0.080345  1
  O  O24  1  0.846439  0.157925  0.887639  1
  O  O25  1  0.430459  0.175155  0.320676  1
  O  O26  1  0.175155  0.569541  0.679324  1
  O  O27  1  0.842075  0.846439  0.112361  1
  O  O28  1  0.153561  0.842075  0.887639  1
  O  O29  1  0.330599  0.513725  0.919655  1
  O  O30  1  0.484360  0.793050  0.744211  1
  O  O31  1  0.829396  0.906062  0.598366  1
