# generated using pymatgen
data_Tb3Y(Ga3Ru)6
_symmetry_space_group_name_H-M   'P 1'
_cell_length_a   7.48012809
_cell_length_b   7.47805118
_cell_length_c   9.74467100
_cell_angle_alpha   90.00000000
_cell_angle_beta   90.00000000
_cell_angle_gamma   119.11850492
_symmetry_Int_Tables_number   1
_chemical_formula_structural   Tb3Y(Ga3Ru)6
_chemical_formula_sum   'Tb3 Y1 Ga18 Ru6'
_cell_volume   476.19494785
_cell_formula_units_Z   1
loop_
 _symmetry_equiv_pos_site_id
 _symmetry_equiv_pos_as_xyz
  1  'x, y, z'
loop_
 _atom_site_type_symbol
 _atom_site_label
 _atom_site_symmetry_multiplicity
 _atom_site_fract_x
 _atom_site_fract_y
 _atom_site_fract_z
 _atom_site_occupancy
  Tb  Tb0  1  0.003018  0.328769  0.750000  1
  Tb  Tb1  1  0.671248  0.996939  0.250000  1
  Tb  Tb2  1  0.328609  0.002830  0.750000  1
  Y  Y3  1  0.997178  0.671428  0.250000  1
  Ga  Ga4  1  0.128295  0.128398  0.250000  1
  Ga  Ga5  1  0.871646  0.871553  0.750000  1
  Ga  Ga6  1  0.008494  0.336905  0.076519  1
  Ga  Ga7  1  0.991989  0.663572  0.923384  1
  Ga  Ga8  1  0.991989  0.663572  0.576616  1
  Ga  Ga9  1  0.336240  0.008082  0.423467  1
  Ga  Ga10  1  0.008494  0.336905  0.423481  1
  Ga  Ga11  1  0.663303  0.991584  0.576612  1
  Ga  Ga12  1  0.663303  0.991584  0.923388  1
  Ga  Ga13  1  0.336240  0.008082  0.076533  1
  Ga  Ga14  1  0.338152  0.338113  0.560159  1
  Ga  Ga15  1  0.661839  0.661718  0.439799  1
  Ga  Ga16  1  0.661839  0.661718  0.060201  1
  Ga  Ga17  1  0.338152  0.338113  0.939841  1
  Ga  Ga18  1  0.338039  0.550872  0.250000  1
  Ga  Ga19  1  0.662015  0.449123  0.750000  1
  Ga  Ga20  1  0.550856  0.337862  0.250000  1
  Ga  Ga21  1  0.449164  0.661991  0.750000  1
  Ru  Ru22  1  0.675583  0.324480  0.000091  1
  Ru  Ru23  1  0.324697  0.675590  0.000045  1
  Ru  Ru24  1  0.324697  0.675590  0.499955  1
  Ru  Ru25  1  0.675583  0.324480  0.499909  1
  Ru  Ru26  1  0.999669  0.000073  0.000069  1
  Ru  Ru27  1  0.999669  0.000073  0.499931  1
