# generated using pymatgen
data_HfSc(TaP)2
_symmetry_space_group_name_H-M   'P 1'
_cell_length_a   3.53689400
_cell_length_b   6.90532900
_cell_length_c   8.32522600
_cell_angle_alpha   90.00000000
_cell_angle_beta   90.00000000
_cell_angle_gamma   90.00000000
_symmetry_Int_Tables_number   1
_chemical_formula_structural   HfSc(TaP)2
_chemical_formula_sum   'Hf2 Sc2 Ta4 P4'
_cell_volume   203.33046379
_cell_formula_units_Z   2
loop_
 _symmetry_equiv_pos_site_id
 _symmetry_equiv_pos_as_xyz
  1  'x, y, z'
loop_
 _atom_site_type_symbol
 _atom_site_label
 _atom_site_symmetry_multiplicity
 _atom_site_fract_x
 _atom_site_fract_y
 _atom_site_fract_z
 _atom_site_occupancy
  Hf  Hf0  1  0.750000  0.467226  0.168843  1
  Hf  Hf1  1  0.750000  0.967226  0.331157  1
  Sc  Sc2  1  0.250000  0.032302  0.663878  1
  Sc  Sc3  1  0.250000  0.532302  0.836122  1
  Ta  Ta4  1  0.750000  0.861993  0.941630  1
  Ta  Ta5  1  0.250000  0.641148  0.439502  1
  Ta  Ta6  1  0.750000  0.361993  0.558370  1
  Ta  Ta7  1  0.250000  0.141148  0.060498  1
  P  P8  1  0.250000  0.262678  0.358702  1
  P  P9  1  0.250000  0.762678  0.141298  1
  P  P10  1  0.750000  0.734652  0.646363  1
  P  P11  1  0.750000  0.234652  0.853637  1
