# generated using pymatgen
data_Rb6Na4TiVP6
_symmetry_space_group_name_H-M   'P 1'
_cell_length_a   10.47328912
_cell_length_b   10.47328944
_cell_length_c   15.43738800
_cell_angle_alpha   90.00000000
_cell_angle_beta   90.00000000
_cell_angle_gamma   142.39288898
_symmetry_Int_Tables_number   1
_chemical_formula_structural   Rb6Na4TiVP6
_chemical_formula_sum   'Rb12 Na8 Ti2 V2 P12'
_cell_volume   1033.33983990
_cell_formula_units_Z   2
loop_
 _symmetry_equiv_pos_site_id
 _symmetry_equiv_pos_as_xyz
  1  'x, y, z'
loop_
 _atom_site_type_symbol
 _atom_site_label
 _atom_site_symmetry_multiplicity
 _atom_site_fract_x
 _atom_site_fract_y
 _atom_site_fract_z
 _atom_site_occupancy
  Rb  Rb0  1  0.940849  0.607890  0.825490  1
  Rb  Rb1  1  0.559151  0.892110  0.325490  1
  Rb  Rb2  1  0.392110  0.059151  0.174510  1
  Rb  Rb3  1  0.059018  0.392866  0.174372  1
  Rb  Rb4  1  0.892866  0.559018  0.325628  1
  Rb  Rb5  1  0.440982  0.107134  0.674372  1
  Rb  Rb6  1  0.607134  0.940982  0.825628  1
  Rb  Rb7  1  0.275048  0.275903  0.314491  1
  Rb  Rb8  1  0.775903  0.775048  0.185509  1
  Rb  Rb9  1  0.224952  0.224097  0.814491  1
  Rb  Rb10  1  0.724097  0.724952  0.685509  1
  Rb  Rb11  1  0.107890  0.440849  0.674510  1
  Na  Na12  1  0.921790  0.078210  0.000000  1
  Na  Na13  1  0.578210  0.421790  0.500000  1
  Na  Na14  1  0.078808  0.921192  0.000000  1
  Na  Na15  1  0.421192  0.578808  0.500000  1
  Na  Na16  1  0.754217  0.245783  0.000000  1
  Na  Na17  1  0.745783  0.254217  0.500000  1
  Na  Na18  1  0.244256  0.755744  0.000000  1
  Na  Na19  1  0.255744  0.744256  0.500000  1
  Ti  Ti20  1  0.582318  0.417682  0.000000  1
  Ti  Ti21  1  0.917682  0.082318  0.500000  1
  V  V22  1  0.417027  0.582973  0.000000  1
  V  V23  1  0.082973  0.917027  0.500000  1
  P  P24  1  0.860333  0.554195  0.093526  1
  P  P25  1  0.445805  0.139667  0.906474  1
  P  P26  1  0.639667  0.945805  0.593526  1
  P  P27  1  0.951568  0.652045  0.588952  1
  P  P28  1  0.152045  0.451568  0.911048  1
  P  P29  1  0.548432  0.847955  0.088952  1
  P  P30  1  0.347955  0.048432  0.411048  1
  P  P31  1  0.190084  0.184537  0.582497  1
  P  P32  1  0.684537  0.690084  0.917503  1
  P  P33  1  0.309916  0.315463  0.082497  1
  P  P34  1  0.054195  0.360333  0.406474  1
  P  P35  1  0.815463  0.809916  0.417503  1
