# generated using pymatgen
data_Y2HoZnCd3Au2
_symmetry_space_group_name_H-M   'P 1'
_cell_length_a   7.83918140
_cell_length_b   7.83918048
_cell_length_c   3.82029700
_cell_angle_alpha   90.00000000
_cell_angle_beta   90.00000000
_cell_angle_gamma   119.72001304
_symmetry_Int_Tables_number   1
_chemical_formula_structural   Y2HoZnCd3Au2
_chemical_formula_sum   'Y2 Ho1 Zn1 Cd3 Au2'
_cell_volume   203.88605637
_cell_formula_units_Z   1
loop_
 _symmetry_equiv_pos_site_id
 _symmetry_equiv_pos_as_xyz
  1  'x, y, z'
loop_
 _atom_site_type_symbol
 _atom_site_label
 _atom_site_symmetry_multiplicity
 _atom_site_fract_x
 _atom_site_fract_y
 _atom_site_fract_z
 _atom_site_occupancy
  Y  Y0  1  0.590205  0.999693  0.000000  1
  Y  Y1  1  0.999693  0.590205  0.000000  1
  Ho  Ho2  1  0.410274  0.410274  0.000000  1
  Zn  Zn3  1  0.000632  0.000632  0.000000  1
  Cd  Cd4  1  0.255853  0.000520  0.500000  1
  Cd  Cd5  1  0.000520  0.255853  0.500000  1
  Cd  Cd6  1  0.744370  0.744370  0.500000  1
  Au  Au7  1  0.333916  0.664537  0.500000  1
  Au  Au8  1  0.664537  0.333916  0.500000  1
