# generated using pymatgen
data_Ho15LuMgCo4Ag3
_symmetry_space_group_name_H-M   'P 1'
_cell_length_a   9.40252481
_cell_length_b   9.40587514
_cell_length_c   9.40587444
_cell_angle_alpha   59.94311413
_cell_angle_beta   59.90819679
_cell_angle_gamma   59.90819910
_symmetry_Int_Tables_number   1
_chemical_formula_structural   Ho15LuMgCo4Ag3
_chemical_formula_sum   'Ho15 Lu1 Mg1 Co4 Ag3'
_cell_volume   587.13412277
_cell_formula_units_Z   1
loop_
 _symmetry_equiv_pos_site_id
 _symmetry_equiv_pos_as_xyz
  1  'x, y, z'
loop_
 _atom_site_type_symbol
 _atom_site_label
 _atom_site_symmetry_multiplicity
 _atom_site_fract_x
 _atom_site_fract_y
 _atom_site_fract_z
 _atom_site_occupancy
  Ho  Ho0  1  0.345211  0.345450  0.964535  1
  Ho  Ho1  1  0.345211  0.964535  0.345450  1
  Ho  Ho2  1  0.951826  0.349280  0.349280  1
  Ho  Ho3  1  0.808042  0.190019  0.190019  1
  Ho  Ho4  1  0.184792  0.814182  0.814182  1
  Ho  Ho5  1  0.186282  0.812840  0.187294  1
  Ho  Ho6  1  0.808990  0.189118  0.811753  1
  Ho  Ho7  1  0.186282  0.187294  0.812840  1
  Ho  Ho8  1  0.808990  0.811753  0.189118  1
  Ho  Ho9  1  0.937696  0.561206  0.561206  1
  Ho  Ho10  1  0.562271  0.936548  0.936548  1
  Ho  Ho11  1  0.562132  0.937390  0.562465  1
  Ho  Ho12  1  0.935659  0.562086  0.938214  1
  Ho  Ho13  1  0.562132  0.562465  0.937390  1
  Ho  Ho14  1  0.935659  0.938214  0.562086  1
  Lu  Lu15  1  0.345676  0.345258  0.345258  1
  Mg  Mg16  1  0.293310  0.569847  0.569847  1
  Co  Co17  1  0.137121  0.142632  0.142632  1
  Co  Co18  1  0.138536  0.145184  0.576201  1
  Co  Co19  1  0.138536  0.576201  0.145184  1
  Co  Co20  1  0.574936  0.142832  0.142832  1
  Ag  Ag21  1  0.584118  0.582681  0.582681  1
  Ag  Ag22  1  0.583294  0.582626  0.250358  1
  Ag  Ag23  1  0.583294  0.250358  0.582626  1
