# generated using pymatgen
data_EuZrGeO5
_symmetry_space_group_name_H-M   'P 1'
_cell_length_a   5.81138193
_cell_length_b   5.95919417
_cell_length_c   7.63103593
_cell_angle_alpha   104.91447472
_cell_angle_beta   102.50239215
_cell_angle_gamma   106.53205261
_symmetry_Int_Tables_number   1
_chemical_formula_structural   EuZrGeO5
_chemical_formula_sum   'Eu2 Zr2 Ge2 O10'
_cell_volume   232.53119737
_cell_formula_units_Z   2
loop_
 _symmetry_equiv_pos_site_id
 _symmetry_equiv_pos_as_xyz
  1  'x, y, z'
loop_
 _atom_site_type_symbol
 _atom_site_label
 _atom_site_symmetry_multiplicity
 _atom_site_fract_x
 _atom_site_fract_y
 _atom_site_fract_z
 _atom_site_occupancy
  Eu  Eu0  1  0.840676  0.178096  0.220608  1
  Eu  Eu1  1  0.159324  0.821904  0.779392  1
  Zr  Zr2  1  0.500000  0.500000  0.500000  1
  Zr  Zr3  1  0.500000  0.500000  0.000000  1
  Ge  Ge4  1  0.814788  0.177984  0.747168  1
  Ge  Ge5  1  0.185212  0.822016  0.252832  1
  O  O6  1  0.412803  0.570577  0.750342  1
  O  O7  1  0.587197  0.429423  0.249658  1
  O  O8  1  0.109386  0.254893  0.927237  1
  O  O9  1  0.890614  0.745107  0.072763  1
  O  O10  1  0.766039  0.874355  0.599053  1
  O  O11  1  0.233961  0.125645  0.400947  1
  O  O12  1  0.191360  0.615963  0.385421  1
  O  O13  1  0.808640  0.384037  0.614579  1
  O  O14  1  0.408572  0.823692  0.122593  1
  O  O15  1  0.591428  0.176308  0.877407  1
