# generated using pymatgen
data_HoEr5(Sc2Si3)2
_symmetry_space_group_name_H-M   'P 1'
_cell_length_a   8.22094311
_cell_length_b   8.21857808
_cell_length_c   6.00370100
_cell_angle_alpha   90.00000000
_cell_angle_beta   90.00000000
_cell_angle_gamma   119.99047828
_symmetry_Int_Tables_number   1
_chemical_formula_structural   HoEr5(Sc2Si3)2
_chemical_formula_sum   'Ho1 Er5 Sc4 Si6'
_cell_volume   351.32550292
_cell_formula_units_Z   1
loop_
 _symmetry_equiv_pos_site_id
 _symmetry_equiv_pos_as_xyz
  1  'x, y, z'
loop_
 _atom_site_type_symbol
 _atom_site_label
 _atom_site_symmetry_multiplicity
 _atom_site_fract_x
 _atom_site_fract_y
 _atom_site_fract_z
 _atom_site_occupancy
  Ho  Ho0  1  0.000000  0.754990  0.750000  1
  Er  Er1  1  0.000000  0.244868  0.250000  1
  Er  Er2  1  0.754751  0.754957  0.250000  1
  Er  Er3  1  0.754874  0.000043  0.750000  1
  Er  Er4  1  0.245126  0.245169  0.750000  1
  Er  Er5  1  0.245249  0.000206  0.250000  1
  Sc  Sc6  1  0.333375  0.666627  0.499951  1
  Sc  Sc7  1  0.666625  0.333251  0.000049  1
  Sc  Sc8  1  0.666625  0.333251  0.499951  1
  Sc  Sc9  1  0.333375  0.666627  0.000049  1
  Si  Si10  1  0.398770  0.000320  0.750000  1
  Si  Si11  1  0.398310  0.398396  0.250000  1
  Si  Si12  1  0.000000  0.601652  0.250000  1
  Si  Si13  1  0.000000  0.398008  0.750000  1
  Si  Si14  1  0.601230  0.601550  0.750000  1
  Si  Si15  1  0.601690  0.000085  0.250000  1
