# generated using pymatgen
data_Sm7Er(Si4Mo3)4
_symmetry_space_group_name_H-M   'P 1'
_cell_length_a   6.85164026
_cell_length_b   7.01479603
_cell_length_c   13.01290956
_cell_angle_alpha   89.92488950
_cell_angle_beta   89.98269957
_cell_angle_gamma   89.90428136
_symmetry_Int_Tables_number   1
_chemical_formula_structural   Sm7Er(Si4Mo3)4
_chemical_formula_sum   'Sm7 Er1 Si16 Mo12'
_cell_volume   625.43619820
_cell_formula_units_Z   1
loop_
 _symmetry_equiv_pos_site_id
 _symmetry_equiv_pos_as_xyz
  1  'x, y, z'
loop_
 _atom_site_type_symbol
 _atom_site_label
 _atom_site_symmetry_multiplicity
 _atom_site_fract_x
 _atom_site_fract_y
 _atom_site_fract_z
 _atom_site_occupancy
  Sm  Sm0  1  0.497217  0.334554  0.094154  1
  Sm  Sm1  1  0.997565  0.165145  0.405964  1
  Sm  Sm2  1  0.502991  0.665218  0.594243  1
  Sm  Sm3  1  0.001826  0.834175  0.906561  1
  Sm  Sm4  1  0.502468  0.665806  0.906522  1
  Sm  Sm5  1  0.002333  0.834721  0.594255  1
  Sm  Sm6  1  0.497036  0.334623  0.404929  1
  Er  Er7  1  0.996782  0.166945  0.095065  1
  Si  Si8  1  0.655910  0.045231  0.548599  1
  Si  Si9  1  0.156083  0.454011  0.952536  1
  Si  Si10  1  0.340540  0.957200  0.048901  1
  Si  Si11  1  0.843619  0.544692  0.451135  1
  Si  Si12  1  0.344409  0.954641  0.450737  1
  Si  Si13  1  0.844561  0.541416  0.048905  1
  Si  Si14  1  0.657245  0.044920  0.952669  1
  Si  Si15  1  0.156380  0.455630  0.548556  1
  Si  Si16  1  0.535877  0.360875  0.750628  1
  Si  Si17  1  0.036250  0.138294  0.750279  1
  Si  Si18  1  0.464505  0.639847  0.249376  1
  Si  Si19  1  0.964628  0.863675  0.248629  1
  Si  Si20  1  0.805278  0.622042  0.750582  1
  Si  Si21  1  0.304770  0.876202  0.750360  1
  Si  Si22  1  0.193165  0.375178  0.248745  1
  Si  Si23  1  0.697269  0.124340  0.248752  1
  Mo  Mo24  1  0.831945  0.334320  0.626424  1
  Mo  Mo25  1  0.330322  0.164288  0.874718  1
  Mo  Mo26  1  0.168015  0.665566  0.125871  1
  Mo  Mo27  1  0.669938  0.835790  0.373156  1
  Mo  Mo28  1  0.167743  0.665533  0.372871  1
  Mo  Mo29  1  0.670140  0.836528  0.125289  1
  Mo  Mo30  1  0.832558  0.333172  0.874887  1
  Mo  Mo31  1  0.331123  0.164554  0.626172  1
  Mo  Mo32  1  0.665005  0.002882  0.750570  1
  Mo  Mo33  1  0.165301  0.496890  0.750455  1
  Mo  Mo34  1  0.334193  0.998786  0.249106  1
  Mo  Mo35  1  0.835010  0.502310  0.249399  1
