# generated using pymatgen
data_La3Pr(CdPd2)2
_symmetry_space_group_name_H-M   'P 1'
_cell_length_a   7.89637689
_cell_length_b   7.89637689
_cell_length_c   3.99719700
_cell_angle_alpha   90.00000000
_cell_angle_beta   90.00000000
_cell_angle_gamma   89.67435216
_symmetry_Int_Tables_number   1
_chemical_formula_structural   La3Pr(CdPd2)2
_chemical_formula_sum   'La3 Pr1 Cd2 Pd4'
_cell_volume   249.23227124
_cell_formula_units_Z   1
loop_
 _symmetry_equiv_pos_site_id
 _symmetry_equiv_pos_as_xyz
  1  'x, y, z'
loop_
 _atom_site_type_symbol
 _atom_site_label
 _atom_site_symmetry_multiplicity
 _atom_site_fract_x
 _atom_site_fract_y
 _atom_site_fract_z
 _atom_site_occupancy
  La  La0  1  0.325792  0.825792  0.500000  1
  La  La1  1  0.824954  0.674519  0.500000  1
  La  La2  1  0.174519  0.324954  0.500000  1
  Pr  Pr3  1  0.674527  0.174527  0.500000  1
  Cd  Cd4  1  0.999184  0.000515  0.000000  1
  Cd  Cd5  1  0.500515  0.499184  0.000000  1
  Pd  Pd6  1  0.371725  0.127887  0.000000  1
  Pd  Pd7  1  0.872725  0.372725  0.000000  1
  Pd  Pd8  1  0.128172  0.628172  0.000000  1
  Pd  Pd9  1  0.627887  0.871725  0.000000  1
