# generated using pymatgen
data_Pr16Tm4Si15As
_symmetry_space_group_name_H-M   'P 1'
_cell_length_a   7.82565853
_cell_length_b   7.81379623
_cell_length_c   15.21820832
_cell_angle_alpha   89.91300171
_cell_angle_beta   89.63693679
_cell_angle_gamma   89.94252294
_symmetry_Int_Tables_number   1
_chemical_formula_structural   Pr16Tm4Si15As
_chemical_formula_sum   'Pr16 Tm4 Si15 As1'
_cell_volume   930.54432696
_cell_formula_units_Z   1
loop_
 _symmetry_equiv_pos_site_id
 _symmetry_equiv_pos_as_xyz
  1  'x, y, z'
loop_
 _atom_site_type_symbol
 _atom_site_label
 _atom_site_symmetry_multiplicity
 _atom_site_fract_x
 _atom_site_fract_y
 _atom_site_fract_z
 _atom_site_occupancy
  Pr  Pr0  1  0.377810  0.010670  0.445394  1
  Pr  Pr1  1  0.487911  0.876193  0.697374  1
  Pr  Pr2  1  0.511297  0.122233  0.196301  1
  Pr  Pr3  1  0.876375  0.487558  0.302450  1
  Pr  Pr4  1  0.124929  0.511749  0.804097  1
  Pr  Pr5  1  0.626278  0.986744  0.947689  1
  Pr  Pr6  1  0.007354  0.377535  0.551249  1
  Pr  Pr7  1  0.988701  0.622493  0.053720  1
  Pr  Pr8  1  0.131061  0.981326  0.876610  1
  Pr  Pr9  1  0.522067  0.627876  0.127582  1
  Pr  Pr10  1  0.476792  0.372641  0.629586  1
  Pr  Pr11  1  0.628758  0.523053  0.872979  1
  Pr  Pr12  1  0.371915  0.476299  0.372389  1
  Pr  Pr13  1  0.872887  0.021941  0.377915  1
  Pr  Pr14  1  0.978665  0.127594  0.122444  1
  Pr  Pr15  1  0.020791  0.871709  0.621380  1
  Tm  Tm16  1  0.312748  0.311135  0.000048  1
  Tm  Tm17  1  0.187995  0.810136  0.249737  1
  Tm  Tm18  1  0.805316  0.188836  0.750823  1
  Tm  Tm19  1  0.686412  0.688576  0.499117  1
  Si  Si20  1  0.328281  0.689586  0.955922  1
  Si  Si21  1  0.669653  0.311164  0.456959  1
  Si  Si22  1  0.691587  0.330175  0.044665  1
  Si  Si23  1  0.310709  0.671118  0.544126  1
  Si  Si24  1  0.811127  0.828761  0.206414  1
  Si  Si25  1  0.171157  0.188545  0.293393  1
  Si  Si26  1  0.832099  0.811097  0.793634  1
  Si  Si27  1  0.286421  0.922907  0.063103  1
  Si  Si28  1  0.577223  0.786274  0.313297  1
  Si  Si29  1  0.437396  0.212231  0.819328  1
  Si  Si30  1  0.787838  0.577275  0.686109  1
  Si  Si31  1  0.213375  0.422999  0.186399  1
  Si  Si32  1  0.708569  0.075844  0.563826  1
  Si  Si33  1  0.925474  0.287934  0.936610  1
  Si  Si34  1  0.076905  0.712667  0.436125  1
  As  As35  1  0.176125  0.175121  0.701204  1
