# generated using pymatgen
data_LaAl5CuNi
_symmetry_space_group_name_H-M   'P 1'
_cell_length_a   6.37062993
_cell_length_b   6.37063091
_cell_length_c   6.37063174
_cell_angle_alpha   143.26910403
_cell_angle_beta   111.23911844
_cell_angle_gamma   80.57744129
_symmetry_Int_Tables_number   1
_chemical_formula_structural   LaAl5CuNi
_chemical_formula_sum   'La1 Al5 Cu1 Ni1'
_cell_volume   140.35838916
_cell_formula_units_Z   1
loop_
 _symmetry_equiv_pos_site_id
 _symmetry_equiv_pos_as_xyz
  1  'x, y, z'
loop_
 _atom_site_type_symbol
 _atom_site_label
 _atom_site_symmetry_multiplicity
 _atom_site_fract_x
 _atom_site_fract_y
 _atom_site_fract_z
 _atom_site_occupancy
  La  La0  1  0.000093  0.000093  0.000000  1
  Al  Al1  1  0.499308  0.999308  0.500000  1
  Al  Al2  1  0.848345  0.654639  0.193707  1
  Al  Al3  1  0.527107  0.342836  0.184271  1
  Al  Al4  1  0.460932  0.654639  0.806293  1
  Al  Al5  1  0.158565  0.342836  0.815729  1
  Cu  Cu6  1  0.744689  0.244689  0.500000  1
  Ni  Ni7  1  0.260960  0.760960  0.500000  1
