# generated using pymatgen
data_VMo(IrRh2)2
_symmetry_space_group_name_H-M   'P 1'
_cell_length_a   5.48440457
_cell_length_b   5.48440467
_cell_length_c   4.37717900
_cell_angle_alpha   90.00000000
_cell_angle_beta   90.00000000
_cell_angle_gamma   119.85208690
_symmetry_Int_Tables_number   1
_chemical_formula_structural   VMo(IrRh2)2
_chemical_formula_sum   'V1 Mo1 Ir2 Rh4'
_cell_volume   114.19032004
_cell_formula_units_Z   1
loop_
 _symmetry_equiv_pos_site_id
 _symmetry_equiv_pos_as_xyz
  1  'x, y, z'
loop_
 _atom_site_type_symbol
 _atom_site_label
 _atom_site_symmetry_multiplicity
 _atom_site_fract_x
 _atom_site_fract_y
 _atom_site_fract_z
 _atom_site_occupancy
  V  V0  1  0.664821  0.335179  0.250000  1
  Mo  Mo1  1  0.334215  0.665785  0.750000  1
  Ir  Ir2  1  0.165554  0.331769  0.250000  1
  Ir  Ir3  1  0.668231  0.834446  0.250000  1
  Rh  Rh4  1  0.165869  0.834131  0.250000  1
  Rh  Rh5  1  0.832766  0.663811  0.750000  1
  Rh  Rh6  1  0.336189  0.167234  0.750000  1
  Rh  Rh7  1  0.832354  0.167646  0.750000  1
