# generated using pymatgen
data_Dy3Y13(CdPt)4
_symmetry_space_group_name_H-M   'P 1'
_cell_length_a   9.72408057
_cell_length_b   9.72745990
_cell_length_c   9.72746100
_cell_angle_alpha   59.99999965
_cell_angle_beta   59.98850306
_cell_angle_gamma   59.98850912
_symmetry_Int_Tables_number   1
_chemical_formula_structural   Dy3Y13(CdPt)4
_chemical_formula_sum   'Dy3 Y13 Cd4 Pt4'
_cell_volume   650.51456512
_cell_formula_units_Z   1
loop_
 _symmetry_equiv_pos_site_id
 _symmetry_equiv_pos_as_xyz
  1  'x, y, z'
loop_
 _atom_site_type_symbol
 _atom_site_label
 _atom_site_symmetry_multiplicity
 _atom_site_fract_x
 _atom_site_fract_y
 _atom_site_fract_z
 _atom_site_occupancy
  Dy  Dy0  1  0.352170  0.352206  0.352206  1
  Dy  Dy1  1  0.352170  0.352206  0.943418  1
  Dy  Dy2  1  0.352170  0.943418  0.352206  1
  Y  Y3  1  0.941889  0.352703  0.352703  1
  Y  Y4  1  0.810766  0.189228  0.189228  1
  Y  Y5  1  0.189279  0.810770  0.810770  1
  Y  Y6  1  0.189279  0.810770  0.189180  1
  Y  Y7  1  0.810766  0.189228  0.810778  1
  Y  Y8  1  0.189279  0.189180  0.810770  1
  Y  Y9  1  0.810766  0.810778  0.189228  1
  Y  Y10  1  0.934874  0.565214  0.565214  1
  Y  Y11  1  0.564940  0.934949  0.934949  1
  Y  Y12  1  0.564940  0.934949  0.565161  1
  Y  Y13  1  0.934874  0.565214  0.934699  1
  Y  Y14  1  0.564940  0.565161  0.934949  1
  Y  Y15  1  0.934874  0.934699  0.565214  1
  Cd  Cd16  1  0.582236  0.582019  0.582019  1
  Cd  Cd17  1  0.582236  0.582019  0.253725  1
  Cd  Cd18  1  0.582236  0.253725  0.582019  1
  Cd  Cd19  1  0.253733  0.582089  0.582089  1
  Pt  Pt20  1  0.144317  0.143331  0.143331  1
  Pt  Pt21  1  0.144317  0.143331  0.569020  1
  Pt  Pt22  1  0.144317  0.569020  0.143331  1
  Pt  Pt23  1  0.568633  0.143789  0.143789  1
