# generated using pymatgen
data_Nd(NbCl3)6
_symmetry_space_group_name_H-M   'P 1'
_cell_length_a   10.29373900
_cell_length_b   10.29373911
_cell_length_c   10.29373894
_cell_angle_alpha   55.86636426
_cell_angle_beta   55.86636244
_cell_angle_gamma   55.86636543
_symmetry_Int_Tables_number   1
_chemical_formula_structural   Nd(NbCl3)6
_chemical_formula_sum   'Nd1 Nb6 Cl18'
_cell_volume   697.36245070
_cell_formula_units_Z   1
loop_
 _symmetry_equiv_pos_site_id
 _symmetry_equiv_pos_as_xyz
  1  'x, y, z'
loop_
 _atom_site_type_symbol
 _atom_site_label
 _atom_site_symmetry_multiplicity
 _atom_site_fract_x
 _atom_site_fract_y
 _atom_site_fract_z
 _atom_site_occupancy
  Nd  Nd0  1  0.000000  0.000000  0.000000  1
  Nb  Nb1  1  0.410257  0.300313  0.648829  1
  Nb  Nb2  1  0.351171  0.589743  0.699687  1
  Nb  Nb3  1  0.699687  0.351171  0.589743  1
  Nb  Nb4  1  0.300313  0.648829  0.410257  1
  Nb  Nb5  1  0.648829  0.410257  0.300313  1
  Nb  Nb6  1  0.589743  0.699687  0.351171  1
  Cl  Cl7  1  0.569014  0.165058  0.440936  1
  Cl  Cl8  1  0.226468  0.370389  0.904748  1
  Cl  Cl9  1  0.904748  0.226468  0.370389  1
  Cl  Cl10  1  0.370389  0.904748  0.226468  1
  Cl  Cl11  1  0.773532  0.629611  0.095252  1
  Cl  Cl12  1  0.095252  0.773532  0.629611  1
  Cl  Cl13  1  0.695730  0.956382  0.164358  1
  Cl  Cl14  1  0.956382  0.164358  0.695730  1
  Cl  Cl15  1  0.164358  0.695730  0.956382  1
  Cl  Cl16  1  0.304270  0.043618  0.835642  1
  Cl  Cl17  1  0.043618  0.835642  0.304270  1
  Cl  Cl18  1  0.835642  0.304270  0.043618  1
  Cl  Cl19  1  0.559064  0.430986  0.834942  1
  Cl  Cl20  1  0.165058  0.440936  0.569014  1
  Cl  Cl21  1  0.440936  0.569014  0.165058  1
  Cl  Cl22  1  0.430986  0.834942  0.559064  1
  Cl  Cl23  1  0.834942  0.559064  0.430986  1
  Cl  Cl24  1  0.629611  0.095252  0.773532  1
