# generated using pymatgen
data_Dy3YHf3MgPt4
_symmetry_space_group_name_H-M   'P 1'
_cell_length_a   4.62905300
_cell_length_b   7.07128100
_cell_length_c   8.24799845
_cell_angle_alpha   92.88805329
_cell_angle_beta   90.00000000
_cell_angle_gamma   90.00000000
_symmetry_Int_Tables_number   1
_chemical_formula_structural   Dy3YHf3MgPt4
_chemical_formula_sum   'Dy3 Y1 Hf3 Mg1 Pt4'
_cell_volume   269.64158116
_cell_formula_units_Z   1
loop_
 _symmetry_equiv_pos_site_id
 _symmetry_equiv_pos_as_xyz
  1  'x, y, z'
loop_
 _atom_site_type_symbol
 _atom_site_label
 _atom_site_symmetry_multiplicity
 _atom_site_fract_x
 _atom_site_fract_y
 _atom_site_fract_z
 _atom_site_occupancy
  Dy  Dy0  1  0.250000  0.982374  0.319649  1
  Dy  Dy1  1  0.750000  0.029157  0.688121  1
  Dy  Dy2  1  0.750000  0.514615  0.829200  1
  Y  Y3  1  0.250000  0.468014  0.169822  1
  Hf  Hf4  1  0.250000  0.365030  0.571497  1
  Hf  Hf5  1  0.250000  0.853736  0.932803  1
  Hf  Hf6  1  0.750000  0.646108  0.424264  1
  Mg  Mg7  1  0.750000  0.145663  0.074074  1
  Pt  Pt8  1  0.250000  0.227636  0.876659  1
  Pt  Pt9  1  0.250000  0.736307  0.599702  1
  Pt  Pt10  1  0.750000  0.759250  0.106066  1
  Pt  Pt11  1  0.750000  0.272110  0.408142  1
