# generated using pymatgen
data_La4Pr3Y(CdIr)2
_symmetry_space_group_name_H-M   'P 1'
_cell_length_a   10.02189969
_cell_length_b   10.02189948
_cell_length_c   10.07224200
_cell_angle_alpha   59.83369920
_cell_angle_beta   59.83369993
_cell_angle_gamma   60.33261086
_symmetry_Int_Tables_number   1
_chemical_formula_structural   La4Pr3Y(CdIr)2
_chemical_formula_sum   'La8 Pr6 Y2 Cd4 Ir4'
_cell_volume   715.30169338
_cell_formula_units_Z   2
loop_
 _symmetry_equiv_pos_site_id
 _symmetry_equiv_pos_as_xyz
  1  'x, y, z'
loop_
 _atom_site_type_symbol
 _atom_site_label
 _atom_site_symmetry_multiplicity
 _atom_site_fract_x
 _atom_site_fract_y
 _atom_site_fract_z
 _atom_site_occupancy
  La  La0  1  0.345382  0.345382  0.353634  1
  La  La1  1  0.345382  0.345382  0.955603  1
  La  La2  1  0.353634  0.955603  0.345382  1
  La  La3  1  0.955603  0.353634  0.345382  1
  La  La4  1  0.812414  0.187586  0.187586  1
  La  La5  1  0.187586  0.812414  0.812414  1
  La  La6  1  0.187586  0.812414  0.187586  1
  La  La7  1  0.812414  0.187586  0.812414  1
  Pr  Pr8  1  0.937318  0.562682  0.562682  1
  Pr  Pr9  1  0.562682  0.937318  0.937318  1
  Pr  Pr10  1  0.562682  0.937318  0.562682  1
  Pr  Pr11  1  0.937318  0.562682  0.937318  1
  Pr  Pr12  1  0.560648  0.560648  0.939352  1
  Pr  Pr13  1  0.939352  0.939352  0.560648  1
  Y  Y14  1  0.193314  0.193314  0.806686  1
  Y  Y15  1  0.806686  0.806686  0.193314  1
  Cd  Cd16  1  0.581691  0.581691  0.577201  1
  Cd  Cd17  1  0.581691  0.581691  0.259417  1
  Cd  Cd18  1  0.577201  0.259417  0.581691  1
  Cd  Cd19  1  0.259417  0.577201  0.581691  1
  Ir  Ir20  1  0.140481  0.140481  0.140260  1
  Ir  Ir21  1  0.140481  0.140481  0.578780  1
  Ir  Ir22  1  0.140260  0.578780  0.140481  1
  Ir  Ir23  1  0.578780  0.140260  0.140481  1
