# generated using pymatgen
data_Pr2SiI
_symmetry_space_group_name_H-M   'P 1'
_cell_length_a   8.10676199
_cell_length_b   8.10676212
_cell_length_c   8.10676208
_cell_angle_alpha   31.28371045
_cell_angle_beta   31.28370620
_cell_angle_gamma   31.28371211
_symmetry_Int_Tables_number   1
_chemical_formula_structural   Pr2SiI
_chemical_formula_sum   'Pr2 Si1 I1'
_cell_volume   127.49960202
_cell_formula_units_Z   1
loop_
 _symmetry_equiv_pos_site_id
 _symmetry_equiv_pos_as_xyz
  1  'x, y, z'
loop_
 _atom_site_type_symbol
 _atom_site_label
 _atom_site_symmetry_multiplicity
 _atom_site_fract_x
 _atom_site_fract_y
 _atom_site_fract_z
 _atom_site_occupancy
  Pr  Pr0  1  0.233155  0.233155  0.233155  1
  Pr  Pr1  1  0.766846  0.766846  0.766846  1
  Si  Si2  1  0.500000  0.500000  0.500000  1
  I  I3  1  0.000000  0.000000  0.000000  1
