# generated using pymatgen
data_TbReSi2Tc3
_symmetry_space_group_name_H-M   'P 1'
_cell_length_a   7.13880587
_cell_length_b   7.63448897
_cell_length_c   4.16497000
_cell_angle_alpha   90.00000000
_cell_angle_beta   90.00000000
_cell_angle_gamma   90.08026582
_symmetry_Int_Tables_number   1
_chemical_formula_structural   TbReSi2Tc3
_chemical_formula_sum   'Tb2 Re2 Si4 Tc6'
_cell_volume   226.99536810
_cell_formula_units_Z   2
loop_
 _symmetry_equiv_pos_site_id
 _symmetry_equiv_pos_as_xyz
  1  'x, y, z'
loop_
 _atom_site_type_symbol
 _atom_site_label
 _atom_site_symmetry_multiplicity
 _atom_site_fract_x
 _atom_site_fract_y
 _atom_site_fract_z
 _atom_site_occupancy
  Tb  Tb0  1  0.000000  0.000000  0.000000  1
  Tb  Tb1  1  0.500000  0.500000  0.500000  1
  Re  Re2  1  0.581988  0.158122  0.000000  1
  Re  Re3  1  0.418012  0.841878  0.000000  1
  Si  Si4  1  0.275542  0.305275  0.000000  1
  Si  Si5  1  0.724458  0.694725  0.000000  1
  Si  Si6  1  0.777644  0.196135  0.500000  1
  Si  Si7  1  0.222356  0.803865  0.500000  1
  Tc  Tc8  1  0.655425  0.894888  0.500000  1
  Tc  Tc9  1  0.082680  0.342300  0.500000  1
  Tc  Tc10  1  0.344575  0.105112  0.500000  1
  Tc  Tc11  1  0.917320  0.657700  0.500000  1
  Tc  Tc12  1  0.154921  0.605628  0.000000  1
  Tc  Tc13  1  0.845079  0.394372  0.000000  1
