# generated using pymatgen
data_KRbV2P2(O4F)2
_symmetry_space_group_name_H-M   'P 1'
_cell_length_a   6.49820000
_cell_length_b   10.83800200
_cell_length_c   13.04120400
_cell_angle_alpha   90.00000000
_cell_angle_beta   90.00000000
_cell_angle_gamma   90.00000000
_symmetry_Int_Tables_number   1
_chemical_formula_structural   KRbV2P2(O4F)2
_chemical_formula_sum   'K4 Rb4 V8 P8 O32 F8'
_cell_volume   918.45945465
_cell_formula_units_Z   4
loop_
 _symmetry_equiv_pos_site_id
 _symmetry_equiv_pos_as_xyz
  1  'x, y, z'
loop_
 _atom_site_type_symbol
 _atom_site_label
 _atom_site_symmetry_multiplicity
 _atom_site_fract_x
 _atom_site_fract_y
 _atom_site_fract_z
 _atom_site_occupancy
  K  K0  1  0.704074  0.058482  0.105844  1
  K  K1  1  0.295926  0.558482  0.894156  1
  K  K2  1  0.795926  0.058482  0.605844  1
  K  K3  1  0.204074  0.558482  0.394156  1
  Rb  Rb4  1  0.216613  0.813001  0.614547  1
  Rb  Rb5  1  0.716613  0.313001  0.885453  1
  Rb  Rb6  1  0.283387  0.813001  0.114547  1
  Rb  Rb7  1  0.783387  0.313001  0.385453  1
  V  V8  1  0.499406  0.003667  0.385655  1
  V  V9  1  0.500594  0.503667  0.614345  1
  V  V10  1  0.000594  0.003667  0.885655  1
  V  V11  1  0.999406  0.503667  0.114345  1
  V  V12  1  0.254656  0.250992  0.245597  1
  V  V13  1  0.745344  0.750992  0.754403  1
  V  V14  1  0.245344  0.250992  0.745597  1
  V  V15  1  0.754656  0.750992  0.254403  1
  P  P16  1  0.332019  0.251497  0.500190  1
  P  P17  1  0.667981  0.751497  0.499810  1
  P  P18  1  0.167981  0.251497  0.000190  1
  P  P19  1  0.832019  0.751497  0.999810  1
  P  P20  1  0.501181  0.504942  0.179518  1
  P  P21  1  0.498819  0.004942  0.820482  1
  P  P22  1  0.998819  0.504942  0.679518  1
  P  P23  1  0.001181  0.004942  0.320482  1
  O  O24  1  0.484314  0.141513  0.487699  1
  O  O25  1  0.515686  0.641513  0.512301  1
  O  O26  1  0.015686  0.141513  0.987699  1
  O  O27  1  0.984314  0.641513  0.012301  1
  O  O28  1  0.467548  0.368531  0.514443  1
  O  O29  1  0.532452  0.868531  0.485557  1
  O  O30  1  0.032452  0.368531  0.014443  1
  O  O31  1  0.967548  0.868531  0.985557  1
  O  O32  1  0.204466  0.271523  0.401311  1
  O  O33  1  0.795534  0.771523  0.598689  1
  O  O34  1  0.295534  0.271523  0.901311  1
  O  O35  1  0.704466  0.771523  0.098689  1
  O  O36  1  0.189125  0.228556  0.593162  1
  O  O37  1  0.810875  0.728556  0.406838  1
  O  O38  1  0.310875  0.228556  0.093162  1
  O  O39  1  0.689125  0.728556  0.906838  1
  O  O40  1  0.313237  0.533032  0.109755  1
  O  O41  1  0.686763  0.033032  0.890245  1
  O  O42  1  0.186763  0.533032  0.609755  1
  O  O43  1  0.813237  0.033032  0.390245  1
  O  O44  1  0.690277  0.478181  0.111612  1
  O  O45  1  0.309723  0.978181  0.888388  1
  O  O46  1  0.809723  0.478181  0.611612  1
  O  O47  1  0.190277  0.978181  0.388388  1
  O  O48  1  0.538436  0.618202  0.251865  1
  O  O49  1  0.461564  0.118202  0.748135  1
  O  O50  1  0.961564  0.618202  0.751865  1
  O  O51  1  0.038436  0.118202  0.248135  1
  O  O52  1  0.454603  0.393088  0.251373  1
  O  O53  1  0.545397  0.893088  0.748627  1
  O  O54  1  0.045397  0.393088  0.751373  1
  O  O55  1  0.954603  0.893088  0.248627  1
  F  F56  1  0.532288  0.881128  0.271653  1
  F  F57  1  0.467712  0.381128  0.728347  1
  F  F58  1  0.967712  0.881128  0.771653  1
  F  F59  1  0.032288  0.381128  0.228347  1
  F  F60  1  0.482958  0.128835  0.270462  1
  F  F61  1  0.517042  0.628835  0.729538  1
  F  F62  1  0.017042  0.128835  0.770462  1
  F  F63  1  0.982958  0.628835  0.229538  1
