# generated using pymatgen
data_Yb3ErAl18(Ir2Pd)2
_symmetry_space_group_name_H-M   'P 1'
_cell_length_a   7.58010731
_cell_length_b   7.57774265
_cell_length_c   9.53006200
_cell_angle_alpha   90.00000000
_cell_angle_beta   90.00000000
_cell_angle_gamma   119.42150240
_symmetry_Int_Tables_number   1
_chemical_formula_structural   Yb3ErAl18(Ir2Pd)2
_chemical_formula_sum   'Yb3 Er1 Al18 Ir4 Pd2'
_cell_volume   476.80829878
_cell_formula_units_Z   1
loop_
 _symmetry_equiv_pos_site_id
 _symmetry_equiv_pos_as_xyz
  1  'x, y, z'
loop_
 _atom_site_type_symbol
 _atom_site_label
 _atom_site_symmetry_multiplicity
 _atom_site_fract_x
 _atom_site_fract_y
 _atom_site_fract_z
 _atom_site_occupancy
  Yb  Yb0  1  0.995081  0.670744  0.250000  1
  Yb  Yb1  1  0.003495  0.328213  0.750000  1
  Yb  Yb2  1  0.672530  0.995892  0.250000  1
  Er  Er3  1  0.328189  0.001496  0.750000  1
  Al  Al4  1  0.133469  0.134231  0.250000  1
  Al  Al5  1  0.869606  0.866894  0.750000  1
  Al  Al6  1  0.001432  0.338995  0.072476  1
  Al  Al7  1  0.998923  0.660922  0.925262  1
  Al  Al8  1  0.998923  0.660922  0.574738  1
  Al  Al9  1  0.338985  0.001700  0.426357  1
  Al  Al10  1  0.001432  0.338995  0.427524  1
  Al  Al11  1  0.661805  0.999389  0.575038  1
  Al  Al12  1  0.661805  0.999389  0.924962  1
  Al  Al13  1  0.338985  0.001700  0.073643  1
  Al  Al14  1  0.335541  0.335751  0.553177  1
  Al  Al15  1  0.662610  0.662915  0.452617  1
  Al  Al16  1  0.662610  0.662915  0.047383  1
  Al  Al17  1  0.335541  0.335751  0.946823  1
  Al  Al18  1  0.337633  0.548884  0.250000  1
  Al  Al19  1  0.659334  0.449695  0.750000  1
  Al  Al20  1  0.548727  0.338198  0.250000  1
  Al  Al21  1  0.452278  0.664203  0.750000  1
  Ir  Ir22  1  0.670785  0.327903  0.999213  1
  Ir  Ir23  1  0.328692  0.672713  0.999176  1
  Ir  Ir24  1  0.328692  0.672713  0.500824  1
  Ir  Ir25  1  0.670785  0.327903  0.500787  1
  Pd  Pd26  1  0.001057  0.000489  0.998966  1
  Pd  Pd27  1  0.001057  0.000489  0.501034  1
