# generated using pymatgen
data_U2CuGeRu2
_symmetry_space_group_name_H-M   'P 1'
_cell_length_a   5.68989200
_cell_length_b   5.28386346
_cell_length_c   7.88675200
_cell_angle_alpha   90.00000000
_cell_angle_beta   90.00000000
_cell_angle_gamma   122.57625199
_symmetry_Int_Tables_number   1
_chemical_formula_structural   U2CuGeRu2
_chemical_formula_sum   'U4 Cu2 Ge2 Ru4'
_cell_volume   199.80862517
_cell_formula_units_Z   2
loop_
 _symmetry_equiv_pos_site_id
 _symmetry_equiv_pos_as_xyz
  1  'x, y, z'
loop_
 _atom_site_type_symbol
 _atom_site_label
 _atom_site_symmetry_multiplicity
 _atom_site_fract_x
 _atom_site_fract_y
 _atom_site_fract_z
 _atom_site_occupancy
  U  U0  1  0.347730  0.695462  0.414433  1
  U  U1  1  0.652270  0.304538  0.914433  1
  U  U2  1  0.652270  0.304538  0.585567  1
  U  U3  1  0.347730  0.695462  0.085567  1
  Cu  Cu4  1  0.163164  0.326329  0.750000  1
  Cu  Cu5  1  0.836836  0.673671  0.250000  1
  Ge  Ge6  1  0.000000  0.000000  0.500000  1
  Ge  Ge7  1  0.000000  0.000000  0.000000  1
  Ru  Ru8  1  0.155223  0.807764  0.750000  1
  Ru  Ru9  1  0.347458  0.192236  0.250000  1
  Ru  Ru10  1  0.844777  0.192236  0.250000  1
  Ru  Ru11  1  0.652542  0.807764  0.750000  1
