# generated using pymatgen
data_BaLiTbTe3
_symmetry_space_group_name_H-M   'P 1'
_cell_length_a   4.50107800
_cell_length_b   7.81496229
_cell_length_c   11.35315000
_cell_angle_alpha   90.00000000
_cell_angle_beta   90.00000000
_cell_angle_gamma   106.73694653
_symmetry_Int_Tables_number   1
_chemical_formula_structural   BaLiTbTe3
_chemical_formula_sum   'Ba2 Li2 Tb2 Te6'
_cell_volume   382.43771665
_cell_formula_units_Z   2
loop_
 _symmetry_equiv_pos_site_id
 _symmetry_equiv_pos_as_xyz
  1  'x, y, z'
loop_
 _atom_site_type_symbol
 _atom_site_label
 _atom_site_symmetry_multiplicity
 _atom_site_fract_x
 _atom_site_fract_y
 _atom_site_fract_z
 _atom_site_occupancy
  Ba  Ba0  1  0.251251  0.502539  0.250000  1
  Ba  Ba1  1  0.748746  0.497459  0.750002  1
  Li  Li2  1  0.528758  0.057311  0.250003  1
  Li  Li3  1  0.471242  0.942686  0.749999  1
  Tb  Tb4  1  0.999996  0.000002  0.000000  1
  Tb  Tb5  1  0.999998  0.000001  0.500000  1
  Te  Te6  1  0.637402  0.274869  0.056761  1
  Te  Te7  1  0.926722  0.852696  0.250000  1
  Te  Te8  1  0.637408  0.274869  0.443237  1
  Te  Te9  1  0.362593  0.725133  0.556764  1
  Te  Te10  1  0.073277  0.147303  0.749999  1
  Te  Te11  1  0.362589  0.725131  0.943239  1
