# generated using pymatgen
data_Tm4Co4HgTe
_symmetry_space_group_name_H-M   'P 1'
_cell_length_a   3.88452500
_cell_length_b   3.88452533
_cell_length_c   16.39189200
_cell_angle_alpha   90.00000000
_cell_angle_beta   90.00000000
_cell_angle_gamma   119.99998868
_symmetry_Int_Tables_number   1
_chemical_formula_structural   Tm4Co4HgTe
_chemical_formula_sum   'Tm4 Co4 Hg1 Te1'
_cell_volume   214.20797893
_cell_formula_units_Z   1
loop_
 _symmetry_equiv_pos_site_id
 _symmetry_equiv_pos_as_xyz
  1  'x, y, z'
loop_
 _atom_site_type_symbol
 _atom_site_label
 _atom_site_symmetry_multiplicity
 _atom_site_fract_x
 _atom_site_fract_y
 _atom_site_fract_z
 _atom_site_occupancy
  Tm  Tm0  1  0.000000  0.000000  0.110071  1
  Tm  Tm1  1  0.000000  0.000000  0.884196  1
  Tm  Tm2  1  0.000000  0.000000  0.615804  1
  Tm  Tm3  1  0.000000  0.000000  0.389929  1
  Co  Co4  1  0.333333  0.666667  0.502132  1
  Co  Co5  1  0.666667  0.333333  0.499918  1
  Co  Co6  1  0.666667  0.333333  0.000082  1
  Co  Co7  1  0.333333  0.666667  0.997868  1
  Hg  Hg8  1  0.333333  0.666667  0.250000  1
  Te  Te9  1  0.666667  0.333333  0.750000  1
