# generated using pymatgen
data_Mn3Sn3(RuRh2)2
_symmetry_space_group_name_H-M   'P 1'
_cell_length_a   4.43804000
_cell_length_b   6.31131400
_cell_length_c   13.30887801
_cell_angle_alpha   90.00000000
_cell_angle_beta   89.99972809
_cell_angle_gamma   90.00000000
_symmetry_Int_Tables_number   1
_chemical_formula_structural   Mn3Sn3(RuRh2)2
_chemical_formula_sum   'Mn6 Sn6 Ru4 Rh8'
_cell_volume   372.77986297
_cell_formula_units_Z   2
loop_
 _symmetry_equiv_pos_site_id
 _symmetry_equiv_pos_as_xyz
  1  'x, y, z'
loop_
 _atom_site_type_symbol
 _atom_site_label
 _atom_site_symmetry_multiplicity
 _atom_site_fract_x
 _atom_site_fract_y
 _atom_site_fract_z
 _atom_site_occupancy
  Mn  Mn0  1  0.000007  0.000000  0.001444  1
  Mn  Mn1  1  0.500057  0.500000  0.165221  1
  Mn  Mn2  1  0.000034  0.000000  0.330818  1
  Mn  Mn3  1  0.499998  0.500000  0.499642  1
  Mn  Mn4  1  0.999966  0.000000  0.667019  1
  Mn  Mn5  1  0.499952  0.500000  0.835858  1
  Sn  Sn6  1  0.000004  0.500000  0.000472  1
  Sn  Sn7  1  0.500046  0.000000  0.166190  1
  Sn  Sn8  1  0.000036  0.500000  0.331633  1
  Sn  Sn9  1  0.500002  0.000000  0.499634  1
  Sn  Sn10  1  0.999967  0.500000  0.666890  1
  Sn  Sn11  1  0.499928  0.000000  0.835049  1
  Ru  Ru12  1  0.500009  0.250189  0.000263  1
  Ru  Ru13  1  0.500009  0.749811  0.000263  1
  Ru  Ru14  1  0.000043  0.249830  0.166460  1
  Ru  Ru15  1  0.000043  0.750170  0.166460  1
  Rh  Rh16  1  0.500028  0.250650  0.334394  1
  Rh  Rh17  1  0.500028  0.749350  0.334394  1
  Rh  Rh18  1  0.000005  0.249475  0.500248  1
  Rh  Rh19  1  0.000005  0.750523  0.500248  1
  Rh  Rh20  1  0.499966  0.250485  0.666415  1
  Rh  Rh21  1  0.499966  0.749515  0.666415  1
  Rh  Rh22  1  0.999951  0.249409  0.832284  1
  Rh  Rh23  1  0.999951  0.750591  0.832284  1
