# generated using pymatgen
data_Dy3MgCd2Ga2Au
_symmetry_space_group_name_H-M   'P 1'
_cell_length_a   7.38093270
_cell_length_b   7.38093288
_cell_length_c   4.34254600
_cell_angle_alpha   90.00000000
_cell_angle_beta   90.00000000
_cell_angle_gamma   120.36135460
_symmetry_Int_Tables_number   1
_chemical_formula_structural   Dy3MgCd2Ga2Au
_chemical_formula_sum   'Dy3 Mg1 Cd2 Ga2 Au1'
_cell_volume   204.12896894
_cell_formula_units_Z   1
loop_
 _symmetry_equiv_pos_site_id
 _symmetry_equiv_pos_as_xyz
  1  'x, y, z'
loop_
 _atom_site_type_symbol
 _atom_site_label
 _atom_site_symmetry_multiplicity
 _atom_site_fract_x
 _atom_site_fract_y
 _atom_site_fract_z
 _atom_site_occupancy
  Dy  Dy0  1  0.412135  0.412135  0.500000  1
  Dy  Dy1  1  0.584127  0.000448  0.500000  1
  Dy  Dy2  1  0.000448  0.584127  0.500000  1
  Mg  Mg3  1  0.757774  0.757774  0.000000  1
  Cd  Cd4  1  0.254381  0.998871  0.000000  1
  Cd  Cd5  1  0.998871  0.254381  0.000000  1
  Ga  Ga6  1  0.666357  0.337872  0.000000  1
  Ga  Ga7  1  0.337872  0.666357  0.000000  1
  Au  Au8  1  0.988036  0.988036  0.500000  1
