# generated using pymatgen
data_Nd16Hg4Pd3Ru
_symmetry_space_group_name_H-M   'P 1'
_cell_length_a   10.00314796
_cell_length_b   10.00314791
_cell_length_c   10.00314868
_cell_angle_alpha   59.74663615
_cell_angle_beta   59.74663777
_cell_angle_gamma   59.74663714
_symmetry_Int_Tables_number   1
_chemical_formula_structural   Nd16Hg4Pd3Ru
_chemical_formula_sum   'Nd16 Hg4 Pd3 Ru1'
_cell_volume   703.70266903
_cell_formula_units_Z   1
loop_
 _symmetry_equiv_pos_site_id
 _symmetry_equiv_pos_as_xyz
  1  'x, y, z'
loop_
 _atom_site_type_symbol
 _atom_site_label
 _atom_site_symmetry_multiplicity
 _atom_site_fract_x
 _atom_site_fract_y
 _atom_site_fract_z
 _atom_site_occupancy
  Nd  Nd0  1  0.353949  0.353949  0.353949  1
  Nd  Nd1  1  0.350095  0.350095  0.943970  1
  Nd  Nd2  1  0.350095  0.943970  0.350095  1
  Nd  Nd3  1  0.943970  0.350095  0.350095  1
  Nd  Nd4  1  0.817751  0.188756  0.188756  1
  Nd  Nd5  1  0.188291  0.808555  0.808555  1
  Nd  Nd6  1  0.188756  0.817751  0.188756  1
  Nd  Nd7  1  0.808555  0.188291  0.808555  1
  Nd  Nd8  1  0.188756  0.188756  0.817751  1
  Nd  Nd9  1  0.808555  0.808555  0.188291  1
  Nd  Nd10  1  0.936846  0.564518  0.564518  1
  Nd  Nd11  1  0.558973  0.937073  0.937073  1
  Nd  Nd12  1  0.564518  0.936846  0.564518  1
  Nd  Nd13  1  0.937073  0.558973  0.937073  1
  Nd  Nd14  1  0.564518  0.564518  0.936846  1
  Nd  Nd15  1  0.937073  0.937073  0.558973  1
  Hg  Hg16  1  0.583964  0.583964  0.583964  1
  Hg  Hg17  1  0.584740  0.584740  0.244818  1
  Hg  Hg18  1  0.584740  0.244818  0.584740  1
  Hg  Hg19  1  0.244818  0.584740  0.584740  1
  Pd  Pd20  1  0.145820  0.145820  0.568870  1
  Pd  Pd21  1  0.145820  0.568870  0.145820  1
  Pd  Pd22  1  0.568870  0.145820  0.145820  1
  Ru  Ru23  1  0.143455  0.143455  0.143455  1
