# generated using pymatgen
data_Na5P12Ru6Rh13
_symmetry_space_group_name_H-M   'P 1'
_cell_length_a   12.49253888
_cell_length_b   12.54366940
_cell_length_c   3.96742200
_cell_angle_alpha   90.00000000
_cell_angle_beta   90.00000000
_cell_angle_gamma   120.35186976
_symmetry_Int_Tables_number   1
_chemical_formula_structural   Na5P12Ru6Rh13
_chemical_formula_sum   'Na5 P12 Ru6 Rh13'
_cell_volume   536.49234099
_cell_formula_units_Z   1
loop_
 _symmetry_equiv_pos_site_id
 _symmetry_equiv_pos_as_xyz
  1  'x, y, z'
loop_
 _atom_site_type_symbol
 _atom_site_label
 _atom_site_symmetry_multiplicity
 _atom_site_fract_x
 _atom_site_fract_y
 _atom_site_fract_z
 _atom_site_occupancy
  Na  Na0  1  0.668009  0.332712  0.000000  1
  Na  Na1  1  0.332312  0.666761  0.000000  1
  Na  Na2  1  0.999545  0.815663  0.500000  1
  Na  Na3  1  0.816561  0.000135  0.500000  1
  Na  Na4  1  0.182183  0.183676  0.500000  1
  P  P5  1  0.631768  0.997960  0.000000  1
  P  P6  1  0.365844  0.366218  0.000000  1
  P  P7  1  0.000622  0.630215  0.000000  1
  P  P8  1  0.689017  0.521771  0.500000  1
  P  P9  1  0.835469  0.310499  0.500000  1
  P  P10  1  0.315291  0.836185  0.500000  1
  P  P11  1  0.521600  0.691489  0.500000  1
  P  P12  1  0.180353  0.998801  0.000000  1
  P  P13  1  0.818480  0.817266  0.000000  1
  P  P14  1  0.994633  0.179552  0.000000  1
  P  P15  1  0.477413  0.166905  0.500000  1
  P  P16  1  0.163768  0.478289  0.500000  1
  Ru  Ru17  1  0.515382  0.874819  0.500000  1
  Ru  Ru18  1  0.717722  0.716811  0.500000  1
  Ru  Ru19  1  0.001673  0.281210  0.500000  1
  Ru  Ru20  1  0.004069  0.451272  0.000000  1
  Ru  Ru21  1  0.815123  0.195006  0.000000  1
  Ru  Ru22  1  0.281453  0.000189  0.500000  1
  Rh  Rh23  1  0.622593  0.804969  0.000000  1
  Rh  Rh24  1  0.185087  0.378128  0.000000  1
  Rh  Rh25  1  0.376788  0.184073  0.000000  1
  Rh  Rh26  1  0.193666  0.816370  0.000000  1
  Rh  Rh27  1  0.806328  0.621458  0.000000  1
  Rh  Rh28  1  0.872481  0.510254  0.500000  1
  Rh  Rh29  1  0.488378  0.359812  0.500000  1
  Rh  Rh30  1  0.638232  0.130371  0.500000  1
  Rh  Rh31  1  0.129725  0.641826  0.500000  1
  Rh  Rh32  1  0.360116  0.490952  0.500000  1
  Rh  Rh33  1  0.999203  0.999789  0.000000  1
  Rh  Rh34  1  0.451009  0.001684  0.000000  1
  Rh  Rh35  1  0.548102  0.546908  0.000000  1
