# generated using pymatgen
data_Hf4MnBi2
_symmetry_space_group_name_H-M   'P 1'
_cell_length_a   8.24193074
_cell_length_b   8.24193094
_cell_length_c   8.24193069
_cell_angle_alpha   96.04697568
_cell_angle_beta   96.04697282
_cell_angle_gamma   142.12129406
_symmetry_Int_Tables_number   1
_chemical_formula_structural   Hf4MnBi2
_chemical_formula_sum   'Hf8 Mn2 Bi4'
_cell_volume   325.14541002
_cell_formula_units_Z   2
loop_
 _symmetry_equiv_pos_site_id
 _symmetry_equiv_pos_as_xyz
  1  'x, y, z'
loop_
 _atom_site_type_symbol
 _atom_site_label
 _atom_site_symmetry_multiplicity
 _atom_site_fract_x
 _atom_site_fract_y
 _atom_site_fract_z
 _atom_site_occupancy
  Hf  Hf0  1  0.693250  0.580991  0.274242  1
  Hf  Hf1  1  0.306750  0.419009  0.725758  1
  Hf  Hf2  1  0.580991  0.306750  0.887741  1
  Hf  Hf3  1  0.080991  0.193250  0.274242  1
  Hf  Hf4  1  0.806750  0.080991  0.887741  1
  Hf  Hf5  1  0.419009  0.693250  0.112259  1
  Hf  Hf6  1  0.919009  0.806750  0.725758  1
  Hf  Hf7  1  0.193250  0.919009  0.112259  1
  Mn  Mn8  1  0.250000  0.250000  0.000000  1
  Mn  Mn9  1  0.750000  0.750000  0.000000  1
  Bi  Bi10  1  0.138089  0.638089  0.776178  1
  Bi  Bi11  1  0.361911  0.138089  0.500000  1
  Bi  Bi12  1  0.861911  0.361911  0.223822  1
  Bi  Bi13  1  0.638089  0.861911  0.500000  1
