# generated using pymatgen
data_Y2ErIr7Rh2
_symmetry_space_group_name_H-M   'P 1'
_cell_length_a   5.31041100
_cell_length_b   5.31041176
_cell_length_c   17.48141400
_cell_angle_alpha   90.00000000
_cell_angle_beta   90.00000000
_cell_angle_gamma   119.99998902
_symmetry_Int_Tables_number   1
_chemical_formula_structural   Y2ErIr7Rh2
_chemical_formula_sum   'Y4 Er2 Ir14 Rh4'
_cell_volume   426.93677922
_cell_formula_units_Z   2
loop_
 _symmetry_equiv_pos_site_id
 _symmetry_equiv_pos_as_xyz
  1  'x, y, z'
loop_
 _atom_site_type_symbol
 _atom_site_label
 _atom_site_symmetry_multiplicity
 _atom_site_fract_x
 _atom_site_fract_y
 _atom_site_fract_z
 _atom_site_occupancy
  Y  Y0  1  0.666667  0.333333  0.459003  1
  Y  Y1  1  0.333333  0.666667  0.540997  1
  Y  Y2  1  0.333333  0.666667  0.750118  1
  Y  Y3  1  0.666667  0.333333  0.249882  1
  Er  Er4  1  0.333333  0.666667  0.958977  1
  Er  Er5  1  0.666667  0.333333  0.041023  1
  Ir  Ir6  1  0.167536  0.832464  0.374202  1
  Ir  Ir7  1  0.167536  0.335072  0.374202  1
  Ir  Ir8  1  0.664928  0.832464  0.374202  1
  Ir  Ir9  1  0.832464  0.167536  0.625798  1
  Ir  Ir10  1  0.832464  0.664928  0.625798  1
  Ir  Ir11  1  0.335072  0.167536  0.625798  1
  Ir  Ir12  1  0.832320  0.167680  0.874657  1
  Ir  Ir13  1  0.832320  0.664640  0.874657  1
  Ir  Ir14  1  0.335360  0.167680  0.874657  1
  Ir  Ir15  1  0.167680  0.832320  0.125343  1
  Ir  Ir16  1  0.167680  0.335360  0.125343  1
  Ir  Ir17  1  0.664640  0.832320  0.125343  1
  Ir  Ir18  1  0.000000  0.000000  0.500000  1
  Ir  Ir19  1  0.000000  0.000000  0.000000  1
  Rh  Rh20  1  0.333333  0.666667  0.249984  1
  Rh  Rh21  1  0.666667  0.333333  0.750016  1
  Rh  Rh22  1  0.000000  0.000000  0.249911  1
  Rh  Rh23  1  0.000000  0.000000  0.750089  1
