# generated using pymatgen
data_Ho12Th8Sn13Bi3
_symmetry_space_group_name_H-M   'P 1'
_cell_length_a   8.17418908
_cell_length_b   8.20945519
_cell_length_c   15.51317314
_cell_angle_alpha   90.07871937
_cell_angle_beta   89.90394197
_cell_angle_gamma   90.06314857
_symmetry_Int_Tables_number   1
_chemical_formula_structural   Ho12Th8Sn13Bi3
_chemical_formula_sum   'Ho12 Th8 Sn13 Bi3'
_cell_volume   1041.01832124
_cell_formula_units_Z   1
loop_
 _symmetry_equiv_pos_site_id
 _symmetry_equiv_pos_as_xyz
  1  'x, y, z'
loop_
 _atom_site_type_symbol
 _atom_site_label
 _atom_site_symmetry_multiplicity
 _atom_site_fract_x
 _atom_site_fract_y
 _atom_site_fract_z
 _atom_site_occupancy
  Ho  Ho0  1  0.362899  0.835184  0.875063  1
  Ho  Ho1  1  0.866126  0.660412  0.625944  1
  Ho  Ho2  1  0.634128  0.159696  0.373685  1
  Ho  Ho3  1  0.135649  0.341716  0.124595  1
  Ho  Ho4  1  0.642636  0.163293  0.124251  1
  Ho  Ho5  1  0.142109  0.336866  0.375719  1
  Ho  Ho6  1  0.358251  0.837010  0.624295  1
  Ho  Ho7  1  0.862343  0.663064  0.875842  1
  Ho  Ho8  1  0.190970  0.496249  0.750058  1
  Ho  Ho9  1  0.690428  0.003775  0.753354  1
  Ho  Ho10  1  0.808955  0.504226  0.247524  1
  Ho  Ho11  1  0.309145  0.995641  0.252437  1
  Th  Th12  1  0.520063  0.324207  0.903730  1
  Th  Th13  1  0.026185  0.178956  0.597585  1
  Th  Th14  1  0.473844  0.679164  0.402421  1
  Th  Th15  1  0.976379  0.818943  0.096598  1
  Th  Th16  1  0.483273  0.674986  0.095272  1
  Th  Th17  1  0.986350  0.822580  0.403290  1
  Th  Th18  1  0.513414  0.322762  0.596776  1
  Th  Th19  1  0.014807  0.180764  0.903265  1
  Sn  Sn20  1  0.201531  0.540167  0.957821  1
  Sn  Sn21  1  0.703265  0.960374  0.957492  1
  Sn  Sn22  1  0.202728  0.540084  0.542717  1
  Sn  Sn23  1  0.297406  0.040191  0.457578  1
  Sn  Sn24  1  0.799167  0.459862  0.041817  1
  Sn  Sn25  1  0.557921  0.622019  0.748816  1
  Sn  Sn26  1  0.056833  0.879262  0.750294  1
  Sn  Sn27  1  0.443199  0.378256  0.249287  1
  Sn  Sn28  1  0.943762  0.122010  0.250302  1
  Sn  Sn29  1  0.326452  0.142337  0.750928  1
  Sn  Sn30  1  0.825221  0.356947  0.749151  1
  Sn  Sn31  1  0.673180  0.856397  0.249930  1
  Sn  Sn32  1  0.173537  0.643061  0.249454  1
  Bi  Bi33  1  0.297944  0.040829  0.042726  1
  Bi  Bi34  1  0.797154  0.459168  0.457325  1
  Bi  Bi35  1  0.702746  0.959540  0.542659  1
