# generated using pymatgen
data_Tb4CeSn3C
_symmetry_space_group_name_H-M   'P 1'
_cell_length_a   9.01771296
_cell_length_b   9.04314139
_cell_length_c   6.62250900
_cell_angle_alpha   90.00000000
_cell_angle_beta   90.00000000
_cell_angle_gamma   120.09332531
_symmetry_Int_Tables_number   1
_chemical_formula_structural   Tb4CeSn3C
_chemical_formula_sum   'Tb8 Ce2 Sn6 C2'
_cell_volume   467.26121612
_cell_formula_units_Z   2
loop_
 _symmetry_equiv_pos_site_id
 _symmetry_equiv_pos_as_xyz
  1  'x, y, z'
loop_
 _atom_site_type_symbol
 _atom_site_label
 _atom_site_symmetry_multiplicity
 _atom_site_fract_x
 _atom_site_fract_y
 _atom_site_fract_z
 _atom_site_occupancy
  Tb  Tb0  1  0.666887  0.333015  0.001259  1
  Tb  Tb1  1  0.333113  0.666129  0.001259  1
  Tb  Tb2  1  0.333113  0.666129  0.498741  1
  Tb  Tb3  1  0.666887  0.333015  0.498741  1
  Tb  Tb4  1  0.000000  0.219407  0.750000  1
  Tb  Tb5  1  0.216129  0.216374  0.250000  1
  Tb  Tb6  1  0.783871  0.000245  0.250000  1
  Tb  Tb7  1  0.000000  0.785108  0.250000  1
  Ce  Ce8  1  0.787488  0.789011  0.750000  1
  Ce  Ce9  1  0.212512  0.001523  0.750000  1
  Sn  Sn10  1  0.407815  0.409318  0.750000  1
  Sn  Sn11  1  0.592185  0.001503  0.750000  1
  Sn  Sn12  1  0.000000  0.590391  0.750000  1
  Sn  Sn13  1  0.593906  0.594164  0.250000  1
  Sn  Sn14  1  0.406094  0.000258  0.250000  1
  Sn  Sn15  1  0.000000  0.404245  0.250000  1
  C  C16  1  0.000000  0.995082  0.995555  1
  C  C17  1  0.000000  0.995082  0.504445  1
