# generated using pymatgen
data_Dy9Tm(GaSb)4
_symmetry_space_group_name_H-M   'P 1'
_cell_length_a   8.63921748
_cell_length_b   8.63921785
_cell_length_c   7.92530872
_cell_angle_alpha   90.03784539
_cell_angle_beta   90.03784220
_cell_angle_gamma   125.43773741
_symmetry_Int_Tables_number   1
_chemical_formula_structural   Dy9Tm(GaSb)4
_chemical_formula_sum   'Dy9 Tm1 Ga4 Sb4'
_cell_volume   481.93320465
_cell_formula_units_Z   1
loop_
 _symmetry_equiv_pos_site_id
 _symmetry_equiv_pos_as_xyz
  1  'x, y, z'
loop_
 _atom_site_type_symbol
 _atom_site_label
 _atom_site_symmetry_multiplicity
 _atom_site_fract_x
 _atom_site_fract_y
 _atom_site_fract_z
 _atom_site_occupancy
  Dy  Dy0  1  0.038311  0.298781  0.332804  1
  Dy  Dy1  1  0.961689  0.701219  0.667196  1
  Dy  Dy2  1  0.461217  0.200106  0.833083  1
  Dy  Dy3  1  0.799894  0.538783  0.166917  1
  Dy  Dy4  1  0.538783  0.799894  0.166917  1
  Dy  Dy5  1  0.200106  0.461217  0.833083  1
  Dy  Dy6  1  0.701219  0.961689  0.667196  1
  Dy  Dy7  1  0.298781  0.038311  0.332804  1
  Dy  Dy8  1  0.500000  0.500000  0.500000  1
  Tm  Tm9  1  0.000000  0.000000  0.000000  1
  Ga  Ga10  1  0.373277  0.373277  0.124331  1
  Ga  Ga11  1  0.626723  0.626723  0.875669  1
  Ga  Ga12  1  0.124874  0.124874  0.626253  1
  Ga  Ga13  1  0.875126  0.875126  0.373747  1
  Sb  Sb14  1  0.795692  0.204308  0.000000  1
  Sb  Sb15  1  0.204308  0.795692  0.000000  1
  Sb  Sb16  1  0.705108  0.294892  0.500000  1
  Sb  Sb17  1  0.294892  0.705108  0.500000  1
