# generated using pymatgen
data_La12Co4SnPd
_symmetry_space_group_name_H-M   'P 1'
_cell_length_a   8.75758793
_cell_length_b   8.75829044
_cell_length_c   8.75758717
_cell_angle_alpha   112.56889204
_cell_angle_beta   109.92337783
_cell_angle_gamma   105.98525487
_symmetry_Int_Tables_number   1
_chemical_formula_structural   La12Co4SnPd
_chemical_formula_sum   'La12 Co4 Sn1 Pd1'
_cell_volume   515.39377578
_cell_formula_units_Z   1
loop_
 _symmetry_equiv_pos_site_id
 _symmetry_equiv_pos_as_xyz
  1  'x, y, z'
loop_
 _atom_site_type_symbol
 _atom_site_label
 _atom_site_symmetry_multiplicity
 _atom_site_fract_x
 _atom_site_fract_y
 _atom_site_fract_z
 _atom_site_occupancy
  La  La0  1  0.396742  0.201398  0.195345  1
  La  La1  1  0.603258  0.798602  0.804655  1
  La  La2  1  0.006053  0.201398  0.804657  1
  La  La3  1  0.993947  0.798602  0.195343  1
  La  La4  1  0.179354  0.311655  0.491005  1
  La  La5  1  0.820646  0.688345  0.508995  1
  La  La6  1  0.179350  0.688345  0.867701  1
  La  La7  1  0.820650  0.311655  0.132299  1
  La  La8  1  0.327253  0.639963  0.312710  1
  La  La9  1  0.672747  0.360037  0.687290  1
  La  La10  1  0.327294  0.014534  0.687240  1
  La  La11  1  0.672706  0.985466  0.312760  1
  Co  Co12  1  0.351980  0.000000  0.351980  1
  Co  Co13  1  0.648020  0.000000  0.648020  1
  Co  Co14  1  0.133246  0.633248  0.500003  1
  Co  Co15  1  0.866754  0.366752  0.499997  1
  Sn  Sn16  1  0.500000  0.500000  0.000000  1
  Pd  Pd17  1  0.000000  0.000000  0.000000  1
