# generated using pymatgen
data_NdHfCrB6
_symmetry_space_group_name_H-M   'P 1'
_cell_length_a   3.52351800
_cell_length_b   9.09614000
_cell_length_c   11.53735700
_cell_angle_alpha   90.00000000
_cell_angle_beta   90.00000000
_cell_angle_gamma   90.00000000
_symmetry_Int_Tables_number   1
_chemical_formula_structural   NdHfCrB6
_chemical_formula_sum   'Nd4 Hf4 Cr4 B24'
_cell_volume   369.77705702
_cell_formula_units_Z   4
loop_
 _symmetry_equiv_pos_site_id
 _symmetry_equiv_pos_as_xyz
  1  'x, y, z'
loop_
 _atom_site_type_symbol
 _atom_site_label
 _atom_site_symmetry_multiplicity
 _atom_site_fract_x
 _atom_site_fract_y
 _atom_site_fract_z
 _atom_site_occupancy
  Nd  Nd0  1  0.000000  0.822262  0.084679  1
  Nd  Nd1  1  0.000000  0.177738  0.915321  1
  Nd  Nd2  1  0.000000  0.322262  0.415321  1
  Nd  Nd3  1  0.000000  0.677738  0.584679  1
  Hf  Hf4  1  0.000000  0.444443  0.129497  1
  Hf  Hf5  1  0.000000  0.555557  0.870503  1
  Hf  Hf6  1  0.000000  0.944443  0.370503  1
  Hf  Hf7  1  0.000000  0.055557  0.629497  1
  Cr  Cr8  1  0.000000  0.142924  0.183969  1
  Cr  Cr9  1  0.000000  0.857076  0.816031  1
  Cr  Cr10  1  0.000000  0.642924  0.316031  1
  Cr  Cr11  1  0.000000  0.357076  0.683969  1
  B  B12  1  0.500000  0.056654  0.070731  1
  B  B13  1  0.500000  0.943346  0.929269  1
  B  B14  1  0.500000  0.556654  0.429269  1
  B  B15  1  0.500000  0.443346  0.570731  1
  B  B16  1  0.500000  0.253627  0.085181  1
  B  B17  1  0.500000  0.746373  0.914819  1
  B  B18  1  0.500000  0.753627  0.414819  1
  B  B19  1  0.500000  0.246373  0.585181  1
  B  B20  1  0.500000  0.294823  0.234769  1
  B  B21  1  0.500000  0.705177  0.765231  1
  B  B22  1  0.500000  0.794823  0.265231  1
  B  B23  1  0.500000  0.205177  0.734769  1
  B  B24  1  0.500000  0.128745  0.316001  1
  B  B25  1  0.500000  0.871255  0.683999  1
  B  B26  1  0.500000  0.628745  0.183999  1
  B  B27  1  0.500000  0.371255  0.816001  1
  B  B28  1  0.500000  0.483879  0.285332  1
  B  B29  1  0.500000  0.516121  0.714668  1
  B  B30  1  0.500000  0.983879  0.214668  1
  B  B31  1  0.500000  0.016121  0.785332  1
  B  B32  1  0.500000  0.096298  0.474501  1
  B  B33  1  0.500000  0.903702  0.525499  1
  B  B34  1  0.500000  0.596298  0.025499  1
  B  B35  1  0.500000  0.403702  0.974501  1
