# generated using pymatgen
data_Mn20Cr2NiC6
_symmetry_space_group_name_H-M   'P 1'
_cell_length_a   7.34700031
_cell_length_b   7.34699963
_cell_length_c   7.34700000
_cell_angle_alpha   59.99999832
_cell_angle_beta   60.00000140
_cell_angle_gamma   60.00000046
_symmetry_Int_Tables_number   1
_chemical_formula_structural   Mn20Cr2NiC6
_chemical_formula_sum   'Mn20 Cr2 Ni1 C6'
_cell_volume   280.42396049
_cell_formula_units_Z   1
loop_
 _symmetry_equiv_pos_site_id
 _symmetry_equiv_pos_as_xyz
  1  'x, y, z'
loop_
 _atom_site_type_symbol
 _atom_site_label
 _atom_site_symmetry_multiplicity
 _atom_site_fract_x
 _atom_site_fract_y
 _atom_site_fract_z
 _atom_site_occupancy
  Mn  Mn0  1  0.856384  0.381206  0.381206  1
  Mn  Mn1  1  0.381206  0.856384  0.381206  1
  Mn  Mn2  1  0.381206  0.381206  0.856384  1
  Mn  Mn3  1  0.381206  0.381206  0.381206  1
  Mn  Mn4  1  0.143616  0.618794  0.618794  1
  Mn  Mn5  1  0.618794  0.143616  0.618794  1
  Mn  Mn6  1  0.618794  0.618794  0.143616  1
  Mn  Mn7  1  0.618794  0.618794  0.618794  1
  Mn  Mn8  1  0.662747  0.000000  0.000000  1
  Mn  Mn9  1  0.662747  0.000000  0.337253  1
  Mn  Mn10  1  0.662747  0.337253  0.000000  1
  Mn  Mn11  1  0.000000  0.662747  0.337253  1
  Mn  Mn12  1  0.000000  0.662747  0.000000  1
  Mn  Mn13  1  0.337253  0.662747  0.000000  1
  Mn  Mn14  1  0.000000  0.337253  0.662747  1
  Mn  Mn15  1  0.337253  0.000000  0.662747  1
  Mn  Mn16  1  0.000000  0.000000  0.662747  1
  Mn  Mn17  1  0.337253  0.000000  0.000000  1
  Mn  Mn18  1  0.000000  0.337253  0.000000  1
  Mn  Mn19  1  0.000000  0.000000  0.337253  1
  Cr  Cr20  1  0.250000  0.250000  0.250000  1
  Cr  Cr21  1  0.750000  0.750000  0.750000  1
  Ni  Ni22  1  0.000000  0.000000  0.000000  1
  C  C23  1  0.724870  0.275130  0.275130  1
  C  C24  1  0.724870  0.275130  0.724870  1
  C  C25  1  0.724870  0.724870  0.275130  1
  C  C26  1  0.275130  0.724870  0.724870  1
  C  C27  1  0.275130  0.724870  0.275130  1
  C  C28  1  0.275130  0.275130  0.724870  1
