# generated using pymatgen
data_Ba6YCd(BO3)6
_symmetry_space_group_name_H-M   'P 1'
_cell_length_a   8.19164210
_cell_length_b   8.19164184
_cell_length_c   8.19164304
_cell_angle_alpha   105.62618241
_cell_angle_beta   105.62618076
_cell_angle_gamma   105.62618524
_symmetry_Int_Tables_number   1
_chemical_formula_structural   Ba6YCd(BO3)6
_chemical_formula_sum   'Ba6 Y1 Cd1 B6 O18'
_cell_volume   473.89279300
_cell_formula_units_Z   1
loop_
 _symmetry_equiv_pos_site_id
 _symmetry_equiv_pos_as_xyz
  1  'x, y, z'
loop_
 _atom_site_type_symbol
 _atom_site_label
 _atom_site_symmetry_multiplicity
 _atom_site_fract_x
 _atom_site_fract_y
 _atom_site_fract_z
 _atom_site_occupancy
  Ba  Ba0  1  0.648328  0.268768  0.165872  1
  Ba  Ba1  1  0.165872  0.648328  0.268767  1
  Ba  Ba2  1  0.731232  0.834128  0.351672  1
  Ba  Ba3  1  0.268768  0.165872  0.648328  1
  Ba  Ba4  1  0.834128  0.351672  0.731232  1
  Ba  Ba5  1  0.351672  0.731232  0.834128  1
  Y  Y6  1  0.000000  0.000000  0.000000  1
  Cd  Cd7  1  0.500000  0.500000  0.500000  1
  B  B8  1  0.292547  0.374596  0.041937  1
  B  B9  1  0.374596  0.041938  0.292547  1
  B  B10  1  0.041938  0.292547  0.374596  1
  B  B11  1  0.958062  0.707453  0.625404  1
  B  B12  1  0.625404  0.958062  0.707453  1
  B  B13  1  0.707453  0.625404  0.958062  1
  O  O14  1  0.739314  0.811686  0.011140  1
  O  O15  1  0.806545  0.559354  0.070888  1
  O  O16  1  0.988860  0.260686  0.188314  1
  O  O17  1  0.440645  0.929111  0.193455  1
  O  O18  1  0.432370  0.497788  0.205104  1
  O  O19  1  0.188314  0.988860  0.260686  1
  O  O20  1  0.497788  0.205104  0.432369  1
  O  O21  1  0.929111  0.193456  0.440645  1
  O  O22  1  0.205104  0.432370  0.497788  1
  O  O23  1  0.794896  0.567630  0.502212  1
  O  O24  1  0.070889  0.806544  0.559355  1
  O  O25  1  0.502212  0.794896  0.567631  1
  O  O26  1  0.811686  0.011140  0.739314  1
  O  O27  1  0.567630  0.502212  0.794896  1
  O  O28  1  0.559355  0.070889  0.806545  1
  O  O29  1  0.011140  0.739314  0.811686  1
  O  O30  1  0.193455  0.440646  0.929112  1
  O  O31  1  0.260686  0.188314  0.988860  1
