# generated using pymatgen
data_Li8Dy3Ho5Sn7Sb
_symmetry_space_group_name_H-M   'P 1'
_cell_length_a   9.37108100
_cell_length_b   9.37228874
_cell_length_c   7.24816303
_cell_angle_alpha   90.06692493
_cell_angle_beta   90.00000000
_cell_angle_gamma   119.99574088
_symmetry_Int_Tables_number   1
_chemical_formula_structural   Li8Dy3Ho5Sn7Sb
_chemical_formula_sum   'Li8 Dy3 Ho5 Sn7 Sb1'
_cell_volume   551.33070294
_cell_formula_units_Z   1
loop_
 _symmetry_equiv_pos_site_id
 _symmetry_equiv_pos_as_xyz
  1  'x, y, z'
loop_
 _atom_site_type_symbol
 _atom_site_label
 _atom_site_symmetry_multiplicity
 _atom_site_fract_x
 _atom_site_fract_y
 _atom_site_fract_z
 _atom_site_occupancy
  Li  Li0  1  0.166739  0.333478  0.287950  1
  Li  Li1  1  0.167100  0.833355  0.288132  1
  Li  Li2  1  0.666254  0.833355  0.288132  1
  Li  Li3  1  0.833344  0.666688  0.788186  1
  Li  Li4  1  0.832342  0.166193  0.789358  1
  Li  Li5  1  0.333852  0.166193  0.789358  1
  Li  Li6  1  0.333660  0.667322  0.671503  1
  Li  Li7  1  0.666691  0.333382  0.172286  1
  Dy  Dy8  1  0.512015  0.024029  0.493992  1
  Dy  Dy9  1  0.514523  0.489924  0.491869  1
  Dy  Dy10  1  0.975401  0.489924  0.491869  1
  Ho  Ho11  1  0.487965  0.975933  0.994344  1
  Ho  Ho12  1  0.490078  0.512340  0.995002  1
  Ho  Ho13  1  0.022261  0.512340  0.995002  1
  Ho  Ho14  1  0.998894  0.997787  0.498241  1
  Ho  Ho15  1  0.999072  0.998145  0.001196  1
  Sn  Sn16  1  0.166457  0.832778  0.730727  1
  Sn  Sn17  1  0.666320  0.832778  0.730727  1
  Sn  Sn18  1  0.833500  0.667000  0.230628  1
  Sn  Sn19  1  0.834296  0.167438  0.230017  1
  Sn  Sn20  1  0.333142  0.167438  0.230017  1
  Sn  Sn21  1  0.332714  0.665428  0.259604  1
  Sn  Sn22  1  0.666821  0.333642  0.761282  1
  Sb  Sb23  1  0.166556  0.333113  0.732549  1
