# generated using pymatgen
data_Ho4PaIn15
_symmetry_space_group_name_H-M   'P 1'
_cell_length_a   4.54295300
_cell_length_b   4.54295300
_cell_length_c   22.65785800
_cell_angle_alpha   90.00000000
_cell_angle_beta   90.00000000
_cell_angle_gamma   90.00000000
_symmetry_Int_Tables_number   1
_chemical_formula_structural   Ho4PaIn15
_chemical_formula_sum   'Ho4 Pa1 In15'
_cell_volume   467.62243412
_cell_formula_units_Z   1
loop_
 _symmetry_equiv_pos_site_id
 _symmetry_equiv_pos_as_xyz
  1  'x, y, z'
loop_
 _atom_site_type_symbol
 _atom_site_label
 _atom_site_symmetry_multiplicity
 _atom_site_fract_x
 _atom_site_fract_y
 _atom_site_fract_z
 _atom_site_occupancy
  Ho  Ho0  1  0.000000  0.000000  0.199997  1
  Ho  Ho1  1  0.000000  0.000000  0.399362  1
  Ho  Ho2  1  0.000000  0.000000  0.600638  1
  Ho  Ho3  1  0.000000  0.000000  0.800003  1
  Pa  Pa4  1  0.000000  0.000000  0.000000  1
  In  In5  1  0.500000  0.500000  0.000000  1
  In  In6  1  0.500000  0.500000  0.197805  1
  In  In7  1  0.500000  0.500000  0.398849  1
  In  In8  1  0.500000  0.500000  0.601151  1
  In  In9  1  0.500000  0.500000  0.802195  1
  In  In10  1  0.500000  0.000000  0.099898  1
  In  In11  1  0.500000  0.000000  0.298992  1
  In  In12  1  0.500000  0.000000  0.500000  1
  In  In13  1  0.500000  0.000000  0.701008  1
  In  In14  1  0.500000  0.000000  0.900102  1
  In  In15  1  0.000000  0.500000  0.099898  1
  In  In16  1  0.000000  0.500000  0.298992  1
  In  In17  1  0.000000  0.500000  0.500000  1
  In  In18  1  0.000000  0.500000  0.701008  1
  In  In19  1  0.000000  0.500000  0.900102  1
