# generated using pymatgen
data_SrEu5(CrN3)2
_symmetry_space_group_name_H-M   'P 1'
_cell_length_a   7.52821537
_cell_length_b   7.56246974
_cell_length_c   5.18302600
_cell_angle_alpha   90.00000000
_cell_angle_beta   90.00000000
_cell_angle_gamma   119.29729291
_symmetry_Int_Tables_number   1
_chemical_formula_structural   SrEu5(CrN3)2
_chemical_formula_sum   'Sr1 Eu5 Cr2 N6'
_cell_volume   257.33660748
_cell_formula_units_Z   1
loop_
 _symmetry_equiv_pos_site_id
 _symmetry_equiv_pos_as_xyz
  1  'x, y, z'
loop_
 _atom_site_type_symbol
 _atom_site_label
 _atom_site_symmetry_multiplicity
 _atom_site_fract_x
 _atom_site_fract_y
 _atom_site_fract_z
 _atom_site_occupancy
  Sr  Sr0  1  0.263046  0.912925  0.750000  1
  Eu  Eu1  1  0.727726  0.084761  0.250000  1
  Eu  Eu2  1  0.637037  0.724958  0.750000  1
  Eu  Eu3  1  0.087347  0.361113  0.750000  1
  Eu  Eu4  1  0.909759  0.633869  0.250000  1
  Eu  Eu5  1  0.365281  0.277801  0.250000  1
  Cr  Cr6  1  0.334632  0.666308  0.250000  1
  Cr  Cr7  1  0.665204  0.332176  0.750000  1
  N  N8  1  0.695138  0.115550  0.750000  1
  N  N9  1  0.578743  0.687483  0.250000  1
  N  N10  1  0.113837  0.424934  0.250000  1
  N  N11  1  0.883116  0.572909  0.750000  1
  N  N12  1  0.425307  0.319506  0.750000  1
  N  N13  1  0.313827  0.885709  0.250000  1
