# generated using pymatgen
data_Ac2DyCuS5
_symmetry_space_group_name_H-M   'P 1'
_cell_length_a   11.98879200
_cell_length_b   4.04110800
_cell_length_c   17.45172900
_cell_angle_alpha   90.00000000
_cell_angle_beta   90.00000000
_cell_angle_gamma   90.00000000
_symmetry_Int_Tables_number   1
_chemical_formula_structural   Ac2DyCuS5
_chemical_formula_sum   'Ac8 Dy4 Cu4 S20'
_cell_volume   845.50142351
_cell_formula_units_Z   4
loop_
 _symmetry_equiv_pos_site_id
 _symmetry_equiv_pos_as_xyz
  1  'x, y, z'
loop_
 _atom_site_type_symbol
 _atom_site_label
 _atom_site_symmetry_multiplicity
 _atom_site_fract_x
 _atom_site_fract_y
 _atom_site_fract_z
 _atom_site_occupancy
  Ac  Ac0  1  0.359884  0.249999  0.101670  1
  Ac  Ac1  1  0.008098  0.249999  0.170615  1
  Ac  Ac2  1  0.508098  0.249999  0.329385  1
  Ac  Ac3  1  0.859884  0.249999  0.398330  1
  Ac  Ac4  1  0.140115  0.750001  0.601670  1
  Ac  Ac5  1  0.491902  0.750001  0.670615  1
  Ac  Ac6  1  0.991902  0.750001  0.829385  1
  Ac  Ac7  1  0.640116  0.750001  0.898330  1
  Dy  Dy8  1  0.693051  0.750001  0.138244  1
  Dy  Dy9  1  0.193052  0.750001  0.361757  1
  Dy  Dy10  1  0.806948  0.249999  0.638244  1
  Dy  Dy11  1  0.306949  0.249999  0.861756  1
  Cu  Cu12  1  0.820879  0.249999  0.018808  1
  Cu  Cu13  1  0.320878  0.249999  0.481192  1
  Cu  Cu14  1  0.679121  0.750001  0.518807  1
  Cu  Cu15  1  0.179121  0.750001  0.981193  1
  S  S16  1  0.618680  0.249999  0.035639  1
  S  S17  1  0.892389  0.750001  0.068464  1
  S  S18  1  0.177761  0.750001  0.112791  1
  S  S19  1  0.483859  0.750001  0.199405  1
  S  S20  1  0.754655  0.249999  0.229991  1
  S  S21  1  0.254655  0.249999  0.270009  1
  S  S22  1  0.983860  0.750001  0.300594  1
  S  S23  1  0.677760  0.750001  0.387210  1
  S  S24  1  0.392389  0.750001  0.431536  1
  S  S25  1  0.118680  0.249999  0.464361  1
  S  S26  1  0.881320  0.750001  0.535639  1
  S  S27  1  0.607611  0.249999  0.568465  1
  S  S28  1  0.322240  0.249999  0.612791  1
  S  S29  1  0.016140  0.249999  0.699405  1
  S  S30  1  0.745345  0.750001  0.729991  1
  S  S31  1  0.245345  0.750001  0.770008  1
  S  S32  1  0.516141  0.249999  0.800594  1
  S  S33  1  0.822240  0.249999  0.887210  1
  S  S34  1  0.107612  0.249999  0.931536  1
  S  S35  1  0.381320  0.750001  0.964361  1
