# generated using pymatgen
data_LiHoB6Ir
_symmetry_space_group_name_H-M   'P 1'
_cell_length_a   3.51629900
_cell_length_b   8.81597100
_cell_length_c   11.20521000
_cell_angle_alpha   90.00000000
_cell_angle_beta   90.00000000
_cell_angle_gamma   90.00000000
_symmetry_Int_Tables_number   1
_chemical_formula_structural   LiHoB6Ir
_chemical_formula_sum   'Li4 Ho4 B24 Ir4'
_cell_volume   347.35691599
_cell_formula_units_Z   4
loop_
 _symmetry_equiv_pos_site_id
 _symmetry_equiv_pos_as_xyz
  1  'x, y, z'
loop_
 _atom_site_type_symbol
 _atom_site_label
 _atom_site_symmetry_multiplicity
 _atom_site_fract_x
 _atom_site_fract_y
 _atom_site_fract_z
 _atom_site_occupancy
  Li  Li0  1  0.500000  0.446027  0.123099  1
  Li  Li1  1  0.500000  0.553973  0.876901  1
  Li  Li2  1  0.500000  0.053973  0.623099  1
  Li  Li3  1  0.500000  0.946027  0.376901  1
  Ho  Ho4  1  0.500000  0.316725  0.414284  1
  Ho  Ho5  1  0.500000  0.683275  0.585716  1
  Ho  Ho6  1  0.500000  0.183275  0.914284  1
  Ho  Ho7  1  0.500000  0.816725  0.085716  1
  B  B8  1  0.000000  0.090861  0.475063  1
  B  B9  1  0.000000  0.909139  0.524937  1
  B  B10  1  0.000000  0.409139  0.975063  1
  B  B11  1  0.000000  0.590861  0.024937  1
  B  B12  1  0.000000  0.124263  0.318890  1
  B  B13  1  0.000000  0.875737  0.681110  1
  B  B14  1  0.000000  0.375737  0.818890  1
  B  B15  1  0.000000  0.624263  0.181110  1
  B  B16  1  0.000000  0.055677  0.067664  1
  B  B17  1  0.000000  0.944323  0.932336  1
  B  B18  1  0.000000  0.444323  0.567664  1
  B  B19  1  0.000000  0.555677  0.432336  1
  B  B20  1  0.000000  0.479177  0.285248  1
  B  B21  1  0.000000  0.520823  0.714752  1
  B  B22  1  0.000000  0.020823  0.785248  1
  B  B23  1  0.000000  0.979177  0.214752  1
  B  B24  1  0.000000  0.258532  0.082011  1
  B  B25  1  0.000000  0.741468  0.917989  1
  B  B26  1  0.000000  0.241468  0.582011  1
  B  B27  1  0.000000  0.758532  0.417989  1
  B  B28  1  0.000000  0.293479  0.235875  1
  B  B29  1  0.000000  0.706521  0.764125  1
  B  B30  1  0.000000  0.206521  0.735875  1
  B  B31  1  0.000000  0.793479  0.264125  1
  Ir  Ir32  1  0.500000  0.140579  0.181993  1
  Ir  Ir33  1  0.500000  0.859421  0.818007  1
  Ir  Ir34  1  0.500000  0.359421  0.681993  1
  Ir  Ir35  1  0.500000  0.640579  0.318007  1
