# generated using pymatgen
data_ErCdIr2O7
_symmetry_space_group_name_H-M   'P 1'
_cell_length_a   7.34366665
_cell_length_b   7.24008896
_cell_length_c   7.24008836
_cell_angle_alpha   59.29147408
_cell_angle_beta   59.52561271
_cell_angle_gamma   59.52561520
_symmetry_Int_Tables_number   1
_chemical_formula_structural   ErCdIr2O7
_chemical_formula_sum   'Er2 Cd2 Ir4 O14'
_cell_volume   268.77452741
_cell_formula_units_Z   2
loop_
 _symmetry_equiv_pos_site_id
 _symmetry_equiv_pos_as_xyz
  1  'x, y, z'
loop_
 _atom_site_type_symbol
 _atom_site_label
 _atom_site_symmetry_multiplicity
 _atom_site_fract_x
 _atom_site_fract_y
 _atom_site_fract_z
 _atom_site_occupancy
  Er  Er0  1  0.625000  0.125000  0.125000  1
  Er  Er1  1  0.125000  0.125000  0.125000  1
  Cd  Cd2  1  0.125000  0.625000  0.125000  1
  Cd  Cd3  1  0.125000  0.125000  0.625000  1
  Ir  Ir4  1  0.125000  0.625000  0.625000  1
  Ir  Ir5  1  0.625000  0.125000  0.625000  1
  Ir  Ir6  1  0.625000  0.625000  0.125000  1
  Ir  Ir7  1  0.625000  0.625000  0.625000  1
  O  O8  1  0.696113  0.713720  0.293460  1
  O  O9  1  0.296706  0.293460  0.713720  1
  O  O10  1  0.696113  0.293460  0.713720  1
  O  O11  1  0.296706  0.713720  0.293460  1
  O  O12  1  0.299713  0.700287  0.700287  1
  O  O13  1  0.710491  0.289509  0.289509  1
  O  O14  1  0.553887  0.536280  0.956540  1
  O  O15  1  0.953294  0.956540  0.536280  1
  O  O16  1  0.553887  0.956540  0.536280  1
  O  O17  1  0.953294  0.536280  0.956540  1
  O  O18  1  0.950287  0.549713  0.549713  1
  O  O19  1  0.539509  0.960491  0.960491  1
  O  O20  1  0.252821  0.247179  0.247179  1
  O  O21  1  0.997179  0.002821  0.002821  1
