# generated using pymatgen
data_CdAg5BiO6
_symmetry_space_group_name_H-M   'P 1'
_cell_length_a   6.05180800
_cell_length_b   6.05180760
_cell_length_c   12.77106300
_cell_angle_alpha   90.00000000
_cell_angle_beta   90.00000000
_cell_angle_gamma   120.00000221
_symmetry_Int_Tables_number   1
_chemical_formula_structural   CdAg5BiO6
_chemical_formula_sum   'Cd2 Ag10 Bi2 O12'
_cell_volume   405.06798775
_cell_formula_units_Z   2
loop_
 _symmetry_equiv_pos_site_id
 _symmetry_equiv_pos_as_xyz
  1  'x, y, z'
loop_
 _atom_site_type_symbol
 _atom_site_label
 _atom_site_symmetry_multiplicity
 _atom_site_fract_x
 _atom_site_fract_y
 _atom_site_fract_z
 _atom_site_occupancy
  Cd  Cd0  1  0.666667  0.333333  0.750000  1
  Cd  Cd1  1  0.333333  0.666667  0.250000  1
  Ag  Ag2  1  0.000000  0.000000  0.879391  1
  Ag  Ag3  1  0.000000  0.000000  0.379391  1
  Ag  Ag4  1  0.000000  0.000000  0.120609  1
  Ag  Ag5  1  0.000000  0.000000  0.620609  1
  Ag  Ag6  1  0.500000  0.500000  0.000000  1
  Ag  Ag7  1  0.000000  0.500000  0.000000  1
  Ag  Ag8  1  0.500000  0.000000  0.000000  1
  Ag  Ag9  1  0.000000  0.500000  0.500000  1
  Ag  Ag10  1  0.500000  0.000000  0.500000  1
  Ag  Ag11  1  0.500000  0.500000  0.500000  1
  Bi  Bi12  1  0.333333  0.666667  0.750000  1
  Bi  Bi13  1  0.666667  0.333333  0.250000  1
  O  O14  1  0.621442  0.639528  0.845439  1
  O  O15  1  0.018087  0.378558  0.845439  1
  O  O16  1  0.360472  0.981913  0.845439  1
  O  O17  1  0.981913  0.360472  0.345439  1
  O  O18  1  0.378558  0.018087  0.345439  1
  O  O19  1  0.639528  0.621442  0.345439  1
  O  O20  1  0.378558  0.360472  0.154561  1
  O  O21  1  0.981913  0.621442  0.154561  1
  O  O22  1  0.639528  0.018087  0.154561  1
  O  O23  1  0.018087  0.639528  0.654561  1
  O  O24  1  0.621442  0.981913  0.654561  1
  O  O25  1  0.360472  0.378558  0.654561  1
