# generated using pymatgen
data_Tb9ErPb8
_symmetry_space_group_name_H-M   'P 1'
_cell_length_a   8.23341900
_cell_length_b   8.31993027
_cell_length_c   15.71504000
_cell_angle_alpha   90.00000000
_cell_angle_beta   90.00000000
_cell_angle_gamma   90.01454444
_symmetry_Int_Tables_number   1
_chemical_formula_structural   Tb9ErPb8
_chemical_formula_sum   'Tb18 Er2 Pb16'
_cell_volume   1076.50333703
_cell_formula_units_Z   2
loop_
 _symmetry_equiv_pos_site_id
 _symmetry_equiv_pos_as_xyz
  1  'x, y, z'
loop_
 _atom_site_type_symbol
 _atom_site_label
 _atom_site_symmetry_multiplicity
 _atom_site_fract_x
 _atom_site_fract_y
 _atom_site_fract_z
 _atom_site_occupancy
  Tb  Tb0  1  0.377283  0.840630  0.879659  1
  Tb  Tb1  1  0.877687  0.659096  0.620524  1
  Tb  Tb2  1  0.622232  0.159031  0.379457  1
  Tb  Tb3  1  0.122828  0.340631  0.120470  1
  Tb  Tb4  1  0.622232  0.159031  0.120543  1
  Tb  Tb5  1  0.122828  0.340631  0.379530  1
  Tb  Tb6  1  0.377283  0.840630  0.620341  1
  Tb  Tb7  1  0.877687  0.659096  0.879476  1
  Tb  Tb8  1  0.534439  0.323557  0.899793  1
  Tb  Tb9  1  0.034655  0.176744  0.600075  1
  Tb  Tb10  1  0.465336  0.676832  0.399877  1
  Tb  Tb11  1  0.965630  0.823617  0.100213  1
  Tb  Tb12  1  0.465336  0.676832  0.100123  1
  Tb  Tb13  1  0.965630  0.823617  0.399787  1
  Tb  Tb14  1  0.534439  0.323557  0.600207  1
  Tb  Tb15  1  0.034655  0.176744  0.899925  1
  Tb  Tb16  1  0.709083  0.996382  0.750000  1
  Tb  Tb17  1  0.790995  0.496403  0.250000  1
  Er  Er18  1  0.209068  0.503896  0.750000  1
  Er  Er19  1  0.290803  0.004081  0.250000  1
  Pb  Pb20  1  0.281053  0.032953  0.043526  1
  Pb  Pb21  1  0.780951  0.466662  0.457075  1
  Pb  Pb22  1  0.719151  0.966683  0.542653  1
  Pb  Pb23  1  0.218834  0.532940  0.956825  1
  Pb  Pb24  1  0.719151  0.966683  0.957347  1
  Pb  Pb25  1  0.218834  0.532940  0.543175  1
  Pb  Pb26  1  0.281053  0.032953  0.456474  1
  Pb  Pb27  1  0.780951  0.466662  0.042925  1
  Pb  Pb28  1  0.572487  0.625124  0.750000  1
  Pb  Pb29  1  0.073814  0.873940  0.750000  1
  Pb  Pb30  1  0.426512  0.374165  0.250000  1
  Pb  Pb31  1  0.927410  0.124885  0.250000  1
  Pb  Pb32  1  0.345845  0.153115  0.750000  1
  Pb  Pb33  1  0.846866  0.348014  0.750000  1
  Pb  Pb34  1  0.653147  0.847883  0.250000  1
  Pb  Pb35  1  0.153810  0.653359  0.250000  1
