# generated using pymatgen
data_Eu2HfCrF14
_symmetry_space_group_name_H-M   'P 1'
_cell_length_a   5.74739056
_cell_length_b   6.04248776
_cell_length_c   8.36358398
_cell_angle_alpha   101.53756294
_cell_angle_beta   90.17039140
_cell_angle_gamma   89.79449997
_symmetry_Int_Tables_number   1
_chemical_formula_structural   Eu2HfCrF14
_chemical_formula_sum   'Eu2 Hf1 Cr1 F14'
_cell_volume   284.58345602
_cell_formula_units_Z   1
loop_
 _symmetry_equiv_pos_site_id
 _symmetry_equiv_pos_as_xyz
  1  'x, y, z'
loop_
 _atom_site_type_symbol
 _atom_site_label
 _atom_site_symmetry_multiplicity
 _atom_site_fract_x
 _atom_site_fract_y
 _atom_site_fract_z
 _atom_site_occupancy
  Eu  Eu0  1  0.699314  0.658172  0.680030  1
  Eu  Eu1  1  0.198615  0.336741  0.309357  1
  Hf  Hf2  1  0.209702  0.191556  0.777235  1
  Cr  Cr3  1  0.709897  0.812428  0.222822  1
  F  F4  1  0.888763  0.441787  0.477269  1
  F  F5  1  0.385048  0.547918  0.520449  1
  F  F6  1  0.422013  0.925856  0.776656  1
  F  F7  1  0.916074  0.052409  0.230513  1
  F  F8  1  0.942819  0.972633  0.758653  1
  F  F9  1  0.461564  0.023007  0.236812  1
  F  F10  1  0.003669  0.461748  0.789003  1
  F  F11  1  0.507067  0.571642  0.215340  1
  F  F12  1  0.705072  0.766328  0.000242  1
  F  F13  1  0.200720  0.243420  0.020911  1
  F  F14  1  0.712889  0.860678  0.449882  1
  F  F15  1  0.216568  0.134460  0.532983  1
  F  F16  1  0.499951  0.379186  0.785635  1
  F  F17  1  0.972975  0.620031  0.216208  1
