# generated using pymatgen
data_Ta2Tl6SeS7
_symmetry_space_group_name_H-M   'P 1'
_cell_length_a   9.86782631
_cell_length_b   11.59996200
_cell_length_c   9.95696600
_cell_angle_alpha   90.00000000
_cell_angle_beta   90.08282722
_cell_angle_gamma   90.00000000
_symmetry_Int_Tables_number   1
_chemical_formula_structural   Ta2Tl6SeS7
_chemical_formula_sum   'Ta4 Tl12 Se2 S14'
_cell_volume   1139.73696388
_cell_formula_units_Z   2
loop_
 _symmetry_equiv_pos_site_id
 _symmetry_equiv_pos_as_xyz
  1  'x, y, z'
loop_
 _atom_site_type_symbol
 _atom_site_label
 _atom_site_symmetry_multiplicity
 _atom_site_fract_x
 _atom_site_fract_y
 _atom_site_fract_z
 _atom_site_occupancy
  Ta  Ta0  1  0.696526  0.250000  0.036726  1
  Ta  Ta1  1  0.202143  0.250000  0.469363  1
  Ta  Ta2  1  0.799690  0.750000  0.529725  1
  Ta  Ta3  1  0.300321  0.750000  0.966851  1
  Tl  Tl4  1  0.946145  0.750000  0.099879  1
  Tl  Tl5  1  0.387340  0.060728  0.201311  1
  Tl  Tl6  1  0.387340  0.439272  0.201311  1
  Tl  Tl7  1  0.890362  0.061015  0.303059  1
  Tl  Tl8  1  0.890362  0.438985  0.303059  1
  Tl  Tl9  1  0.446211  0.750000  0.396114  1
  Tl  Tl10  1  0.553814  0.250000  0.603633  1
  Tl  Tl11  1  0.110459  0.561210  0.701950  1
  Tl  Tl12  1  0.110459  0.938790  0.701950  1
  Tl  Tl13  1  0.605558  0.565235  0.792631  1
  Tl  Tl14  1  0.605558  0.934765  0.792631  1
  Tl  Tl15  1  0.059105  0.250000  0.896957  1
  Se  Se16  1  0.828884  0.080451  0.976423  1
  Se  Se17  1  0.828884  0.419549  0.976423  1
  S  S18  1  0.175058  0.590418  0.022764  1
  S  S19  1  0.175058  0.909582  0.022764  1
  S  S20  1  0.505357  0.750000  0.070002  1
  S  S21  1  0.674341  0.250000  0.266441  1
  S  S22  1  0.174744  0.250000  0.238797  1
  S  S23  1  0.004621  0.750000  0.426858  1
  S  S24  1  0.673891  0.590519  0.473618  1
  S  S25  1  0.673891  0.909481  0.473618  1
  S  S26  1  0.327790  0.090299  0.525017  1
  S  S27  1  0.327790  0.409701  0.525017  1
  S  S28  1  0.997680  0.250000  0.573308  1
  S  S29  1  0.824551  0.750000  0.760561  1
  S  S30  1  0.324503  0.750000  0.735714  1
  S  S31  1  0.491562  0.250000  0.935520  1
