# generated using pymatgen
data_Th4AlAu
_symmetry_space_group_name_H-M   'P 1'
_cell_length_a   6.13475091
_cell_length_b   6.13475120
_cell_length_c   6.13475139
_cell_angle_alpha   102.13604891
_cell_angle_beta   102.13605880
_cell_angle_gamma   125.41765090
_symmetry_Int_Tables_number   1
_chemical_formula_structural   Th4AlAu
_chemical_formula_sum   'Th4 Al1 Au1'
_cell_volume   167.21326925
_cell_formula_units_Z   1
loop_
 _symmetry_equiv_pos_site_id
 _symmetry_equiv_pos_as_xyz
  1  'x, y, z'
loop_
 _atom_site_type_symbol
 _atom_site_label
 _atom_site_symmetry_multiplicity
 _atom_site_fract_x
 _atom_site_fract_y
 _atom_site_fract_z
 _atom_site_occupancy
  Th  Th0  1  0.407174  0.907174  0.814349  1
  Th  Th1  1  0.092826  0.592826  0.185651  1
  Th  Th2  1  0.592826  0.407174  0.500000  1
  Th  Th3  1  0.907174  0.092826  0.500000  1
  Al  Al4  1  0.500000  0.500000  0.000000  1
  Au  Au5  1  0.000000  0.000000  0.000000  1
