# generated using pymatgen
data_Lu8FeB24OsW2
_symmetry_space_group_name_H-M   'P 1'
_cell_length_a   3.53943300
_cell_length_b   9.11081700
_cell_length_c   11.47850479
_cell_angle_alpha   90.08675323
_cell_angle_beta   90.00000000
_cell_angle_gamma   90.00000000
_symmetry_Int_Tables_number   1
_chemical_formula_structural   Lu8FeB24OsW2
_chemical_formula_sum   'Lu8 Fe1 B24 Os1 W2'
_cell_volume   370.14836991
_cell_formula_units_Z   1
loop_
 _symmetry_equiv_pos_site_id
 _symmetry_equiv_pos_as_xyz
  1  'x, y, z'
loop_
 _atom_site_type_symbol
 _atom_site_label
 _atom_site_symmetry_multiplicity
 _atom_site_fract_x
 _atom_site_fract_y
 _atom_site_fract_z
 _atom_site_occupancy
  Lu  Lu0  1  0.000000  0.321700  0.412722  1
  Lu  Lu1  1  0.000000  0.678562  0.583909  1
  Lu  Lu2  1  0.000000  0.820607  0.085792  1
  Lu  Lu3  1  0.000000  0.180065  0.913427  1
  Lu  Lu4  1  0.000000  0.937917  0.371668  1
  Lu  Lu5  1  0.000000  0.053380  0.627901  1
  Lu  Lu6  1  0.000000  0.448307  0.131143  1
  Lu  Lu7  1  0.000000  0.558645  0.872960  1
  Fe  Fe8  1  0.000000  0.639155  0.320325  1
  B  B9  1  0.500000  0.555747  0.430817  1
  B  B10  1  0.500000  0.450476  0.561883  1
  B  B11  1  0.500000  0.049922  0.063042  1
  B  B12  1  0.500000  0.945595  0.932636  1
  B  B13  1  0.500000  0.746498  0.418037  1
  B  B14  1  0.500000  0.246273  0.576474  1
  B  B15  1  0.500000  0.254550  0.077701  1
  B  B16  1  0.500000  0.751333  0.920161  1
  B  B17  1  0.500000  0.788700  0.266404  1
  B  B18  1  0.500000  0.203540  0.737639  1
  B  B19  1  0.500000  0.297404  0.238310  1
  B  B20  1  0.500000  0.708656  0.765636  1
  B  B21  1  0.500000  0.632079  0.186329  1
  B  B22  1  0.500000  0.369706  0.818797  1
  B  B23  1  0.500000  0.130100  0.318920  1
  B  B24  1  0.500000  0.867907  0.684520  1
  B  B25  1  0.500000  0.974660  0.212672  1
  B  B26  1  0.500000  0.016831  0.787406  1
  B  B27  1  0.500000  0.486651  0.288490  1
  B  B28  1  0.500000  0.524899  0.712270  1
  B  B29  1  0.500000  0.605294  0.030032  1
  B  B30  1  0.500000  0.400836  0.973074  1
  B  B31  1  0.500000  0.098941  0.471645  1
  B  B32  1  0.500000  0.894057  0.528334  1
  Os  Os33  1  0.000000  0.860916  0.820662  1
  W  W34  1  0.000000  0.361865  0.678937  1
  W  W35  1  0.000000  0.138225  0.179326  1
