# generated using pymatgen
data_Dy16Ho4Ir7Au5
_symmetry_space_group_name_H-M   'P 1'
_cell_length_a   11.18512997
_cell_length_b   11.18513019
_cell_length_c   6.30691065
_cell_angle_alpha   90.01265796
_cell_angle_beta   90.01265810
_cell_angle_gamma   89.53872258
_symmetry_Int_Tables_number   1
_chemical_formula_structural   Dy16Ho4Ir7Au5
_chemical_formula_sum   'Dy16 Ho4 Ir7 Au5'
_cell_volume   789.01391228
_cell_formula_units_Z   1
loop_
 _symmetry_equiv_pos_site_id
 _symmetry_equiv_pos_as_xyz
  1  'x, y, z'
loop_
 _atom_site_type_symbol
 _atom_site_label
 _atom_site_symmetry_multiplicity
 _atom_site_fract_x
 _atom_site_fract_y
 _atom_site_fract_z
 _atom_site_occupancy
  Dy  Dy0  1  0.299961  0.091201  0.363333  1
  Dy  Dy1  1  0.301469  0.907088  0.863217  1
  Dy  Dy2  1  0.697718  0.080681  0.858021  1
  Dy  Dy3  1  0.697698  0.905562  0.360947  1
  Dy  Dy4  1  0.580801  0.784490  0.876477  1
  Dy  Dy5  1  0.576087  0.206604  0.361201  1
  Dy  Dy6  1  0.417438  0.788146  0.376395  1
  Dy  Dy7  1  0.410859  0.208005  0.875303  1
  Dy  Dy8  1  0.215510  0.419199  0.623523  1
  Dy  Dy9  1  0.211854  0.582562  0.123605  1
  Dy  Dy10  1  0.793396  0.423913  0.138799  1
  Dy  Dy11  1  0.791995  0.589141  0.624697  1
  Dy  Dy12  1  0.908799  0.700039  0.136667  1
  Dy  Dy13  1  0.919319  0.302282  0.641979  1
  Dy  Dy14  1  0.092912  0.698531  0.636783  1
  Dy  Dy15  1  0.094438  0.302302  0.139053  1
  Ho  Ho16  1  0.998450  0.000967  0.499335  1
  Ho  Ho17  1  0.999033  0.001550  0.000665  1
  Ho  Ho18  1  0.495980  0.501919  0.001167  1
  Ho  Ho19  1  0.498081  0.504020  0.498833  1
  Ir  Ir20  1  0.653660  0.650918  0.250885  1
  Ir  Ir21  1  0.349082  0.346340  0.249115  1
  Ir  Ir22  1  0.345445  0.654555  0.750000  1
  Ir  Ir23  1  0.499332  0.999126  0.110154  1
  Ir  Ir24  1  0.499086  0.000297  0.611175  1
  Ir  Ir25  1  0.999703  0.500914  0.888825  1
  Ir  Ir26  1  0.000874  0.500668  0.389846  1
  Au  Au27  1  0.841664  0.158336  0.250000  1
  Au  Au28  1  0.843722  0.846105  0.750771  1
  Au  Au29  1  0.153895  0.156278  0.749229  1
  Au  Au30  1  0.155440  0.844560  0.250000  1
  Au  Au31  1  0.656298  0.343702  0.750000  1
