# generated using pymatgen
data_Sm6HoSn23Ru6
_symmetry_space_group_name_H-M   'P 1'
_cell_length_a   9.92877829
_cell_length_b   9.92877690
_cell_length_c   10.14607934
_cell_angle_alpha   90.05104057
_cell_angle_beta   89.94896127
_cell_angle_gamma   120.14824353
_symmetry_Int_Tables_number   1
_chemical_formula_structural   Sm6HoSn23Ru6
_chemical_formula_sum   'Sm6 Ho1 Sn23 Ru6'
_cell_volume   864.90723987
_cell_formula_units_Z   1
loop_
 _symmetry_equiv_pos_site_id
 _symmetry_equiv_pos_as_xyz
  1  'x, y, z'
loop_
 _atom_site_type_symbol
 _atom_site_label
 _atom_site_symmetry_multiplicity
 _atom_site_fract_x
 _atom_site_fract_y
 _atom_site_fract_z
 _atom_site_occupancy
  Sm  Sm0  1  0.999891  0.000109  0.000128  1
  Sm  Sm1  1  0.516356  0.483644  0.697162  1
  Sm  Sm2  1  0.516416  0.032958  0.697025  1
  Sm  Sm3  1  0.967042  0.483584  0.697025  1
  Sm  Sm4  1  0.032795  0.516321  0.302859  1
  Sm  Sm5  1  0.483679  0.967205  0.302859  1
  Ho  Ho6  1  0.484851  0.515149  0.301957  1
  Sn  Sn7  1  0.666474  0.333526  0.178131  1
  Sn  Sn8  1  0.666798  0.333202  0.876251  1
  Sn  Sn9  1  0.334725  0.665275  0.125452  1
  Sn  Sn10  1  0.348795  0.349089  0.000289  1
  Sn  Sn11  1  0.999595  0.651394  0.000354  1
  Sn  Sn12  1  0.651437  0.999926  0.999908  1
  Sn  Sn13  1  0.650911  0.651205  0.000289  1
  Sn  Sn14  1  0.333328  0.666672  0.822264  1
  Sn  Sn15  1  0.438372  0.220314  0.460764  1
  Sn  Sn16  1  0.218681  0.781319  0.538244  1
  Sn  Sn17  1  0.219447  0.438335  0.537548  1
  Sn  Sn18  1  0.561665  0.780553  0.537548  1
  Sn  Sn19  1  0.116934  0.883066  0.273604  1
  Sn  Sn20  1  0.779686  0.561628  0.460764  1
  Sn  Sn21  1  0.781227  0.218773  0.461738  1
  Sn  Sn22  1  0.348606  0.000405  0.000354  1
  Sn  Sn23  1  0.118498  0.236108  0.273400  1
  Sn  Sn24  1  0.763892  0.881502  0.273400  1
  Sn  Sn25  1  0.234716  0.117276  0.726789  1
  Sn  Sn26  1  0.882724  0.765284  0.726789  1
  Sn  Sn27  1  0.882941  0.117059  0.726314  1
  Sn  Sn28  1  0.999848  0.000152  0.499825  1
  Sn  Sn29  1  0.000074  0.348563  0.999908  1
  Ru  Ru30  1  0.169523  0.830477  0.798481  1
  Ru  Ru31  1  0.169861  0.338983  0.798218  1
  Ru  Ru32  1  0.661017  0.830139  0.798218  1
  Ru  Ru33  1  0.339677  0.171194  0.202133  1
  Ru  Ru34  1  0.828806  0.660323  0.202133  1
  Ru  Ru35  1  0.830712  0.169288  0.201874  1
