# generated using pymatgen
data_La6Nd6Sc3Al12V5O48
_symmetry_space_group_name_H-M   'P 1'
_cell_length_a   10.93162530
_cell_length_b   10.93162487
_cell_length_c   10.93162400
_cell_angle_alpha   109.49913614
_cell_angle_beta   109.55927434
_cell_angle_gamma   109.35532278
_symmetry_Int_Tables_number   1
_chemical_formula_structural   La6Nd6Sc3Al12V5O48
_chemical_formula_sum   'La6 Nd6 Sc3 Al12 V5 O48'
_cell_volume   1005.61277107
_cell_formula_units_Z   1
loop_
 _symmetry_equiv_pos_site_id
 _symmetry_equiv_pos_as_xyz
  1  'x, y, z'
loop_
 _atom_site_type_symbol
 _atom_site_label
 _atom_site_symmetry_multiplicity
 _atom_site_fract_x
 _atom_site_fract_y
 _atom_site_fract_z
 _atom_site_occupancy
  La  La0  1  0.873709  0.749912  0.623826  1
  La  La1  1  0.624790  0.250412  0.877572  1
  La  La2  1  0.376122  0.126199  0.250231  1
  La  La3  1  0.623752  0.873653  0.749777  1
  La  La4  1  0.126412  0.373591  0.751381  1
  La  La5  1  0.873817  0.626632  0.248666  1
  Nd  Nd6  1  0.250666  0.375660  0.124794  1
  Nd  Nd7  1  0.749331  0.624436  0.875329  1
  Nd  Nd8  1  0.750667  0.124650  0.375314  1
  Nd  Nd9  1  0.126325  0.250114  0.376129  1
  Nd  Nd10  1  0.375321  0.749736  0.122658  1
  Nd  Nd11  1  0.249325  0.875258  0.624599  1
  Sc  Sc12  1  0.000268  0.000417  0.001202  1
  Sc  Sc13  1  0.499258  0.999108  0.498867  1
  Sc  Sc14  1  0.000775  0.499559  0.499868  1
  Al  Al15  1  0.249952  0.624474  0.374443  1
  Al  Al16  1  0.750082  0.375340  0.625435  1
  Al  Al17  1  0.748402  0.874143  0.125080  1
  Al  Al18  1  0.373742  0.251318  0.625709  1
  Al  Al19  1  0.624151  0.748584  0.372135  1
  Al  Al20  1  0.251481  0.125992  0.875068  1
  Al  Al21  1  0.125610  0.750005  0.876232  1
  Al  Al22  1  0.876543  0.250052  0.125852  1
  Al  Al23  1  0.623368  0.374662  0.248451  1
  Al  Al24  1  0.376393  0.625120  0.751558  1
  Al  Al25  1  0.875230  0.125351  0.749710  1
  Al  Al26  1  0.124983  0.874889  0.250318  1
  V  V27  1  0.500255  0.999419  0.000324  1
  V  V28  1  0.499424  0.500709  0.999835  1
  V  V29  1  0.498954  0.499764  0.499662  1
  V  V30  1  0.999890  0.000270  0.499201  1
  V  V31  1  0.001182  0.500739  0.000843  1
  O  O32  1  0.481730  0.381418  0.294088  1
  O  O33  1  0.518220  0.618851  0.706039  1
  O  O34  1  0.586520  0.187123  0.203173  1
  O  O35  1  0.912292  0.118249  0.599967  1
  O  O36  1  0.297643  0.482780  0.380610  1
  O  O37  1  0.309937  0.910451  0.290047  1
  O  O38  1  0.413726  0.812762  0.796781  1
  O  O39  1  0.087521  0.881439  0.399709  1
  O  O40  1  0.699224  0.514898  0.618733  1
  O  O41  1  0.689106  0.087055  0.706584  1
  O  O42  1  0.018601  0.311575  0.899577  1
  O  O43  1  0.204016  0.583799  0.185893  1
  O  O44  1  0.120809  0.020262  0.210388  1
  O  O45  1  0.981430  0.688596  0.100806  1
  O  O46  1  0.799266  0.418635  0.815048  1
  O  O47  1  0.880093  0.982207  0.793043  1
  O  O48  1  0.602309  0.916873  0.120431  1
  O  O49  1  0.190977  0.480869  0.601664  1
  O  O50  1  0.396006  0.080734  0.880183  1
  O  O51  1  0.809931  0.516658  0.396690  1
  O  O52  1  0.897622  0.015954  0.314095  1
  O  O53  1  0.381810  0.588590  0.900728  1
  O  O54  1  0.103894  0.986313  0.685054  1
  O  O55  1  0.617181  0.413867  0.100825  1
  O  O56  1  0.380346  0.297512  0.484338  1
  O  O57  1  0.585089  0.896157  0.375760  1
  O  O58  1  0.616583  0.702411  0.513432  1
  O  O59  1  0.412080  0.102955  0.621189  1
  O  O60  1  0.120048  0.602877  0.917692  1
  O  O61  1  0.021862  0.209535  0.123511  1
  O  O62  1  0.883089  0.398051  0.085350  1
  O  O63  1  0.980409  0.790743  0.879536  1
  O  O64  1  0.313511  0.896629  0.017486  1
  O  O65  1  0.913848  0.290401  0.311790  1
  O  O66  1  0.688789  0.102518  0.984623  1
  O  O67  1  0.088944  0.709318  0.690184  1
  O  O68  1  0.185416  0.203087  0.582676  1
  O  O69  1  0.481371  0.600336  0.183682  1
  O  O70  1  0.812458  0.796944  0.414328  1
  O  O71  1  0.516333  0.400476  0.814234  1
  O  O72  1  0.298105  0.313940  0.916844  1
  O  O73  1  0.701810  0.686099  0.082891  1
  O  O74  1  0.206055  0.121440  0.016811  1
  O  O75  1  0.793812  0.878259  0.983193  1
  O  O76  1  0.896569  0.379132  0.585345  1
  O  O77  1  0.103694  0.621157  0.414820  1
  O  O78  1  0.603592  0.188588  0.482047  1
  O  O79  1  0.396146  0.811306  0.518018  1
