# generated using pymatgen
data_ErTm2GaSi2Ag3
_symmetry_space_group_name_H-M   'P 1'
_cell_length_a   7.06742273
_cell_length_b   7.06742207
_cell_length_c   4.15769700
_cell_angle_alpha   90.00000000
_cell_angle_beta   90.00000000
_cell_angle_gamma   120.05222417
_symmetry_Int_Tables_number   1
_chemical_formula_structural   ErTm2GaSi2Ag3
_chemical_formula_sum   'Er1 Tm2 Ga1 Si2 Ag3'
_cell_volume   179.75326169
_cell_formula_units_Z   1
loop_
 _symmetry_equiv_pos_site_id
 _symmetry_equiv_pos_as_xyz
  1  'x, y, z'
loop_
 _atom_site_type_symbol
 _atom_site_label
 _atom_site_symmetry_multiplicity
 _atom_site_fract_x
 _atom_site_fract_y
 _atom_site_fract_z
 _atom_site_occupancy
  Er  Er0  1  0.422523  0.422523  0.500000  1
  Tm  Tm1  1  0.577594  0.000032  0.500000  1
  Tm  Tm2  1  0.000032  0.577594  0.500000  1
  Ga  Ga3  1  0.999724  0.999724  0.500000  1
  Si  Si4  1  0.666884  0.333222  0.000000  1
  Si  Si5  1  0.333222  0.666884  0.000000  1
  Ag  Ag6  1  0.745675  0.745675  0.000000  1
  Ag  Ag7  1  0.254568  0.999778  0.000000  1
  Ag  Ag8  1  0.999778  0.254568  0.000000  1
