# generated using pymatgen
data_La9DyIn6
_symmetry_space_group_name_H-M   'P 1'
_cell_length_a   6.24750769
_cell_length_b   9.56371772
_cell_length_c   9.56371800
_cell_angle_alpha   83.87579424
_cell_angle_beta   70.93591860
_cell_angle_gamma   70.93592399
_symmetry_Int_Tables_number   1
_chemical_formula_structural   La9DyIn6
_chemical_formula_sum   'La9 Dy1 In6'
_cell_volume   510.46426865
_cell_formula_units_Z   1
loop_
 _symmetry_equiv_pos_site_id
 _symmetry_equiv_pos_as_xyz
  1  'x, y, z'
loop_
 _atom_site_type_symbol
 _atom_site_label
 _atom_site_symmetry_multiplicity
 _atom_site_fract_x
 _atom_site_fract_y
 _atom_site_fract_z
 _atom_site_occupancy
  La  La0  1  0.727491  0.863413  0.689740  1
  La  La1  1  0.280644  0.136587  0.310260  1
  La  La2  1  0.772509  0.310260  0.136587  1
  La  La3  1  0.219356  0.689740  0.863413  1
  La  La4  1  0.582769  0.689740  0.136587  1
  La  La5  1  0.409096  0.310260  0.863413  1
  La  La6  1  0.090904  0.136587  0.689740  1
  La  La7  1  0.917231  0.863413  0.310260  1
  La  La8  1  0.750000  0.500000  0.500000  1
  Dy  Dy9  1  0.250000  0.500000  0.500000  1
  In  In10  1  0.167303  0.500000  0.183138  1
  In  In11  1  0.850442  0.500000  0.816862  1
  In  In12  1  0.332697  0.816862  0.500000  1
  In  In13  1  0.649558  0.183138  0.500000  1
  In  In14  1  0.250000  0.000000  0.000000  1
  In  In15  1  0.750000  0.000000  0.000000  1
