# generated using pymatgen
data_Dy2Re2C3
_symmetry_space_group_name_H-M   'P 1'
_cell_length_a   6.09395483
_cell_length_b   6.09395440
_cell_length_c   5.68070545
_cell_angle_alpha   67.08425665
_cell_angle_beta   67.08426022
_cell_angle_gamma   31.55609137
_symmetry_Int_Tables_number   1
_chemical_formula_structural   Dy2Re2C3
_chemical_formula_sum   'Dy2 Re2 C3'
_cell_volume   100.96129554
_cell_formula_units_Z   1
loop_
 _symmetry_equiv_pos_site_id
 _symmetry_equiv_pos_as_xyz
  1  'x, y, z'
loop_
 _atom_site_type_symbol
 _atom_site_label
 _atom_site_symmetry_multiplicity
 _atom_site_fract_x
 _atom_site_fract_y
 _atom_site_fract_z
 _atom_site_occupancy
  Dy  Dy0  1  0.608587  0.608587  0.181409  1
  Dy  Dy1  1  0.391413  0.391413  0.818591  1
  Re  Re2  1  0.843102  0.843102  0.321301  1
  Re  Re3  1  0.156898  0.156898  0.678699  1
  C  C4  1  0.752361  0.752361  0.731715  1
  C  C5  1  0.247639  0.247639  0.268285  1
  C  C6  1  0.000000  0.000000  0.000000  1
