# generated using pymatgen
data_Ho5In4CoCu
_symmetry_space_group_name_H-M   'P 1'
_cell_length_a   8.04187567
_cell_length_b   18.05457407
_cell_length_c   3.57176800
_cell_angle_alpha   90.00000000
_cell_angle_beta   90.00000000
_cell_angle_gamma   90.15419399
_symmetry_Int_Tables_number   1
_chemical_formula_structural   Ho5In4CoCu
_chemical_formula_sum   'Ho10 In8 Co2 Cu2'
_cell_volume   518.59254752
_cell_formula_units_Z   2
loop_
 _symmetry_equiv_pos_site_id
 _symmetry_equiv_pos_as_xyz
  1  'x, y, z'
loop_
 _atom_site_type_symbol
 _atom_site_label
 _atom_site_symmetry_multiplicity
 _atom_site_fract_x
 _atom_site_fract_y
 _atom_site_fract_z
 _atom_site_occupancy
  Ho  Ho0  1  0.500000  0.500000  0.000000  1
  Ho  Ho1  1  0.000000  0.000000  0.000000  1
  Ho  Ho2  1  0.774269  0.280663  0.000000  1
  Ho  Ho3  1  0.225731  0.719337  0.000000  1
  Ho  Ho4  1  0.764018  0.776134  0.000000  1
  Ho  Ho5  1  0.235982  0.223866  0.000000  1
  Ho  Ho6  1  0.625307  0.084209  0.000000  1
  Ho  Ho7  1  0.374693  0.915791  0.000000  1
  Ho  Ho8  1  0.877335  0.589244  0.000000  1
  Ho  Ho9  1  0.122665  0.410756  0.000000  1
  In  In10  1  0.702502  0.930357  0.500000  1
  In  In11  1  0.297498  0.069643  0.500000  1
  In  In12  1  0.799309  0.431291  0.500000  1
  In  In13  1  0.200691  0.568709  0.500000  1
  In  In14  1  0.564351  0.651969  0.500000  1
  In  In15  1  0.435649  0.348031  0.500000  1
  In  In16  1  0.935044  0.150874  0.500000  1
  In  In17  1  0.064956  0.849126  0.500000  1
  Co  Co18  1  0.966818  0.695685  0.500000  1
  Co  Co19  1  0.033182  0.304315  0.500000  1
  Cu  Cu20  1  0.535044  0.198928  0.500000  1
  Cu  Cu21  1  0.464956  0.801072  0.500000  1
