# generated using pymatgen
data_BaAcAlO4
_symmetry_space_group_name_H-M   'P 1'
_cell_length_a   10.07858900
_cell_length_b   7.44524100
_cell_length_c   5.95929400
_cell_angle_alpha   90.00000000
_cell_angle_beta   90.00000000
_cell_angle_gamma   90.00000000
_symmetry_Int_Tables_number   1
_chemical_formula_structural   BaAcAlO4
_chemical_formula_sum   'Ba4 Ac4 Al4 O16'
_cell_volume   447.17066682
_cell_formula_units_Z   4
loop_
 _symmetry_equiv_pos_site_id
 _symmetry_equiv_pos_as_xyz
  1  'x, y, z'
loop_
 _atom_site_type_symbol
 _atom_site_label
 _atom_site_symmetry_multiplicity
 _atom_site_fract_x
 _atom_site_fract_y
 _atom_site_fract_z
 _atom_site_occupancy
  Ba  Ba0  1  0.668550  0.338140  0.234273  1
  Ba  Ba1  1  0.331450  0.838139  0.265726  1
  Ba  Ba2  1  0.831450  0.661861  0.734273  1
  Ba  Ba3  1  0.168550  0.161861  0.765726  1
  Ac  Ac4  1  0.054349  0.497014  0.231915  1
  Ac  Ac5  1  0.945651  0.997015  0.268085  1
  Ac  Ac6  1  0.445651  0.502986  0.731916  1
  Ac  Ac7  1  0.554349  0.002985  0.768084  1
  Al  Al8  1  0.665005  0.776178  0.233744  1
  Al  Al9  1  0.334995  0.276177  0.266256  1
  Al  Al10  1  0.834996  0.223822  0.733743  1
  Al  Al11  1  0.165004  0.723822  0.766257  1
  O  O12  1  0.421614  0.235790  0.010951  1
  O  O13  1  0.567842  0.688340  0.009736  1
  O  O14  1  0.695458  0.000162  0.147986  1
  O  O15  1  0.822521  0.665427  0.245098  1
  O  O16  1  0.177479  0.165426  0.254903  1
  O  O17  1  0.304542  0.500163  0.352013  1
  O  O18  1  0.432158  0.188339  0.490265  1
  O  O19  1  0.578386  0.735791  0.489050  1
  O  O20  1  0.078386  0.764210  0.510951  1
  O  O21  1  0.932158  0.311660  0.509735  1
  O  O22  1  0.804541  0.999838  0.647986  1
  O  O23  1  0.677479  0.334573  0.745097  1
  O  O24  1  0.322521  0.834574  0.754903  1
  O  O25  1  0.195459  0.499837  0.852013  1
  O  O26  1  0.067842  0.811661  0.990265  1
  O  O27  1  0.921614  0.264209  0.989050  1
