# generated using pymatgen
data_Yb5Pr(ErSn2)4
_symmetry_space_group_name_H-M   'P 1'
_cell_length_a   7.84687100
_cell_length_b   8.40268502
_cell_length_c   15.93825004
_cell_angle_alpha   89.99164759
_cell_angle_beta   90.00000000
_cell_angle_gamma   90.00000000
_symmetry_Int_Tables_number   1
_chemical_formula_structural   Yb5Pr(ErSn2)4
_chemical_formula_sum   'Yb10 Pr2 Er8 Sn16'
_cell_volume   1050.88508541
_cell_formula_units_Z   2
loop_
 _symmetry_equiv_pos_site_id
 _symmetry_equiv_pos_as_xyz
  1  'x, y, z'
loop_
 _atom_site_type_symbol
 _atom_site_label
 _atom_site_symmetry_multiplicity
 _atom_site_fract_x
 _atom_site_fract_y
 _atom_site_fract_z
 _atom_site_occupancy
  Yb  Yb0  1  0.498442  0.314385  0.093173  1
  Yb  Yb1  1  0.998442  0.185615  0.406827  1
  Yb  Yb2  1  0.496611  0.314303  0.406377  1
  Yb  Yb3  1  0.996611  0.185697  0.093623  1
  Yb  Yb4  1  0.502817  0.684788  0.906458  1
  Yb  Yb5  1  0.002817  0.815212  0.593542  1
  Yb  Yb6  1  0.833930  0.506768  0.750767  1
  Yb  Yb7  1  0.333930  0.993232  0.749233  1
  Yb  Yb8  1  0.166025  0.490118  0.250016  1
  Yb  Yb9  1  0.666025  0.009882  0.249984  1
  Pr  Pr10  1  0.504991  0.682691  0.593021  1
  Pr  Pr11  1  0.004991  0.817309  0.906979  1
  Er  Er12  1  0.668661  0.168667  0.622893  1
  Er  Er13  1  0.168661  0.331333  0.877107  1
  Er  Er14  1  0.328663  0.832834  0.122250  1
  Er  Er15  1  0.828663  0.667166  0.377750  1
  Er  Er16  1  0.328555  0.833798  0.376891  1
  Er  Er17  1  0.828555  0.666202  0.123109  1
  Er  Er18  1  0.670573  0.167832  0.877306  1
  Er  Er19  1  0.170573  0.332168  0.622694  1
  Sn  Sn20  1  0.673603  0.962435  0.461177  1
  Sn  Sn21  1  0.173603  0.537565  0.038823  1
  Sn  Sn22  1  0.329012  0.037655  0.959702  1
  Sn  Sn23  1  0.829012  0.462345  0.540298  1
  Sn  Sn24  1  0.327989  0.034515  0.540508  1
  Sn  Sn25  1  0.827989  0.465485  0.959492  1
  Sn  Sn26  1  0.675370  0.961669  0.039326  1
  Sn  Sn27  1  0.175370  0.538331  0.460674  1
  Sn  Sn28  1  0.467701  0.377051  0.750371  1
  Sn  Sn29  1  0.967701  0.122949  0.749629  1
  Sn  Sn30  1  0.529905  0.624174  0.250015  1
  Sn  Sn31  1  0.029905  0.875826  0.249985  1
  Sn  Sn32  1  0.711308  0.868584  0.750398  1
  Sn  Sn33  1  0.211308  0.631416  0.749602  1
  Sn  Sn34  1  0.285843  0.128439  0.249260  1
  Sn  Sn35  1  0.785843  0.371561  0.250740  1
