# generated using pymatgen
data_ErHf(SnIr)2
_symmetry_space_group_name_H-M   'P 1'
_cell_length_a   7.44959500
_cell_length_b   7.44959394
_cell_length_c   7.56203300
_cell_angle_alpha   90.00000000
_cell_angle_beta   90.00000000
_cell_angle_gamma   120.00000917
_symmetry_Int_Tables_number   1
_chemical_formula_structural   ErHf(SnIr)2
_chemical_formula_sum   'Er3 Hf3 Sn6 Ir6'
_cell_volume   363.44142230
_cell_formula_units_Z   3
loop_
 _symmetry_equiv_pos_site_id
 _symmetry_equiv_pos_as_xyz
  1  'x, y, z'
loop_
 _atom_site_type_symbol
 _atom_site_label
 _atom_site_symmetry_multiplicity
 _atom_site_fract_x
 _atom_site_fract_y
 _atom_site_fract_z
 _atom_site_occupancy
  Er  Er0  1  0.000155  0.405720  0.750000  1
  Er  Er1  1  0.594280  0.594435  0.750000  1
  Er  Er2  1  0.405565  0.999845  0.750000  1
  Hf  Hf3  1  0.998658  0.390728  0.250000  1
  Hf  Hf4  1  0.609272  0.607931  0.250000  1
  Hf  Hf5  1  0.392069  0.001342  0.250000  1
  Sn  Sn6  1  0.266432  0.267267  0.495344  1
  Sn  Sn7  1  0.000834  0.733568  0.495344  1
  Sn  Sn8  1  0.000834  0.733568  0.004656  1
  Sn  Sn9  1  0.732733  0.999166  0.495344  1
  Sn  Sn10  1  0.732733  0.999166  0.004656  1
  Sn  Sn11  1  0.266432  0.267267  0.004656  1
  Ir  Ir12  1  0.333333  0.666667  0.463383  1
  Ir  Ir13  1  0.666667  0.333333  0.466359  1
  Ir  Ir14  1  0.333333  0.666667  0.036617  1
  Ir  Ir15  1  0.000000  0.000000  0.750000  1
  Ir  Ir16  1  0.000000  0.000000  0.250000  1
  Ir  Ir17  1  0.666667  0.333333  0.033641  1
