# generated using pymatgen
data_PrTmWO6
_symmetry_space_group_name_H-M   'P 1'
_cell_length_a   5.52841900
_cell_length_b   7.82891044
_cell_length_c   11.45988341
_cell_angle_alpha   76.48641078
_cell_angle_beta   90.00000000
_cell_angle_gamma   90.00000000
_symmetry_Int_Tables_number   1
_chemical_formula_structural   PrTmWO6
_chemical_formula_sum   'Pr4 Tm4 W4 O24'
_cell_volume   482.26889147
_cell_formula_units_Z   4
loop_
 _symmetry_equiv_pos_site_id
 _symmetry_equiv_pos_as_xyz
  1  'x, y, z'
loop_
 _atom_site_type_symbol
 _atom_site_label
 _atom_site_symmetry_multiplicity
 _atom_site_fract_x
 _atom_site_fract_y
 _atom_site_fract_z
 _atom_site_occupancy
  Pr  Pr0  1  0.746020  0.000000  0.750000  1
  Pr  Pr1  1  0.253980  0.000000  0.250000  1
  Pr  Pr2  1  0.683549  0.500000  0.750000  1
  Pr  Pr3  1  0.316451  0.500000  0.250000  1
  Tm  Tm4  1  0.182958  0.790364  0.580261  1
  Tm  Tm5  1  0.817042  0.790364  0.080261  1
  Tm  Tm6  1  0.182958  0.209636  0.919739  1
  Tm  Tm7  1  0.817042  0.209636  0.419739  1
  W  W8  1  0.255773  0.725228  0.887089  1
  W  W9  1  0.744227  0.725228  0.387089  1
  W  W10  1  0.255773  0.274772  0.612911  1
  W  W11  1  0.744227  0.274772  0.112911  1
  O  O12  1  0.061672  0.941092  0.900315  1
  O  O13  1  0.539239  0.831584  0.937221  1
  O  O14  1  0.938328  0.941092  0.400315  1
  O  O15  1  0.446240  0.789560  0.727183  1
  O  O16  1  0.460761  0.831584  0.437221  1
  O  O17  1  0.989664  0.715583  0.771170  1
  O  O18  1  0.553760  0.789560  0.227183  1
  O  O19  1  0.859360  0.640268  0.547406  1
  O  O20  1  0.346493  0.492375  0.888388  1
  O  O21  1  0.010336  0.715583  0.271170  1
  O  O22  1  0.346493  0.507625  0.611612  1
  O  O23  1  0.859360  0.359732  0.952594  1
  O  O24  1  0.140640  0.640268  0.047406  1
  O  O25  1  0.653507  0.492375  0.388388  1
  O  O26  1  0.989664  0.284417  0.728830  1
  O  O27  1  0.653507  0.507625  0.111612  1
  O  O28  1  0.140640  0.359732  0.452594  1
  O  O29  1  0.446240  0.210440  0.772817  1
  O  O30  1  0.010336  0.284417  0.228830  1
  O  O31  1  0.539239  0.168416  0.562779  1
  O  O32  1  0.553760  0.210440  0.272817  1
  O  O33  1  0.061672  0.058908  0.599685  1
  O  O34  1  0.460761  0.168416  0.062779  1
  O  O35  1  0.938328  0.058908  0.099685  1
