# generated using pymatgen
data_Y5Fe3(Co4P3)4
_symmetry_space_group_name_H-M   'P 1'
_cell_length_a   12.00759000
_cell_length_b   12.00759188
_cell_length_c   3.67693400
_cell_angle_alpha   90.00000000
_cell_angle_beta   90.00000000
_cell_angle_gamma   120.00000583
_symmetry_Int_Tables_number   1
_chemical_formula_structural   Y5Fe3(Co4P3)4
_chemical_formula_sum   'Y5 Fe3 Co16 P12'
_cell_volume   459.12211226
_cell_formula_units_Z   1
loop_
 _symmetry_equiv_pos_site_id
 _symmetry_equiv_pos_as_xyz
  1  'x, y, z'
loop_
 _atom_site_type_symbol
 _atom_site_label
 _atom_site_symmetry_multiplicity
 _atom_site_fract_x
 _atom_site_fract_y
 _atom_site_fract_z
 _atom_site_occupancy
  Y  Y0  1  0.666667  0.333333  0.000000  1
  Y  Y1  1  0.333333  0.666667  0.000000  1
  Y  Y2  1  0.812515  0.812515  0.500000  1
  Y  Y3  1  0.187485  0.000000  0.500000  1
  Y  Y4  1  0.000000  0.187485  0.500000  1
  Fe  Fe5  1  0.446629  0.446629  0.000000  1
  Fe  Fe6  1  0.553371  0.000000  0.000000  1
  Fe  Fe7  1  0.000000  0.553371  0.000000  1
  Co  Co8  1  0.874181  0.357348  0.500000  1
  Co  Co9  1  0.642652  0.516833  0.500000  1
  Co  Co10  1  0.483167  0.125819  0.500000  1
  Co  Co11  1  0.357348  0.874181  0.500000  1
  Co  Co12  1  0.516833  0.642652  0.500000  1
  Co  Co13  1  0.125819  0.483167  0.500000  1
  Co  Co14  1  0.799801  0.177595  0.000000  1
  Co  Co15  1  0.822405  0.622205  0.000000  1
  Co  Co16  1  0.377795  0.200199  0.000000  1
  Co  Co17  1  0.177595  0.799801  0.000000  1
  Co  Co18  1  0.622205  0.822405  0.000000  1
  Co  Co19  1  0.200199  0.377795  0.000000  1
  Co  Co20  1  0.283861  0.283861  0.500000  1
  Co  Co21  1  0.716139  0.000000  0.500000  1
  Co  Co22  1  0.000000  0.716139  0.500000  1
  Co  Co23  1  0.000000  0.000000  0.000000  1
  P  P24  1  0.684674  0.164385  0.500000  1
  P  P25  1  0.835615  0.520289  0.500000  1
  P  P26  1  0.479711  0.315326  0.500000  1
  P  P27  1  0.164385  0.684674  0.500000  1
  P  P28  1  0.520289  0.835615  0.500000  1
  P  P29  1  0.315326  0.479711  0.500000  1
  P  P30  1  0.181072  0.181072  0.000000  1
  P  P31  1  0.818928  0.000000  0.000000  1
  P  P32  1  0.000000  0.818928  0.000000  1
  P  P33  1  0.631309  0.631309  0.000000  1
  P  P34  1  0.368691  0.000000  0.000000  1
  P  P35  1  0.000000  0.368691  0.000000  1
