# generated using pymatgen
data_Ti5V5(Ge3H)2
_symmetry_space_group_name_H-M   'P 1'
_cell_length_a   5.04316005
_cell_length_b   7.41997214
_cell_length_c   7.41985926
_cell_angle_alpha   60.23174379
_cell_angle_beta   90.00264107
_cell_angle_gamma   90.00291692
_symmetry_Int_Tables_number   1
_chemical_formula_structural   Ti5V5(Ge3H)2
_chemical_formula_sum   'Ti5 V5 Ge6 H2'
_cell_volume   241.01316265
_cell_formula_units_Z   1
loop_
 _symmetry_equiv_pos_site_id
 _symmetry_equiv_pos_as_xyz
  1  'x, y, z'
loop_
 _atom_site_type_symbol
 _atom_site_label
 _atom_site_symmetry_multiplicity
 _atom_site_fract_x
 _atom_site_fract_y
 _atom_site_fract_z
 _atom_site_occupancy
  Ti  Ti0  1  0.249995  0.241414  0.999820  1
  Ti  Ti1  1  0.750004  0.756810  0.000404  1
  Ti  Ti2  1  0.750018  0.999595  0.243216  1
  Ti  Ti3  1  0.249990  0.756572  0.243440  1
  Ti  Ti4  1  0.249982  0.000197  0.758575  1
  V  V5  1  0.500059  0.333248  0.332323  1
  V  V6  1  0.999946  0.333241  0.332322  1
  V  V7  1  0.999946  0.667709  0.666767  1
  V  V8  1  0.500060  0.667683  0.666778  1
  V  V9  1  0.750006  0.246705  0.753289  1
  Ge  Ge10  1  0.750032  0.396241  0.997690  1
  Ge  Ge11  1  0.249977  0.601911  0.000052  1
  Ge  Ge12  1  0.249999  0.999965  0.398084  1
  Ge  Ge13  1  0.750014  0.599315  0.400698  1
  Ge  Ge14  1  0.250008  0.397778  0.602231  1
  Ge  Ge15  1  0.750011  0.002333  0.603743  1
  H  H16  1  0.999834  0.999730  0.000282  1
  H  H17  1  0.500137  0.999724  0.000287  1
