# generated using pymatgen
data_GdY8(IO8)3
_symmetry_space_group_name_H-M   'P 1'
_cell_length_a   5.49053937
_cell_length_b   7.74521785
_cell_length_c   11.70498000
_cell_angle_alpha   76.03762752
_cell_angle_beta   89.82583350
_cell_angle_gamma   90.43936042
_symmetry_Int_Tables_number   1
_chemical_formula_structural   GdY8(IO8)3
_chemical_formula_sum   'Gd1 Y8 I3 O24'
_cell_volume   483.03229827
_cell_formula_units_Z   1
loop_
 _symmetry_equiv_pos_site_id
 _symmetry_equiv_pos_as_xyz
  1  'x, y, z'
loop_
 _atom_site_type_symbol
 _atom_site_label
 _atom_site_symmetry_multiplicity
 _atom_site_fract_x
 _atom_site_fract_y
 _atom_site_fract_z
 _atom_site_occupancy
  Gd  Gd0  1  0.741941  0.692947  0.899168  1
  Y  Y1  1  0.197645  0.812900  0.067281  1
  Y  Y2  1  0.257992  0.969740  0.758799  1
  Y  Y3  1  0.742179  0.003271  0.258256  1
  Y  Y4  1  0.314141  0.512320  0.739432  1
  Y  Y5  1  0.199394  0.220346  0.424388  1
  Y  Y6  1  0.700260  0.510390  0.247388  1
  Y  Y7  1  0.760935  0.176840  0.920739  1
  Y  Y8  1  0.805944  0.781770  0.590780  1
  I  I9  1  0.256221  0.735641  0.383452  1
  I  I10  1  0.755875  0.268674  0.608792  1
  I  I11  1  0.244260  0.277740  0.119766  1
  O  O12  1  0.865858  0.365344  0.451375  1
  O  O13  1  0.473316  0.894055  0.929746  1
  O  O14  1  0.857117  0.656532  0.087174  1
  O  O15  1  0.026214  0.301846  0.705874  1
  O  O16  1  0.986497  0.298188  0.233908  1
  O  O17  1  0.086000  0.358677  0.976332  1
  O  O18  1  0.584289  0.437934  0.874645  1
  O  O19  1  0.515593  0.154671  0.077515  1
  O  O20  1  0.143454  0.641413  0.535264  1
  O  O21  1  0.032631  0.712576  0.753777  1
  O  O22  1  0.445839  0.215657  0.269989  1
  O  O23  1  0.074520  0.951979  0.393566  1
  O  O24  1  0.493094  0.159021  0.548405  1
  O  O25  1  0.977277  0.714734  0.291322  1
  O  O26  1  0.950811  0.062906  0.596610  1
  O  O27  1  0.584224  0.171165  0.749882  1
  O  O28  1  0.517711  0.773448  0.716238  1
  O  O29  1  0.058632  0.057666  0.128263  1
  O  O30  1  0.625580  0.492020  0.605875  1
  O  O31  1  0.379708  0.505603  0.108644  1
  O  O32  1  0.437911  0.809397  0.233312  1
  O  O33  1  0.371713  0.509436  0.377974  1
  O  O34  1  0.540853  0.840370  0.432821  1
  O  O35  1  0.994367  0.952783  0.903242  1
