# generated using pymatgen
data_Li2Y3ZrIr3
_symmetry_space_group_name_H-M   'P 1'
_cell_length_a   7.33860419
_cell_length_b   7.31195078
_cell_length_c   3.99895300
_cell_angle_alpha   90.00000000
_cell_angle_beta   90.00000000
_cell_angle_gamma   119.88047763
_symmetry_Int_Tables_number   1
_chemical_formula_structural   Li2Y3ZrIr3
_chemical_formula_sum   'Li2 Y3 Zr1 Ir3'
_cell_volume   186.05676056
_cell_formula_units_Z   1
loop_
 _symmetry_equiv_pos_site_id
 _symmetry_equiv_pos_as_xyz
  1  'x, y, z'
loop_
 _atom_site_type_symbol
 _atom_site_label
 _atom_site_symmetry_multiplicity
 _atom_site_fract_x
 _atom_site_fract_y
 _atom_site_fract_z
 _atom_site_occupancy
  Li  Li0  1  0.246642  0.005155  0.000000  1
  Li  Li1  1  0.753270  0.758777  0.000000  1
  Y  Y2  1  0.999999  0.609944  0.500000  1
  Y  Y3  1  0.430355  0.416530  0.500000  1
  Y  Y4  1  0.569667  0.986220  0.500000  1
  Zr  Zr5  1  0.000026  0.242992  0.000000  1
  Ir  Ir6  1  0.318202  0.642613  0.000000  1
  Ir  Ir7  1  0.000001  0.013324  0.500000  1
  Ir  Ir8  1  0.681838  0.324446  0.000000  1
