# generated using pymatgen
data_Li12TcRuN8
_symmetry_space_group_name_H-M   'P 1'
_cell_length_a   6.56036700
_cell_length_b   6.56036700
_cell_length_c   4.90223300
_cell_angle_alpha   90.00000000
_cell_angle_beta   90.00000000
_cell_angle_gamma   90.00000000
_symmetry_Int_Tables_number   1
_chemical_formula_structural   Li12TcRuN8
_chemical_formula_sum   'Li12 Tc1 Ru1 N8'
_cell_volume   210.98433914
_cell_formula_units_Z   1
loop_
 _symmetry_equiv_pos_site_id
 _symmetry_equiv_pos_as_xyz
  1  'x, y, z'
loop_
 _atom_site_type_symbol
 _atom_site_label
 _atom_site_symmetry_multiplicity
 _atom_site_fract_x
 _atom_site_fract_y
 _atom_site_fract_z
 _atom_site_occupancy
  Li  Li0  1  0.000000  0.500000  0.589671  1
  Li  Li1  1  0.500000  0.000000  0.902500  1
  Li  Li2  1  0.500000  0.000000  0.410329  1
  Li  Li3  1  0.000000  0.500000  0.097500  1
  Li  Li4  1  0.217383  0.217383  0.500000  1
  Li  Li5  1  0.782617  0.782617  0.500000  1
  Li  Li6  1  0.708256  0.708256  0.000000  1
  Li  Li7  1  0.291744  0.291744  0.000000  1
  Li  Li8  1  0.782617  0.217383  0.500000  1
  Li  Li9  1  0.217383  0.782617  0.500000  1
  Li  Li10  1  0.291744  0.708256  0.000000  1
  Li  Li11  1  0.708256  0.291744  0.000000  1
  Tc  Tc12  1  0.000000  0.000000  0.000000  1
  Ru  Ru13  1  0.500000  0.500000  0.500000  1
  N  N14  1  0.245659  0.500000  0.310416  1
  N  N15  1  0.754341  0.500000  0.310416  1
  N  N16  1  0.759982  0.000000  0.196446  1
  N  N17  1  0.240018  0.000000  0.196446  1
  N  N18  1  0.500000  0.245659  0.689584  1
  N  N19  1  0.500000  0.754341  0.689584  1
  N  N20  1  0.000000  0.759982  0.803554  1
  N  N21  1  0.000000  0.240018  0.803554  1
