# generated using pymatgen
data_Er13Tm3Lu4(CoBi2)4
_symmetry_space_group_name_H-M   'P 1'
_cell_length_a   7.87457215
_cell_length_b   8.83424872
_cell_length_c   12.34456532
_cell_angle_alpha   89.96771985
_cell_angle_beta   90.07558284
_cell_angle_gamma   90.00297346
_symmetry_Int_Tables_number   1
_chemical_formula_structural   Er13Tm3Lu4(CoBi2)4
_chemical_formula_sum   'Er13 Tm3 Lu4 Co4 Bi8'
_cell_volume   858.76027016
_cell_formula_units_Z   1
loop_
 _symmetry_equiv_pos_site_id
 _symmetry_equiv_pos_as_xyz
  1  'x, y, z'
loop_
 _atom_site_type_symbol
 _atom_site_label
 _atom_site_symmetry_multiplicity
 _atom_site_fract_x
 _atom_site_fract_y
 _atom_site_fract_z
 _atom_site_occupancy
  Er  Er0  1  0.653951  0.749766  0.699275  1
  Er  Er1  1  0.345881  0.250090  0.300754  1
  Er  Er2  1  0.153753  0.250034  0.800988  1
  Er  Er3  1  0.846376  0.750027  0.199166  1
  Er  Er4  1  0.119955  0.750130  0.815030  1
  Er  Er5  1  0.880337  0.250020  0.185161  1
  Er  Er6  1  0.620154  0.250311  0.685325  1
  Er  Er7  1  0.380325  0.749517  0.314594  1
  Er  Er8  1  0.554746  0.749906  0.997129  1
  Er  Er9  1  0.444992  0.250023  0.002863  1
  Er  Er10  1  0.054017  0.250480  0.502760  1
  Er  Er11  1  0.944991  0.749744  0.497204  1
  Er  Er12  1  0.326483  0.963578  0.564132  1
  Tm  Tm13  1  0.672125  0.463117  0.435667  1
  Tm  Tm14  1  0.827865  0.036413  0.935995  1
  Tm  Tm15  1  0.672439  0.036657  0.435703  1
  Lu  Lu16  1  0.828583  0.463489  0.936093  1
  Lu  Lu17  1  0.171401  0.536584  0.064043  1
  Lu  Lu18  1  0.328406  0.536617  0.563977  1
  Lu  Lu19  1  0.171659  0.963424  0.064090  1
  Co  Co20  1  0.937469  0.749828  0.993526  1
  Co  Co21  1  0.063103  0.250175  0.006719  1
  Co  Co22  1  0.437087  0.250422  0.506652  1
  Co  Co23  1  0.563472  0.749490  0.493170  1
  Bi  Bi24  1  0.933344  0.007600  0.673395  1
  Bi  Bi25  1  0.066438  0.992439  0.326862  1
  Bi  Bi26  1  0.434160  0.992559  0.826805  1
  Bi  Bi27  1  0.066167  0.507517  0.326674  1
  Bi  Bi28  1  0.565945  0.007530  0.173107  1
  Bi  Bi29  1  0.934187  0.492632  0.673374  1
  Bi  Bi30  1  0.566064  0.492394  0.173002  1
  Bi  Bi31  1  0.434126  0.507484  0.826767  1
