# generated using pymatgen
data_Gd8Mo3RuO24
_symmetry_space_group_name_H-M   'P 1'
_cell_length_a   10.07819759
_cell_length_b   10.02976887
_cell_length_c   5.47359655
_cell_angle_alpha   75.20723383
_cell_angle_beta   75.01892881
_cell_angle_gamma   68.39966141
_symmetry_Int_Tables_number   1
_chemical_formula_structural   Gd8Mo3RuO24
_chemical_formula_sum   'Gd8 Mo3 Ru1 O24'
_cell_volume   488.97797810
_cell_formula_units_Z   1
loop_
 _symmetry_equiv_pos_site_id
 _symmetry_equiv_pos_as_xyz
  1  'x, y, z'
loop_
 _atom_site_type_symbol
 _atom_site_label
 _atom_site_symmetry_multiplicity
 _atom_site_fract_x
 _atom_site_fract_y
 _atom_site_fract_z
 _atom_site_occupancy
  Gd  Gd0  1  0.785406  0.553261  0.619293  1
  Gd  Gd1  1  0.215041  0.444069  0.381331  1
  Gd  Gd2  1  0.608320  0.391071  0.249087  1
  Gd  Gd3  1  0.391601  0.607944  0.751141  1
  Gd  Gd4  1  0.555117  0.784947  0.120212  1
  Gd  Gd5  1  0.133586  0.865716  0.250000  1
  Gd  Gd6  1  0.444323  0.214702  0.877799  1
  Gd  Gd7  1  0.864011  0.136134  0.751040  1
  Mo  Mo8  1  0.703230  0.989940  0.442137  1
  Mo  Mo9  1  0.989487  0.703059  0.939824  1
  Mo  Mo10  1  0.011406  0.296779  0.059359  1
  Ru  Ru11  1  0.297702  0.005455  0.555118  1
  O  O12  1  0.390928  0.424595  0.578196  1
  O  O13  1  0.571603  0.974241  0.746193  1
  O  O14  1  0.819905  0.711496  0.863162  1
  O  O15  1  0.673372  0.115880  0.135049  1
  O  O16  1  0.116117  0.673537  0.633595  1
  O  O17  1  0.328972  0.885211  0.862455  1
  O  O18  1  0.286145  0.179766  0.639021  1
  O  O19  1  0.975234  0.568842  0.240878  1
  O  O20  1  0.574362  0.609467  0.922052  1
  O  O21  1  0.432450  0.026551  0.264076  1
  O  O22  1  0.113730  0.047522  0.512843  1
  O  O23  1  0.190803  0.663310  0.084756  1
  O  O24  1  0.808739  0.337733  0.914432  1
  O  O25  1  0.336193  0.809911  0.413247  1
  O  O26  1  0.884333  0.326671  0.365569  1
  O  O27  1  0.953002  0.887562  0.983896  1
  O  O28  1  0.887381  0.953351  0.484405  1
  O  O29  1  0.662663  0.191240  0.584778  1
  O  O30  1  0.711240  0.819899  0.363689  1
  O  O31  1  0.045166  0.112592  0.018272  1
  O  O32  1  0.180490  0.289212  0.135012  1
  O  O33  1  0.608527  0.574714  0.422172  1
  O  O34  1  0.425191  0.391550  0.076765  1
  O  O35  1  0.024223  0.432070  0.759149  1
