# generated using pymatgen
data_In(TcO4)3
_symmetry_space_group_name_H-M   'P 1'
_cell_length_a   10.80578800
_cell_length_b   10.80578847
_cell_length_c   5.72033400
_cell_angle_alpha   90.00000000
_cell_angle_beta   90.00000000
_cell_angle_gamma   119.99999817
_symmetry_Int_Tables_number   1
_chemical_formula_structural   In(TcO4)3
_chemical_formula_sum   'In2 Tc6 O24'
_cell_volume   578.44880956
_cell_formula_units_Z   2
loop_
 _symmetry_equiv_pos_site_id
 _symmetry_equiv_pos_as_xyz
  1  'x, y, z'
loop_
 _atom_site_type_symbol
 _atom_site_label
 _atom_site_symmetry_multiplicity
 _atom_site_fract_x
 _atom_site_fract_y
 _atom_site_fract_z
 _atom_site_occupancy
  In  In0  1  0.666667  0.333333  0.750000  1
  In  In1  1  0.333333  0.666667  0.250000  1
  Tc  Tc2  1  0.116190  0.410072  0.750000  1
  Tc  Tc3  1  0.410072  0.293883  0.250000  1
  Tc  Tc4  1  0.589928  0.706117  0.750000  1
  Tc  Tc5  1  0.883810  0.589928  0.250000  1
  Tc  Tc6  1  0.293883  0.883810  0.750000  1
  Tc  Tc7  1  0.706117  0.116190  0.250000  1
  O  O8  1  0.480200  0.651273  0.497521  1
  O  O9  1  0.348727  0.828927  0.497521  1
  O  O10  1  0.811325  0.698708  0.250000  1
  O  O11  1  0.112616  0.811325  0.750000  1
  O  O12  1  0.301292  0.112616  0.250000  1
  O  O13  1  0.188675  0.301292  0.750000  1
  O  O14  1  0.519800  0.348727  0.997521  1
  O  O15  1  0.887384  0.188675  0.250000  1
  O  O16  1  0.066564  0.693320  0.250000  1
  O  O17  1  0.171073  0.519800  0.002479  1
  O  O18  1  0.171073  0.519800  0.497521  1
  O  O19  1  0.933436  0.306680  0.750000  1
  O  O20  1  0.306680  0.373245  0.250000  1
  O  O21  1  0.693320  0.626755  0.750000  1
  O  O22  1  0.828927  0.480200  0.502479  1
  O  O23  1  0.373245  0.066564  0.750000  1
  O  O24  1  0.651273  0.171073  0.997521  1
  O  O25  1  0.480200  0.651273  0.002479  1
  O  O26  1  0.348727  0.828927  0.002479  1
  O  O27  1  0.651273  0.171073  0.502479  1
  O  O28  1  0.519800  0.348727  0.502479  1
  O  O29  1  0.828927  0.480200  0.997521  1
  O  O30  1  0.698708  0.887384  0.750000  1
  O  O31  1  0.626755  0.933436  0.250000  1
