# generated using pymatgen
data_Tb5FeAuO12
_symmetry_space_group_name_H-M   'P 1'
_cell_length_a   6.87646577
_cell_length_b   6.87646408
_cell_length_c   7.34047773
_cell_angle_alpha   74.40997249
_cell_angle_beta   74.40997597
_cell_angle_gamma   51.32540703
_symmetry_Int_Tables_number   1
_chemical_formula_structural   Tb5FeAuO12
_chemical_formula_sum   'Tb5 Fe1 Au1 O12'
_cell_volume   258.65799092
_cell_formula_units_Z   1
loop_
 _symmetry_equiv_pos_site_id
 _symmetry_equiv_pos_as_xyz
  1  'x, y, z'
loop_
 _atom_site_type_symbol
 _atom_site_label
 _atom_site_symmetry_multiplicity
 _atom_site_fract_x
 _atom_site_fract_y
 _atom_site_fract_z
 _atom_site_occupancy
  Tb  Tb0  1  0.695908  0.690236  0.669402  1
  Tb  Tb1  1  0.695782  0.700334  0.139273  1
  Tb  Tb2  1  0.996016  0.003984  0.000000  1
  Tb  Tb3  1  0.299666  0.304218  0.860727  1
  Tb  Tb4  1  0.309764  0.304092  0.330598  1
  Fe  Fe5  1  0.244175  0.755825  0.500000  1
  Au  Au6  1  0.755195  0.244805  0.500000  1
  O  O7  1  0.400266  0.904090  0.925219  1
  O  O8  1  0.565566  0.093972  0.584242  1
  O  O9  1  0.906028  0.434434  0.415758  1
  O  O10  1  0.095910  0.599734  0.074781  1
  O  O11  1  0.004649  0.996459  0.313161  1
  O  O12  1  0.502958  0.496444  0.688708  1
  O  O13  1  0.902325  0.406933  0.923336  1
  O  O14  1  0.105081  0.579454  0.579375  1
  O  O15  1  0.420546  0.894919  0.420625  1
  O  O16  1  0.593067  0.097675  0.076664  1
  O  O17  1  0.503556  0.497042  0.311292  1
  O  O18  1  0.003541  0.995351  0.686839  1
