# generated using pymatgen
data_DyHo7Nb12Si15Ge
_symmetry_space_group_name_H-M   'P 1'
_cell_length_a   6.87481855
_cell_length_b   7.07109776
_cell_length_c   13.43912302
_cell_angle_alpha   90.04224508
_cell_angle_beta   89.92852741
_cell_angle_gamma   90.02154588
_symmetry_Int_Tables_number   1
_chemical_formula_structural   DyHo7Nb12Si15Ge
_chemical_formula_sum   'Dy1 Ho7 Nb12 Si15 Ge1'
_cell_volume   653.30882507
_cell_formula_units_Z   1
loop_
 _symmetry_equiv_pos_site_id
 _symmetry_equiv_pos_as_xyz
  1  'x, y, z'
loop_
 _atom_site_type_symbol
 _atom_site_label
 _atom_site_symmetry_multiplicity
 _atom_site_fract_x
 _atom_site_fract_y
 _atom_site_fract_z
 _atom_site_occupancy
  Dy  Dy0  1  0.502532  0.328505  0.095597  1
  Ho  Ho1  1  0.001291  0.171259  0.404024  1
  Ho  Ho2  1  0.500702  0.673685  0.596382  1
  Ho  Ho3  1  0.997600  0.828111  0.904682  1
  Ho  Ho4  1  0.497502  0.671622  0.904515  1
  Ho  Ho5  1  0.997411  0.829086  0.595890  1
  Ho  Ho6  1  0.502972  0.326936  0.403467  1
  Ho  Ho7  1  0.002300  0.171987  0.095417  1
  Nb  Nb8  1  0.664921  0.008171  0.750164  1
  Nb  Nb9  1  0.164822  0.490954  0.751831  1
  Nb  Nb10  1  0.334716  0.991793  0.249831  1
  Nb  Nb11  1  0.835125  0.508543  0.249940  1
  Nb  Nb12  1  0.836547  0.324561  0.625785  1
  Nb  Nb13  1  0.338139  0.174762  0.874753  1
  Nb  Nb14  1  0.161645  0.675186  0.125286  1
  Nb  Nb15  1  0.661353  0.825437  0.374213  1
  Nb  Nb16  1  0.160061  0.677607  0.373039  1
  Nb  Nb17  1  0.660968  0.824857  0.125255  1
  Nb  Nb18  1  0.838203  0.324834  0.874758  1
  Nb  Nb19  1  0.340686  0.171380  0.626621  1
  Si  Si20  1  0.797357  0.626802  0.750183  1
  Si  Si21  1  0.296325  0.872078  0.750542  1
  Si  Si22  1  0.202833  0.373233  0.249866  1
  Si  Si23  1  0.703366  0.126641  0.249709  1
  Si  Si24  1  0.542897  0.377012  0.750358  1
  Si  Si25  1  0.042909  0.123236  0.750072  1
  Si  Si26  1  0.456653  0.623246  0.249998  1
  Si  Si27  1  0.956074  0.877435  0.249081  1
  Si  Si28  1  0.664484  0.037311  0.540016  1
  Si  Si29  1  0.163577  0.463154  0.959615  1
  Si  Si30  1  0.335715  0.962954  0.040320  1
  Si  Si31  1  0.832220  0.537666  0.458860  1
  Si  Si32  1  0.335571  0.962739  0.459730  1
  Si  Si33  1  0.836659  0.537140  0.040509  1
  Si  Si34  1  0.663917  0.036660  0.959536  1
  Ge  Ge35  1  0.169945  0.463417  0.540152  1
