# generated using pymatgen
data_Tb3Lu(OF)4
_symmetry_space_group_name_H-M   'P 1'
_cell_length_a   5.53585624
_cell_length_b   5.65629206
_cell_length_c   5.61927183
_cell_angle_alpha   80.30189182
_cell_angle_beta   90.20319521
_cell_angle_gamma   90.14205001
_symmetry_Int_Tables_number   1
_chemical_formula_structural   Tb3Lu(OF)4
_chemical_formula_sum   'Tb3 Lu1 O4 F4'
_cell_volume   173.43705242
_cell_formula_units_Z   1
loop_
 _symmetry_equiv_pos_site_id
 _symmetry_equiv_pos_as_xyz
  1  'x, y, z'
loop_
 _atom_site_type_symbol
 _atom_site_label
 _atom_site_symmetry_multiplicity
 _atom_site_fract_x
 _atom_site_fract_y
 _atom_site_fract_z
 _atom_site_occupancy
  Tb  Tb0  1  0.476942  0.697249  0.711853  1
  Tb  Tb1  1  0.526201  0.305055  0.285017  1
  Tb  Tb2  1  0.978483  0.305248  0.786467  1
  Lu  Lu3  1  0.026000  0.690294  0.212459  1
  O  O4  1  0.247304  0.467902  0.505342  1
  O  O5  1  0.758474  0.540323  0.485750  1
  O  O6  1  0.753020  0.535957  0.991990  1
  O  O7  1  0.252813  0.469329  0.010573  1
  F  F8  1  0.173943  0.939204  0.855205  1
  F  F9  1  0.824823  0.044320  0.155851  1
  F  F10  1  0.669397  0.063707  0.653991  1
  F  F11  1  0.312603  0.941412  0.345501  1
