# generated using pymatgen
data_NdSm5OsI10
_symmetry_space_group_name_H-M   'P 1'
_cell_length_a   7.91740299
_cell_length_b   9.82591419
_cell_length_c   10.04768204
_cell_angle_alpha   107.66618169
_cell_angle_beta   97.14501250
_cell_angle_gamma   104.71579237
_symmetry_Int_Tables_number   1
_chemical_formula_structural   NdSm5OsI10
_chemical_formula_sum   'Nd1 Sm5 Os1 I10'
_cell_volume   702.94811502
_cell_formula_units_Z   1
loop_
 _symmetry_equiv_pos_site_id
 _symmetry_equiv_pos_as_xyz
  1  'x, y, z'
loop_
 _atom_site_type_symbol
 _atom_site_label
 _atom_site_symmetry_multiplicity
 _atom_site_fract_x
 _atom_site_fract_y
 _atom_site_fract_z
 _atom_site_occupancy
  Nd  Nd0  1  0.531178  0.225069  0.419258  1
  Sm  Sm1  1  0.468807  0.772430  0.580180  1
  Sm  Sm2  1  0.142016  0.368627  0.327933  1
  Sm  Sm3  1  0.858135  0.632350  0.672104  1
  Sm  Sm4  1  0.617099  0.543261  0.255276  1
  Sm  Sm5  1  0.383758  0.457188  0.745083  1
  Os  Os6  1  0.500429  0.499502  0.499890  1
  I  I7  1  0.144391  0.044488  0.225334  1
  I  I8  1  0.849700  0.954465  0.772459  1
  I  I9  1  0.238941  0.411673  0.040395  1
  I  I10  1  0.761756  0.589179  0.959886  1
  I  I11  1  0.710337  0.240471  0.149750  1
  I  I12  1  0.292118  0.760971  0.847606  1
  I  I13  1  0.049013  0.684252  0.412347  1
  I  I14  1  0.954181  0.317273  0.589306  1
  I  I15  1  0.412412  0.130876  0.680216  1
  I  I16  1  0.585730  0.867922  0.322979  1
