# generated using pymatgen
data_Y12Si8IrRh11
_symmetry_space_group_name_H-M   'P 1'
_cell_length_a   5.54280778
_cell_length_b   7.54732104
_cell_length_c   14.87344300
_cell_angle_alpha   90.00000000
_cell_angle_beta   90.00000000
_cell_angle_gamma   90.06043879
_symmetry_Int_Tables_number   1
_chemical_formula_structural   Y12Si8IrRh11
_chemical_formula_sum   'Y12 Si8 Ir1 Rh11'
_cell_volume   622.20559705
_cell_formula_units_Z   1
loop_
 _symmetry_equiv_pos_site_id
 _symmetry_equiv_pos_as_xyz
  1  'x, y, z'
loop_
 _atom_site_type_symbol
 _atom_site_label
 _atom_site_symmetry_multiplicity
 _atom_site_fract_x
 _atom_site_fract_y
 _atom_site_fract_z
 _atom_site_occupancy
  Y  Y0  1  0.895389  0.831304  0.750000  1
  Y  Y1  1  0.868049  0.525623  0.392220  1
  Y  Y2  1  0.367678  0.972211  0.608785  1
  Y  Y3  1  0.132116  0.475589  0.891013  1
  Y  Y4  1  0.632410  0.025970  0.107693  1
  Y  Y5  1  0.109829  0.168585  0.250000  1
  Y  Y6  1  0.132116  0.475589  0.608987  1
  Y  Y7  1  0.632410  0.025970  0.392307  1
  Y  Y8  1  0.389917  0.668561  0.250000  1
  Y  Y9  1  0.367678  0.972211  0.891215  1
  Y  Y10  1  0.609436  0.330513  0.750000  1
  Y  Y11  1  0.868049  0.525623  0.107780  1
  Si  Si12  1  0.623522  0.624667  0.896437  1
  Si  Si13  1  0.876064  0.124761  0.602837  1
  Si  Si14  1  0.124522  0.875488  0.102985  1
  Si  Si15  1  0.124522  0.875488  0.397015  1
  Si  Si16  1  0.623522  0.624667  0.603563  1
  Si  Si17  1  0.876064  0.124761  0.897163  1
  Si  Si18  1  0.374989  0.375531  0.103094  1
  Si  Si19  1  0.374989  0.375531  0.396906  1
  Ir  Ir20  1  0.408425  0.680109  0.750000  1
  Rh  Rh21  1  0.599456  0.332289  0.961827  1
  Rh  Rh22  1  0.099679  0.167703  0.462001  1
  Rh  Rh23  1  0.099679  0.167703  0.037999  1
  Rh  Rh24  1  0.898360  0.832385  0.962291  1
  Rh  Rh25  1  0.590564  0.319662  0.250000  1
  Rh  Rh26  1  0.898360  0.832385  0.537709  1
  Rh  Rh27  1  0.908721  0.819221  0.250000  1
  Rh  Rh28  1  0.599456  0.332289  0.538173  1
  Rh  Rh29  1  0.401694  0.668279  0.461642  1
  Rh  Rh30  1  0.090642  0.181057  0.750000  1
  Rh  Rh31  1  0.401694  0.668279  0.038358  1
