# generated using pymatgen
data_NdSm5CoBr10
_symmetry_space_group_name_H-M   'P 1'
_cell_length_a   7.52668388
_cell_length_b   9.30169776
_cell_length_c   9.47106765
_cell_angle_alpha   108.34477378
_cell_angle_beta   97.04547235
_cell_angle_gamma   105.11496870
_symmetry_Int_Tables_number   1
_chemical_formula_structural   NdSm5CoBr10
_chemical_formula_sum   'Nd1 Sm5 Co1 Br10'
_cell_volume   592.24841674
_cell_formula_units_Z   1
loop_
 _symmetry_equiv_pos_site_id
 _symmetry_equiv_pos_as_xyz
  1  'x, y, z'
loop_
 _atom_site_type_symbol
 _atom_site_label
 _atom_site_symmetry_multiplicity
 _atom_site_fract_x
 _atom_site_fract_y
 _atom_site_fract_z
 _atom_site_occupancy
  Nd  Nd0  1  0.032233  0.711638  0.410399  1
  Sm  Sm1  1  0.967819  0.284492  0.588323  1
  Sm  Sm2  1  0.875073  0.952390  0.744684  1
  Sm  Sm3  1  0.126021  0.048036  0.255838  1
  Sm  Sm4  1  0.358770  0.134619  0.679535  1
  Sm  Sm5  1  0.641258  0.867270  0.320857  1
  Co  Co6  1  0.000307  0.999894  0.499976  1
  Br  Br7  1  0.455179  0.822699  0.583080  1
  Br  Br8  1  0.547664  0.179886  0.418563  1
  Br  Br9  1  0.913035  0.629795  0.673280  1
  Br  Br10  1  0.085406  0.367049  0.328890  1
  Br  Br11  1  0.250020  0.085161  0.955268  1
  Br  Br12  1  0.751735  0.916869  0.045487  1
  Br  Br13  1  0.347033  0.452821  0.770612  1
  Br  Br14  1  0.645024  0.546376  0.227365  1
  Br  Br15  1  0.788042  0.255252  0.845726  1
  Br  Br16  1  0.215382  0.745752  0.152115  1
