# generated using pymatgen
data_Ho8Lu12Sn3Pb13
_symmetry_space_group_name_H-M   'P 1'
_cell_length_a   8.08343983
_cell_length_b   15.40154800
_cell_length_c   8.14702488
_cell_angle_alpha   90.00000000
_cell_angle_beta   89.87465218
_cell_angle_gamma   90.00000000
_symmetry_Int_Tables_number   1
_chemical_formula_structural   Ho8Lu12Sn3Pb13
_chemical_formula_sum   'Ho8 Lu12 Sn3 Pb13'
_cell_volume   1014.28169316
_cell_formula_units_Z   1
loop_
 _symmetry_equiv_pos_site_id
 _symmetry_equiv_pos_as_xyz
  1  'x, y, z'
loop_
 _atom_site_type_symbol
 _atom_site_label
 _atom_site_symmetry_multiplicity
 _atom_site_fract_x
 _atom_site_fract_y
 _atom_site_fract_z
 _atom_site_occupancy
  Ho  Ho0  1  0.463951  0.600161  0.675189  1
  Ho  Ho1  1  0.964113  0.899769  0.824909  1
  Ho  Ho2  1  0.536133  0.099846  0.324994  1
  Ho  Ho3  1  0.035995  0.400581  0.176823  1
  Ho  Ho4  1  0.536133  0.400154  0.324994  1
  Ho  Ho5  1  0.035995  0.099419  0.176823  1
  Ho  Ho6  1  0.463951  0.899839  0.675189  1
  Ho  Ho7  1  0.964113  0.600231  0.824909  1
  Lu  Lu8  1  0.623697  0.623286  0.160035  1
  Lu  Lu9  1  0.123779  0.876653  0.339753  1
  Lu  Lu10  1  0.377978  0.122652  0.839830  1
  Lu  Lu11  1  0.874485  0.377888  0.658278  1
  Lu  Lu12  1  0.377978  0.377348  0.839830  1
  Lu  Lu13  1  0.874485  0.122112  0.658278  1
  Lu  Lu14  1  0.623697  0.876714  0.160035  1
  Lu  Lu15  1  0.123779  0.623347  0.339753  1
  Lu  Lu16  1  0.790983  0.750000  0.491425  1
  Lu  Lu17  1  0.290862  0.750000  0.008388  1
  Lu  Lu18  1  0.209894  0.250000  0.506244  1
  Lu  Lu19  1  0.706642  0.250000  0.992298  1
  Sn  Sn20  1  0.428707  0.750000  0.372053  1
  Sn  Sn21  1  0.928924  0.750000  0.128060  1
  Sn  Sn22  1  0.571220  0.250000  0.627749  1
  Pb  Pb23  1  0.716891  0.457468  0.965355  1
  Pb  Pb24  1  0.216951  0.042569  0.534565  1
  Pb  Pb25  1  0.283006  0.957593  0.034532  1
  Pb  Pb26  1  0.783096  0.542434  0.465397  1
  Pb  Pb27  1  0.283006  0.542407  0.034532  1
  Pb  Pb28  1  0.783096  0.957566  0.465397  1
  Pb  Pb29  1  0.716891  0.042532  0.965355  1
  Pb  Pb30  1  0.216951  0.457431  0.534565  1
  Pb  Pb31  1  0.070240  0.250000  0.872350  1
  Pb  Pb32  1  0.654574  0.750000  0.847983  1
  Pb  Pb33  1  0.154905  0.750000  0.651685  1
  Pb  Pb34  1  0.347273  0.250000  0.154206  1
  Pb  Pb35  1  0.845623  0.250000  0.348240  1
