# generated using pymatgen
data_Dy3ZnCo2Sn3
_symmetry_space_group_name_H-M   'P 1'
_cell_length_a   7.46635800
_cell_length_b   7.46635999
_cell_length_c   3.82638900
_cell_angle_alpha   90.00000000
_cell_angle_beta   90.00000000
_cell_angle_gamma   119.99999118
_symmetry_Int_Tables_number   1
_chemical_formula_structural   Dy3ZnCo2Sn3
_chemical_formula_sum   'Dy3 Zn1 Co2 Sn3'
_cell_volume   184.73004034
_cell_formula_units_Z   1
loop_
 _symmetry_equiv_pos_site_id
 _symmetry_equiv_pos_as_xyz
  1  'x, y, z'
loop_
 _atom_site_type_symbol
 _atom_site_label
 _atom_site_symmetry_multiplicity
 _atom_site_fract_x
 _atom_site_fract_y
 _atom_site_fract_z
 _atom_site_occupancy
  Dy  Dy0  1  0.390567  0.410221  0.500000  1
  Dy  Dy1  1  0.589779  0.980346  0.500000  1
  Dy  Dy2  1  0.019654  0.609433  0.500000  1
  Zn  Zn3  1  0.666667  0.333333  0.000000  1
  Co  Co4  1  0.333333  0.666667  0.000000  1
  Co  Co5  1  0.000000  0.000000  0.500000  1
  Sn  Sn6  1  0.744311  0.745939  0.000000  1
  Sn  Sn7  1  0.254061  0.998372  0.000000  1
  Sn  Sn8  1  0.001628  0.255689  0.000000  1
