# generated using pymatgen
data_Y4NbFeOs6
_symmetry_space_group_name_H-M   'P 1'
_cell_length_a   5.28339687
_cell_length_b   5.28339787
_cell_length_c   8.91974600
_cell_angle_alpha   90.00000000
_cell_angle_beta   90.00000000
_cell_angle_gamma   117.89051724
_symmetry_Int_Tables_number   1
_chemical_formula_structural   Y4NbFeOs6
_chemical_formula_sum   'Y4 Nb1 Fe1 Os6'
_cell_volume   220.06663174
_cell_formula_units_Z   1
loop_
 _symmetry_equiv_pos_site_id
 _symmetry_equiv_pos_as_xyz
  1  'x, y, z'
loop_
 _atom_site_type_symbol
 _atom_site_label
 _atom_site_symmetry_multiplicity
 _atom_site_fract_x
 _atom_site_fract_y
 _atom_site_fract_z
 _atom_site_occupancy
  Y  Y0  1  0.328135  0.671865  0.441309  1
  Y  Y1  1  0.667207  0.332793  0.568277  1
  Y  Y2  1  0.667207  0.332793  0.931723  1
  Y  Y3  1  0.328135  0.671865  0.058691  1
  Nb  Nb4  1  0.838116  0.161884  0.250000  1
  Fe  Fe5  1  0.168549  0.831451  0.750000  1
  Os  Os6  1  0.998963  0.001037  0.508131  1
  Os  Os7  1  0.998963  0.001037  0.991869  1
  Os  Os8  1  0.823347  0.653987  0.250000  1
  Os  Os9  1  0.346013  0.176653  0.250000  1
  Os  Os10  1  0.178849  0.343484  0.750000  1
  Os  Os11  1  0.656516  0.821151  0.750000  1
