# generated using pymatgen
data_Tm4GaReRu6
_symmetry_space_group_name_H-M   'P 1'
_cell_length_a   5.16073017
_cell_length_b   5.39752111
_cell_length_c   8.80612200
_cell_angle_alpha   90.00000000
_cell_angle_beta   90.00000000
_cell_angle_gamma   119.50929487
_symmetry_Int_Tables_number   1
_chemical_formula_structural   Tm4GaReRu6
_chemical_formula_sum   'Tm4 Ga1 Re1 Ru6'
_cell_volume   213.47504168
_cell_formula_units_Z   1
loop_
 _symmetry_equiv_pos_site_id
 _symmetry_equiv_pos_as_xyz
  1  'x, y, z'
loop_
 _atom_site_type_symbol
 _atom_site_label
 _atom_site_symmetry_multiplicity
 _atom_site_fract_x
 _atom_site_fract_y
 _atom_site_fract_z
 _atom_site_occupancy
  Tm  Tm0  1  0.335251  0.670329  0.437678  1
  Tm  Tm1  1  0.660367  0.327366  0.565773  1
  Tm  Tm2  1  0.660367  0.327366  0.934227  1
  Tm  Tm3  1  0.335251  0.670329  0.062322  1
  Ga  Ga4  1  0.836019  0.171930  0.250000  1
  Re  Re5  1  0.660365  0.831446  0.750000  1
  Ru  Ru6  1  0.991289  0.987097  0.499738  1
  Ru  Ru7  1  0.991289  0.987097  0.000262  1
  Ru  Ru8  1  0.827743  0.659088  0.250000  1
  Ru  Ru9  1  0.350144  0.183913  0.250000  1
  Ru  Ru10  1  0.171964  0.834478  0.750000  1
  Ru  Ru11  1  0.179952  0.349565  0.750000  1
