# generated using pymatgen
data_Ho16In2CoAg2Ir3
_symmetry_space_group_name_H-M   'P 1'
_cell_length_a   9.49907149
_cell_length_b   9.54079397
_cell_length_c   9.54493800
_cell_angle_alpha   59.98563775
_cell_angle_beta   59.84015167
_cell_angle_gamma   59.86541433
_symmetry_Int_Tables_number   1
_chemical_formula_structural   Ho16In2CoAg2Ir3
_chemical_formula_sum   'Ho16 In2 Co1 Ag2 Ir3'
_cell_volume   610.24863501
_cell_formula_units_Z   1
loop_
 _symmetry_equiv_pos_site_id
 _symmetry_equiv_pos_as_xyz
  1  'x, y, z'
loop_
 _atom_site_type_symbol
 _atom_site_label
 _atom_site_symmetry_multiplicity
 _atom_site_fract_x
 _atom_site_fract_y
 _atom_site_fract_z
 _atom_site_occupancy
  Ho  Ho0  1  0.440686  0.438117  0.060598  1
  Ho  Ho1  1  0.645739  0.654001  0.046991  1
  Ho  Ho2  1  0.194106  0.811278  0.184566  1
  Ho  Ho3  1  0.064543  0.440056  0.057774  1
  Ho  Ho4  1  0.194106  0.811278  0.810051  1
  Ho  Ho5  1  0.064543  0.440056  0.437627  1
  Ho  Ho6  1  0.810960  0.190307  0.190057  1
  Ho  Ho7  1  0.645739  0.654001  0.653268  1
  Ho  Ho8  1  0.810960  0.190307  0.808678  1
  Ho  Ho9  1  0.192822  0.183072  0.812053  1
  Ho  Ho10  1  0.051932  0.648992  0.649538  1
  Ho  Ho11  1  0.439622  0.066051  0.058877  1
  Ho  Ho12  1  0.062023  0.063064  0.437457  1
  Ho  Ho13  1  0.645463  0.047307  0.653616  1
  Ho  Ho14  1  0.808765  0.807467  0.191884  1
  Ho  Ho15  1  0.439622  0.066051  0.435451  1
  In  In16  1  0.417029  0.742627  0.420172  1
  In  In17  1  0.741605  0.416370  0.421013  1
  Co  Co18  1  0.423220  0.857912  0.859433  1
  Ag  Ag19  1  0.416949  0.415887  0.417888  1
  Ag  Ag20  1  0.416949  0.415887  0.749277  1
  Ir  Ir21  1  0.857629  0.857251  0.860186  1
  Ir  Ir22  1  0.857359  0.425408  0.858615  1
  Ir  Ir23  1  0.857629  0.857251  0.424933  1
