# generated using pymatgen
data_Sc7HgPd16
_symmetry_space_group_name_H-M   'P 1'
_cell_length_a   4.14189001
_cell_length_b   5.70048743
_cell_length_c   16.97437700
_cell_angle_alpha   91.47600648
_cell_angle_beta   89.99535203
_cell_angle_gamma   90.00267269
_symmetry_Int_Tables_number   1
_chemical_formula_structural   Sc7HgPd16
_chemical_formula_sum   'Sc7 Hg1 Pd16'
_cell_volume   400.64550378
_cell_formula_units_Z   1
loop_
 _symmetry_equiv_pos_site_id
 _symmetry_equiv_pos_as_xyz
  1  'x, y, z'
loop_
 _atom_site_type_symbol
 _atom_site_label
 _atom_site_symmetry_multiplicity
 _atom_site_fract_x
 _atom_site_fract_y
 _atom_site_fract_z
 _atom_site_occupancy
  Sc  Sc0  1  0.525246  0.336346  0.046391  1
  Sc  Sc1  1  0.525134  0.839092  0.207164  1
  Sc  Sc2  1  0.525970  0.359142  0.361343  1
  Sc  Sc3  1  0.026330  0.040048  0.456166  1
  Sc  Sc4  1  0.526696  0.720617  0.550952  1
  Sc  Sc5  1  0.526901  0.239530  0.705096  1
  Sc  Sc6  1  0.526089  0.741513  0.865897  1
  Hg  Hg7  1  0.025615  0.038899  0.956145  1
  Pd  Pd8  1  0.525325  0.818042  0.039819  1
  Pd  Pd9  1  0.025116  0.084591  0.123936  1
  Pd  Pd10  1  0.025153  0.585443  0.124358  1
  Pd  Pd11  1  0.525169  0.337216  0.205855  1
  Pd  Pd12  1  0.025552  0.595967  0.290713  1
  Pd  Pd13  1  0.025446  0.096953  0.292286  1
  Pd  Pd14  1  0.526084  0.842713  0.380313  1
  Pd  Pd15  1  0.026439  0.540047  0.456152  1
  Pd  Pd16  1  0.526599  0.237149  0.531985  1
  Pd  Pd17  1  0.026924  0.982328  0.620050  1
  Pd  Pd18  1  0.026900  0.483377  0.621569  1
  Pd  Pd19  1  0.526791  0.741362  0.706454  1
  Pd  Pd20  1  0.026525  0.492567  0.787918  1
  Pd  Pd21  1  0.026626  0.993394  0.788383  1
  Pd  Pd22  1  0.526036  0.259769  0.872446  1
  Pd  Pd23  1  0.025669  0.538858  0.956145  1
