# generated using pymatgen
data_V3GaTcS8
_symmetry_space_group_name_H-M   'P 1'
_cell_length_a   6.90459777
_cell_length_b   6.90459724
_cell_length_c   6.82256110
_cell_angle_alpha   59.60143676
_cell_angle_beta   59.60143509
_cell_angle_gamma   60.00000228
_symmetry_Int_Tables_number   1
_chemical_formula_structural   V3GaTcS8
_chemical_formula_sum   'V3 Ga1 Tc1 S8'
_cell_volume   228.59483848
_cell_formula_units_Z   1
loop_
 _symmetry_equiv_pos_site_id
 _symmetry_equiv_pos_as_xyz
  1  'x, y, z'
loop_
 _atom_site_type_symbol
 _atom_site_label
 _atom_site_symmetry_multiplicity
 _atom_site_fract_x
 _atom_site_fract_y
 _atom_site_fract_z
 _atom_site_occupancy
  V  V0  1  0.608199  0.186472  0.597131  1
  V  V1  1  0.186472  0.608199  0.597131  1
  V  V2  1  0.608199  0.608199  0.597131  1
  Ga  Ga3  1  0.001839  0.001839  0.994483  1
  Tc  Tc4  1  0.601620  0.601620  0.195141  1
  S  S5  1  0.864422  0.864422  0.406734  1
  S  S6  1  0.860840  0.412374  0.865946  1
  S  S7  1  0.412374  0.860840  0.865946  1
  S  S8  1  0.860840  0.860840  0.865946  1
  S  S9  1  0.372959  0.372959  0.881122  1
  S  S10  1  0.365175  0.365175  0.377763  1
  S  S11  1  0.891886  0.365175  0.377763  1
  S  S12  1  0.365175  0.891886  0.377763  1
