# generated using pymatgen
data_V3Zn(SiRu3)2
_symmetry_space_group_name_H-M   'P 1'
_cell_length_a   4.19291301
_cell_length_b   5.94562200
_cell_length_c   12.58063600
_cell_angle_alpha   90.00000000
_cell_angle_beta   90.00300628
_cell_angle_gamma   90.00000000
_symmetry_Int_Tables_number   1
_chemical_formula_structural   V3Zn(SiRu3)2
_chemical_formula_sum   'V6 Zn2 Si4 Ru12'
_cell_volume   313.62866042
_cell_formula_units_Z   2
loop_
 _symmetry_equiv_pos_site_id
 _symmetry_equiv_pos_as_xyz
  1  'x, y, z'
loop_
 _atom_site_type_symbol
 _atom_site_label
 _atom_site_symmetry_multiplicity
 _atom_site_fract_x
 _atom_site_fract_y
 _atom_site_fract_z
 _atom_site_occupancy
  V  V0  1  0.000012  0.500000  0.004520  1
  V  V1  1  0.499863  0.000000  0.162125  1
  V  V2  1  0.999881  0.500000  0.328757  1
  V  V3  1  0.499995  0.000000  0.499730  1
  V  V4  1  0.000113  0.500000  0.667024  1
  V  V5  1  0.500127  0.000000  0.837865  1
  Zn  Zn6  1  0.000041  0.000000  0.998997  1
  Zn  Zn7  1  0.499842  0.500000  0.167645  1
  Si  Si8  1  0.999884  0.000000  0.334826  1
  Si  Si9  1  0.499999  0.500000  0.499860  1
  Si  Si10  1  0.000111  0.000000  0.666729  1
  Si  Si11  1  0.500139  0.500000  0.831926  1
  Ru  Ru12  1  0.500041  0.254126  0.995855  1
  Ru  Ru13  1  0.500041  0.745874  0.995855  1
  Ru  Ru14  1  0.999863  0.245760  0.170813  1
  Ru  Ru15  1  0.999863  0.754240  0.170813  1
  Ru  Ru16  1  0.499895  0.246720  0.338435  1
  Ru  Ru17  1  0.499895  0.753280  0.338435  1
  Ru  Ru18  1  0.999996  0.249271  0.501266  1
  Ru  Ru19  1  0.999996  0.750729  0.501266  1
  Ru  Ru20  1  0.500060  0.250172  0.665262  1
  Ru  Ru21  1  0.500060  0.749828  0.665262  1
  Ru  Ru22  1  0.000139  0.253018  0.828366  1
  Ru  Ru23  1  0.000139  0.746982  0.828366  1
