# generated using pymatgen
data_DyTmCo12AsP6
_symmetry_space_group_name_H-M   'P 1'
_cell_length_a   9.06093500
_cell_length_b   9.06093534
_cell_length_c   3.56775600
_cell_angle_alpha   90.00000000
_cell_angle_beta   90.00000000
_cell_angle_gamma   120.00000240
_symmetry_Int_Tables_number   1
_chemical_formula_structural   DyTmCo12AsP6
_chemical_formula_sum   'Dy1 Tm1 Co12 As1 P6'
_cell_volume   253.67157930
_cell_formula_units_Z   1
loop_
 _symmetry_equiv_pos_site_id
 _symmetry_equiv_pos_as_xyz
  1  'x, y, z'
loop_
 _atom_site_type_symbol
 _atom_site_label
 _atom_site_symmetry_multiplicity
 _atom_site_fract_x
 _atom_site_fract_y
 _atom_site_fract_z
 _atom_site_occupancy
  Dy  Dy0  1  0.000000  0.000000  0.500000  1
  Tm  Tm1  1  0.666667  0.333333  0.000000  1
  Co  Co2  1  0.769455  0.727061  0.000000  1
  Co  Co3  1  0.272939  0.042393  0.000000  1
  Co  Co4  1  0.957607  0.230545  0.000000  1
  Co  Co5  1  0.718316  0.105723  0.500000  1
  Co  Co6  1  0.894277  0.612592  0.500000  1
  Co  Co7  1  0.387408  0.281684  0.500000  1
  Co  Co8  1  0.492860  0.950164  0.000000  1
  Co  Co9  1  0.049836  0.542697  0.000000  1
  Co  Co10  1  0.457303  0.507140  0.000000  1
  Co  Co11  1  0.583857  0.776966  0.500000  1
  Co  Co12  1  0.223034  0.806891  0.500000  1
  Co  Co13  1  0.193109  0.416143  0.500000  1
  As  As14  1  0.333333  0.666667  0.000000  1
  P  P15  1  0.446642  0.071887  0.500000  1
  P  P16  1  0.928113  0.374755  0.500000  1
  P  P17  1  0.625245  0.553358  0.500000  1
  P  P18  1  0.740342  0.960701  0.000000  1
  P  P19  1  0.039299  0.779640  0.000000  1
  P  P20  1  0.220360  0.259658  0.000000  1
