# generated using pymatgen
data_SrTa8AlSe16
_symmetry_space_group_name_H-M   'P 1'
_cell_length_a   7.00719000
_cell_length_b   7.00719089
_cell_length_c   14.33260800
_cell_angle_alpha   90.00000000
_cell_angle_beta   90.00000000
_cell_angle_gamma   120.00000524
_symmetry_Int_Tables_number   1
_chemical_formula_structural   SrTa8AlSe16
_chemical_formula_sum   'Sr1 Ta8 Al1 Se16'
_cell_volume   609.45784830
_cell_formula_units_Z   1
loop_
 _symmetry_equiv_pos_site_id
 _symmetry_equiv_pos_as_xyz
  1  'x, y, z'
loop_
 _atom_site_type_symbol
 _atom_site_label
 _atom_site_symmetry_multiplicity
 _atom_site_fract_x
 _atom_site_fract_y
 _atom_site_fract_z
 _atom_site_occupancy
  Sr  Sr0  1  0.000000  0.000000  0.000000  1
  Ta  Ta1  1  0.000000  0.000000  0.273806  1
  Ta  Ta2  1  0.000000  0.000000  0.726194  1
  Ta  Ta3  1  0.507851  0.015702  0.276061  1
  Ta  Ta4  1  0.492149  0.984298  0.723939  1
  Ta  Ta5  1  0.984298  0.492149  0.276061  1
  Ta  Ta6  1  0.015702  0.507851  0.723939  1
  Ta  Ta7  1  0.507851  0.492149  0.276061  1
  Ta  Ta8  1  0.492149  0.507851  0.723939  1
  Al  Al9  1  0.000000  0.000000  0.500000  1
  Se  Se10  1  0.333333  0.666667  0.604758  1
  Se  Se11  1  0.666667  0.333333  0.395242  1
  Se  Se12  1  0.666667  0.333333  0.154566  1
  Se  Se13  1  0.333333  0.666667  0.845434  1
  Se  Se14  1  0.169777  0.339553  0.160664  1
  Se  Se15  1  0.830223  0.660447  0.839336  1
  Se  Se16  1  0.660447  0.830223  0.160664  1
  Se  Se17  1  0.831299  0.662597  0.609315  1
  Se  Se18  1  0.339553  0.169777  0.839336  1
  Se  Se19  1  0.168701  0.337403  0.390685  1
  Se  Se20  1  0.169777  0.830223  0.160664  1
  Se  Se21  1  0.337403  0.168701  0.609315  1
  Se  Se22  1  0.830223  0.169777  0.839336  1
  Se  Se23  1  0.662597  0.831299  0.390685  1
  Se  Se24  1  0.831299  0.168701  0.609315  1
  Se  Se25  1  0.168701  0.831299  0.390685  1
