# generated using pymatgen
data_DyHoB4Ir5
_symmetry_space_group_name_H-M   'P 1'
_cell_length_a   7.51236869
_cell_length_b   6.34240922
_cell_length_c   5.59766001
_cell_angle_alpha   77.70165736
_cell_angle_beta   55.57714436
_cell_angle_gamma   46.72120514
_symmetry_Int_Tables_number   1
_chemical_formula_structural   DyHoB4Ir5
_chemical_formula_sum   'Dy1 Ho1 B4 Ir5'
_cell_volume   153.25581359
_cell_formula_units_Z   1
loop_
 _symmetry_equiv_pos_site_id
 _symmetry_equiv_pos_as_xyz
  1  'x, y, z'
loop_
 _atom_site_type_symbol
 _atom_site_label
 _atom_site_symmetry_multiplicity
 _atom_site_fract_x
 _atom_site_fract_y
 _atom_site_fract_z
 _atom_site_occupancy
  Dy  Dy0  1  0.640365  0.640366  0.359635  1
  Ho  Ho1  1  0.359618  0.359619  0.640382  1
  B  B2  1  0.288154  0.979544  0.020457  1
  B  B3  1  0.020487  0.711872  0.288129  1
  B  B4  1  0.979543  0.288155  0.711846  1
  B  B5  1  0.711871  0.020488  0.979512  1
  Ir  Ir6  1  0.999927  0.999927  0.000073  1
  Ir  Ir7  1  0.499952  0.499950  0.000049  1
  Ir  Ir8  1  0.250066  0.250064  0.249935  1
  Ir  Ir9  1  0.999951  0.999951  0.500049  1
  Ir  Ir10  1  0.750066  0.750064  0.749935  1
