# generated using pymatgen
data_Nd12CdSi7Ni4
_symmetry_space_group_name_H-M   'P 1'
_cell_length_a   4.24051600
_cell_length_b   11.76887734
_cell_length_c   11.81809445
_cell_angle_alpha   89.85754211
_cell_angle_beta   90.00000000
_cell_angle_gamma   90.00000000
_symmetry_Int_Tables_number   1
_chemical_formula_structural   Nd12CdSi7Ni4
_chemical_formula_sum   'Nd12 Cd1 Si7 Ni4'
_cell_volume   589.79332973
_cell_formula_units_Z   1
loop_
 _symmetry_equiv_pos_site_id
 _symmetry_equiv_pos_as_xyz
  1  'x, y, z'
loop_
 _atom_site_type_symbol
 _atom_site_label
 _atom_site_symmetry_multiplicity
 _atom_site_fract_x
 _atom_site_fract_y
 _atom_site_fract_z
 _atom_site_occupancy
  Nd  Nd0  1  0.250000  0.372686  0.067359  1
  Nd  Nd1  1  0.750000  0.637192  0.959677  1
  Nd  Nd2  1  0.750000  0.877053  0.439477  1
  Nd  Nd3  1  0.250000  0.121011  0.558604  1
  Nd  Nd4  1  0.250000  0.697763  0.214853  1
  Nd  Nd5  1  0.750000  0.289364  0.778643  1
  Nd  Nd6  1  0.750000  0.194936  0.288139  1
  Nd  Nd7  1  0.250000  0.803050  0.712411  1
  Nd  Nd8  1  0.250000  0.440991  0.382618  1
  Nd  Nd9  1  0.750000  0.556232  0.604621  1
  Nd  Nd10  1  0.750000  0.944358  0.116563  1
  Nd  Nd11  1  0.250000  0.059565  0.883278  1
  Cd  Cd12  1  0.250000  0.498185  0.806567  1
  Si  Si13  1  0.250000  0.689554  0.469358  1
  Si  Si14  1  0.750000  0.309866  0.524152  1
  Si  Si15  1  0.750000  0.184626  0.029937  1
  Si  Si16  1  0.250000  0.819586  0.969300  1
  Si  Si17  1  0.250000  0.008170  0.300155  1
  Si  Si18  1  0.750000  0.991310  0.699774  1
  Si  Si19  1  0.750000  0.511112  0.202198  1
  Ni  Ni20  1  0.250000  0.132800  0.130579  1
  Ni  Ni21  1  0.750000  0.870532  0.871119  1
  Ni  Ni22  1  0.750000  0.634585  0.372685  1
  Ni  Ni23  1  0.250000  0.355472  0.617934  1
