# generated using pymatgen
data_Y2Ho7Er11(CoBi2)4
_symmetry_space_group_name_H-M   'P 1'
_cell_length_a   7.93447444
_cell_length_b   8.86841900
_cell_length_c   12.36889005
_cell_angle_alpha   90.00000000
_cell_angle_beta   90.02419288
_cell_angle_gamma   90.00000000
_symmetry_Int_Tables_number   1
_chemical_formula_structural   Y2Ho7Er11(CoBi2)4
_chemical_formula_sum   'Y2 Ho7 Er11 Co4 Bi8'
_cell_volume   870.35225641
_cell_formula_units_Z   1
loop_
 _symmetry_equiv_pos_site_id
 _symmetry_equiv_pos_as_xyz
  1  'x, y, z'
loop_
 _atom_site_type_symbol
 _atom_site_label
 _atom_site_symmetry_multiplicity
 _atom_site_fract_x
 _atom_site_fract_y
 _atom_site_fract_z
 _atom_site_occupancy
  Y  Y0  1  0.115462  0.250000  0.189413  1
  Y  Y1  1  0.384496  0.250000  0.689422  1
  Ho  Ho2  1  0.152997  0.750000  0.199891  1
  Ho  Ho3  1  0.885234  0.750000  0.811323  1
  Ho  Ho4  1  0.615048  0.750000  0.311365  1
  Ho  Ho5  1  0.053440  0.750000  0.498057  1
  Ho  Ho6  1  0.946480  0.250000  0.502149  1
  Ho  Ho7  1  0.553500  0.250000  0.001978  1
  Ho  Ho8  1  0.446831  0.750000  0.997824  1
  Er  Er9  1  0.347200  0.750000  0.699478  1
  Er  Er10  1  0.652535  0.250000  0.300692  1
  Er  Er11  1  0.847365  0.250000  0.800482  1
  Er  Er12  1  0.674745  0.538502  0.563028  1
  Er  Er13  1  0.325518  0.461887  0.436783  1
  Er  Er14  1  0.174447  0.461967  0.936753  1
  Er  Er15  1  0.325518  0.038113  0.436783  1
  Er  Er16  1  0.825091  0.538366  0.062826  1
  Er  Er17  1  0.674745  0.961498  0.563028  1
  Er  Er18  1  0.825091  0.961634  0.062826  1
  Er  Er19  1  0.174447  0.038033  0.936753  1
  Co  Co20  1  0.065822  0.750000  0.992095  1
  Co  Co21  1  0.933463  0.250000  0.007048  1
  Co  Co22  1  0.566416  0.250000  0.507183  1
  Co  Co23  1  0.434019  0.750000  0.492208  1
  Bi  Bi24  1  0.571453  0.509789  0.826544  1
  Bi  Bi25  1  0.429114  0.490334  0.173438  1
  Bi  Bi26  1  0.071294  0.490518  0.673555  1
  Bi  Bi27  1  0.429114  0.009666  0.173438  1
  Bi  Bi28  1  0.928184  0.509538  0.326769  1
  Bi  Bi29  1  0.571453  0.990211  0.826544  1
  Bi  Bi30  1  0.928184  0.990462  0.326769  1
  Bi  Bi31  1  0.071294  0.009482  0.673555  1
