# generated using pymatgen
data_Sc8Ti8NbGe15Mo3P
_symmetry_space_group_name_H-M   'P 1'
_cell_length_a   6.74609000
_cell_length_b   6.87639349
_cell_length_c   13.09558900
_cell_angle_alpha   90.00000000
_cell_angle_beta   90.00000000
_cell_angle_gamma   90.04873529
_symmetry_Int_Tables_number   1
_chemical_formula_structural   Sc8Ti8NbGe15Mo3P
_chemical_formula_sum   'Sc8 Ti8 Nb1 Ge15 Mo3 P1'
_cell_volume   607.48803776
_cell_formula_units_Z   1
loop_
 _symmetry_equiv_pos_site_id
 _symmetry_equiv_pos_as_xyz
  1  'x, y, z'
loop_
 _atom_site_type_symbol
 _atom_site_label
 _atom_site_symmetry_multiplicity
 _atom_site_fract_x
 _atom_site_fract_y
 _atom_site_fract_z
 _atom_site_occupancy
  Sc  Sc0  1  0.493190  0.672691  0.597109  1
  Sc  Sc1  1  0.993483  0.824328  0.906080  1
  Sc  Sc2  1  0.507354  0.322368  0.094675  1
  Sc  Sc3  1  0.006400  0.175926  0.404965  1
  Sc  Sc4  1  0.507354  0.322368  0.405325  1
  Sc  Sc5  1  0.006400  0.175926  0.095035  1
  Sc  Sc6  1  0.493190  0.672691  0.902891  1
  Sc  Sc7  1  0.993483  0.824328  0.593920  1
  Ti  Ti8  1  0.651865  0.173924  0.628362  1
  Ti  Ti9  1  0.169061  0.331709  0.871104  1
  Ti  Ti10  1  0.339960  0.830794  0.127554  1
  Ti  Ti11  1  0.841678  0.668518  0.372981  1
  Ti  Ti12  1  0.339960  0.830794  0.372446  1
  Ti  Ti13  1  0.841678  0.668518  0.127019  1
  Ti  Ti14  1  0.651865  0.173924  0.871638  1
  Ti  Ti15  1  0.169061  0.331709  0.628896  1
  Nb  Nb16  1  0.826597  0.489169  0.750000  1
  Ge  Ge17  1  0.679710  0.961180  0.459847  1
  Ge  Ge18  1  0.180762  0.536897  0.040387  1
  Ge  Ge19  1  0.320946  0.036610  0.959905  1
  Ge  Ge20  1  0.822777  0.461358  0.540158  1
  Ge  Ge21  1  0.320946  0.036610  0.540095  1
  Ge  Ge22  1  0.822777  0.461358  0.959842  1
  Ge  Ge23  1  0.679710  0.961180  0.040153  1
  Ge  Ge24  1  0.180762  0.536897  0.459613  1
  Ge  Ge25  1  0.960965  0.117403  0.750000  1
  Ge  Ge26  1  0.538706  0.615761  0.250000  1
  Ge  Ge27  1  0.037699  0.884098  0.250000  1
  Ge  Ge28  1  0.694085  0.857630  0.750000  1
  Ge  Ge29  1  0.191783  0.650519  0.750000  1
  Ge  Ge30  1  0.306093  0.147366  0.250000  1
  Ge  Ge31  1  0.806247  0.352231  0.250000  1
  Mo  Mo32  1  0.336193  0.014798  0.750000  1
  Mo  Mo33  1  0.164987  0.511226  0.250000  1
  Mo  Mo34  1  0.664550  0.989074  0.250000  1
  P  P35  1  0.457721  0.378123  0.750000  1
