# generated using pymatgen
data_MnCN6
_symmetry_space_group_name_H-M   'P 1'
_cell_length_a   3.60575691
_cell_length_b   5.68679688
_cell_length_c   8.87143554
_cell_angle_alpha   90.52827159
_cell_angle_beta   92.21636212
_cell_angle_gamma   109.16843499
_symmetry_Int_Tables_number   1
_chemical_formula_structural   MnCN6
_chemical_formula_sum   'Mn1 C1 N6'
_cell_volume   171.65018512
_cell_formula_units_Z   1
loop_
 _symmetry_equiv_pos_site_id
 _symmetry_equiv_pos_as_xyz
  1  'x, y, z'
loop_
 _atom_site_type_symbol
 _atom_site_label
 _atom_site_symmetry_multiplicity
 _atom_site_fract_x
 _atom_site_fract_y
 _atom_site_fract_z
 _atom_site_occupancy
  Mn  Mn0  1  0.294539  0.086180  0.226577  1
  C  C1  1  0.577203  0.671068  0.212953  1
  N  N2  1  0.210874  0.886431  0.494233  1
  N  N3  1  0.793539  0.346558  0.850407  1
  N  N4  1  0.464089  0.448758  0.224898  1
  N  N5  1  0.838968  0.185073  0.791596  1
  N  N6  1  0.697638  0.905930  0.204704  1
  N  N7  1  0.112882  0.697000  0.543224  1
