# generated using pymatgen
data_Sc3GaSi2Ru3
_symmetry_space_group_name_H-M   'P 1'
_cell_length_a   7.01833300
_cell_length_b   7.01833390
_cell_length_c   3.34789200
_cell_angle_alpha   90.00000000
_cell_angle_beta   90.00000000
_cell_angle_gamma   119.99999104
_symmetry_Int_Tables_number   1
_chemical_formula_structural   Sc3GaSi2Ru3
_chemical_formula_sum   'Sc3 Ga1 Si2 Ru3'
_cell_volume   142.81377767
_cell_formula_units_Z   1
loop_
 _symmetry_equiv_pos_site_id
 _symmetry_equiv_pos_as_xyz
  1  'x, y, z'
loop_
 _atom_site_type_symbol
 _atom_site_label
 _atom_site_symmetry_multiplicity
 _atom_site_fract_x
 _atom_site_fract_y
 _atom_site_fract_z
 _atom_site_occupancy
  Sc  Sc0  1  0.393798  0.398945  0.500000  1
  Sc  Sc1  1  0.601055  0.994853  0.500000  1
  Sc  Sc2  1  0.005147  0.606202  0.500000  1
  Ga  Ga3  1  0.666667  0.333333  0.000000  1
  Si  Si4  1  0.333333  0.666667  0.000000  1
  Si  Si5  1  0.000000  0.000000  0.500000  1
  Ru  Ru6  1  0.743845  0.752297  0.000000  1
  Ru  Ru7  1  0.247703  0.991547  0.000000  1
  Ru  Ru8  1  0.008453  0.256155  0.000000  1
