# generated using pymatgen
data_Ho7Tm3(In3Br)2
_symmetry_space_group_name_H-M   'P 1'
_cell_length_a   9.12720600
_cell_length_b   9.12720664
_cell_length_c   6.70372800
_cell_angle_alpha   90.00000000
_cell_angle_beta   90.00000000
_cell_angle_gamma   119.99999768
_symmetry_Int_Tables_number   1
_chemical_formula_structural   Ho7Tm3(In3Br)2
_chemical_formula_sum   'Ho7 Tm3 In6 Br2'
_cell_volume   483.64061219
_cell_formula_units_Z   1
loop_
 _symmetry_equiv_pos_site_id
 _symmetry_equiv_pos_as_xyz
  1  'x, y, z'
loop_
 _atom_site_type_symbol
 _atom_site_label
 _atom_site_symmetry_multiplicity
 _atom_site_fract_x
 _atom_site_fract_y
 _atom_site_fract_z
 _atom_site_occupancy
  Ho  Ho0  1  0.733546  0.733730  0.250146  1
  Ho  Ho1  1  0.000184  0.733730  0.749854  1
  Ho  Ho2  1  0.733546  0.999816  0.749854  1
  Ho  Ho3  1  0.266270  0.266454  0.749854  1
  Ho  Ho4  1  0.000184  0.266454  0.250146  1
  Ho  Ho5  1  0.266270  0.999816  0.250146  1
  Ho  Ho6  1  0.666667  0.333333  0.000000  1
  Tm  Tm7  1  0.333333  0.666667  0.500000  1
  Tm  Tm8  1  0.666667  0.333333  0.500000  1
  Tm  Tm9  1  0.333333  0.666667  0.000000  1
  In  In10  1  0.392874  0.999722  0.749843  1
  In  In11  1  0.000278  0.607126  0.250157  1
  In  In12  1  0.606848  0.999722  0.250157  1
  In  In13  1  0.000278  0.393152  0.749843  1
  In  In14  1  0.392874  0.393152  0.250157  1
  In  In15  1  0.606848  0.607126  0.749843  1
  Br  Br16  1  0.000000  0.000000  0.500000  1
  Br  Br17  1  0.000000  0.000000  0.000000  1
