# generated using pymatgen
data_Y12Fe4CuSn
_symmetry_space_group_name_H-M   'P 1'
_cell_length_a   8.38717741
_cell_length_b   8.38719385
_cell_length_c   8.38719500
_cell_angle_alpha   110.69058675
_cell_angle_beta   110.74681649
_cell_angle_gamma   107.00411939
_symmetry_Int_Tables_number   1
_chemical_formula_structural   Y12Fe4CuSn
_chemical_formula_sum   'Y12 Fe4 Cu1 Sn1'
_cell_volume   453.55081507
_cell_formula_units_Z   1
loop_
 _symmetry_equiv_pos_site_id
 _symmetry_equiv_pos_as_xyz
  1  'x, y, z'
loop_
 _atom_site_type_symbol
 _atom_site_label
 _atom_site_symmetry_multiplicity
 _atom_site_fract_x
 _atom_site_fract_y
 _atom_site_fract_z
 _atom_site_occupancy
  Y  Y0  1  0.416416  0.215023  0.201393  1
  Y  Y1  1  0.583584  0.784977  0.798607  1
  Y  Y2  1  0.013598  0.214977  0.798622  1
  Y  Y3  1  0.986402  0.785023  0.201378  1
  Y  Y4  1  0.188015  0.290710  0.478748  1
  Y  Y5  1  0.811985  0.709290  0.521252  1
  Y  Y6  1  0.188014  0.709269  0.897305  1
  Y  Y7  1  0.811986  0.290731  0.102695  1
  Y  Y8  1  0.311840  0.612845  0.301005  1
  Y  Y9  1  0.688160  0.387155  0.698995  1
  Y  Y10  1  0.311840  0.010834  0.698995  1
  Y  Y11  1  0.688160  0.989166  0.301005  1
  Fe  Fe12  1  0.386560  0.999997  0.386564  1
  Fe  Fe13  1  0.613440  0.000003  0.613436  1
  Fe  Fe14  1  0.107051  0.607057  0.499994  1
  Fe  Fe15  1  0.892949  0.392943  0.500006  1
  Cu  Cu16  1  0.000000  0.000000  0.000000  1
  Sn  Sn17  1  0.500000  0.500000  0.000000  1
