# generated using pymatgen
data_Li4Ac3Au4
_symmetry_space_group_name_H-M   'P 1'
_cell_length_a   8.83832087
_cell_length_b   8.83832079
_cell_length_c   8.83832103
_cell_angle_alpha   151.01051550
_cell_angle_beta   125.83496117
_cell_angle_gamma   62.60249691
_symmetry_Int_Tables_number   1
_chemical_formula_structural   Li4Ac3Au4
_chemical_formula_sum   'Li4 Ac3 Au4'
_cell_volume   268.88858062
_cell_formula_units_Z   1
loop_
 _symmetry_equiv_pos_site_id
 _symmetry_equiv_pos_as_xyz
  1  'x, y, z'
loop_
 _atom_site_type_symbol
 _atom_site_label
 _atom_site_symmetry_multiplicity
 _atom_site_fract_x
 _atom_site_fract_y
 _atom_site_fract_z
 _atom_site_occupancy
  Li  Li0  1  0.634878  0.322539  0.312338  1
  Li  Li1  1  0.365122  0.677461  0.687662  1
  Li  Li2  1  0.010199  0.322539  0.687662  1
  Li  Li3  1  0.989801  0.677461  0.312338  1
  Ac  Ac4  1  0.375822  0.875822  0.500000  1
  Ac  Ac5  1  0.624178  0.124178  0.500000  1
  Ac  Ac6  1  0.000000  0.000000  0.000000  1
  Au  Au7  1  0.219008  0.219008  0.000000  1
  Au  Au8  1  0.780992  0.780992  0.000000  1
  Au  Au9  1  0.698175  0.500000  0.198175  1
  Au  Au10  1  0.301825  0.500000  0.801825  1
