# generated using pymatgen
data_Ho14Er2MgNi4Hg3
_symmetry_space_group_name_H-M   'P 1'
_cell_length_a   9.49412067
_cell_length_b   9.45439363
_cell_length_c   9.45448200
_cell_angle_alpha   59.99968379
_cell_angle_beta   60.13800757
_cell_angle_gamma   60.13767431
_symmetry_Int_Tables_number   1
_chemical_formula_structural   Ho14Er2MgNi4Hg3
_chemical_formula_sum   'Ho14 Er2 Mg1 Ni4 Hg3'
_cell_volume   601.32855664
_cell_formula_units_Z   1
loop_
 _symmetry_equiv_pos_site_id
 _symmetry_equiv_pos_as_xyz
  1  'x, y, z'
loop_
 _atom_site_type_symbol
 _atom_site_label
 _atom_site_symmetry_multiplicity
 _atom_site_fract_x
 _atom_site_fract_y
 _atom_site_fract_z
 _atom_site_occupancy
  Ho  Ho0  1  0.184001  0.814904  0.814899  1
  Ho  Ho1  1  0.812893  0.186290  0.186302  1
  Ho  Ho2  1  0.812893  0.186290  0.814514  1
  Ho  Ho3  1  0.184001  0.814904  0.186197  1
  Ho  Ho4  1  0.812893  0.814518  0.186295  1
  Ho  Ho5  1  0.184000  0.186197  0.814902  1
  Ho  Ho6  1  0.598731  0.597193  0.597204  1
  Ho  Ho7  1  0.598731  0.597193  0.206872  1
  Ho  Ho8  1  0.598748  0.206868  0.597192  1
  Ho  Ho9  1  0.198269  0.600588  0.600571  1
  Ho  Ho10  1  0.059035  0.439592  0.439581  1
  Ho  Ho11  1  0.434692  0.063858  0.063860  1
  Ho  Ho12  1  0.434692  0.063858  0.437591  1
  Ho  Ho13  1  0.059035  0.439592  0.061791  1
  Er  Er14  1  0.434702  0.437602  0.063848  1
  Er  Er15  1  0.059023  0.061767  0.439605  1
  Mg  Mg16  1  0.535623  0.821445  0.821465  1
  Ni  Ni17  1  0.390200  0.393331  0.393332  1
  Ni  Ni18  1  0.390200  0.393331  0.823137  1
  Ni  Ni19  1  0.390203  0.823142  0.393327  1
  Ni  Ni20  1  0.823187  0.392273  0.392270  1
  Hg  Hg21  1  0.834754  0.836160  0.836146  1
  Hg  Hg22  1  0.834754  0.836160  0.492939  1
  Hg  Hg23  1  0.834740  0.492946  0.836157  1
