# generated using pymatgen
data_TmLu7(CoAg)2
_symmetry_space_group_name_H-M   'P 1'
_cell_length_a   9.20629915
_cell_length_b   9.20597738
_cell_length_c   9.20743101
_cell_angle_alpha   60.00095285
_cell_angle_beta   59.99733213
_cell_angle_gamma   60.01015057
_symmetry_Int_Tables_number   1
_chemical_formula_structural   TmLu7(CoAg)2
_chemical_formula_sum   'Tm2 Lu14 Co4 Ag4'
_cell_volume   551.83105316
_cell_formula_units_Z   2
loop_
 _symmetry_equiv_pos_site_id
 _symmetry_equiv_pos_as_xyz
  1  'x, y, z'
loop_
 _atom_site_type_symbol
 _atom_site_label
 _atom_site_symmetry_multiplicity
 _atom_site_fract_x
 _atom_site_fract_y
 _atom_site_fract_z
 _atom_site_occupancy
  Tm  Tm0  1  0.562434  0.562433  0.937557  1
  Tm  Tm1  1  0.937590  0.937594  0.562425  1
  Lu  Lu2  1  0.347608  0.347600  0.347769  1
  Lu  Lu3  1  0.347568  0.347560  0.957091  1
  Lu  Lu4  1  0.347844  0.957016  0.347540  1
  Lu  Lu5  1  0.957031  0.347849  0.347528  1
  Lu  Lu6  1  0.811670  0.188303  0.188293  1
  Lu  Lu7  1  0.188309  0.811666  0.811731  1
  Lu  Lu8  1  0.188276  0.811701  0.188291  1
  Lu  Lu9  1  0.811678  0.188287  0.811754  1
  Lu  Lu10  1  0.188449  0.188464  0.811556  1
  Lu  Lu11  1  0.811541  0.811542  0.188463  1
  Lu  Lu12  1  0.937765  0.562241  0.562243  1
  Lu  Lu13  1  0.562253  0.937745  0.937760  1
  Lu  Lu14  1  0.562226  0.937748  0.562261  1
  Lu  Lu15  1  0.937761  0.562244  0.937732  1
  Co  Co16  1  0.141387  0.141401  0.141181  1
  Co  Co17  1  0.141380  0.141381  0.576047  1
  Co  Co18  1  0.141204  0.576030  0.141373  1
  Co  Co19  1  0.576029  0.141206  0.141375  1
  Ag  Ag20  1  0.581931  0.581944  0.581764  1
  Ag  Ag21  1  0.581927  0.581927  0.254382  1
  Ag  Ag22  1  0.581761  0.254367  0.581937  1
  Ag  Ag23  1  0.254375  0.581751  0.581947  1
