# generated using pymatgen
data_Dy2Al3Tc14C3
_symmetry_space_group_name_H-M   'P 1'
_cell_length_a   6.95005814
_cell_length_b   6.95005880
_cell_length_c   6.95005807
_cell_angle_alpha   82.18955080
_cell_angle_beta   82.18954253
_cell_angle_gamma   82.18954194
_symmetry_Int_Tables_number   1
_chemical_formula_structural   Dy2Al3Tc14C3
_chemical_formula_sum   'Dy2 Al3 Tc14 C3'
_cell_volume   327.14429609
_cell_formula_units_Z   1
loop_
 _symmetry_equiv_pos_site_id
 _symmetry_equiv_pos_as_xyz
  1  'x, y, z'
loop_
 _atom_site_type_symbol
 _atom_site_label
 _atom_site_symmetry_multiplicity
 _atom_site_fract_x
 _atom_site_fract_y
 _atom_site_fract_z
 _atom_site_occupancy
  Dy  Dy0  1  0.658015  0.658015  0.658015  1
  Dy  Dy1  1  0.341985  0.341985  0.341985  1
  Al  Al2  1  0.000000  0.000000  0.500000  1
  Al  Al3  1  0.500000  0.000000  0.000000  1
  Al  Al4  1  0.000000  0.500000  0.000000  1
  Tc  Tc5  1  0.722852  0.277148  0.000000  1
  Tc  Tc6  1  0.000000  0.722852  0.277148  1
  Tc  Tc7  1  0.277148  0.000000  0.722852  1
  Tc  Tc8  1  0.000000  0.277148  0.722852  1
  Tc  Tc9  1  0.722852  0.000000  0.277148  1
  Tc  Tc10  1  0.277148  0.722852  0.000000  1
  Tc  Tc11  1  0.351678  0.351678  0.849371  1
  Tc  Tc12  1  0.849371  0.351678  0.351678  1
  Tc  Tc13  1  0.351678  0.849371  0.351678  1
  Tc  Tc14  1  0.648322  0.648322  0.150629  1
  Tc  Tc15  1  0.150629  0.648322  0.648322  1
  Tc  Tc16  1  0.648322  0.150629  0.648322  1
  Tc  Tc17  1  0.904032  0.904032  0.904032  1
  Tc  Tc18  1  0.095968  0.095968  0.095968  1
  C  C19  1  0.500000  0.500000  0.000000  1
  C  C20  1  0.000000  0.500000  0.500000  1
  C  C21  1  0.500000  0.000000  0.500000  1
