# generated using pymatgen
data_PrEuSi3Ag
_symmetry_space_group_name_H-M   'P 1'
_cell_length_a   11.38730987
_cell_length_b   9.70924044
_cell_length_c   8.43367521
_cell_angle_alpha   77.39989598
_cell_angle_beta   56.31530732
_cell_angle_gamma   46.28479409
_symmetry_Int_Tables_number   1
_chemical_formula_structural   PrEuSi3Ag
_chemical_formula_sum   'Pr4 Eu4 Si12 Ag4'
_cell_volume   539.24587461
_cell_formula_units_Z   4
loop_
 _symmetry_equiv_pos_site_id
 _symmetry_equiv_pos_as_xyz
  1  'x, y, z'
loop_
 _atom_site_type_symbol
 _atom_site_label
 _atom_site_symmetry_multiplicity
 _atom_site_fract_x
 _atom_site_fract_y
 _atom_site_fract_z
 _atom_site_occupancy
  Pr  Pr0  1  0.379163  0.379163  0.620837  1
  Pr  Pr1  1  0.620837  0.620837  0.379163  1
  Pr  Pr2  1  0.870837  0.870837  0.629163  1
  Pr  Pr3  1  0.629163  0.629163  0.870837  1
  Eu  Eu4  1  0.875200  0.875200  0.124800  1
  Eu  Eu5  1  0.124800  0.124800  0.875200  1
  Eu  Eu6  1  0.374800  0.374800  0.125200  1
  Eu  Eu7  1  0.125200  0.125200  0.374800  1
  Si  Si8  1  0.662623  0.337377  0.662623  1
  Si  Si9  1  0.337377  0.662623  0.337377  1
  Si  Si10  1  0.587377  0.912623  0.587377  1
  Si  Si11  1  0.912623  0.587377  0.912623  1
  Si  Si12  1  0.335508  0.659773  0.827259  1
  Si  Si13  1  0.177459  0.827259  0.659773  1
  Si  Si14  1  0.827259  0.177459  0.335508  1
  Si  Si15  1  0.659773  0.335508  0.177459  1
  Si  Si16  1  0.914492  0.590227  0.422741  1
  Si  Si17  1  0.072541  0.422741  0.590227  1
  Si  Si18  1  0.422741  0.072541  0.914492  1
  Si  Si19  1  0.590227  0.914492  0.072541  1
  Ag  Ag20  1  0.833246  0.166754  0.833246  1
  Ag  Ag21  1  0.166754  0.833246  0.166754  1
  Ag  Ag22  1  0.416754  0.083246  0.416754  1
  Ag  Ag23  1  0.083246  0.416754  0.083246  1
