# generated using pymatgen
data_NbTlTeO5
_symmetry_space_group_name_H-M   'P 1'
_cell_length_a   7.40076900
_cell_length_b   8.82059800
_cell_length_c   7.93586500
_cell_angle_alpha   90.00000000
_cell_angle_beta   90.00000000
_cell_angle_gamma   90.00000000
_symmetry_Int_Tables_number   1
_chemical_formula_structural   NbTlTeO5
_chemical_formula_sum   'Nb4 Tl4 Te4 O20'
_cell_volume   518.04698390
_cell_formula_units_Z   4
loop_
 _symmetry_equiv_pos_site_id
 _symmetry_equiv_pos_as_xyz
  1  'x, y, z'
loop_
 _atom_site_type_symbol
 _atom_site_label
 _atom_site_symmetry_multiplicity
 _atom_site_fract_x
 _atom_site_fract_y
 _atom_site_fract_z
 _atom_site_occupancy
  Nb  Nb0  1  0.218107  0.751224  0.218259  1
  Nb  Nb1  1  0.718107  0.748776  0.218259  1
  Nb  Nb2  1  0.281893  0.251224  0.718258  1
  Nb  Nb3  1  0.781892  0.248776  0.718258  1
  Tl  Tl4  1  0.020675  0.110997  0.106342  1
  Tl  Tl5  1  0.520675  0.389003  0.106342  1
  Tl  Tl6  1  0.479324  0.610997  0.606342  1
  Tl  Tl7  1  0.979324  0.889002  0.606342  1
  Te  Te8  1  0.495692  0.045909  0.403501  1
  Te  Te9  1  0.995692  0.454091  0.403501  1
  Te  Te10  1  0.004308  0.545909  0.903501  1
  Te  Te11  1  0.504309  0.954091  0.903501  1
  O  O12  1  0.732425  0.679168  0.997818  1
  O  O13  1  0.232425  0.820832  0.997818  1
  O  O14  1  0.091384  0.551313  0.137578  1
  O  O15  1  0.591384  0.948687  0.137578  1
  O  O16  1  0.449774  0.665953  0.248075  1
  O  O17  1  0.949774  0.834047  0.248075  1
  O  O18  1  0.768723  0.561387  0.350654  1
  O  O19  1  0.268723  0.938613  0.350654  1
  O  O20  1  0.134849  0.629392  0.450773  1
  O  O21  1  0.634849  0.870608  0.450773  1
  O  O22  1  0.767576  0.179168  0.497819  1
  O  O23  1  0.267575  0.320832  0.497819  1
  O  O24  1  0.408617  0.051313  0.637577  1
  O  O25  1  0.908617  0.448687  0.637577  1
  O  O26  1  0.050226  0.165953  0.748074  1
  O  O27  1  0.550225  0.334047  0.748074  1
  O  O28  1  0.731278  0.061387  0.850653  1
  O  O29  1  0.231277  0.438613  0.850653  1
  O  O30  1  0.365151  0.129392  0.950772  1
  O  O31  1  0.865151  0.370608  0.950772  1
