# generated using pymatgen
data_Ca11Ac8Si16Hg
_symmetry_space_group_name_H-M   'P 1'
_cell_length_a   8.19482112
_cell_length_b   8.19482143
_cell_length_c   14.99764000
_cell_angle_alpha   89.89365610
_cell_angle_beta   90.10634391
_cell_angle_gamma   89.87905921
_symmetry_Int_Tables_number   1
_chemical_formula_structural   Ca11Ac8Si16Hg
_chemical_formula_sum   'Ca11 Ac8 Si16 Hg1'
_cell_volume   1007.16222879
_cell_formula_units_Z   1
loop_
 _symmetry_equiv_pos_site_id
 _symmetry_equiv_pos_as_xyz
  1  'x, y, z'
loop_
 _atom_site_type_symbol
 _atom_site_label
 _atom_site_symmetry_multiplicity
 _atom_site_fract_x
 _atom_site_fract_y
 _atom_site_fract_z
 _atom_site_occupancy
  Ca  Ca0  1  0.377270  0.495081  0.380436  1
  Ca  Ca1  1  0.870169  0.997415  0.378507  1
  Ca  Ca2  1  0.991715  0.132762  0.127173  1
  Ca  Ca3  1  0.997415  0.870169  0.621493  1
  Ca  Ca4  1  0.627510  0.507989  0.875019  1
  Ca  Ca5  1  0.495081  0.377270  0.619564  1
  Ca  Ca6  1  0.507989  0.627510  0.124981  1
  Ca  Ca7  1  0.132762  0.991715  0.872827  1
  Ca  Ca8  1  0.813442  0.189698  0.749584  1
  Ca  Ca9  1  0.189698  0.813442  0.250416  1
  Ca  Ca10  1  0.311328  0.311328  0.000000  1
  Ac  Ac11  1  0.990324  0.625893  0.047254  1
  Ac  Ac12  1  0.000472  0.376487  0.543945  1
  Ac  Ac13  1  0.625893  0.990324  0.952746  1
  Ac  Ac14  1  0.132210  0.512559  0.792412  1
  Ac  Ac15  1  0.871740  0.496112  0.302717  1
  Ac  Ac16  1  0.512559  0.132210  0.207588  1
  Ac  Ac17  1  0.496112  0.871740  0.697283  1
  Ac  Ac18  1  0.376487  0.000472  0.456055  1
  Si  Si19  1  0.092767  0.713426  0.440410  1
  Si  Si20  1  0.918056  0.287455  0.941030  1
  Si  Si21  1  0.713426  0.092767  0.559590  1
  Si  Si22  1  0.210013  0.418641  0.194514  1
  Si  Si23  1  0.787759  0.580058  0.693811  1
  Si  Si24  1  0.418641  0.210013  0.805486  1
  Si  Si25  1  0.580058  0.787759  0.306189  1
  Si  Si26  1  0.287455  0.918056  0.058970  1
  Si  Si27  1  0.835449  0.792733  0.804928  1
  Si  Si28  1  0.162129  0.207173  0.310016  1
  Si  Si29  1  0.792733  0.835449  0.195072  1
  Si  Si30  1  0.277934  0.657394  0.562550  1
  Si  Si31  1  0.706223  0.335942  0.055233  1
  Si  Si32  1  0.657394  0.277934  0.437450  1
  Si  Si33  1  0.335942  0.706223  0.944767  1
  Si  Si34  1  0.207173  0.162129  0.689984  1
  Hg  Hg35  1  0.696678  0.696678  0.500000  1
