# generated using pymatgen
data_Tm3Lu2(RuO6)2
_symmetry_space_group_name_H-M   'P 1'
_cell_length_a   6.73849792
_cell_length_b   6.73849783
_cell_length_c   7.32474937
_cell_angle_alpha   74.06462724
_cell_angle_beta   74.06462898
_cell_angle_gamma   49.40326128
_symmetry_Int_Tables_number   1
_chemical_formula_structural   Tm3Lu2(RuO6)2
_chemical_formula_sum   'Tm3 Lu2 Ru2 O12'
_cell_volume   240.73576515
_cell_formula_units_Z   1
loop_
 _symmetry_equiv_pos_site_id
 _symmetry_equiv_pos_as_xyz
  1  'x, y, z'
loop_
 _atom_site_type_symbol
 _atom_site_label
 _atom_site_symmetry_multiplicity
 _atom_site_fract_x
 _atom_site_fract_y
 _atom_site_fract_z
 _atom_site_occupancy
  Tm  Tm0  1  0.698930  0.698930  0.641636  1
  Tm  Tm1  1  0.301190  0.301190  0.359603  1
  Tm  Tm2  1  0.687262  0.687262  0.173078  1
  Lu  Lu3  1  0.312644  0.312644  0.826624  1
  Lu  Lu4  1  0.000024  0.000024  0.500171  1
  Ru  Ru5  1  0.777753  0.222120  0.999598  1
  Ru  Ru6  1  0.222120  0.777753  0.999598  1
  O  O7  1  0.001687  0.001687  0.204917  1
  O  O8  1  0.997866  0.997866  0.794960  1
  O  O9  1  0.577040  0.086415  0.086616  1
  O  O10  1  0.420780  0.916234  0.911537  1
  O  O11  1  0.916234  0.420780  0.911537  1
  O  O12  1  0.086415  0.577040  0.086616  1
  O  O13  1  0.498975  0.498975  0.179597  1
  O  O14  1  0.500462  0.500462  0.819529  1
  O  O15  1  0.402447  0.900824  0.429094  1
  O  O16  1  0.596989  0.100358  0.573099  1
  O  O17  1  0.100358  0.596989  0.573099  1
  O  O18  1  0.900824  0.402447  0.429094  1
