# generated using pymatgen
data_SmBiAs4O9
_symmetry_space_group_name_H-M   'P 1'
_cell_length_a   6.99370721
_cell_length_b   7.65779417
_cell_length_c   10.05319778
_cell_angle_alpha   94.84621477
_cell_angle_beta   104.78177063
_cell_angle_gamma   104.08285362
_symmetry_Int_Tables_number   1
_chemical_formula_structural   SmBiAs4O9
_chemical_formula_sum   'Sm2 Bi2 As8 O18'
_cell_volume   498.74317984
_cell_formula_units_Z   2
loop_
 _symmetry_equiv_pos_site_id
 _symmetry_equiv_pos_as_xyz
  1  'x, y, z'
loop_
 _atom_site_type_symbol
 _atom_site_label
 _atom_site_symmetry_multiplicity
 _atom_site_fract_x
 _atom_site_fract_y
 _atom_site_fract_z
 _atom_site_occupancy
  Sm  Sm0  1  0.718230  0.540642  0.408998  1
  Sm  Sm1  1  0.281770  0.459358  0.591002  1
  Bi  Bi2  1  0.240485  0.920329  0.620932  1
  Bi  Bi3  1  0.759515  0.079671  0.379068  1
  As  As4  1  0.674301  0.770887  0.068338  1
  As  As5  1  0.325699  0.229113  0.931662  1
  As  As6  1  0.179291  0.756563  0.912163  1
  As  As7  1  0.820709  0.243437  0.087837  1
  As  As8  1  0.746487  0.909368  0.704809  1
  As  As9  1  0.253513  0.090632  0.295191  1
  As  As10  1  0.807108  0.345178  0.699309  1
  As  As11  1  0.192892  0.654822  0.300691  1
  O  O12  1  0.719679  0.733882  0.240990  1
  O  O13  1  0.280321  0.266118  0.759010  1
  O  O14  1  0.318131  0.983090  0.880743  1
  O  O15  1  0.681869  0.016910  0.119257  1
  O  O16  1  0.608469  0.319831  0.987894  1
  O  O17  1  0.391531  0.680169  0.012106  1
  O  O18  1  0.144057  0.662765  0.736738  1
  O  O19  1  0.855943  0.337235  0.263262  1
  O  O20  1  0.833053  0.852408  0.556996  1
  O  O21  1  0.166947  0.147592  0.443004  1
  O  O22  1  0.490817  0.768800  0.664774  1
  O  O23  1  0.509183  0.231200  0.335226  1
  O  O24  1  0.374829  0.544076  0.378470  1
  O  O25  1  0.625171  0.455924  0.621530  1
  O  O26  1  0.090677  0.663367  0.451831  1
  O  O27  1  0.909323  0.336633  0.548169  1
  O  O28  1  0.358482  0.899154  0.357233  1
  O  O29  1  0.641518  0.100846  0.642767  1
