# generated using pymatgen
data_Tm9Lu(Zn2Sb)2
_symmetry_space_group_name_H-M   'P 1'
_cell_length_a   8.45460661
_cell_length_b   8.45449743
_cell_length_c   8.45437670
_cell_angle_alpha   123.82903421
_cell_angle_beta   123.80075685
_cell_angle_gamma   83.50986894
_symmetry_Int_Tables_number   1
_chemical_formula_structural   Tm9Lu(Zn2Sb)2
_chemical_formula_sum   'Tm9 Lu1 Zn4 Sb2'
_cell_volume   399.86540939
_cell_formula_units_Z   1
loop_
 _symmetry_equiv_pos_site_id
 _symmetry_equiv_pos_as_xyz
  1  'x, y, z'
loop_
 _atom_site_type_symbol
 _atom_site_label
 _atom_site_symmetry_multiplicity
 _atom_site_fract_x
 _atom_site_fract_y
 _atom_site_fract_z
 _atom_site_occupancy
  Tm  Tm0  1  0.500000  0.500000  0.000000  1
  Tm  Tm1  1  0.798993  0.298751  0.809136  1
  Tm  Tm2  1  0.201007  0.701249  0.190864  1
  Tm  Tm3  1  0.489608  0.989860  0.190855  1
  Tm  Tm4  1  0.298745  0.489578  0.499775  1
  Tm  Tm5  1  0.010192  0.201022  0.499766  1
  Tm  Tm6  1  0.510392  0.010140  0.809145  1
  Tm  Tm7  1  0.701255  0.510422  0.500225  1
  Tm  Tm8  1  0.989808  0.798978  0.500234  1
  Lu  Lu9  1  0.000000  0.000000  0.000000  1
  Zn  Zn10  1  0.135730  0.636675  0.772403  1
  Zn  Zn11  1  0.864270  0.363325  0.227597  1
  Zn  Zn12  1  0.636658  0.864280  0.500939  1
  Zn  Zn13  1  0.363342  0.135720  0.499061  1
  Sb  Sb14  1  0.249629  0.249621  0.999995  1
  Sb  Sb15  1  0.750371  0.750379  0.000005  1
