# generated using pymatgen
data_Zr2Sb2OsRu2
_symmetry_space_group_name_H-M   'P 1'
_cell_length_a   4.54292406
_cell_length_b   4.54292429
_cell_length_c   7.83617023
_cell_angle_alpha   73.15313777
_cell_angle_beta   73.15314059
_cell_angle_gamma   60.00044977
_symmetry_Int_Tables_number   1
_chemical_formula_structural   Zr2Sb2OsRu2
_chemical_formula_sum   'Zr2 Sb2 Os1 Ru2'
_cell_volume   131.98246279
_cell_formula_units_Z   1
loop_
 _symmetry_equiv_pos_site_id
 _symmetry_equiv_pos_as_xyz
  1  'x, y, z'
loop_
 _atom_site_type_symbol
 _atom_site_label
 _atom_site_symmetry_multiplicity
 _atom_site_fract_x
 _atom_site_fract_y
 _atom_site_fract_z
 _atom_site_occupancy
  Zr  Zr0  1  0.246562  0.246562  0.260292  1
  Zr  Zr1  1  0.755138  0.755138  0.734613  1
  Sb  Sb2  1  0.995262  0.995262  0.014219  1
  Sb  Sb3  1  0.503449  0.503449  0.489787  1
  Os  Os4  1  0.628213  0.628213  0.115316  1
  Ru  Ru5  1  0.122204  0.122204  0.633287  1
  Ru  Ru6  1  0.374175  0.374175  0.877486  1
