# generated using pymatgen
data_YbHo3(Si5Pt3)2
_symmetry_space_group_name_H-M   'P 1'
_cell_length_a   8.16997203
_cell_length_b   8.16119988
_cell_length_c   8.16120033
_cell_angle_alpha   136.77539582
_cell_angle_beta   104.09922208
_cell_angle_gamma   91.57194627
_symmetry_Int_Tables_number   1
_chemical_formula_structural   YbHo3(Si5Pt3)2
_chemical_formula_sum   'Yb1 Ho3 Si10 Pt6'
_cell_volume   343.81433153
_cell_formula_units_Z   1
loop_
 _symmetry_equiv_pos_site_id
 _symmetry_equiv_pos_as_xyz
  1  'x, y, z'
loop_
 _atom_site_type_symbol
 _atom_site_label
 _atom_site_symmetry_multiplicity
 _atom_site_fract_x
 _atom_site_fract_y
 _atom_site_fract_z
 _atom_site_occupancy
  Yb  Yb0  1  0.897206  0.129345  0.767861  1
  Ho  Ho1  1  0.641762  0.371268  0.270494  1
  Ho  Ho2  1  0.358716  0.629168  0.729548  1
  Ho  Ho3  1  0.099761  0.870255  0.229504  1
  Si  Si4  1  0.271016  0.520526  0.248278  1
  Si  Si5  1  0.729692  0.478743  0.751158  1
  Si  Si6  1  0.729692  0.978534  0.250949  1
  Si  Si7  1  0.271016  0.022738  0.750490  1
  Si  Si8  1  0.460199  0.111242  0.348956  1
  Si  Si9  1  0.538918  0.887760  0.651159  1
  Si  Si10  1  0.763862  0.611397  0.152465  1
  Si  Si11  1  0.237430  0.388929  0.848502  1
  Si  Si12  1  0.999459  0.248321  0.247904  1
  Si  Si13  1  0.999459  0.751556  0.751138  1
  Pt  Pt14  1  0.253294  0.137854  0.115440  1
  Pt  Pt15  1  0.747491  0.862093  0.885398  1
  Pt  Pt16  1  0.024175  0.637338  0.386837  1
  Pt  Pt17  1  0.977405  0.362920  0.614485  1
  Pt  Pt18  1  0.499723  0.249786  0.749497  1
  Pt  Pt19  1  0.499723  0.750227  0.249938  1
