# generated using pymatgen
data_Ho10In8Pd3Au
_symmetry_space_group_name_H-M   'P 1'
_cell_length_a   3.62521100
_cell_length_b   8.15913478
_cell_length_c   18.26402666
_cell_angle_alpha   89.90763740
_cell_angle_beta   90.00000000
_cell_angle_gamma   90.00000000
_symmetry_Int_Tables_number   1
_chemical_formula_structural   Ho10In8Pd3Au
_chemical_formula_sum   'Ho10 In8 Pd3 Au1'
_cell_volume   540.22336559
_cell_formula_units_Z   1
loop_
 _symmetry_equiv_pos_site_id
 _symmetry_equiv_pos_as_xyz
  1  'x, y, z'
loop_
 _atom_site_type_symbol
 _atom_site_label
 _atom_site_symmetry_multiplicity
 _atom_site_fract_x
 _atom_site_fract_y
 _atom_site_fract_z
 _atom_site_occupancy
  Ho  Ho0  1  0.000000  0.499177  0.500953  1
  Ho  Ho1  1  0.000000  0.999232  0.999537  1
  Ho  Ho2  1  0.000000  0.746154  0.284155  1
  Ho  Ho3  1  0.000000  0.259075  0.718792  1
  Ho  Ho4  1  0.000000  0.758696  0.779967  1
  Ho  Ho5  1  0.000000  0.232805  0.219359  1
  Ho  Ho6  1  0.000000  0.621708  0.079651  1
  Ho  Ho7  1  0.000000  0.383212  0.915516  1
  Ho  Ho8  1  0.000000  0.883260  0.584056  1
  Ho  Ho9  1  0.000000  0.115589  0.417598  1
  In  In10  1  0.500000  0.709249  0.930948  1
  In  In11  1  0.500000  0.291449  0.065532  1
  In  In12  1  0.500000  0.791511  0.434443  1
  In  In13  1  0.500000  0.208225  0.567796  1
  In  In14  1  0.500000  0.579370  0.649327  1
  In  In15  1  0.500000  0.416106  0.352330  1
  In  In16  1  0.500000  0.921708  0.148922  1
  In  In17  1  0.500000  0.079051  0.850007  1
  Pd  Pd18  1  0.500000  0.475035  0.803251  1
  Pd  Pd19  1  0.500000  0.975962  0.696181  1
  Pd  Pd20  1  0.500000  0.025559  0.304214  1
  Au  Au21  1  0.500000  0.527867  0.197466  1
