# generated using pymatgen
data_Pr3Zr(Si5Os3)2
_symmetry_space_group_name_H-M   'P 1'
_cell_length_a   8.18408228
_cell_length_b   8.15856320
_cell_length_c   5.87501095
_cell_angle_alpha   70.60353183
_cell_angle_beta   70.36006110
_cell_angle_gamma   93.69652308
_symmetry_Int_Tables_number   1
_chemical_formula_structural   Pr3Zr(Si5Os3)2
_chemical_formula_sum   'Pr3 Zr1 Si10 Os6'
_cell_volume   341.57114497
_cell_formula_units_Z   1
loop_
 _symmetry_equiv_pos_site_id
 _symmetry_equiv_pos_as_xyz
  1  'x, y, z'
loop_
 _atom_site_type_symbol
 _atom_site_label
 _atom_site_symmetry_multiplicity
 _atom_site_fract_x
 _atom_site_fract_y
 _atom_site_fract_z
 _atom_site_occupancy
  Pr  Pr0  1  0.871151  0.601792  0.751440  1
  Pr  Pr1  1  0.397362  0.133840  0.743968  1
  Pr  Pr2  1  0.133346  0.396246  0.244827  1
  Zr  Zr3  1  0.596615  0.869564  0.254825  1
  Si  Si4  1  0.063332  0.262932  0.836229  1
  Si  Si5  1  0.740287  0.936792  0.663365  1
  Si  Si6  1  0.924090  0.741762  0.167493  1
  Si  Si7  1  0.260562  0.057918  0.337127  1
  Si  Si8  1  0.207018  0.792200  0.753082  1
  Si  Si9  1  0.789121  0.203284  0.250946  1
  Si  Si10  1  0.516226  0.489101  0.751217  1
  Si  Si11  1  0.489686  0.518365  0.246204  1
  Si  Si12  1  0.772002  0.223726  0.754030  1
  Si  Si13  1  0.236636  0.773604  0.249410  1
  Os  Os14  1  0.263843  0.546001  0.629874  1
  Os  Os15  1  0.460846  0.747430  0.860807  1
  Os  Os16  1  0.741664  0.456499  0.368020  1
  Os  Os17  1  0.543345  0.252157  0.131652  1
  Os  Os18  1  0.999539  0.995734  0.754504  1
  Os  Os19  1  0.993329  0.001054  0.250981  1
