# generated using pymatgen
data_Nd4(Zn3Cd)3
_symmetry_space_group_name_H-M   'P 1'
_cell_length_a   4.54289600
_cell_length_b   7.36787739
_cell_length_c   10.12099090
_cell_angle_alpha   89.82943487
_cell_angle_beta   90.00000000
_cell_angle_gamma   90.00000000
_symmetry_Int_Tables_number   1
_chemical_formula_structural   Nd4(Zn3Cd)3
_chemical_formula_sum   'Nd4 Zn9 Cd3'
_cell_volume   338.76325324
_cell_formula_units_Z   1
loop_
 _symmetry_equiv_pos_site_id
 _symmetry_equiv_pos_as_xyz
  1  'x, y, z'
loop_
 _atom_site_type_symbol
 _atom_site_label
 _atom_site_symmetry_multiplicity
 _atom_site_fract_x
 _atom_site_fract_y
 _atom_site_fract_z
 _atom_site_occupancy
  Nd  Nd0  1  0.250000  0.311327  0.672808  1
  Nd  Nd1  1  0.250000  0.815152  0.821814  1
  Nd  Nd2  1  0.750000  0.689007  0.329197  1
  Nd  Nd3  1  0.750000  0.187990  0.172334  1
  Zn  Zn4  1  0.750000  0.975728  0.597839  1
  Zn  Zn5  1  0.250000  0.901274  0.148708  1
  Zn  Zn6  1  0.250000  0.399339  0.354371  1
  Zn  Zn7  1  0.750000  0.098279  0.846941  1
  Zn  Zn8  1  0.750000  0.609802  0.645447  1
  Zn  Zn9  1  0.250000  0.183273  0.964630  1
  Zn  Zn10  1  0.250000  0.682831  0.534432  1
  Zn  Zn11  1  0.750000  0.815467  0.034664  1
  Zn  Zn12  1  0.750000  0.304083  0.466485  1
  Cd  Cd13  1  0.250000  0.527568  0.095821  1
  Cd  Cd14  1  0.250000  0.024539  0.412516  1
  Cd  Cd15  1  0.750000  0.474341  0.901993  1
