# generated using pymatgen
data_Y8Mn(Si4Pt)3
_symmetry_space_group_name_H-M   'P 1'
_cell_length_a   8.17052900
_cell_length_b   8.17052816
_cell_length_c   7.98397800
_cell_angle_alpha   90.00000000
_cell_angle_beta   90.00000000
_cell_angle_gamma   119.99999933
_symmetry_Int_Tables_number   1
_chemical_formula_structural   Y8Mn(Si4Pt)3
_chemical_formula_sum   'Y8 Mn1 Si12 Pt3'
_cell_volume   461.58349727
_cell_formula_units_Z   1
loop_
 _symmetry_equiv_pos_site_id
 _symmetry_equiv_pos_as_xyz
  1  'x, y, z'
loop_
 _atom_site_type_symbol
 _atom_site_label
 _atom_site_symmetry_multiplicity
 _atom_site_fract_x
 _atom_site_fract_y
 _atom_site_fract_z
 _atom_site_occupancy
  Y  Y0  1  0.508957  0.017915  0.254365  1
  Y  Y1  1  0.488794  0.977588  0.746669  1
  Y  Y2  1  0.982085  0.491043  0.254365  1
  Y  Y3  1  0.022412  0.511206  0.746669  1
  Y  Y4  1  0.508957  0.491043  0.254365  1
  Y  Y5  1  0.488794  0.511206  0.746669  1
  Y  Y6  1  0.000000  0.000000  0.250792  1
  Y  Y7  1  0.000000  0.000000  0.747822  1
  Mn  Mn8  1  0.333333  0.666667  0.452562  1
  Si  Si9  1  0.165704  0.331408  0.000574  1
  Si  Si10  1  0.834800  0.669601  0.997743  1
  Si  Si11  1  0.668592  0.834296  0.000574  1
  Si  Si12  1  0.836125  0.672249  0.504315  1
  Si  Si13  1  0.330399  0.165200  0.997743  1
  Si  Si14  1  0.172255  0.344511  0.497861  1
  Si  Si15  1  0.165704  0.834296  0.000574  1
  Si  Si16  1  0.327751  0.163875  0.504315  1
  Si  Si17  1  0.834800  0.165200  0.997743  1
  Si  Si18  1  0.655489  0.827745  0.497861  1
  Si  Si19  1  0.836125  0.163875  0.504315  1
  Si  Si20  1  0.172255  0.827745  0.497861  1
  Pt  Pt21  1  0.333333  0.666667  0.042229  1
  Pt  Pt22  1  0.666667  0.333333  0.974876  1
  Pt  Pt23  1  0.666667  0.333333  0.527144  1
