# generated using pymatgen
data_Sm2ZnReRu2
_symmetry_space_group_name_H-M   'P 1'
_cell_length_a   5.45242829
_cell_length_b   5.22683470
_cell_length_c   9.07004300
_cell_angle_alpha   90.00000000
_cell_angle_beta   90.00000000
_cell_angle_gamma   118.64052987
_symmetry_Int_Tables_number   1
_chemical_formula_structural   Sm2ZnReRu2
_chemical_formula_sum   'Sm4 Zn2 Re2 Ru4'
_cell_volume   226.85927022
_cell_formula_units_Z   2
loop_
 _symmetry_equiv_pos_site_id
 _symmetry_equiv_pos_as_xyz
  1  'x, y, z'
loop_
 _atom_site_type_symbol
 _atom_site_label
 _atom_site_symmetry_multiplicity
 _atom_site_fract_x
 _atom_site_fract_y
 _atom_site_fract_z
 _atom_site_occupancy
  Sm  Sm0  1  0.328367  0.664184  0.434893  1
  Sm  Sm1  1  0.661338  0.330668  0.560604  1
  Sm  Sm2  1  0.661338  0.330668  0.939396  1
  Sm  Sm3  1  0.328367  0.664184  0.065107  1
  Zn  Zn4  1  0.176075  0.838059  0.750000  1
  Zn  Zn5  1  0.176075  0.338016  0.750000  1
  Re  Re6  1  0.839161  0.170837  0.250000  1
  Re  Re7  1  0.839161  0.668323  0.250000  1
  Ru  Ru8  1  0.976604  0.988301  0.500851  1
  Ru  Ru9  1  0.976604  0.988301  0.999149  1
  Ru  Ru10  1  0.358761  0.179380  0.250000  1
  Ru  Ru11  1  0.678154  0.839077  0.750000  1
