# generated using pymatgen
data_Hf18Cr2CoRe6Se
_symmetry_space_group_name_H-M   'P 1'
_cell_length_a   8.56931100
_cell_length_b   8.56931023
_cell_length_c   8.47828000
_cell_angle_alpha   90.00000000
_cell_angle_beta   90.00000000
_cell_angle_gamma   119.99999138
_symmetry_Int_Tables_number   1
_chemical_formula_structural   Hf18Cr2CoRe6Se
_chemical_formula_sum   'Hf18 Cr2 Co1 Re6 Se1'
_cell_volume   539.17555644
_cell_formula_units_Z   1
loop_
 _symmetry_equiv_pos_site_id
 _symmetry_equiv_pos_as_xyz
  1  'x, y, z'
loop_
 _atom_site_type_symbol
 _atom_site_label
 _atom_site_symmetry_multiplicity
 _atom_site_fract_x
 _atom_site_fract_y
 _atom_site_fract_z
 _atom_site_occupancy
  Hf  Hf0  1  0.190018  0.809982  0.452087  1
  Hf  Hf1  1  0.190018  0.380037  0.452087  1
  Hf  Hf2  1  0.619963  0.809982  0.452087  1
  Hf  Hf3  1  0.801468  0.198532  0.558370  1
  Hf  Hf4  1  0.801468  0.602936  0.558370  1
  Hf  Hf5  1  0.397064  0.198532  0.558370  1
  Hf  Hf6  1  0.801468  0.198532  0.941630  1
  Hf  Hf7  1  0.801468  0.602936  0.941630  1
  Hf  Hf8  1  0.397064  0.198532  0.941630  1
  Hf  Hf9  1  0.190018  0.809982  0.047913  1
  Hf  Hf10  1  0.190018  0.380037  0.047913  1
  Hf  Hf11  1  0.619963  0.809982  0.047913  1
  Hf  Hf12  1  0.544724  0.455276  0.250000  1
  Hf  Hf13  1  0.544724  0.089449  0.250000  1
  Hf  Hf14  1  0.910551  0.455276  0.250000  1
  Hf  Hf15  1  0.458797  0.541203  0.750000  1
  Hf  Hf16  1  0.458797  0.917593  0.750000  1
  Hf  Hf17  1  0.082407  0.541203  0.750000  1
  Cr  Cr18  1  0.000000  0.000000  0.501591  1
  Cr  Cr19  1  0.000000  0.000000  0.998409  1
  Co  Co20  1  0.666667  0.333333  0.750000  1
  Re  Re21  1  0.891649  0.108351  0.250000  1
  Re  Re22  1  0.891649  0.783299  0.250000  1
  Re  Re23  1  0.216701  0.108351  0.250000  1
  Re  Re24  1  0.108110  0.891890  0.750000  1
  Re  Re25  1  0.108110  0.216218  0.750000  1
  Re  Re26  1  0.783782  0.891890  0.750000  1
  Se  Se27  1  0.333333  0.666667  0.250000  1
