# generated using pymatgen
data_Y4Ho2Al24Os5Pd3
_symmetry_space_group_name_H-M   'P 1'
_cell_length_a   8.82951818
_cell_length_b   8.84698590
_cell_length_c   9.56025040
_cell_angle_alpha   90.14128208
_cell_angle_beta   89.71153498
_cell_angle_gamma   119.49335286
_symmetry_Int_Tables_number   1
_chemical_formula_structural   Y4Ho2Al24Os5Pd3
_chemical_formula_sum   'Y4 Ho2 Al24 Os5 Pd3'
_cell_volume   650.01201068
_cell_formula_units_Z   1
loop_
 _symmetry_equiv_pos_site_id
 _symmetry_equiv_pos_as_xyz
  1  'x, y, z'
loop_
 _atom_site_type_symbol
 _atom_site_label
 _atom_site_symmetry_multiplicity
 _atom_site_fract_x
 _atom_site_fract_y
 _atom_site_fract_z
 _atom_site_occupancy
  Y  Y0  1  0.187341  0.382537  0.250786  1
  Y  Y1  1  0.812659  0.617463  0.749214  1
  Y  Y2  1  0.613954  0.814425  0.252858  1
  Y  Y3  1  0.386046  0.185575  0.747142  1
  Ho  Ho4  1  0.196171  0.808590  0.251728  1
  Ho  Ho5  1  0.803829  0.191410  0.748272  1
  Al  Al6  1  0.335041  0.670948  0.028363  1
  Al  Al7  1  0.664959  0.329052  0.971637  1
  Al  Al8  1  0.669309  0.331623  0.526361  1
  Al  Al9  1  0.330691  0.668377  0.473639  1
  Al  Al10  1  0.157083  0.325215  0.575917  1
  Al  Al11  1  0.842917  0.674785  0.424083  1
  Al  Al12  1  0.673741  0.841503  0.576526  1
  Al  Al13  1  0.837044  0.676441  0.079247  1
  Al  Al14  1  0.326259  0.158497  0.423474  1
  Al  Al15  1  0.162956  0.323559  0.920753  1
  Al  Al16  1  0.163759  0.834836  0.575369  1
  Al  Al17  1  0.325405  0.158164  0.076800  1
  Al  Al18  1  0.836241  0.165164  0.424631  1
  Al  Al19  1  0.674595  0.841836  0.923200  1
  Al  Al20  1  0.831198  0.158968  0.077864  1
  Al  Al21  1  0.168802  0.841032  0.922136  1
  Al  Al22  1  0.561135  0.125391  0.249877  1
  Al  Al23  1  0.438865  0.874609  0.750123  1
  Al  Al24  1  0.874455  0.437867  0.252437  1
  Al  Al25  1  0.125545  0.562133  0.747563  1
  Al  Al26  1  0.561684  0.437257  0.249854  1
  Al  Al27  1  0.438316  0.562743  0.750146  1
  Al  Al28  1  0.999155  0.002029  0.250275  1
  Al  Al29  1  0.000845  0.997971  0.749725  1
  Os  Os30  1  0.500000  0.000000  0.000000  1
  Os  Os31  1  0.500000  0.000000  0.500000  1
  Os  Os32  1  0.000000  0.500000  0.500000  1
  Os  Os33  1  0.000000  0.000000  0.000000  1
  Os  Os34  1  0.000000  0.000000  0.500000  1
  Pd  Pd35  1  0.000000  0.500000  0.000000  1
  Pd  Pd36  1  0.500000  0.500000  0.000000  1
  Pd  Pd37  1  0.500000  0.500000  0.500000  1
