# generated using pymatgen
data_Pr2Tm2ReB12Ru
_symmetry_space_group_name_H-M   'P 1'
_cell_length_a   3.71514700
_cell_length_b   9.22630827
_cell_length_c   11.69656447
_cell_angle_alpha   89.81335075
_cell_angle_beta   90.00000000
_cell_angle_gamma   90.00000000
_symmetry_Int_Tables_number   1
_chemical_formula_structural   Pr2Tm2ReB12Ru
_chemical_formula_sum   'Pr4 Tm4 Re2 B24 Ru2'
_cell_volume   400.92208334
_cell_formula_units_Z   2
loop_
 _symmetry_equiv_pos_site_id
 _symmetry_equiv_pos_as_xyz
  1  'x, y, z'
loop_
 _atom_site_type_symbol
 _atom_site_label
 _atom_site_symmetry_multiplicity
 _atom_site_fract_x
 _atom_site_fract_y
 _atom_site_fract_z
 _atom_site_occupancy
  Pr  Pr0  1  0.000000  0.323928  0.415374  1
  Pr  Pr1  1  0.000000  0.676072  0.584626  1
  Pr  Pr2  1  0.000000  0.822257  0.086190  1
  Pr  Pr3  1  0.000000  0.177743  0.913810  1
  Tm  Tm4  1  0.000000  0.943226  0.370424  1
  Tm  Tm5  1  0.000000  0.056774  0.629576  1
  Tm  Tm6  1  0.000000  0.443845  0.130034  1
  Tm  Tm7  1  0.000000  0.556155  0.869966  1
  Re  Re8  1  0.000000  0.640994  0.317948  1
  Re  Re9  1  0.000000  0.359006  0.682052  1
  B  B10  1  0.500000  0.556070  0.429535  1
  B  B11  1  0.500000  0.443930  0.570465  1
  B  B12  1  0.500000  0.057184  0.070962  1
  B  B13  1  0.500000  0.942816  0.929038  1
  B  B14  1  0.500000  0.751136  0.415579  1
  B  B15  1  0.500000  0.248864  0.584421  1
  B  B16  1  0.500000  0.251006  0.084514  1
  B  B17  1  0.500000  0.748994  0.915486  1
  B  B18  1  0.500000  0.792211  0.265857  1
  B  B19  1  0.500000  0.207789  0.734143  1
  B  B20  1  0.500000  0.291179  0.233680  1
  B  B21  1  0.500000  0.708821  0.766320  1
  B  B22  1  0.500000  0.630263  0.185115  1
  B  B23  1  0.500000  0.369737  0.814885  1
  B  B24  1  0.500000  0.129760  0.313935  1
  B  B25  1  0.500000  0.870240  0.686065  1
  B  B26  1  0.500000  0.985814  0.213817  1
  B  B27  1  0.500000  0.014186  0.786183  1
  B  B28  1  0.500000  0.485309  0.285543  1
  B  B29  1  0.500000  0.514691  0.714457  1
  B  B30  1  0.500000  0.597993  0.026285  1
  B  B31  1  0.500000  0.402007  0.973715  1
  B  B32  1  0.500000  0.097233  0.473557  1
  B  B33  1  0.500000  0.902767  0.526443  1
  Ru  Ru34  1  0.000000  0.140409  0.181267  1
  Ru  Ru35  1  0.000000  0.859591  0.818733  1
