# generated using pymatgen
data_Tm6Zr4SnSb5
_symmetry_space_group_name_H-M   'P 1'
_cell_length_a   8.73701100
_cell_length_b   8.74308757
_cell_length_c   5.97760600
_cell_angle_alpha   90.00000000
_cell_angle_beta   90.00000000
_cell_angle_gamma   119.97701555
_symmetry_Int_Tables_number   1
_chemical_formula_structural   Tm6Zr4SnSb5
_chemical_formula_sum   'Tm6 Zr4 Sn1 Sb5'
_cell_volume   395.53613692
_cell_formula_units_Z   1
loop_
 _symmetry_equiv_pos_site_id
 _symmetry_equiv_pos_as_xyz
  1  'x, y, z'
loop_
 _atom_site_type_symbol
 _atom_site_label
 _atom_site_symmetry_multiplicity
 _atom_site_fract_x
 _atom_site_fract_y
 _atom_site_fract_z
 _atom_site_occupancy
  Tm  Tm0  1  0.247032  0.000000  0.250000  1
  Tm  Tm1  1  0.753909  0.000000  0.750000  1
  Tm  Tm2  1  0.998633  0.246536  0.250000  1
  Tm  Tm3  1  0.752097  0.753464  0.250000  1
  Tm  Tm4  1  0.248345  0.247310  0.750000  1
  Tm  Tm5  1  0.001035  0.752690  0.750000  1
  Zr  Zr6  1  0.332822  0.665882  0.999795  1
  Zr  Zr7  1  0.666941  0.334118  0.500205  1
  Zr  Zr8  1  0.666941  0.334118  0.999795  1
  Zr  Zr9  1  0.332822  0.665882  0.500205  1
  Sn  Sn10  1  0.604451  0.000000  0.250000  1
  Sb  Sb11  1  0.395002  0.000000  0.750000  1
  Sb  Sb12  1  0.999785  0.606611  0.250000  1
  Sb  Sb13  1  0.393174  0.393389  0.250000  1
  Sb  Sb14  1  0.607101  0.607191  0.750000  1
  Sb  Sb15  1  0.999909  0.392809  0.750000  1
