# generated using pymatgen
data_PrDyEr2(Ir2O7)2
_symmetry_space_group_name_H-M   'P 1'
_cell_length_a   7.30312635
_cell_length_b   7.24132479
_cell_length_c   7.25335056
_cell_angle_alpha   60.05482363
_cell_angle_beta   60.32465597
_cell_angle_gamma   60.27953157
_symmetry_Int_Tables_number   1
_chemical_formula_structural   PrDyEr2(Ir2O7)2
_chemical_formula_sum   'Pr1 Dy1 Er2 Ir4 O14'
_cell_volume   272.58355647
_cell_formula_units_Z   1
loop_
 _symmetry_equiv_pos_site_id
 _symmetry_equiv_pos_as_xyz
  1  'x, y, z'
loop_
 _atom_site_type_symbol
 _atom_site_label
 _atom_site_symmetry_multiplicity
 _atom_site_fract_x
 _atom_site_fract_y
 _atom_site_fract_z
 _atom_site_occupancy
  Pr  Pr0  1  0.625000  0.125000  0.125000  1
  Dy  Dy1  1  0.125000  0.125000  0.625000  1
  Er  Er2  1  0.125000  0.125000  0.125000  1
  Er  Er3  1  0.125000  0.625000  0.125000  1
  Ir  Ir4  1  0.625000  0.625000  0.625000  1
  Ir  Ir5  1  0.125000  0.625000  0.625000  1
  Ir  Ir6  1  0.625000  0.125000  0.625000  1
  Ir  Ir7  1  0.625000  0.625000  0.125000  1
  O  O8  1  0.962543  0.538860  0.537383  1
  O  O9  1  0.287457  0.288786  0.712617  1
  O  O10  1  0.962943  0.537700  0.961656  1
  O  O11  1  0.722411  0.288527  0.288475  1
  O  O12  1  0.527589  0.549413  0.961525  1
  O  O13  1  0.528831  0.961061  0.549046  1
  O  O14  1  0.527589  0.961473  0.961525  1
  O  O15  1  0.236527  0.255704  0.252065  1
  O  O16  1  0.287457  0.711140  0.712617  1
  O  O17  1  0.721169  0.288939  0.700954  1
  O  O18  1  0.013473  0.994296  0.997935  1
  O  O19  1  0.962543  0.961214  0.537383  1
  O  O20  1  0.287057  0.712300  0.288344  1
  O  O21  1  0.722411  0.700587  0.288475  1
