# generated using pymatgen
data_CsK11Rb2Nb2(In3As5)2
_symmetry_space_group_name_H-M   'P 1'
_cell_length_a   8.48349156
_cell_length_b   9.43986857
_cell_length_c   14.29744304
_cell_angle_alpha   85.06456064
_cell_angle_beta   83.22872713
_cell_angle_gamma   88.08057154
_symmetry_Int_Tables_number   1
_chemical_formula_structural   CsK11Rb2Nb2(In3As5)2
_chemical_formula_sum   'Cs1 K11 Rb2 Nb2 In6 As10'
_cell_volume   1132.46501707
_cell_formula_units_Z   1
loop_
 _symmetry_equiv_pos_site_id
 _symmetry_equiv_pos_as_xyz
  1  'x, y, z'
loop_
 _atom_site_type_symbol
 _atom_site_label
 _atom_site_symmetry_multiplicity
 _atom_site_fract_x
 _atom_site_fract_y
 _atom_site_fract_z
 _atom_site_occupancy
  Cs  Cs0  1  0.831468  0.361103  0.641654  1
  K  K1  1  0.817484  0.811172  0.132232  1
  K  K2  1  0.243429  0.007752  0.467317  1
  K  K3  1  0.273361  0.258890  0.251385  1
  K  K4  1  0.739874  0.498368  0.974752  1
  K  K5  1  0.258969  0.502064  0.026692  1
  K  K6  1  0.682282  0.080975  0.885123  1
  K  K7  1  0.758772  0.991005  0.530584  1
  K  K8  1  0.728318  0.743366  0.748712  1
  K  K9  1  0.336490  0.339086  0.607428  1
  K  K10  1  0.161767  0.638729  0.350454  1
  K  K11  1  0.180593  0.188651  0.867784  1
  Rb  Rb12  1  0.313671  0.922444  0.115418  1
  Rb  Rb13  1  0.674430  0.664119  0.395055  1
  Nb  Nb14  1  0.352002  0.602785  0.777633  1
  Nb  Nb15  1  0.646623  0.395929  0.224477  1
  In  In16  1  0.046875  0.817828  0.873782  1
  In  In17  1  0.952887  0.185111  0.125900  1
  In  In18  1  0.369280  0.958682  0.698948  1
  In  In19  1  0.091020  0.720467  0.620222  1
  In  In20  1  0.914316  0.278039  0.376307  1
  In  In21  1  0.631433  0.040917  0.300049  1
  As  As22  1  0.934708  0.460795  0.204235  1
  As  As23  1  0.620318  0.193244  0.119965  1
  As  As24  1  0.062908  0.543409  0.795825  1
  As  As25  1  0.577184  0.294961  0.395233  1
  As  As26  1  0.427595  0.699888  0.607099  1
  As  As27  1  0.022421  0.002525  0.698814  1
  As  As28  1  0.509340  0.393393  0.820536  1
  As  As29  1  0.479995  0.601658  0.187065  1
  As  As30  1  0.381700  0.808379  0.879133  1
  As  As31  1  0.978491  0.994267  0.300188  1
