# generated using pymatgen
data_CaPr16Er3Sn16
_symmetry_space_group_name_H-M   'P 1'
_cell_length_a   8.24797138
_cell_length_b   8.44964847
_cell_length_c   16.07506200
_cell_angle_alpha   90.00000000
_cell_angle_beta   90.00000000
_cell_angle_gamma   90.04157301
_symmetry_Int_Tables_number   1
_chemical_formula_structural   CaPr16Er3Sn16
_chemical_formula_sum   'Ca1 Pr16 Er3 Sn16'
_cell_volume   1120.31029986
_cell_formula_units_Z   1
loop_
 _symmetry_equiv_pos_site_id
 _symmetry_equiv_pos_as_xyz
  1  'x, y, z'
loop_
 _atom_site_type_symbol
 _atom_site_label
 _atom_site_symmetry_multiplicity
 _atom_site_fract_x
 _atom_site_fract_y
 _atom_site_fract_z
 _atom_site_occupancy
  Ca  Ca0  1  0.304357  0.000556  0.250000  1
  Pr  Pr1  1  0.363901  0.836166  0.877148  1
  Pr  Pr2  1  0.863289  0.660608  0.621267  1
  Pr  Pr3  1  0.634274  0.163302  0.379315  1
  Pr  Pr4  1  0.135970  0.336533  0.120458  1
  Pr  Pr5  1  0.634274  0.163302  0.120685  1
  Pr  Pr6  1  0.135970  0.336533  0.379542  1
  Pr  Pr7  1  0.363901  0.836166  0.622852  1
  Pr  Pr8  1  0.863289  0.660608  0.878733  1
  Pr  Pr9  1  0.516046  0.318016  0.901862  1
  Pr  Pr10  1  0.016300  0.180449  0.599335  1
  Pr  Pr11  1  0.484182  0.684160  0.402586  1
  Pr  Pr12  1  0.986072  0.819481  0.096655  1
  Pr  Pr13  1  0.484182  0.684160  0.097414  1
  Pr  Pr14  1  0.986072  0.819481  0.403345  1
  Pr  Pr15  1  0.516046  0.318016  0.598138  1
  Pr  Pr16  1  0.016300  0.180449  0.900665  1
  Er  Er17  1  0.196429  0.500592  0.750000  1
  Er  Er18  1  0.696115  0.998130  0.750000  1
  Er  Er19  1  0.804971  0.499551  0.250000  1
  Sn  Sn20  1  0.295335  0.038480  0.039090  1
  Sn  Sn21  1  0.794605  0.466792  0.454592  1
  Sn  Sn22  1  0.704270  0.964298  0.544159  1
  Sn  Sn23  1  0.205870  0.534099  0.955396  1
  Sn  Sn24  1  0.704270  0.964298  0.955841  1
  Sn  Sn25  1  0.205870  0.534099  0.544604  1
  Sn  Sn26  1  0.295335  0.038480  0.460910  1
  Sn  Sn27  1  0.794605  0.466792  0.045408  1
  Sn  Sn28  1  0.559523  0.613895  0.750000  1
  Sn  Sn29  1  0.059066  0.883592  0.750000  1
  Sn  Sn30  1  0.439963  0.391385  0.250000  1
  Sn  Sn31  1  0.935253  0.117080  0.250000  1
  Sn  Sn32  1  0.322687  0.147513  0.750000  1
  Sn  Sn33  1  0.821708  0.351016  0.750000  1
  Sn  Sn34  1  0.686081  0.852096  0.250000  1
  Sn  Sn35  1  0.173624  0.639823  0.250000  1
