# generated using pymatgen
data_La4CrMo3H20
_symmetry_space_group_name_H-M   'P 1'
_cell_length_a   4.56610604
_cell_length_b   4.93893055
_cell_length_c   12.03034196
_cell_angle_alpha   90.01633829
_cell_angle_beta   89.56375221
_cell_angle_gamma   89.96390392
_symmetry_Int_Tables_number   1
_chemical_formula_structural   La4CrMo3H20
_chemical_formula_sum   'La4 Cr1 Mo3 H20'
_cell_volume   271.29650067
_cell_formula_units_Z   1
loop_
 _symmetry_equiv_pos_site_id
 _symmetry_equiv_pos_as_xyz
  1  'x, y, z'
loop_
 _atom_site_type_symbol
 _atom_site_label
 _atom_site_symmetry_multiplicity
 _atom_site_fract_x
 _atom_site_fract_y
 _atom_site_fract_z
 _atom_site_occupancy
  La  La0  1  0.798500  0.750851  0.846822  1
  La  La1  1  0.276526  0.749397  0.149056  1
  La  La2  1  0.791028  0.249474  0.355571  1
  La  La3  1  0.287500  0.250773  0.645084  1
  Cr  Cr4  1  0.835115  0.750408  0.571732  1
  Mo  Mo5  1  0.238782  0.251358  0.924645  1
  Mo  Mo6  1  0.833563  0.248953  0.073240  1
  Mo  Mo7  1  0.234023  0.749466  0.433345  1
  H  H8  1  0.536559  0.043486  0.998495  1
  H  H9  1  0.034088  0.526795  0.998808  1
  H  H10  1  0.019935  0.016838  0.506635  1
  H  H11  1  0.545881  0.553159  0.505424  1
  H  H12  1  0.352555  0.999927  0.822073  1
  H  H13  1  0.718672  0.496738  0.176697  1
  H  H14  1  0.347791  0.996332  0.328667  1
  H  H15  1  0.732763  0.511626  0.667277  1
  H  H16  1  0.722312  0.997975  0.175924  1
  H  H17  1  0.966415  0.251782  0.816636  1
  H  H18  1  0.733042  0.989758  0.667231  1
  H  H19  1  0.343538  0.499232  0.329293  1
  H  H20  1  0.349075  0.505864  0.822803  1
  H  H21  1  0.105131  0.248668  0.181008  1
  H  H22  1  0.959737  0.750318  0.326157  1
  H  H23  1  0.099538  0.750398  0.668245  1
  H  H24  1  0.037251  0.973528  0.998252  1
  H  H25  1  0.536581  0.456760  0.998900  1
  H  H26  1  0.545034  0.946815  0.505490  1
  H  H27  1  0.019067  0.483323  0.506493  1
