# generated using pymatgen
data_Eu3Y3PuO12
_symmetry_space_group_name_H-M   'P 1'
_cell_length_a   6.73360988
_cell_length_b   6.73360930
_cell_length_c   6.73361000
_cell_angle_alpha   98.78570850
_cell_angle_beta   98.78571634
_cell_angle_gamma   98.78571098
_symmetry_Int_Tables_number   1
_chemical_formula_structural   Eu3Y3PuO12
_chemical_formula_sum   'Eu3 Y3 Pu1 O12'
_cell_volume   293.30381856
_cell_formula_units_Z   1
loop_
 _symmetry_equiv_pos_site_id
 _symmetry_equiv_pos_as_xyz
  1  'x, y, z'
loop_
 _atom_site_type_symbol
 _atom_site_label
 _atom_site_symmetry_multiplicity
 _atom_site_fract_x
 _atom_site_fract_y
 _atom_site_fract_z
 _atom_site_occupancy
  Eu  Eu0  1  0.392318  0.682992  0.856342  1
  Eu  Eu1  1  0.856342  0.392318  0.682992  1
  Eu  Eu2  1  0.682992  0.856342  0.392318  1
  Y  Y3  1  0.608409  0.323064  0.147799  1
  Y  Y4  1  0.147799  0.608409  0.323064  1
  Y  Y5  1  0.323064  0.147799  0.608409  1
  Pu  Pu6  1  0.003228  0.003228  0.003228  1
  O  O7  1  0.177350  0.425244  0.581212  1
  O  O8  1  0.581212  0.177350  0.425244  1
  O  O9  1  0.425244  0.581212  0.177350  1
  O  O10  1  0.824389  0.566139  0.395064  1
  O  O11  1  0.395064  0.824389  0.566139  1
  O  O12  1  0.566139  0.395064  0.824389  1
  O  O13  1  0.926989  0.040534  0.706812  1
  O  O14  1  0.960194  0.299978  0.081944  1
  O  O15  1  0.299978  0.081944  0.960194  1
  O  O16  1  0.081944  0.960194  0.299978  1
  O  O17  1  0.040534  0.706812  0.926989  1
  O  O18  1  0.706812  0.926989  0.040534  1
