# generated using pymatgen
data_TbYb(MnB4)2
_symmetry_space_group_name_H-M   'P 1'
_cell_length_a   3.38882900
_cell_length_b   5.90996607
_cell_length_c   11.42925214
_cell_angle_alpha   89.98211373
_cell_angle_beta   90.00000000
_cell_angle_gamma   90.00000000
_symmetry_Int_Tables_number   1
_chemical_formula_structural   TbYb(MnB4)2
_chemical_formula_sum   'Tb2 Yb2 Mn4 B16'
_cell_volume   228.90350104
_cell_formula_units_Z   2
loop_
 _symmetry_equiv_pos_site_id
 _symmetry_equiv_pos_as_xyz
  1  'x, y, z'
loop_
 _atom_site_type_symbol
 _atom_site_label
 _atom_site_symmetry_multiplicity
 _atom_site_fract_x
 _atom_site_fract_y
 _atom_site_fract_z
 _atom_site_occupancy
  Tb  Tb0  1  0.500000  0.374074  0.151691  1
  Tb  Tb1  1  0.500000  0.625926  0.848309  1
  Yb  Yb2  1  0.500000  0.124726  0.650249  1
  Yb  Yb3  1  0.500000  0.875274  0.349751  1
  Mn  Mn4  1  0.500000  0.378013  0.420571  1
  Mn  Mn5  1  0.500000  0.621987  0.579429  1
  Mn  Mn6  1  0.500000  0.125881  0.917465  1
  Mn  Mn7  1  0.500000  0.874119  0.082535  1
  B  B8  1  0.000000  0.111814  0.046707  1
  B  B9  1  0.000000  0.888186  0.953293  1
  B  B10  1  0.000000  0.386098  0.546383  1
  B  B11  1  0.000000  0.613902  0.453617  1
  B  B12  1  0.000000  0.137862  0.467389  1
  B  B13  1  0.000000  0.862138  0.532611  1
  B  B14  1  0.000000  0.361115  0.967636  1
  B  B15  1  0.000000  0.638885  0.032364  1
  B  B16  1  0.000000  0.024679  0.191380  1
  B  B17  1  0.000000  0.975321  0.808620  1
  B  B18  1  0.000000  0.475297  0.689780  1
  B  B19  1  0.000000  0.524703  0.310220  1
  B  B20  1  0.000000  0.219962  0.317944  1
  B  B21  1  0.000000  0.780038  0.682056  1
  B  B22  1  0.000000  0.278512  0.816047  1
  B  B23  1  0.000000  0.721488  0.183953  1
