# generated using pymatgen
data_Nd19Y(CoAu2)4
_symmetry_space_group_name_H-M   'P 1'
_cell_length_a   8.75098754
_cell_length_b   8.25295800
_cell_length_c   12.14658600
_cell_angle_alpha   90.00000000
_cell_angle_beta   89.96597342
_cell_angle_gamma   90.00000000
_symmetry_Int_Tables_number   1
_chemical_formula_structural   Nd19Y(CoAu2)4
_chemical_formula_sum   'Nd19 Y1 Co4 Au8'
_cell_volume   877.24490272
_cell_formula_units_Z   1
loop_
 _symmetry_equiv_pos_site_id
 _symmetry_equiv_pos_as_xyz
  1  'x, y, z'
loop_
 _atom_site_type_symbol
 _atom_site_label
 _atom_site_symmetry_multiplicity
 _atom_site_fract_x
 _atom_site_fract_y
 _atom_site_fract_z
 _atom_site_occupancy
  Nd  Nd0  1  0.839099  0.750000  0.788735  1
  Nd  Nd1  1  0.159795  0.250000  0.212122  1
  Nd  Nd2  1  0.340989  0.250000  0.711709  1
  Nd  Nd3  1  0.659740  0.750000  0.286413  1
  Nd  Nd4  1  0.388023  0.750000  0.698867  1
  Nd  Nd5  1  0.612146  0.250000  0.301440  1
  Nd  Nd6  1  0.887611  0.250000  0.801788  1
  Nd  Nd7  1  0.114433  0.750000  0.198204  1
  Nd  Nd8  1  0.953359  0.750000  0.490824  1
  Nd  Nd9  1  0.046338  0.250000  0.509505  1
  Nd  Nd10  1  0.453918  0.250000  0.009438  1
  Nd  Nd11  1  0.671339  0.037124  0.574884  1
  Nd  Nd12  1  0.328561  0.962520  0.425263  1
  Nd  Nd13  1  0.173016  0.962272  0.925188  1
  Nd  Nd14  1  0.328561  0.537480  0.425263  1
  Nd  Nd15  1  0.826993  0.037120  0.074714  1
  Nd  Nd16  1  0.671339  0.462876  0.574884  1
  Nd  Nd17  1  0.826993  0.462880  0.074714  1
  Nd  Nd18  1  0.173016  0.537728  0.925188  1
  Y  Y19  1  0.544335  0.750000  0.991027  1
  Co  Co20  1  0.564667  0.750000  0.506341  1
  Co  Co21  1  0.435278  0.250000  0.493840  1
  Co  Co22  1  0.064824  0.250000  0.994288  1
  Co  Co23  1  0.933914  0.750000  0.005689  1
  Au  Au24  1  0.581584  0.474251  0.828782  1
  Au  Au25  1  0.419692  0.532911  0.170938  1
  Au  Au26  1  0.082162  0.529960  0.673617  1
  Au  Au27  1  0.419692  0.967089  0.170938  1
  Au  Au28  1  0.917419  0.470288  0.326498  1
  Au  Au29  1  0.581584  0.025749  0.828782  1
  Au  Au30  1  0.917419  0.029712  0.326498  1
  Au  Au31  1  0.082162  0.970040  0.673617  1
