# generated using pymatgen
data_Mg2Ta(NbOs2)3
_symmetry_space_group_name_H-M   'P 1'
_cell_length_a   4.48716500
_cell_length_b   6.34644700
_cell_length_c   13.44705300
_cell_angle_alpha   90.00000000
_cell_angle_beta   89.99954860
_cell_angle_gamma   90.00000000
_symmetry_Int_Tables_number   1
_chemical_formula_structural   Mg2Ta(NbOs2)3
_chemical_formula_sum   'Mg4 Ta2 Nb6 Os12'
_cell_volume   382.93918941
_cell_formula_units_Z   2
loop_
 _symmetry_equiv_pos_site_id
 _symmetry_equiv_pos_as_xyz
  1  'x, y, z'
loop_
 _atom_site_type_symbol
 _atom_site_label
 _atom_site_symmetry_multiplicity
 _atom_site_fract_x
 _atom_site_fract_y
 _atom_site_fract_z
 _atom_site_occupancy
  Mg  Mg0  1  0.999981  0.500000  0.334921  1
  Mg  Mg1  1  0.499998  0.000000  0.501078  1
  Mg  Mg2  1  0.000017  0.500000  0.665563  1
  Mg  Mg3  1  0.500019  0.000000  0.831734  1
  Ta  Ta4  1  0.000001  0.500000  0.996454  1
  Ta  Ta5  1  0.499981  0.000000  0.170254  1
  Nb  Nb6  1  0.999998  0.000000  0.993727  1
  Nb  Nb7  1  0.499984  0.500000  0.172978  1
  Nb  Nb8  1  0.999980  0.000000  0.343328  1
  Nb  Nb9  1  0.500003  0.500000  0.502819  1
  Nb  Nb10  1  0.000017  0.000000  0.663837  1
  Nb  Nb11  1  0.500017  0.500000  0.823350  1
  Os  Os12  1  0.499997  0.252656  0.003499  1
  Os  Os13  1  0.499997  0.747344  0.003499  1
  Os  Os14  1  0.999981  0.247350  0.163174  1
  Os  Os15  1  0.999981  0.752650  0.163174  1
  Os  Os16  1  0.499981  0.248141  0.329575  1
  Os  Os17  1  0.499981  0.751859  0.329575  1
  Os  Os18  1  0.000001  0.249987  0.499550  1
  Os  Os19  1  0.000001  0.750014  0.499550  1
  Os  Os20  1  0.500024  0.250011  0.667098  1
  Os  Os21  1  0.500024  0.749989  0.667098  1
  Os  Os22  1  0.000019  0.251850  0.837083  1
  Os  Os23  1  0.000019  0.748150  0.837083  1
