# generated using pymatgen
data_AcPr3(MnN3)2
_symmetry_space_group_name_H-M   'P 1'
_cell_length_a   6.19352306
_cell_length_b   6.19352291
_cell_length_c   12.16880034
_cell_angle_alpha   91.11279403
_cell_angle_beta   88.88720470
_cell_angle_gamma   127.65194837
_symmetry_Int_Tables_number   1
_chemical_formula_structural   AcPr3(MnN3)2
_chemical_formula_sum   'Ac2 Pr6 Mn4 N12'
_cell_volume   369.48943181
_cell_formula_units_Z   2
loop_
 _symmetry_equiv_pos_site_id
 _symmetry_equiv_pos_as_xyz
  1  'x, y, z'
loop_
 _atom_site_type_symbol
 _atom_site_label
 _atom_site_symmetry_multiplicity
 _atom_site_fract_x
 _atom_site_fract_y
 _atom_site_fract_z
 _atom_site_occupancy
  Ac  Ac0  1  0.446636  0.553364  0.349442  1
  Ac  Ac1  1  0.553364  0.446636  0.650558  1
  Pr  Pr2  1  0.062586  0.937414  0.861624  1
  Pr  Pr3  1  0.937414  0.062586  0.138376  1
  Pr  Pr4  1  0.144427  0.855573  0.429680  1
  Pr  Pr5  1  0.855573  0.144427  0.570320  1
  Pr  Pr6  1  0.358376  0.641624  0.931151  1
  Pr  Pr7  1  0.641624  0.358376  0.068849  1
  Mn  Mn8  1  0.256085  0.743915  0.160424  1
  Mn  Mn9  1  0.743915  0.256085  0.839576  1
  Mn  Mn10  1  0.236006  0.763994  0.661864  1
  Mn  Mn11  1  0.763994  0.236006  0.338136  1
  N  N12  1  0.149379  0.850621  0.041343  1
  N  N13  1  0.850621  0.149379  0.958657  1
  N  N14  1  0.342648  0.657352  0.539785  1
  N  N15  1  0.657352  0.342648  0.460215  1
  N  N16  1  0.431702  0.568298  0.127748  1
  N  N17  1  0.568298  0.431702  0.872252  1
  N  N18  1  0.065289  0.934711  0.630113  1
  N  N19  1  0.934711  0.065289  0.369887  1
  N  N20  1  0.993758  0.502591  0.249702  1
  N  N21  1  0.502591  0.993758  0.750298  1
  N  N22  1  0.006242  0.497409  0.750298  1
  N  N23  1  0.497409  0.006242  0.249702  1
