# generated using pymatgen
data_Tm3GeS2
_symmetry_space_group_name_H-M   'P 1'
_cell_length_a   6.82663428
_cell_length_b   6.82663356
_cell_length_c   6.82663427
_cell_angle_alpha   146.21318518
_cell_angle_beta   131.85845965
_cell_angle_gamma   60.10545293
_symmetry_Int_Tables_number   1
_chemical_formula_structural   Tm3GeS2
_chemical_formula_sum   'Tm3 Ge1 S2'
_cell_volume   130.55077069
_cell_formula_units_Z   1
loop_
 _symmetry_equiv_pos_site_id
 _symmetry_equiv_pos_as_xyz
  1  'x, y, z'
loop_
 _atom_site_type_symbol
 _atom_site_label
 _atom_site_symmetry_multiplicity
 _atom_site_fract_x
 _atom_site_fract_y
 _atom_site_fract_z
 _atom_site_occupancy
  Tm  Tm0  1  0.834190  0.334190  0.500000  1
  Tm  Tm1  1  0.500000  0.000000  0.500000  1
  Tm  Tm2  1  0.165810  0.665810  0.500000  1
  Ge  Ge3  1  0.000000  0.000000  0.000000  1
  S  S4  1  0.666761  0.666761  0.000000  1
  S  S5  1  0.333239  0.333239  0.000000  1
