# generated using pymatgen
data_La9Ga4
_symmetry_space_group_name_H-M   'P 1'
_cell_length_a   9.13133538
_cell_length_b   9.13133506
_cell_length_c   9.13833022
_cell_angle_alpha   94.66824185
_cell_angle_beta   94.75863593
_cell_angle_gamma   146.67102236
_symmetry_Int_Tables_number   1
_chemical_formula_structural   La9Ga4
_chemical_formula_sum   'La9 Ga4'
_cell_volume   401.10246367
_cell_formula_units_Z   1
loop_
 _symmetry_equiv_pos_site_id
 _symmetry_equiv_pos_as_xyz
  1  'x, y, z'
loop_
 _atom_site_type_symbol
 _atom_site_label
 _atom_site_symmetry_multiplicity
 _atom_site_fract_x
 _atom_site_fract_y
 _atom_site_fract_z
 _atom_site_occupancy
  La  La0  1  0.599381  0.865783  0.465163  1
  La  La1  1  0.400761  0.135196  0.535956  1
  La  La2  1  0.132636  0.598261  0.730896  1
  La  La3  1  0.865565  0.401183  0.266748  1
  La  La4  1  0.890610  0.813225  0.703834  1
  La  La5  1  0.109081  0.187602  0.296683  1
  La  La6  1  0.187165  0.890165  0.077331  1
  La  La7  1  0.500071  0.499591  0.999662  1
  La  La8  1  0.813902  0.109687  0.923589  1
  Ga  Ga9  1  0.730498  0.611987  0.342484  1
  Ga  Ga10  1  0.269484  0.388679  0.658163  1
  Ga  Ga11  1  0.388561  0.730238  0.118799  1
  Ga  Ga12  1  0.612287  0.268403  0.880689  1
