# generated using pymatgen
data_MgTa6Ga5Os12
_symmetry_space_group_name_H-M   'P 1'
_cell_length_a   4.42138500
_cell_length_b   6.26350800
_cell_length_c   13.27203600
_cell_angle_alpha   90.00000000
_cell_angle_beta   89.99968476
_cell_angle_gamma   90.00000000
_symmetry_Int_Tables_number   1
_chemical_formula_structural   MgTa6Ga5Os12
_chemical_formula_sum   'Mg1 Ta6 Ga5 Os12'
_cell_volume   367.54754055
_cell_formula_units_Z   1
loop_
 _symmetry_equiv_pos_site_id
 _symmetry_equiv_pos_as_xyz
  1  'x, y, z'
loop_
 _atom_site_type_symbol
 _atom_site_label
 _atom_site_symmetry_multiplicity
 _atom_site_fract_x
 _atom_site_fract_y
 _atom_site_fract_z
 _atom_site_occupancy
  Mg  Mg0  1  0.000000  0.000000  0.000000  1
  Ta  Ta1  1  0.000000  0.500001  0.000000  1
  Ta  Ta2  1  0.499769  0.000000  0.165816  1
  Ta  Ta3  1  0.999754  0.500001  0.332752  1
  Ta  Ta4  1  0.499999  0.000000  0.500000  1
  Ta  Ta5  1  0.000245  0.500001  0.667248  1
  Ta  Ta6  1  0.500231  0.000000  0.834184  1
  Ga  Ga7  1  0.499683  0.500001  0.166273  1
  Ga  Ga8  1  0.999677  0.000000  0.333042  1
  Ga  Ga9  1  0.499999  0.500001  0.500000  1
  Ga  Ga10  1  0.000321  0.000000  0.666958  1
  Ga  Ga11  1  0.500318  0.500001  0.833727  1
  Os  Os12  1  0.499999  0.251828  0.000000  1
  Os  Os13  1  0.499999  0.748172  0.000000  1
  Os  Os14  1  0.999761  0.250635  0.167998  1
  Os  Os15  1  0.999761  0.749365  0.167998  1
  Os  Os16  1  0.499755  0.250430  0.334041  1
  Os  Os17  1  0.499755  0.749570  0.334041  1
  Os  Os18  1  0.000000  0.249743  0.500000  1
  Os  Os19  1  0.000000  0.750257  0.500000  1
  Os  Os20  1  0.500243  0.250430  0.665959  1
  Os  Os21  1  0.500243  0.749570  0.665959  1
  Os  Os22  1  0.000240  0.250635  0.832002  1
  Os  Os23  1  0.000240  0.749365  0.832002  1
