# generated using pymatgen
data_Nd3Tm2In3Br
_symmetry_space_group_name_H-M   'P 1'
_cell_length_a   9.42727700
_cell_length_b   9.42727613
_cell_length_c   6.73770400
_cell_angle_alpha   90.00000000
_cell_angle_beta   90.00000000
_cell_angle_gamma   119.99992236
_symmetry_Int_Tables_number   1
_chemical_formula_structural   Nd3Tm2In3Br
_chemical_formula_sum   'Nd6 Tm4 In6 Br2'
_cell_volume   518.57956010
_cell_formula_units_Z   2
loop_
 _symmetry_equiv_pos_site_id
 _symmetry_equiv_pos_as_xyz
  1  'x, y, z'
loop_
 _atom_site_type_symbol
 _atom_site_label
 _atom_site_symmetry_multiplicity
 _atom_site_fract_x
 _atom_site_fract_y
 _atom_site_fract_z
 _atom_site_occupancy
  Nd  Nd0  1  0.731571  0.731581  0.250000  1
  Nd  Nd1  1  0.999920  0.731385  0.750000  1
  Nd  Nd2  1  0.731457  0.999840  0.750000  1
  Nd  Nd3  1  0.268429  0.268419  0.750000  1
  Nd  Nd4  1  0.000080  0.268615  0.250000  1
  Nd  Nd5  1  0.268543  0.000160  0.250000  1
  Tm  Tm6  1  0.333317  0.666634  0.499987  1
  Tm  Tm7  1  0.666683  0.333366  0.500013  1
  Tm  Tm8  1  0.333317  0.666634  0.000013  1
  Tm  Tm9  1  0.666683  0.333366  0.999987  1
  In  In10  1  0.395660  0.999991  0.750000  1
  In  In11  1  0.999976  0.604257  0.250000  1
  In  In12  1  0.604340  0.000009  0.250000  1
  In  In13  1  0.000024  0.395743  0.750000  1
  In  In14  1  0.395649  0.395712  0.250000  1
  In  In15  1  0.604351  0.604288  0.750000  1
  Br  Br16  1  0.000000  0.000000  0.500000  1
  Br  Br17  1  0.000000  0.000000  0.000000  1
