# generated using pymatgen
data_LiMn3(InPd5)2
_symmetry_space_group_name_H-M   'P 1'
_cell_length_a   4.12515400
_cell_length_b   5.54959189
_cell_length_c   11.01507575
_cell_angle_alpha   89.79455620
_cell_angle_beta   90.00000000
_cell_angle_gamma   90.00000000
_symmetry_Int_Tables_number   1
_chemical_formula_structural   LiMn3(InPd5)2
_chemical_formula_sum   'Li1 Mn3 In2 Pd10'
_cell_volume   252.16564015
_cell_formula_units_Z   1
loop_
 _symmetry_equiv_pos_site_id
 _symmetry_equiv_pos_as_xyz
  1  'x, y, z'
loop_
 _atom_site_type_symbol
 _atom_site_label
 _atom_site_symmetry_multiplicity
 _atom_site_fract_x
 _atom_site_fract_y
 _atom_site_fract_z
 _atom_site_occupancy
  Li  Li0  1  0.500000  0.303895  0.862608  1
  Mn  Mn1  1  0.500000  0.803443  0.639457  1
  Mn  Mn2  1  0.500000  0.695982  0.134334  1
  Mn  Mn3  1  0.500000  0.197000  0.364097  1
  In  In4  1  0.000000  0.500514  0.500871  1
  In  In5  1  0.000000  0.006108  0.996417  1
  Pd  Pd6  1  0.500000  0.714529  0.381367  1
  Pd  Pd7  1  0.500000  0.285575  0.618489  1
  Pd  Pd8  1  0.000000  0.051877  0.750662  1
  Pd  Pd9  1  0.500000  0.779930  0.881824  1
  Pd  Pd10  1  0.000000  0.446508  0.253047  1
  Pd  Pd11  1  0.000000  0.945104  0.246459  1
  Pd  Pd12  1  0.000000  0.554438  0.747545  1
  Pd  Pd13  1  0.000000  0.503551  0.001944  1
  Pd  Pd14  1  0.000000  0.000288  0.499586  1
  Pd  Pd15  1  0.500000  0.211259  0.121293  1
