# generated using pymatgen
data_Sm6UO12
_symmetry_space_group_name_H-M   'P 1'
_cell_length_a   6.73349325
_cell_length_b   6.73349563
_cell_length_c   6.73349406
_cell_angle_alpha   98.99496948
_cell_angle_beta   98.99496336
_cell_angle_gamma   98.99496900
_symmetry_Int_Tables_number   1
_chemical_formula_structural   Sm6UO12
_chemical_formula_sum   'Sm6 U1 O12'
_cell_volume   292.67427847
_cell_formula_units_Z   1
loop_
 _symmetry_equiv_pos_site_id
 _symmetry_equiv_pos_as_xyz
  1  'x, y, z'
loop_
 _atom_site_type_symbol
 _atom_site_label
 _atom_site_symmetry_multiplicity
 _atom_site_fract_x
 _atom_site_fract_y
 _atom_site_fract_z
 _atom_site_occupancy
  Sm  Sm0  1  0.317894  0.610308  0.144944  1
  Sm  Sm1  1  0.610307  0.144944  0.317895  1
  Sm  Sm2  1  0.855056  0.682106  0.389693  1
  Sm  Sm3  1  0.144945  0.317894  0.610307  1
  Sm  Sm4  1  0.389693  0.855056  0.682106  1
  Sm  Sm5  1  0.682106  0.389693  0.855056  1
  U  U6  1  0.000000  0.000000  0.000000  1
  O  O7  1  0.925280  0.697315  0.045386  1
  O  O8  1  0.302686  0.954614  0.074720  1
  O  O9  1  0.589123  0.432490  0.177845  1
  O  O10  1  0.954613  0.074720  0.302686  1
  O  O11  1  0.567510  0.822155  0.410878  1
  O  O12  1  0.177844  0.589123  0.432490  1
  O  O13  1  0.822156  0.410877  0.567510  1
  O  O14  1  0.432490  0.177845  0.589123  1
  O  O15  1  0.045387  0.925280  0.697315  1
  O  O16  1  0.410877  0.567511  0.822155  1
  O  O17  1  0.697314  0.045386  0.925281  1
  O  O18  1  0.074720  0.302685  0.954614  1
