# generated using pymatgen
data_Sm6DyFeI12
_symmetry_space_group_name_H-M   'P 1'
_cell_length_a   9.89014043
_cell_length_b   9.91780958
_cell_length_c   9.84224000
_cell_angle_alpha   106.99205231
_cell_angle_beta   106.48504584
_cell_angle_gamma   106.94191415
_symmetry_Int_Tables_number   1
_chemical_formula_structural   Sm6DyFeI12
_chemical_formula_sum   'Sm6 Dy1 Fe1 I12'
_cell_volume   808.19835823
_cell_formula_units_Z   1
loop_
 _symmetry_equiv_pos_site_id
 _symmetry_equiv_pos_as_xyz
  1  'x, y, z'
loop_
 _atom_site_type_symbol
 _atom_site_label
 _atom_site_symmetry_multiplicity
 _atom_site_fract_x
 _atom_site_fract_y
 _atom_site_fract_z
 _atom_site_occupancy
  Sm  Sm0  1  0.978719  0.910249  0.718969  1
  Sm  Sm1  1  0.499449  0.499965  0.499769  1
  Sm  Sm2  1  0.093519  0.295917  0.020736  1
  Sm  Sm3  1  0.296797  0.022358  0.094257  1
  Sm  Sm4  1  0.903830  0.703757  0.978532  1
  Sm  Sm5  1  0.020390  0.089766  0.280710  1
  Dy  Dy6  1  0.710260  0.977883  0.907551  1
  Fe  Fe7  1  0.000298  0.999742  0.999942  1
  I  I8  1  0.071236  0.224538  0.679081  1
  I  I9  1  0.383357  0.159508  0.462628  1
  I  I10  1  0.616630  0.842912  0.543127  1
  I  I11  1  0.226227  0.680075  0.072379  1
  I  I12  1  0.769736  0.314388  0.926555  1
  I  I13  1  0.680265  0.071684  0.221716  1
  I  I14  1  0.536618  0.619658  0.842569  1
  I  I15  1  0.840905  0.538929  0.615078  1
  I  I16  1  0.928324  0.775460  0.320812  1
  I  I17  1  0.321348  0.926988  0.772947  1
  I  I18  1  0.463606  0.385259  0.157670  1
  I  I19  1  0.158489  0.460959  0.384973  1
