# generated using pymatgen
data_Tb3SmAl18Rh5Au
_symmetry_space_group_name_H-M   'P 1'
_cell_length_a   7.62295453
_cell_length_b   7.62171783
_cell_length_c   9.52171500
_cell_angle_alpha   89.97992844
_cell_angle_beta   89.97860133
_cell_angle_gamma   119.78859529
_symmetry_Int_Tables_number   1
_chemical_formula_structural   Tb3SmAl18Rh5Au
_chemical_formula_sum   'Tb3 Sm1 Al18 Rh5 Au1'
_cell_volume   480.11261178
_cell_formula_units_Z   1
loop_
 _symmetry_equiv_pos_site_id
 _symmetry_equiv_pos_as_xyz
  1  'x, y, z'
loop_
 _atom_site_type_symbol
 _atom_site_label
 _atom_site_symmetry_multiplicity
 _atom_site_fract_x
 _atom_site_fract_y
 _atom_site_fract_z
 _atom_site_occupancy
  Tb  Tb0  1  0.001825  0.329206  0.750108  1
  Tb  Tb1  1  0.670687  0.997983  0.249958  1
  Tb  Tb2  1  0.334213  0.008268  0.749556  1
  Sm  Sm3  1  0.991629  0.665598  0.250057  1
  Al  Al4  1  0.125618  0.124551  0.251260  1
  Al  Al5  1  0.876284  0.875009  0.748734  1
  Al  Al6  1  0.012155  0.333835  0.077088  1
  Al  Al7  1  0.008401  0.675181  0.920569  1
  Al  Al8  1  0.002655  0.666271  0.575072  1
  Al  Al9  1  0.334194  0.998021  0.427326  1
  Al  Al10  1  0.000693  0.333069  0.426733  1
  Al  Al11  1  0.665862  0.999248  0.574514  1
  Al  Al12  1  0.665201  0.988523  0.921778  1
  Al  Al13  1  0.325660  0.992673  0.076847  1
  Al  Al14  1  0.331100  0.331595  0.549727  1
  Al  Al15  1  0.667583  0.668514  0.452675  1
  Al  Al16  1  0.664843  0.672971  0.055905  1
  Al  Al17  1  0.327415  0.334439  0.941565  1
  Al  Al18  1  0.341344  0.551294  0.251485  1
  Al  Al19  1  0.659862  0.458957  0.741178  1
  Al  Al20  1  0.539804  0.338726  0.259457  1
  Al  Al21  1  0.448225  0.659770  0.748396  1
  Rh  Rh22  1  0.329070  0.671086  0.999437  1
  Rh  Rh23  1  0.329088  0.670924  0.500349  1
  Rh  Rh24  1  0.671923  0.327149  0.500818  1
  Rh  Rh25  1  0.000229  0.000543  0.999148  1
  Rh  Rh26  1  0.000519  0.000119  0.500649  1
  Au  Au27  1  0.673920  0.326475  0.999612  1
