# generated using pymatgen
data_TbDy3(GePt2)4
_symmetry_space_group_name_H-M   'P 1'
_cell_length_a   5.65572520
_cell_length_b   7.09261400
_cell_length_c   7.42520354
_cell_angle_alpha   90.00000000
_cell_angle_beta   90.00676839
_cell_angle_gamma   90.00000000
_symmetry_Int_Tables_number   1
_chemical_formula_structural   TbDy3(GePt2)4
_chemical_formula_sum   'Tb1 Dy3 Ge4 Pt8'
_cell_volume   297.85368981
_cell_formula_units_Z   1
loop_
 _symmetry_equiv_pos_site_id
 _symmetry_equiv_pos_as_xyz
  1  'x, y, z'
loop_
 _atom_site_type_symbol
 _atom_site_label
 _atom_site_symmetry_multiplicity
 _atom_site_fract_x
 _atom_site_fract_y
 _atom_site_fract_z
 _atom_site_occupancy
  Tb  Tb0  1  0.357075  0.750000  0.028741  1
  Dy  Dy1  1  0.143554  0.750000  0.528381  1
  Dy  Dy2  1  0.643970  0.250000  0.971330  1
  Dy  Dy3  1  0.856573  0.250000  0.471350  1
  Ge  Ge4  1  0.641394  0.750000  0.384445  1
  Ge  Ge5  1  0.859049  0.750000  0.883696  1
  Ge  Ge6  1  0.358751  0.250000  0.616176  1
  Ge  Ge7  1  0.141533  0.250000  0.115946  1
  Pt  Pt8  1  0.914863  0.549774  0.188050  1
  Pt  Pt9  1  0.584903  0.950212  0.687606  1
  Pt  Pt10  1  0.084054  0.050305  0.811648  1
  Pt  Pt11  1  0.415231  0.449711  0.312665  1
  Pt  Pt12  1  0.084054  0.449695  0.811648  1
  Pt  Pt13  1  0.415231  0.050289  0.312665  1
  Pt  Pt14  1  0.914863  0.950226  0.188050  1
  Pt  Pt15  1  0.584903  0.549788  0.687606  1
