# generated using pymatgen
data_La2Cu9Ir
_symmetry_space_group_name_H-M   'P 1'
_cell_length_a   5.28672117
_cell_length_b   5.28671956
_cell_length_c   8.18771700
_cell_angle_alpha   90.00000000
_cell_angle_beta   90.00000000
_cell_angle_gamma   122.79690216
_symmetry_Int_Tables_number   1
_chemical_formula_structural   La2Cu9Ir
_chemical_formula_sum   'La2 Cu9 Ir1'
_cell_volume   192.36354199
_cell_formula_units_Z   1
loop_
 _symmetry_equiv_pos_site_id
 _symmetry_equiv_pos_as_xyz
  1  'x, y, z'
loop_
 _atom_site_type_symbol
 _atom_site_label
 _atom_site_symmetry_multiplicity
 _atom_site_fract_x
 _atom_site_fract_y
 _atom_site_fract_z
 _atom_site_occupancy
  La  La0  1  0.000000  0.000000  0.733870  1
  La  La1  1  0.000000  0.000000  0.266130  1
  Cu  Cu2  1  0.671773  0.328227  0.753834  1
  Cu  Cu3  1  0.671773  0.328227  0.246166  1
  Cu  Cu4  1  0.500000  0.500000  0.000000  1
  Cu  Cu5  1  0.328227  0.671773  0.753834  1
  Cu  Cu6  1  0.500000  0.000000  0.500000  1
  Cu  Cu7  1  0.000000  0.500000  0.000000  1
  Cu  Cu8  1  0.500000  0.000000  0.000000  1
  Cu  Cu9  1  0.328227  0.671773  0.246166  1
  Cu  Cu10  1  0.000000  0.500000  0.500000  1
  Ir  Ir11  1  0.500000  0.500000  0.500000  1
