# generated using pymatgen
data_Nd6Ga(P3Rh5)4
_symmetry_space_group_name_H-M   'P 1'
_cell_length_a   13.58944400
_cell_length_b   13.58944424
_cell_length_c   3.93800900
_cell_angle_alpha   90.00000000
_cell_angle_beta   90.00000000
_cell_angle_gamma   119.99999943
_symmetry_Int_Tables_number   1
_chemical_formula_structural   Nd6Ga(P3Rh5)4
_chemical_formula_sum   'Nd6 Ga1 P12 Rh20'
_cell_volume   629.81169782
_cell_formula_units_Z   1
loop_
 _symmetry_equiv_pos_site_id
 _symmetry_equiv_pos_as_xyz
  1  'x, y, z'
loop_
 _atom_site_type_symbol
 _atom_site_label
 _atom_site_symmetry_multiplicity
 _atom_site_fract_x
 _atom_site_fract_y
 _atom_site_fract_z
 _atom_site_occupancy
  Nd  Nd0  1  0.530914  0.717481  0.249821  1
  Nd  Nd1  1  0.282519  0.813432  0.249821  1
  Nd  Nd2  1  0.186568  0.469086  0.249821  1
  Nd  Nd3  1  0.469086  0.282519  0.750179  1
  Nd  Nd4  1  0.717481  0.186568  0.750179  1
  Nd  Nd5  1  0.813432  0.530914  0.750179  1
  Ga  Ga6  1  0.000000  0.000000  0.000000  1
  P  P7  1  0.523316  0.135467  0.249870  1
  P  P8  1  0.864533  0.387850  0.249870  1
  P  P9  1  0.612150  0.476684  0.249870  1
  P  P10  1  0.949765  0.722646  0.249433  1
  P  P11  1  0.277354  0.227119  0.249433  1
  P  P12  1  0.772881  0.050235  0.249433  1
  P  P13  1  0.387850  0.523316  0.750130  1
  P  P14  1  0.476684  0.864533  0.750130  1
  P  P15  1  0.135467  0.612150  0.750130  1
  P  P16  1  0.722646  0.772881  0.750567  1
  P  P17  1  0.227119  0.949765  0.750567  1
  P  P18  1  0.050235  0.277354  0.750567  1
  Rh  Rh19  1  0.333333  0.666667  0.752081  1
  Rh  Rh20  1  0.922940  0.252019  0.250397  1
  Rh  Rh21  1  0.747981  0.670922  0.250397  1
  Rh  Rh22  1  0.329078  0.077060  0.250397  1
  Rh  Rh23  1  0.443310  0.027502  0.749915  1
  Rh  Rh24  1  0.972498  0.415809  0.749915  1
  Rh  Rh25  1  0.584191  0.556690  0.749915  1
  Rh  Rh26  1  0.666667  0.333333  0.247919  1
  Rh  Rh27  1  0.094993  0.198629  0.252824  1
  Rh  Rh28  1  0.801371  0.896365  0.252824  1
  Rh  Rh29  1  0.103635  0.905007  0.252824  1
  Rh  Rh30  1  0.027502  0.584191  0.250085  1
  Rh  Rh31  1  0.415809  0.443310  0.250085  1
  Rh  Rh32  1  0.556690  0.972498  0.250085  1
  Rh  Rh33  1  0.670922  0.922940  0.749603  1
  Rh  Rh34  1  0.077060  0.747981  0.749603  1
  Rh  Rh35  1  0.252019  0.329078  0.749603  1
  Rh  Rh36  1  0.905007  0.801371  0.747176  1
  Rh  Rh37  1  0.198629  0.103635  0.747176  1
  Rh  Rh38  1  0.896365  0.094993  0.747176  1
