# generated using pymatgen
data_Dy9Y7(CdPt)4
_symmetry_space_group_name_H-M   'P 1'
_cell_length_a   9.69258593
_cell_length_b   9.69258598
_cell_length_c   9.68979800
_cell_angle_alpha   60.00952145
_cell_angle_beta   60.00952128
_cell_angle_gamma   60.15695758
_symmetry_Int_Tables_number   1
_chemical_formula_structural   Dy9Y7(CdPt)4
_chemical_formula_sum   'Dy9 Y7 Cd4 Pt4'
_cell_volume   644.54641878
_cell_formula_units_Z   1
loop_
 _symmetry_equiv_pos_site_id
 _symmetry_equiv_pos_as_xyz
  1  'x, y, z'
loop_
 _atom_site_type_symbol
 _atom_site_label
 _atom_site_symmetry_multiplicity
 _atom_site_fract_x
 _atom_site_fract_y
 _atom_site_fract_z
 _atom_site_occupancy
  Dy  Dy0  1  0.352229  0.352229  0.350791  1
  Dy  Dy1  1  0.352229  0.352229  0.944752  1
  Dy  Dy2  1  0.353827  0.941521  0.352326  1
  Dy  Dy3  1  0.941521  0.353827  0.352326  1
  Dy  Dy4  1  0.810640  0.189565  0.190007  1
  Dy  Dy5  1  0.189565  0.810640  0.809787  1
  Dy  Dy6  1  0.189565  0.810640  0.190007  1
  Dy  Dy7  1  0.810640  0.189565  0.809787  1
  Dy  Dy8  1  0.190376  0.190376  0.809624  1
  Y  Y9  1  0.810389  0.810389  0.189611  1
  Y  Y10  1  0.936122  0.563699  0.564606  1
  Y  Y11  1  0.563699  0.936122  0.935573  1
  Y  Y12  1  0.563699  0.936122  0.564606  1
  Y  Y13  1  0.936122  0.563699  0.935573  1
  Y  Y14  1  0.564561  0.564561  0.935439  1
  Y  Y15  1  0.936420  0.936420  0.563580  1
  Cd  Cd16  1  0.581533  0.581533  0.582061  1
  Cd  Cd17  1  0.581533  0.581533  0.254872  1
  Cd  Cd18  1  0.581412  0.254266  0.582161  1
  Cd  Cd19  1  0.254266  0.581412  0.582161  1
  Pt  Pt20  1  0.143254  0.143254  0.144647  1
  Pt  Pt21  1  0.143254  0.143254  0.568845  1
  Pt  Pt22  1  0.143647  0.569497  0.143428  1
  Pt  Pt23  1  0.569497  0.143647  0.143428  1
