# generated using pymatgen
data_KRbBO3
_symmetry_space_group_name_H-M   'P 1'
_cell_length_a   6.01557990
_cell_length_b   6.01562204
_cell_length_c   6.98852845
_cell_angle_alpha   97.66380699
_cell_angle_beta   97.66365040
_cell_angle_gamma   60.97563401
_symmetry_Int_Tables_number   1
_chemical_formula_structural   KRbBO3
_chemical_formula_sum   'K2 Rb2 B2 O6'
_cell_volume   218.47250384
_cell_formula_units_Z   2
loop_
 _symmetry_equiv_pos_site_id
 _symmetry_equiv_pos_as_xyz
  1  'x, y, z'
loop_
 _atom_site_type_symbol
 _atom_site_label
 _atom_site_symmetry_multiplicity
 _atom_site_fract_x
 _atom_site_fract_y
 _atom_site_fract_z
 _atom_site_occupancy
  K  K0  1  0.500000  0.500000  0.000000  1
  K  K1  1  0.499999  0.499999  0.500000  1
  Rb  Rb2  1  0.830912  0.830911  0.263041  1
  Rb  Rb3  1  0.169088  0.169089  0.736959  1
  B  B4  1  0.162637  0.162602  0.248912  1
  B  B5  1  0.837363  0.837398  0.751089  1
  O  O6  1  0.279187  0.279180  0.178436  1
  O  O7  1  0.909983  0.298789  0.285723  1
  O  O8  1  0.298798  0.909973  0.285722  1
  O  O9  1  0.701202  0.090027  0.714277  1
  O  O10  1  0.090017  0.701211  0.714276  1
  O  O11  1  0.720814  0.720821  0.821565  1
