# generated using pymatgen
data_Sm3Rh2Pb3Au
_symmetry_space_group_name_H-M   'P 1'
_cell_length_a   7.93435800
_cell_length_b   7.93435749
_cell_length_c   3.91032500
_cell_angle_alpha   90.00000000
_cell_angle_beta   90.00000000
_cell_angle_gamma   120.00000213
_symmetry_Int_Tables_number   1
_chemical_formula_structural   Sm3Rh2Pb3Au
_chemical_formula_sum   'Sm3 Rh2 Pb3 Au1'
_cell_volume   213.19009985
_cell_formula_units_Z   1
loop_
 _symmetry_equiv_pos_site_id
 _symmetry_equiv_pos_as_xyz
  1  'x, y, z'
loop_
 _atom_site_type_symbol
 _atom_site_label
 _atom_site_symmetry_multiplicity
 _atom_site_fract_x
 _atom_site_fract_y
 _atom_site_fract_z
 _atom_site_occupancy
  Sm  Sm0  1  0.396531  0.985809  0.499999  1
  Sm  Sm1  1  0.014191  0.410722  0.499999  1
  Sm  Sm2  1  0.589278  0.603469  0.499999  1
  Rh  Rh3  1  0.333334  0.666667  0.000000  1
  Rh  Rh4  1  0.000000  0.000000  0.499999  1
  Pb  Pb5  1  0.739382  0.995374  0.000000  1
  Pb  Pb6  1  0.255992  0.260618  0.000000  1
  Pb  Pb7  1  0.004626  0.744008  0.000000  1
  Au  Au8  1  0.666667  0.333333  0.000000  1
