# generated using pymatgen
data_Tm3LuAl15(GaIr2)3
_symmetry_space_group_name_H-M   'P 1'
_cell_length_a   7.51236538
_cell_length_b   7.51418771
_cell_length_c   9.47917700
_cell_angle_alpha   90.00000000
_cell_angle_beta   90.00000000
_cell_angle_gamma   119.39916677
_symmetry_Int_Tables_number   1
_chemical_formula_structural   Tm3LuAl15(GaIr2)3
_chemical_formula_sum   'Tm3 Lu1 Al15 Ga3 Ir6'
_cell_volume   466.18434554
_cell_formula_units_Z   1
loop_
 _symmetry_equiv_pos_site_id
 _symmetry_equiv_pos_as_xyz
  1  'x, y, z'
loop_
 _atom_site_type_symbol
 _atom_site_label
 _atom_site_symmetry_multiplicity
 _atom_site_fract_x
 _atom_site_fract_y
 _atom_site_fract_z
 _atom_site_occupancy
  Tm  Tm0  1  0.998361  0.676633  0.250000  1
  Tm  Tm1  1  0.005190  0.324419  0.750000  1
  Tm  Tm2  1  0.671553  0.991249  0.250000  1
  Lu  Lu3  1  0.322980  0.003302  0.750000  1
  Al  Al4  1  0.001327  0.335637  0.073792  1
  Al  Al5  1  0.998901  0.663982  0.925319  1
  Al  Al6  1  0.998901  0.663982  0.574681  1
  Al  Al7  1  0.336482  0.003076  0.426248  1
  Al  Al8  1  0.001327  0.335637  0.426208  1
  Al  Al9  1  0.663734  0.999489  0.574361  1
  Al  Al10  1  0.663734  0.999489  0.925639  1
  Al  Al11  1  0.336482  0.003076  0.073752  1
  Al  Al12  1  0.333706  0.333679  0.558299  1
  Al  Al13  1  0.666559  0.666124  0.446870  1
  Al  Al14  1  0.666559  0.666124  0.053130  1
  Al  Al15  1  0.333706  0.333679  0.941701  1
  Al  Al16  1  0.661891  0.448426  0.750000  1
  Al  Al17  1  0.552605  0.340065  0.250000  1
  Al  Al18  1  0.448945  0.662466  0.750000  1
  Ga  Ga19  1  0.132444  0.132935  0.250000  1
  Ga  Ga20  1  0.863843  0.864122  0.750000  1
  Ga  Ga21  1  0.340286  0.547382  0.250000  1
  Ir  Ir22  1  0.671842  0.328768  0.000138  1
  Ir  Ir23  1  0.328070  0.673228  0.997977  1
  Ir  Ir24  1  0.328070  0.673228  0.502023  1
  Ir  Ir25  1  0.671842  0.328768  0.499862  1
  Ir  Ir26  1  0.000331  0.000517  0.999669  1
  Ir  Ir27  1  0.000331  0.000517  0.500331  1
