# generated using pymatgen
data_Tl2MoCl12
_symmetry_space_group_name_H-M   'P 1'
_cell_length_a   6.77004724
_cell_length_b   6.76952728
_cell_length_c   12.47810400
_cell_angle_alpha   90.01102988
_cell_angle_beta   89.98579076
_cell_angle_gamma   119.99592164
_symmetry_Int_Tables_number   1
_chemical_formula_structural   Tl2MoCl12
_chemical_formula_sum   'Tl2 Mo1 Cl12'
_cell_volume   495.27579813
_cell_formula_units_Z   1
loop_
 _symmetry_equiv_pos_site_id
 _symmetry_equiv_pos_as_xyz
  1  'x, y, z'
loop_
 _atom_site_type_symbol
 _atom_site_label
 _atom_site_symmetry_multiplicity
 _atom_site_fract_x
 _atom_site_fract_y
 _atom_site_fract_z
 _atom_site_occupancy
  Tl  Tl0  1  0.666679  0.333339  0.999966  1
  Tl  Tl1  1  0.333320  0.666662  0.000037  1
  Mo  Mo2  1  0.000000  0.000001  0.500000  1
  Cl  Cl3  1  0.642345  0.000041  0.120117  1
  Cl  Cl4  1  0.357617  0.357629  0.120119  1
  Cl  Cl5  1  0.999916  0.642377  0.120120  1
  Cl  Cl6  1  0.278966  0.279011  0.606879  1
  Cl  Cl7  1  0.999970  0.720929  0.606853  1
  Cl  Cl8  1  0.720951  0.000007  0.606879  1
  Cl  Cl9  1  0.000037  0.279074  0.393146  1
  Cl  Cl10  1  0.279050  0.999992  0.393119  1
  Cl  Cl11  1  0.721037  0.720989  0.393121  1
  Cl  Cl12  1  0.357650  0.999959  0.879884  1
  Cl  Cl13  1  0.642377  0.642369  0.879880  1
  Cl  Cl14  1  0.000081  0.357622  0.879880  1
