# generated using pymatgen
data_Yb2Hf2(Al8Pt3)3
_symmetry_space_group_name_H-M   'P 1'
_cell_length_a   7.48194584
_cell_length_b   7.48798383
_cell_length_c   13.07022907
_cell_angle_alpha   84.61814635
_cell_angle_beta   100.87801507
_cell_angle_gamma   119.85214801
_symmetry_Int_Tables_number   1
_chemical_formula_structural   Yb2Hf2(Al8Pt3)3
_chemical_formula_sum   'Yb2 Hf2 Al24 Pt9'
_cell_volume   623.68267131
_cell_formula_units_Z   1
loop_
 _symmetry_equiv_pos_site_id
 _symmetry_equiv_pos_as_xyz
  1  'x, y, z'
loop_
 _atom_site_type_symbol
 _atom_site_label
 _atom_site_symmetry_multiplicity
 _atom_site_fract_x
 _atom_site_fract_y
 _atom_site_fract_z
 _atom_site_occupancy
  Yb  Yb0  1  0.767882  0.501582  0.807918  1
  Yb  Yb1  1  0.232118  0.498418  0.192082  1
  Hf  Hf2  1  0.437281  0.830610  0.808077  1
  Hf  Hf3  1  0.562719  0.169390  0.191923  1
  Al  Al4  1  0.482863  0.163639  0.943295  1
  Al  Al5  1  0.517137  0.836361  0.056705  1
  Al  Al6  1  0.020937  0.167652  0.562161  1
  Al  Al7  1  0.979063  0.832348  0.437839  1
  Al  Al8  1  0.353959  0.833425  0.559838  1
  Al  Al9  1  0.646041  0.166575  0.440162  1
  Al  Al10  1  0.615695  0.835243  0.326561  1
  Al  Al11  1  0.384305  0.164757  0.673439  1
  Al  Al12  1  0.058088  0.495510  0.673713  1
  Al  Al13  1  0.941912  0.504490  0.326287  1
  Al  Al14  1  0.729334  0.838803  0.672740  1
  Al  Al15  1  0.270666  0.161197  0.327260  1
  Al  Al16  1  0.149648  0.503209  0.943236  1
  Al  Al17  1  0.850352  0.496791  0.056764  1
  Al  Al18  1  0.812574  0.831970  0.950529  1
  Al  Al19  1  0.187426  0.168030  0.049471  1
  Al  Al20  1  0.314031  0.500805  0.440115  1
  Al  Al21  1  0.685969  0.499195  0.559885  1
  Al  Al22  1  0.108861  0.843277  0.183221  1
  Al  Al23  1  0.891139  0.156723  0.816779  1
  Al  Al24  1  0.306424  0.374949  0.815635  1
  Al  Al25  1  0.693576  0.625051  0.184365  1
  Al  Al26  1  0.110858  0.960533  0.816371  1
  Al  Al27  1  0.889142  0.039467  0.183629  1
  Pt  Pt28  1  0.388005  0.509713  0.639006  1
  Pt  Pt29  1  0.611995  0.490287  0.360994  1
  Pt  Pt30  1  0.171118  0.828457  0.999714  1
  Pt  Pt31  1  0.828882  0.171543  0.000286  1
  Pt  Pt32  1  0.296682  0.834555  0.360942  1
  Pt  Pt33  1  0.703318  0.165445  0.639058  1
  Pt  Pt34  1  0.047493  0.825182  0.637817  1
  Pt  Pt35  1  0.952507  0.174818  0.362183  1
  Pt  Pt36  1  0.500000  0.500000  0.000000  1
