# generated using pymatgen
data_Hf4IrPtN
_symmetry_space_group_name_H-M   'P 1'
_cell_length_a   8.75069100
_cell_length_b   8.75069055
_cell_length_c   8.75069100
_cell_angle_alpha   60.00000207
_cell_angle_beta   60.00000380
_cell_angle_gamma   60.00000081
_symmetry_Int_Tables_number   1
_chemical_formula_structural   Hf4IrPtN
_chemical_formula_sum   'Hf16 Ir4 Pt4 N4'
_cell_volume   473.81853695
_cell_formula_units_Z   4
loop_
 _symmetry_equiv_pos_site_id
 _symmetry_equiv_pos_as_xyz
  1  'x, y, z'
loop_
 _atom_site_type_symbol
 _atom_site_label
 _atom_site_symmetry_multiplicity
 _atom_site_fract_x
 _atom_site_fract_y
 _atom_site_fract_z
 _atom_site_occupancy
  Hf  Hf0  1  0.125698  0.624767  0.624767  1
  Hf  Hf1  1  0.624767  0.125698  0.624767  1
  Hf  Hf2  1  0.624767  0.624767  0.125698  1
  Hf  Hf3  1  0.624767  0.624767  0.624767  1
  Hf  Hf4  1  0.815723  0.815723  0.184277  1
  Hf  Hf5  1  0.184277  0.184277  0.815723  1
  Hf  Hf6  1  0.815723  0.184277  0.815723  1
  Hf  Hf7  1  0.184277  0.815723  0.184277  1
  Hf  Hf8  1  0.184277  0.815723  0.815723  1
  Hf  Hf9  1  0.815723  0.184277  0.184277  1
  Hf  Hf10  1  0.431519  0.431519  0.068481  1
  Hf  Hf11  1  0.068481  0.068481  0.431519  1
  Hf  Hf12  1  0.431519  0.068481  0.431519  1
  Hf  Hf13  1  0.068481  0.431519  0.068481  1
  Hf  Hf14  1  0.068481  0.431519  0.431519  1
  Hf  Hf15  1  0.431519  0.068481  0.068481  1
  Ir  Ir16  1  0.770635  0.409788  0.409788  1
  Ir  Ir17  1  0.409788  0.770635  0.409788  1
  Ir  Ir18  1  0.409788  0.409788  0.770635  1
  Ir  Ir19  1  0.409788  0.409788  0.409788  1
  Pt  Pt20  1  0.468309  0.843897  0.843897  1
  Pt  Pt21  1  0.843897  0.468309  0.843897  1
  Pt  Pt22  1  0.843897  0.843897  0.468309  1
  Pt  Pt23  1  0.843897  0.843897  0.843897  1
  N  N24  1  0.624672  0.125109  0.125109  1
  N  N25  1  0.125109  0.624672  0.125109  1
  N  N26  1  0.125109  0.125109  0.624672  1
  N  N27  1  0.125109  0.125109  0.125109  1
