# generated using pymatgen
data_Dy3ZnCoSn3Rh
_symmetry_space_group_name_H-M   'P 1'
_cell_length_a   7.53378300
_cell_length_b   7.53378408
_cell_length_c   3.85037600
_cell_angle_alpha   90.00000000
_cell_angle_beta   90.00000000
_cell_angle_gamma   119.99999087
_symmetry_Int_Tables_number   1
_chemical_formula_structural   Dy3ZnCoSn3Rh
_chemical_formula_sum   'Dy3 Zn1 Co1 Sn3 Rh1'
_cell_volume   189.26054622
_cell_formula_units_Z   1
loop_
 _symmetry_equiv_pos_site_id
 _symmetry_equiv_pos_as_xyz
  1  'x, y, z'
loop_
 _atom_site_type_symbol
 _atom_site_label
 _atom_site_symmetry_multiplicity
 _atom_site_fract_x
 _atom_site_fract_y
 _atom_site_fract_z
 _atom_site_occupancy
  Dy  Dy0  1  0.391709  0.407076  0.500000  1
  Dy  Dy1  1  0.592924  0.984633  0.500000  1
  Dy  Dy2  1  0.015367  0.608291  0.500000  1
  Zn  Zn3  1  0.666667  0.333333  0.000000  1
  Co  Co4  1  0.000000  0.000000  0.500000  1
  Sn  Sn5  1  0.750049  0.747351  0.000000  1
  Sn  Sn6  1  0.252649  0.002698  0.000000  1
  Sn  Sn7  1  0.997302  0.249951  0.000000  1
  Rh  Rh8  1  0.333333  0.666667  0.000000  1
