# generated using pymatgen
data_Sr10Tc3NiN14
_symmetry_space_group_name_H-M   'P 1'
_cell_length_a   6.43561988
_cell_length_b   9.08624141
_cell_length_c   9.31494422
_cell_angle_alpha   113.18698896
_cell_angle_beta   99.64987837
_cell_angle_gamma   89.77686362
_symmetry_Int_Tables_number   1
_chemical_formula_structural   Sr10Tc3NiN14
_chemical_formula_sum   'Sr10 Tc3 Ni1 N14'
_cell_volume   492.45368861
_cell_formula_units_Z   1
loop_
 _symmetry_equiv_pos_site_id
 _symmetry_equiv_pos_as_xyz
  1  'x, y, z'
loop_
 _atom_site_type_symbol
 _atom_site_label
 _atom_site_symmetry_multiplicity
 _atom_site_fract_x
 _atom_site_fract_y
 _atom_site_fract_z
 _atom_site_occupancy
  Sr  Sr0  1  0.871401  0.577952  0.342995  1
  Sr  Sr1  1  0.268007  0.987329  0.563490  1
  Sr  Sr2  1  0.684259  0.396030  0.821787  1
  Sr  Sr3  1  0.297105  0.588714  0.148356  1
  Sr  Sr4  1  0.391629  0.787692  0.911427  1
  Sr  Sr5  1  0.614665  0.215328  0.106718  1
  Sr  Sr6  1  0.136051  0.402864  0.646810  1
  Sr  Sr7  1  0.878311  0.840117  0.759973  1
  Sr  Sr8  1  0.135455  0.165045  0.252514  1
  Sr  Sr9  1  0.727152  0.041171  0.432081  1
  Tc  Tc10  1  0.431323  0.636011  0.529442  1
  Tc  Tc11  1  0.121080  0.217241  0.913176  1
  Tc  Tc12  1  0.874222  0.773945  0.085259  1
  Ni  Ni13  1  0.576290  0.349802  0.453660  1
  N  N14  1  0.582133  0.602905  0.698571  1
  N  N15  1  0.408201  0.451586  0.337410  1
  N  N16  1  0.171241  0.701914  0.589418  1
  N  N17  1  0.847313  0.296843  0.395764  1
  N  N18  1  0.416971  0.205481  0.512030  1
  N  N19  1  0.582052  0.794338  0.505276  1
  N  N20  1  0.952345  0.142859  0.714884  1
  N  N21  1  0.043513  0.839905  0.281429  1
  N  N22  1  0.229566  0.053167  0.963678  1
  N  N23  1  0.765911  0.942935  0.043143  1
  N  N24  1  0.348517  0.334652  0.911584  1
  N  N25  1  0.970727  0.342544  0.063022  1
  N  N26  1  0.027514  0.658119  0.931776  1
  N  N27  1  0.647046  0.653512  0.084326  1
