# generated using pymatgen
data_NdSm3(AgO3)4
_symmetry_space_group_name_H-M   'P 1'
_cell_length_a   3.96386262
_cell_length_b   5.67291200
_cell_length_c   13.03024600
_cell_angle_alpha   89.99993940
_cell_angle_beta   89.92258150
_cell_angle_gamma   90.00010092
_symmetry_Int_Tables_number   1
_chemical_formula_structural   NdSm3(AgO3)4
_chemical_formula_sum   'Nd1 Sm3 Ag4 O12'
_cell_volume   293.00623314
_cell_formula_units_Z   1
loop_
 _symmetry_equiv_pos_site_id
 _symmetry_equiv_pos_as_xyz
  1  'x, y, z'
loop_
 _atom_site_type_symbol
 _atom_site_label
 _atom_site_symmetry_multiplicity
 _atom_site_fract_x
 _atom_site_fract_y
 _atom_site_fract_z
 _atom_site_occupancy
  Nd  Nd0  1  0.735856  0.750000  0.578209  1
  Sm  Sm1  1  0.262569  0.750001  0.078534  1
  Sm  Sm2  1  0.258043  0.250000  0.420389  1
  Sm  Sm3  1  0.741448  0.250001  0.922774  1
  Ag  Ag4  1  0.075005  0.749999  0.829962  1
  Ag  Ag5  1  0.070380  0.250000  0.671873  1
  Ag  Ag6  1  0.928777  0.250001  0.171219  1
  Ag  Ag7  1  0.926831  0.750000  0.327465  1
  O  O8  1  0.192298  0.500218  0.249416  1
  O  O9  1  0.810953  0.001093  0.752227  1
  O  O10  1  0.810954  0.498906  0.752227  1
  O  O11  1  0.192297  0.999784  0.249416  1
  O  O12  1  0.746290  0.499063  0.075714  1
  O  O13  1  0.742628  0.499881  0.422296  1
  O  O14  1  0.257386  0.998784  0.925608  1
  O  O15  1  0.250992  0.004685  0.574527  1
  O  O16  1  0.742627  0.000117  0.422296  1
  O  O17  1  0.746291  0.000938  0.075714  1
  O  O18  1  0.250990  0.495317  0.574527  1
  O  O19  1  0.257385  0.501214  0.925608  1
