# generated using pymatgen
data_Sc3Al2Os
_symmetry_space_group_name_H-M   'P 1'
_cell_length_a   3.32484900
_cell_length_b   3.32484900
_cell_length_c   10.05577700
_cell_angle_alpha   90.00000000
_cell_angle_beta   90.00000000
_cell_angle_gamma   90.00000000
_symmetry_Int_Tables_number   1
_chemical_formula_structural   Sc3Al2Os
_chemical_formula_sum   'Sc3 Al2 Os1'
_cell_volume   111.16280232
_cell_formula_units_Z   1
loop_
 _symmetry_equiv_pos_site_id
 _symmetry_equiv_pos_as_xyz
  1  'x, y, z'
loop_
 _atom_site_type_symbol
 _atom_site_label
 _atom_site_symmetry_multiplicity
 _atom_site_fract_x
 _atom_site_fract_y
 _atom_site_fract_z
 _atom_site_occupancy
  Sc  Sc0  1  0.000000  0.000000  0.000000  1
  Sc  Sc1  1  0.000000  0.000000  0.350969  1
  Sc  Sc2  1  0.000000  0.000000  0.649030  1
  Al  Al3  1  0.500000  0.500000  0.177073  1
  Al  Al4  1  0.500000  0.500000  0.822927  1
  Os  Os5  1  0.500000  0.500000  0.500000  1
