# generated using pymatgen
data_Sm3Dy(B4Mo)4
_symmetry_space_group_name_H-M   'P 1'
_cell_length_a   3.66376900
_cell_length_b   6.07033098
_cell_length_c   11.73739889
_cell_angle_alpha   90.06500205
_cell_angle_beta   90.00000000
_cell_angle_gamma   90.00000000
_symmetry_Int_Tables_number   1
_chemical_formula_structural   Sm3Dy(B4Mo)4
_chemical_formula_sum   'Sm3 Dy1 B16 Mo4'
_cell_volume   261.04299243
_cell_formula_units_Z   1
loop_
 _symmetry_equiv_pos_site_id
 _symmetry_equiv_pos_as_xyz
  1  'x, y, z'
loop_
 _atom_site_type_symbol
 _atom_site_label
 _atom_site_symmetry_multiplicity
 _atom_site_fract_x
 _atom_site_fract_y
 _atom_site_fract_z
 _atom_site_occupancy
  Sm  Sm0  1  0.000000  0.126579  0.150179  1
  Sm  Sm1  1  0.000000  0.873446  0.849454  1
  Sm  Sm2  1  0.000000  0.626421  0.350079  1
  Dy  Dy3  1  0.000000  0.373276  0.649736  1
  B  B4  1  0.500000  0.476569  0.192216  1
  B  B5  1  0.500000  0.522333  0.806375  1
  B  B6  1  0.500000  0.976628  0.308099  1
  B  B7  1  0.500000  0.024852  0.692317  1
  B  B8  1  0.500000  0.284863  0.315039  1
  B  B9  1  0.500000  0.712901  0.685083  1
  B  B10  1  0.500000  0.784923  0.185399  1
  B  B11  1  0.500000  0.215508  0.813456  1
  B  B12  1  0.500000  0.365457  0.469162  1
  B  B13  1  0.500000  0.634041  0.532828  1
  B  B14  1  0.500000  0.865031  0.031838  1
  B  B15  1  0.500000  0.135214  0.967639  1
  B  B16  1  0.500000  0.387214  0.046564  1
  B  B17  1  0.500000  0.612398  0.952734  1
  B  B18  1  0.500000  0.887709  0.453827  1
  B  B19  1  0.500000  0.114380  0.547871  1
  Mo  Mo20  1  0.000000  0.129360  0.417526  1
  Mo  Mo21  1  0.000000  0.871073  0.583695  1
  Mo  Mo22  1  0.000000  0.628805  0.082939  1
  Mo  Mo23  1  0.000000  0.371020  0.915944  1
