# generated using pymatgen
data_Tb3Y(ErBi)6
_symmetry_space_group_name_H-M   'P 1'
_cell_length_a   8.25388000
_cell_length_b   9.47250600
_cell_length_c   12.07009300
_cell_angle_alpha   90.00000000
_cell_angle_beta   90.00000000
_cell_angle_gamma   90.00000000
_symmetry_Int_Tables_number   1
_chemical_formula_structural   Tb3Y(ErBi)6
_chemical_formula_sum   'Tb6 Y2 Er12 Bi12'
_cell_volume   943.69935003
_cell_formula_units_Z   2
loop_
 _symmetry_equiv_pos_site_id
 _symmetry_equiv_pos_as_xyz
  1  'x, y, z'
loop_
 _atom_site_type_symbol
 _atom_site_label
 _atom_site_symmetry_multiplicity
 _atom_site_fract_x
 _atom_site_fract_y
 _atom_site_fract_z
 _atom_site_occupancy
  Tb  Tb0  1  0.186392  0.750000  0.718908  1
  Tb  Tb1  1  0.686392  0.750000  0.781092  1
  Tb  Tb2  1  0.813527  0.250000  0.281170  1
  Tb  Tb3  1  0.313527  0.250000  0.218830  1
  Tb  Tb4  1  0.353883  0.750000  0.215804  1
  Tb  Tb5  1  0.853883  0.750000  0.284196  1
  Y  Y6  1  0.646026  0.250000  0.784368  1
  Y  Y7  1  0.146026  0.250000  0.715632  1
  Er  Er8  1  0.025757  0.750000  0.988630  1
  Er  Er9  1  0.525757  0.750000  0.511370  1
  Er  Er10  1  0.974427  0.250000  0.011254  1
  Er  Er11  1  0.474427  0.250000  0.488746  1
  Er  Er12  1  0.306417  0.435417  0.940217  1
  Er  Er13  1  0.806417  0.064583  0.559783  1
  Er  Er14  1  0.693491  0.935460  0.059785  1
  Er  Er15  1  0.193491  0.564540  0.440215  1
  Er  Er16  1  0.693491  0.564540  0.059785  1
  Er  Er17  1  0.193491  0.935460  0.440215  1
  Er  Er18  1  0.306417  0.064583  0.940217  1
  Er  Er19  1  0.806417  0.435417  0.559783  1
  Bi  Bi20  1  0.433903  0.004069  0.673165  1
  Bi  Bi21  1  0.933903  0.495931  0.826835  1
  Bi  Bi22  1  0.566161  0.503912  0.326880  1
  Bi  Bi23  1  0.066161  0.996088  0.173120  1
  Bi  Bi24  1  0.566161  0.996088  0.326880  1
  Bi  Bi25  1  0.066161  0.503912  0.173120  1
  Bi  Bi26  1  0.433903  0.495931  0.673165  1
  Bi  Bi27  1  0.933903  0.004069  0.826835  1
  Bi  Bi28  1  0.408370  0.750000  0.957850  1
  Bi  Bi29  1  0.908370  0.750000  0.542150  1
  Bi  Bi30  1  0.591674  0.250000  0.041809  1
  Bi  Bi31  1  0.091674  0.250000  0.458191  1
