# generated using pymatgen
data_Sc4CrSi8Tc5
_symmetry_space_group_name_H-M   'P 1'
_cell_length_a   6.59055400
_cell_length_b   6.59466416
_cell_length_c   12.41347600
_cell_angle_alpha   89.95319610
_cell_angle_beta   90.00000000
_cell_angle_gamma   90.00000000
_symmetry_Int_Tables_number   1
_chemical_formula_structural   Sc4CrSi8Tc5
_chemical_formula_sum   'Sc8 Cr2 Si16 Tc10'
_cell_volume   539.52039956
_cell_formula_units_Z   2
loop_
 _symmetry_equiv_pos_site_id
 _symmetry_equiv_pos_as_xyz
  1  'x, y, z'
loop_
 _atom_site_type_symbol
 _atom_site_label
 _atom_site_symmetry_multiplicity
 _atom_site_fract_x
 _atom_site_fract_y
 _atom_site_fract_z
 _atom_site_occupancy
  Sc  Sc0  1  0.007023  0.659180  0.031669  1
  Sc  Sc1  1  0.995170  0.340838  0.530802  1
  Sc  Sc2  1  0.342483  0.993422  0.468366  1
  Sc  Sc3  1  0.160078  0.495176  0.781425  1
  Sc  Sc4  1  0.842483  0.506578  0.281634  1
  Sc  Sc5  1  0.495170  0.159162  0.219198  1
  Sc  Sc6  1  0.507023  0.840820  0.718331  1
  Sc  Sc7  1  0.660078  0.004824  0.968575  1
  Cr  Cr8  1  0.333875  0.332918  0.000294  1
  Cr  Cr9  1  0.833875  0.167082  0.749706  1
  Si  Si10  1  0.024497  0.724541  0.438272  1
  Si  Si11  1  0.620546  0.306002  0.431971  1
  Si  Si12  1  0.373727  0.694316  0.931642  1
  Si  Si13  1  0.193130  0.126179  0.683000  1
  Si  Si14  1  0.304991  0.622129  0.569549  1
  Si  Si15  1  0.693130  0.373821  0.067000  1
  Si  Si16  1  0.804991  0.877871  0.180451  1
  Si  Si17  1  0.120546  0.193998  0.318029  1
  Si  Si18  1  0.974166  0.286058  0.936631  1
  Si  Si19  1  0.722910  0.025864  0.561564  1
  Si  Si20  1  0.222910  0.474136  0.188436  1
  Si  Si21  1  0.785119  0.524380  0.686743  1
  Si  Si22  1  0.474166  0.213942  0.813369  1
  Si  Si23  1  0.524497  0.775459  0.311728  1
  Si  Si24  1  0.285119  0.975620  0.063257  1
  Si  Si25  1  0.873727  0.805684  0.818358  1
  Tc  Tc26  1  0.668951  0.667345  0.499891  1
  Tc  Tc27  1  0.168951  0.832655  0.250109  1
  Tc  Tc28  1  0.016257  0.821191  0.634046  1
  Tc  Tc29  1  0.989489  0.182848  0.129152  1
  Tc  Tc30  1  0.811808  0.018783  0.365742  1
  Tc  Tc31  1  0.311808  0.481217  0.384258  1
  Tc  Tc32  1  0.675778  0.508362  0.879155  1
  Tc  Tc33  1  0.489489  0.317152  0.620848  1
  Tc  Tc34  1  0.516257  0.678809  0.115954  1
  Tc  Tc35  1  0.175778  0.991638  0.870845  1
