# generated using pymatgen
data_Dy6LuCo6AgSn22
_symmetry_space_group_name_H-M   'P 1'
_cell_length_a   9.65150760
_cell_length_b   9.65150745
_cell_length_c   9.95282556
_cell_angle_alpha   89.96709310
_cell_angle_beta   90.03290616
_cell_angle_gamma   119.90650954
_symmetry_Int_Tables_number   1
_chemical_formula_structural   Dy6LuCo6AgSn22
_chemical_formula_sum   'Dy6 Lu1 Co6 Ag1 Sn22'
_cell_volume   803.66601201
_cell_formula_units_Z   1
loop_
 _symmetry_equiv_pos_site_id
 _symmetry_equiv_pos_as_xyz
  1  'x, y, z'
loop_
 _atom_site_type_symbol
 _atom_site_label
 _atom_site_symmetry_multiplicity
 _atom_site_fract_x
 _atom_site_fract_y
 _atom_site_fract_z
 _atom_site_occupancy
  Dy  Dy0  1  0.999398  0.000602  0.000511  1
  Dy  Dy1  1  0.521000  0.479000  0.693261  1
  Dy  Dy2  1  0.478763  0.958257  0.306351  1
  Dy  Dy3  1  0.520838  0.041640  0.693328  1
  Dy  Dy4  1  0.041743  0.521237  0.306351  1
  Dy  Dy5  1  0.958360  0.479162  0.693328  1
  Lu  Lu6  1  0.480659  0.519341  0.305757  1
  Co  Co7  1  0.832203  0.167797  0.196712  1
  Co  Co8  1  0.168189  0.831811  0.803631  1
  Co  Co9  1  0.830320  0.662792  0.197190  1
  Co  Co10  1  0.168166  0.336641  0.802970  1
  Co  Co11  1  0.337208  0.169680  0.197190  1
  Co  Co12  1  0.663359  0.831834  0.802970  1
  Ag  Ag13  1  0.999856  0.000144  0.499906  1
  Sn  Sn14  1  0.345849  0.999977  0.000150  1
  Sn  Sn15  1  0.653676  0.999979  0.000029  1
  Sn  Sn16  1  0.000021  0.346324  0.000029  1
  Sn  Sn17  1  0.000023  0.654151  0.000150  1
  Sn  Sn18  1  0.653756  0.653782  0.999782  1
  Sn  Sn19  1  0.346218  0.346244  0.999782  1
  Sn  Sn20  1  0.333096  0.666904  0.818258  1
  Sn  Sn21  1  0.666799  0.333201  0.182204  1
  Sn  Sn22  1  0.783400  0.216600  0.453533  1
  Sn  Sn23  1  0.216350  0.783650  0.546369  1
  Sn  Sn24  1  0.782127  0.567003  0.453424  1
  Sn  Sn25  1  0.217630  0.433208  0.545142  1
  Sn  Sn26  1  0.432997  0.217873  0.453424  1
  Sn  Sn27  1  0.566792  0.782370  0.545142  1
  Sn  Sn28  1  0.335367  0.664633  0.120031  1
  Sn  Sn29  1  0.666827  0.333173  0.882164  1
  Sn  Sn30  1  0.113358  0.886642  0.276141  1
  Sn  Sn31  1  0.886155  0.113845  0.723857  1
  Sn  Sn32  1  0.114837  0.229140  0.276201  1
  Sn  Sn33  1  0.886375  0.772573  0.724266  1
  Sn  Sn34  1  0.770860  0.885163  0.276201  1
  Sn  Sn35  1  0.227427  0.113625  0.724266  1
