# generated using pymatgen
data_Ho2PaCo2
_symmetry_space_group_name_H-M   'P 1'
_cell_length_a   3.60719129
_cell_length_b   5.92695078
_cell_length_c   5.92695020
_cell_angle_alpha   61.04304457
_cell_angle_beta   72.28368682
_cell_angle_gamma   72.28368905
_symmetry_Int_Tables_number   1
_chemical_formula_structural   Ho2PaCo2
_chemical_formula_sum   'Ho2 Pa1 Co2'
_cell_volume   103.72626301
_cell_formula_units_Z   1
loop_
 _symmetry_equiv_pos_site_id
 _symmetry_equiv_pos_as_xyz
  1  'x, y, z'
loop_
 _atom_site_type_symbol
 _atom_site_label
 _atom_site_symmetry_multiplicity
 _atom_site_fract_x
 _atom_site_fract_y
 _atom_site_fract_z
 _atom_site_occupancy
  Ho  Ho0  1  0.192608  0.307392  0.307392  1
  Ho  Ho1  1  0.807392  0.692608  0.692608  1
  Pa  Pa2  1  0.000000  0.000000  0.000000  1
  Co  Co3  1  0.500000  0.285637  0.714363  1
  Co  Co4  1  0.500000  0.714363  0.285637  1
