# generated using pymatgen
data_Ho4TmSnSb2
_symmetry_space_group_name_H-M   'P 1'
_cell_length_a   8.92362573
_cell_length_b   8.90728866
_cell_length_c   6.36964936
_cell_angle_alpha   89.96119864
_cell_angle_beta   90.01936908
_cell_angle_gamma   119.93945913
_symmetry_Int_Tables_number   1
_chemical_formula_structural   Ho4TmSnSb2
_chemical_formula_sum   'Ho8 Tm2 Sn2 Sb4'
_cell_volume   438.73022052
_cell_formula_units_Z   2
loop_
 _symmetry_equiv_pos_site_id
 _symmetry_equiv_pos_as_xyz
  1  'x, y, z'
loop_
 _atom_site_type_symbol
 _atom_site_label
 _atom_site_symmetry_multiplicity
 _atom_site_fract_x
 _atom_site_fract_y
 _atom_site_fract_z
 _atom_site_occupancy
  Ho  Ho0  1  0.665190  0.332595  0.000000  1
  Ho  Ho1  1  0.333791  0.666896  0.500000  1
  Ho  Ho2  1  0.755402  0.999276  0.749980  1
  Ho  Ho3  1  0.755402  0.756127  0.250020  1
  Ho  Ho4  1  0.000955  0.243853  0.250051  1
  Ho  Ho5  1  0.000955  0.757102  0.749949  1
  Ho  Ho6  1  0.243949  0.242366  0.750049  1
  Ho  Ho7  1  0.243949  0.001583  0.249951  1
  Tm  Tm8  1  0.333817  0.666909  0.000000  1
  Tm  Tm9  1  0.664929  0.332465  0.500000  1
  Sn  Sn10  1  0.391821  0.998990  0.749992  1
  Sn  Sn11  1  0.391821  0.392831  0.250008  1
  Sb  Sb12  1  0.999363  0.609111  0.250033  1
  Sb  Sb13  1  0.999363  0.390253  0.749967  1
  Sb  Sb14  1  0.609646  0.609376  0.750017  1
  Sb  Sb15  1  0.609646  0.000270  0.249983  1
