# generated using pymatgen
data_RbV2Bi3O10
_symmetry_space_group_name_H-M   'P 1'
_cell_length_a   5.82697900
_cell_length_b   7.51454006
_cell_length_c   7.27411574
_cell_angle_alpha   106.96604348
_cell_angle_beta   111.70106520
_cell_angle_gamma   97.74223469
_symmetry_Int_Tables_number   1
_chemical_formula_structural   RbV2Bi3O10
_chemical_formula_sum   'Rb1 V2 Bi3 O10'
_cell_volume   272.30544723
_cell_formula_units_Z   1
loop_
 _symmetry_equiv_pos_site_id
 _symmetry_equiv_pos_as_xyz
  1  'x, y, z'
loop_
 _atom_site_type_symbol
 _atom_site_label
 _atom_site_symmetry_multiplicity
 _atom_site_fract_x
 _atom_site_fract_y
 _atom_site_fract_z
 _atom_site_occupancy
  Rb  Rb0  1  0.689437  0.634428  0.852758  1
  V  V1  1  0.650691  0.153455  0.853519  1
  V  V2  1  0.361450  0.853691  0.156432  1
  Bi  Bi3  1  0.879417  0.244508  0.448534  1
  Bi  Bi4  1  0.088920  0.742329  0.521927  1
  Bi  Bi5  1  0.296515  0.371283  0.195348  1
  O  O6  1  0.716718  0.481903  0.421389  1
  O  O7  1  0.212541  0.479203  0.487979  1
  O  O8  1  0.844063  0.285089  0.776671  1
  O  O9  1  0.172777  0.700243  0.224183  1
  O  O10  1  0.413120  0.111154  0.276933  1
  O  O11  1  0.512562  0.914826  0.672632  1
  O  O12  1  0.869020  0.163627  0.107567  1
  O  O13  1  0.212007  0.776812  0.881961  1
  O  O14  1  0.662374  0.825505  0.241138  1
  O  O15  1  0.418387  0.261945  0.881033  1
