# generated using pymatgen
data_PrYCo2(B4Os3)2
_symmetry_space_group_name_H-M   'P 1'
_cell_length_a   7.33214727
_cell_length_b   7.57200120
_cell_length_c   3.98584300
_cell_angle_alpha   90.00000000
_cell_angle_beta   90.00000000
_cell_angle_gamma   87.90750154
_symmetry_Int_Tables_number   1
_chemical_formula_structural   PrYCo2(B4Os3)2
_chemical_formula_sum   'Pr1 Y1 Co2 B8 Os6'
_cell_volume   221.14256880
_cell_formula_units_Z   1
loop_
 _symmetry_equiv_pos_site_id
 _symmetry_equiv_pos_as_xyz
  1  'x, y, z'
loop_
 _atom_site_type_symbol
 _atom_site_label
 _atom_site_symmetry_multiplicity
 _atom_site_fract_x
 _atom_site_fract_y
 _atom_site_fract_z
 _atom_site_occupancy
  Pr  Pr0  1  0.000000  0.000000  0.025632  1
  Y  Y1  1  0.500000  0.500000  0.597987  1
  Co  Co2  1  0.613363  0.869891  0.881517  1
  Co  Co3  1  0.386637  0.130109  0.881517  1
  B  B4  1  0.336371  0.792005  0.881792  1
  B  B5  1  0.663629  0.207995  0.881792  1
  B  B6  1  0.312433  0.158991  0.382344  1
  B  B7  1  0.687567  0.841009  0.382344  1
  B  B8  1  0.166889  0.716340  0.602719  1
  B  B9  1  0.833111  0.283660  0.602719  1
  B  B10  1  0.228752  0.326012  0.101810  1
  B  B11  1  0.771248  0.673988  0.101810  1
  Os  Os12  1  0.845316  0.398732  0.104173  1
  Os  Os13  1  0.154684  0.601268  0.104173  1
  Os  Os14  1  0.886251  0.651953  0.604085  1
  Os  Os15  1  0.113749  0.348047  0.604085  1
  Os  Os16  1  0.628492  0.119929  0.379752  1
  Os  Os17  1  0.371508  0.880071  0.379752  1
