# generated using pymatgen
data_Pr5Dy11Cd4Ru3Pt
_symmetry_space_group_name_H-M   'P 1'
_cell_length_a   9.78332427
_cell_length_b   9.81279828
_cell_length_c   9.81279749
_cell_angle_alpha   59.61544062
_cell_angle_beta   59.50824549
_cell_angle_gamma   59.50825029
_symmetry_Int_Tables_number   1
_chemical_formula_structural   Pr5Dy11Cd4Ru3Pt
_chemical_formula_sum   'Pr5 Dy11 Cd4 Ru3 Pt1'
_cell_volume   659.21896920
_cell_formula_units_Z   1
loop_
 _symmetry_equiv_pos_site_id
 _symmetry_equiv_pos_as_xyz
  1  'x, y, z'
loop_
 _atom_site_type_symbol
 _atom_site_label
 _atom_site_symmetry_multiplicity
 _atom_site_fract_x
 _atom_site_fract_y
 _atom_site_fract_z
 _atom_site_occupancy
  Pr  Pr0  1  0.554367  0.942360  0.942360  1
  Pr  Pr1  1  0.558400  0.937083  0.563187  1
  Pr  Pr2  1  0.940158  0.557939  0.939652  1
  Pr  Pr3  1  0.558400  0.563187  0.937083  1
  Pr  Pr4  1  0.940158  0.939652  0.557939  1
  Dy  Dy5  1  0.344243  0.348914  0.348914  1
  Dy  Dy6  1  0.343047  0.351086  0.960064  1
  Dy  Dy7  1  0.343047  0.960064  0.351086  1
  Dy  Dy8  1  0.964758  0.345756  0.345756  1
  Dy  Dy9  1  0.816700  0.187271  0.187271  1
  Dy  Dy10  1  0.184297  0.813915  0.813915  1
  Dy  Dy11  1  0.185749  0.811431  0.188402  1
  Dy  Dy12  1  0.817497  0.189366  0.806198  1
  Dy  Dy13  1  0.185749  0.188402  0.811431  1
  Dy  Dy14  1  0.817497  0.806198  0.189366  1
  Dy  Dy15  1  0.941401  0.556605  0.556605  1
  Cd  Cd16  1  0.582537  0.577967  0.577967  1
  Cd  Cd17  1  0.578893  0.579072  0.262763  1
  Cd  Cd18  1  0.578893  0.262763  0.579072  1
  Cd  Cd19  1  0.259544  0.578674  0.578674  1
  Ru  Ru20  1  0.143749  0.138404  0.138404  1
  Ru  Ru21  1  0.142091  0.143415  0.578930  1
  Ru  Ru22  1  0.142091  0.578930  0.143415  1
  Pt  Pt23  1  0.576736  0.141543  0.141543  1
