# generated using pymatgen
data_TbYV2(WO6)2
_symmetry_space_group_name_H-M   'P 1'
_cell_length_a   7.45110500
_cell_length_b   5.25535600
_cell_length_c   11.18575900
_cell_angle_alpha   90.00000000
_cell_angle_beta   90.00000000
_cell_angle_gamma   90.00008975
_symmetry_Int_Tables_number   1
_chemical_formula_structural   TbYV2(WO6)2
_chemical_formula_sum   'Tb2 Y2 V4 W4 O24'
_cell_volume   438.01429287
_cell_formula_units_Z   2
loop_
 _symmetry_equiv_pos_site_id
 _symmetry_equiv_pos_as_xyz
  1  'x, y, z'
loop_
 _atom_site_type_symbol
 _atom_site_label
 _atom_site_symmetry_multiplicity
 _atom_site_fract_x
 _atom_site_fract_y
 _atom_site_fract_z
 _atom_site_occupancy
  Tb  Tb0  1  0.253411  0.794674  0.545260  1
  Tb  Tb1  1  0.753410  0.294674  0.954739  1
  Y  Y2  1  0.253355  0.204877  0.045195  1
  Y  Y3  1  0.753354  0.704877  0.454805  1
  V  V4  1  0.506321  0.699539  0.134017  1
  V  V5  1  0.006321  0.199539  0.365983  1
  V  V6  1  0.506313  0.300163  0.634034  1
  V  V7  1  0.006313  0.800163  0.865966  1
  W  W8  1  0.998629  0.693960  0.143859  1
  W  W9  1  0.498630  0.193959  0.356141  1
  W  W10  1  0.998447  0.306102  0.643732  1
  W  W11  1  0.498448  0.806103  0.856268  1
  O  O12  1  0.543605  0.992735  0.019789  1
  O  O13  1  0.959012  0.984650  0.029528  1
  O  O14  1  0.755283  0.573456  0.116514  1
  O  O15  1  0.246241  0.814956  0.143183  1
  O  O16  1  0.070873  0.376270  0.206720  1
  O  O17  1  0.436976  0.358836  0.213516  1
  O  O18  1  0.936975  0.858836  0.286484  1
  O  O19  1  0.570873  0.876270  0.293280  1
  O  O20  1  0.746240  0.314958  0.356817  1
  O  O21  1  0.255283  0.073456  0.383486  1
  O  O22  1  0.459013  0.484651  0.470472  1
  O  O23  1  0.043605  0.492734  0.480211  1
  O  O24  1  0.544095  0.006716  0.519478  1
  O  O25  1  0.958706  0.014705  0.529885  1
  O  O26  1  0.755248  0.427405  0.616447  1
  O  O27  1  0.246258  0.185909  0.643054  1
  O  O28  1  0.070503  0.623542  0.706930  1
  O  O29  1  0.436923  0.641494  0.713608  1
  O  O30  1  0.936922  0.141494  0.786392  1
  O  O31  1  0.570503  0.123542  0.793070  1
  O  O32  1  0.746257  0.685907  0.856946  1
  O  O33  1  0.255248  0.927405  0.883553  1
  O  O34  1  0.458707  0.514704  0.970115  1
  O  O35  1  0.044095  0.506717  0.980522  1
