# generated using pymatgen
data_Tb4Tm2Si24Os7Ru
_symmetry_space_group_name_H-M   'P 1'
_cell_length_a   10.13025992
_cell_length_b   10.13025990
_cell_length_c   8.17609609
_cell_angle_alpha   90.01408644
_cell_angle_beta   90.01408456
_cell_angle_gamma   132.45034334
_symmetry_Int_Tables_number   1
_chemical_formula_structural   Tb4Tm2Si24Os7Ru
_chemical_formula_sum   'Tb4 Tm2 Si24 Os7 Ru1'
_cell_volume   619.10251079
_cell_formula_units_Z   1
loop_
 _symmetry_equiv_pos_site_id
 _symmetry_equiv_pos_as_xyz
  1  'x, y, z'
loop_
 _atom_site_type_symbol
 _atom_site_label
 _atom_site_symmetry_multiplicity
 _atom_site_fract_x
 _atom_site_fract_y
 _atom_site_fract_z
 _atom_site_occupancy
  Tb  Tb0  1  0.501208  0.000947  0.749217  1
  Tb  Tb1  1  0.998803  0.499010  0.250801  1
  Tb  Tb2  1  0.499010  0.998803  0.250801  1
  Tb  Tb3  1  0.000947  0.501208  0.749217  1
  Tm  Tm4  1  0.500131  0.500131  0.499128  1
  Tm  Tm5  1  0.000817  0.000817  0.999820  1
  Si  Si6  1  0.795098  0.204780  0.500161  1
  Si  Si7  1  0.295599  0.704325  0.000129  1
  Si  Si8  1  0.204780  0.795098  0.500161  1
  Si  Si9  1  0.704325  0.295599  0.000129  1
  Si  Si10  1  0.333949  0.333949  0.831794  1
  Si  Si11  1  0.668887  0.668887  0.165339  1
  Si  Si12  1  0.167580  0.167580  0.332854  1
  Si  Si13  1  0.831828  0.831828  0.667592  1
  Si  Si14  1  0.119489  0.885416  0.728010  1
  Si  Si15  1  0.114318  0.879590  0.272085  1
  Si  Si16  1  0.611039  0.376967  0.228725  1
  Si  Si17  1  0.621922  0.388504  0.771568  1
  Si  Si18  1  0.879590  0.114318  0.272085  1
  Si  Si19  1  0.885416  0.119489  0.728010  1
  Si  Si20  1  0.388504  0.621922  0.771568  1
  Si  Si21  1  0.376967  0.611039  0.228725  1
  Si  Si22  1  0.344966  0.111108  0.503545  1
  Si  Si23  1  0.888311  0.655094  0.497120  1
  Si  Si24  1  0.387976  0.154479  0.005984  1
  Si  Si25  1  0.845053  0.612192  0.994851  1
  Si  Si26  1  0.655094  0.888311  0.497120  1
  Si  Si27  1  0.111108  0.344966  0.503545  1
  Si  Si28  1  0.612192  0.845053  0.994851  1
  Si  Si29  1  0.154479  0.387976  0.005984  1
  Os  Os30  1  0.668442  0.331783  0.500036  1
  Os  Os31  1  0.169112  0.830991  0.999717  1
  Os  Os32  1  0.331783  0.668442  0.500036  1
  Os  Os33  1  0.830991  0.169112  0.999717  1
  Os  Os34  1  0.126667  0.126667  0.627210  1
  Os  Os35  1  0.873556  0.873556  0.372502  1
  Os  Os36  1  0.372710  0.372710  0.128012  1
  Ru  Ru37  1  0.627350  0.627350  0.871849  1
