# generated using pymatgen
data_Tb3Pr7(Ir2Ru)2
_symmetry_space_group_name_H-M   'P 1'
_cell_length_a   11.21530795
_cell_length_b   11.19626400
_cell_length_c   6.59487057
_cell_angle_alpha   90.00000000
_cell_angle_beta   90.04732186
_cell_angle_gamma   90.00000000
_symmetry_Int_Tables_number   1
_chemical_formula_structural   Tb3Pr7(Ir2Ru)2
_chemical_formula_sum   'Tb6 Pr14 Ir8 Ru4'
_cell_volume   828.11463794
_cell_formula_units_Z   2
loop_
 _symmetry_equiv_pos_site_id
 _symmetry_equiv_pos_as_xyz
  1  'x, y, z'
loop_
 _atom_site_type_symbol
 _atom_site_label
 _atom_site_symmetry_multiplicity
 _atom_site_fract_x
 _atom_site_fract_y
 _atom_site_fract_z
 _atom_site_occupancy
  Tb  Tb0  1  0.085815  0.706443  0.614713  1
  Tb  Tb1  1  0.085815  0.293557  0.114713  1
  Tb  Tb2  1  0.001182  0.998756  0.502421  1
  Tb  Tb3  1  0.001182  0.001244  0.002421  1
  Tb  Tb4  1  0.499071  0.499725  0.000390  1
  Tb  Tb5  1  0.499071  0.500275  0.500390  1
  Pr  Pr6  1  0.289711  0.088573  0.379808  1
  Pr  Pr7  1  0.289711  0.911427  0.879808  1
  Pr  Pr8  1  0.709345  0.087119  0.881588  1
  Pr  Pr9  1  0.709345  0.912881  0.381588  1
  Pr  Pr10  1  0.586993  0.790928  0.880739  1
  Pr  Pr11  1  0.586993  0.209072  0.380739  1
  Pr  Pr12  1  0.412279  0.791310  0.381688  1
  Pr  Pr13  1  0.412279  0.208690  0.881688  1
  Pr  Pr14  1  0.207672  0.413819  0.619422  1
  Pr  Pr15  1  0.207672  0.586181  0.119422  1
  Pr  Pr16  1  0.792418  0.412720  0.118749  1
  Pr  Pr17  1  0.792418  0.587280  0.618749  1
  Pr  Pr18  1  0.915078  0.708820  0.118685  1
  Pr  Pr19  1  0.915078  0.291180  0.618685  1
  Ir  Ir20  1  0.855780  0.150051  0.247934  1
  Ir  Ir21  1  0.855780  0.849949  0.747934  1
  Ir  Ir22  1  0.147202  0.149585  0.756665  1
  Ir  Ir23  1  0.147202  0.850415  0.256665  1
  Ir  Ir24  1  0.647290  0.352110  0.749967  1
  Ir  Ir25  1  0.647290  0.647890  0.249967  1
  Ir  Ir26  1  0.348630  0.351883  0.248564  1
  Ir  Ir27  1  0.348630  0.648117  0.748564  1
  Ru  Ru28  1  0.499691  0.999773  0.117748  1
  Ru  Ru29  1  0.499691  0.000227  0.617748  1
  Ru  Ru30  1  0.001841  0.499308  0.880919  1
  Ru  Ru31  1  0.001841  0.500692  0.380919  1
