# generated using pymatgen
data_Ba4ScMnO8
_symmetry_space_group_name_H-M   'P 1'
_cell_length_a   7.33979901
_cell_length_b   7.33979871
_cell_length_c   5.78436300
_cell_angle_alpha   90.00000000
_cell_angle_beta   90.00000000
_cell_angle_gamma   133.59692181
_symmetry_Int_Tables_number   1
_chemical_formula_structural   Ba4ScMnO8
_chemical_formula_sum   'Ba4 Sc1 Mn1 O8'
_cell_volume   225.67721834
_cell_formula_units_Z   1
loop_
 _symmetry_equiv_pos_site_id
 _symmetry_equiv_pos_as_xyz
  1  'x, y, z'
loop_
 _atom_site_type_symbol
 _atom_site_label
 _atom_site_symmetry_multiplicity
 _atom_site_fract_x
 _atom_site_fract_y
 _atom_site_fract_z
 _atom_site_occupancy
  Ba  Ba0  1  0.357447  0.642553  0.000000  1
  Ba  Ba1  1  0.856523  0.143477  0.500000  1
  Ba  Ba2  1  0.143477  0.856523  0.500000  1
  Ba  Ba3  1  0.642553  0.357447  0.000000  1
  Sc  Sc4  1  0.000000  0.000000  0.000000  1
  Mn  Mn5  1  0.500000  0.500000  0.500000  1
  O  O6  1  0.260137  0.260137  0.738178  1
  O  O7  1  0.739863  0.739863  0.261822  1
  O  O8  1  0.739863  0.739863  0.738178  1
  O  O9  1  0.260137  0.260137  0.261822  1
  O  O10  1  0.157031  0.842969  0.000000  1
  O  O11  1  0.647772  0.352228  0.500000  1
  O  O12  1  0.352228  0.647772  0.500000  1
  O  O13  1  0.842969  0.157031  0.000000  1
