# generated using pymatgen
data_Ti13Al9Co5Pt3
_symmetry_space_group_name_H-M   'P 1'
_cell_length_a   8.63191256
_cell_length_b   8.63189564
_cell_length_c   8.63277661
_cell_angle_alpha   59.94339174
_cell_angle_beta   59.94349214
_cell_angle_gamma   59.94919963
_symmetry_Int_Tables_number   1
_chemical_formula_structural   Ti13Al9Co5Pt3
_chemical_formula_sum   'Ti13 Al9 Co5 Pt3'
_cell_volume   454.26595877
_cell_formula_units_Z   1
loop_
 _symmetry_equiv_pos_site_id
 _symmetry_equiv_pos_as_xyz
  1  'x, y, z'
loop_
 _atom_site_type_symbol
 _atom_site_label
 _atom_site_symmetry_multiplicity
 _atom_site_fract_x
 _atom_site_fract_y
 _atom_site_fract_z
 _atom_site_occupancy
  Ti  Ti0  1  0.204660  0.204663  0.794655  1
  Ti  Ti1  1  0.794683  0.204598  0.204564  1
  Ti  Ti2  1  0.204618  0.794692  0.204586  1
  Ti  Ti3  1  0.807325  0.807404  0.179782  1
  Ti  Ti4  1  0.179860  0.807285  0.807322  1
  Ti  Ti5  1  0.807239  0.179903  0.807354  1
  Ti  Ti6  1  0.380784  0.380750  0.380689  1
  Ti  Ti7  1  0.388571  0.855381  0.388634  1
  Ti  Ti8  1  0.855337  0.388546  0.388669  1
  Ti  Ti9  1  0.388665  0.388604  0.855423  1
  Ti  Ti10  1  0.831901  0.481068  0.832008  1
  Ti  Ti11  1  0.481141  0.831892  0.831996  1
  Ti  Ti12  1  0.831940  0.831942  0.481226  1
  Al  Al13  1  0.157805  0.157857  0.157833  1
  Al  Al14  1  0.167139  0.515765  0.166914  1
  Al  Al15  1  0.515772  0.167171  0.166896  1
  Al  Al16  1  0.166901  0.166951  0.515944  1
  Al  Al17  1  0.617072  0.617055  0.617288  1
  Al  Al18  1  0.614057  0.148781  0.613966  1
  Al  Al19  1  0.148765  0.614026  0.614008  1
  Al  Al20  1  0.613991  0.613920  0.148758  1
  Al  Al21  1  0.826723  0.826730  0.826651  1
  Co  Co22  1  0.498980  0.498936  0.002385  1
  Co  Co23  1  0.002405  0.498954  0.499021  1
  Co  Co24  1  0.498968  0.002410  0.498992  1
  Co  Co25  1  0.500495  0.500488  0.500565  1
  Co  Co26  1  0.009210  0.009208  0.008833  1
  Pt  Pt27  1  0.003242  0.003244  0.498523  1
  Pt  Pt28  1  0.498539  0.003218  0.003256  1
  Pt  Pt29  1  0.003211  0.498554  0.003253  1
