# generated using pymatgen
data_TbSm4Y(AlC3)2
_symmetry_space_group_name_H-M   'P 1'
_cell_length_a   3.65810800
_cell_length_b   7.26464929
_cell_length_c   10.05578205
_cell_angle_alpha   89.59020432
_cell_angle_beta   90.00000000
_cell_angle_gamma   90.00000000
_symmetry_Int_Tables_number   1
_chemical_formula_structural   TbSm4Y(AlC3)2
_chemical_formula_sum   'Tb1 Sm4 Y1 Al2 C6'
_cell_volume   267.22428253
_cell_formula_units_Z   1
loop_
 _symmetry_equiv_pos_site_id
 _symmetry_equiv_pos_as_xyz
  1  'x, y, z'
loop_
 _atom_site_type_symbol
 _atom_site_label
 _atom_site_symmetry_multiplicity
 _atom_site_fract_x
 _atom_site_fract_y
 _atom_site_fract_z
 _atom_site_occupancy
  Tb  Tb0  1  0.500000  0.988697  0.199814  1
  Sm  Sm1  1  0.500000  0.512537  0.194375  1
  Sm  Sm2  1  0.500000  0.487111  0.805627  1
  Sm  Sm3  1  0.000000  0.750242  0.460115  1
  Sm  Sm4  1  0.000000  0.249660  0.540153  1
  Y  Y5  1  0.500000  0.011556  0.799965  1
  Al  Al6  1  0.000000  0.767319  0.006241  1
  Al  Al7  1  0.000000  0.232689  0.993392  1
  C  C8  1  0.500000  0.507487  0.565407  1
  C  C9  1  0.500000  0.492480  0.434567  1
  C  C10  1  0.500000  0.991891  0.565668  1
  C  C11  1  0.500000  0.007971  0.434786  1
  C  C12  1  0.000000  0.755468  0.207301  1
  C  C13  1  0.000000  0.244890  0.792587  1
