# generated using pymatgen
data_La12MnSi8Ni3
_symmetry_space_group_name_H-M   'P 1'
_cell_length_a   4.29517900
_cell_length_b   11.74352674
_cell_length_c   11.90081700
_cell_angle_alpha   90.02027681
_cell_angle_beta   90.00000000
_cell_angle_gamma   90.00000000
_symmetry_Int_Tables_number   1
_chemical_formula_structural   La12MnSi8Ni3
_chemical_formula_sum   'La12 Mn1 Si8 Ni3'
_cell_volume   600.28371043
_cell_formula_units_Z   1
loop_
 _symmetry_equiv_pos_site_id
 _symmetry_equiv_pos_as_xyz
  1  'x, y, z'
loop_
 _atom_site_type_symbol
 _atom_site_label
 _atom_site_symmetry_multiplicity
 _atom_site_fract_x
 _atom_site_fract_y
 _atom_site_fract_z
 _atom_site_occupancy
  La  La0  1  0.250000  0.059454  0.882810  1
  La  La1  1  0.250000  0.441711  0.377342  1
  La  La2  1  0.750000  0.942319  0.117034  1
  La  La3  1  0.750000  0.560538  0.615806  1
  La  La4  1  0.250000  0.119000  0.557349  1
  La  La5  1  0.250000  0.375098  0.054916  1
  La  La6  1  0.750000  0.877882  0.444143  1
  La  La7  1  0.750000  0.625587  0.944718  1
  La  La8  1  0.250000  0.803502  0.712333  1
  La  La9  1  0.250000  0.699773  0.213200  1
  La  La10  1  0.750000  0.195087  0.289179  1
  La  La11  1  0.750000  0.298357  0.788792  1
  Mn  Mn12  1  0.250000  0.365684  0.628986  1
  Si  Si13  1  0.250000  0.814750  0.968350  1
  Si  Si14  1  0.250000  0.685088  0.467443  1
  Si  Si15  1  0.750000  0.184974  0.033709  1
  Si  Si16  1  0.750000  0.314964  0.531981  1
  Si  Si17  1  0.250000  0.492373  0.800774  1
  Si  Si18  1  0.250000  0.007381  0.298235  1
  Si  Si19  1  0.750000  0.510942  0.198000  1
  Si  Si20  1  0.750000  0.990671  0.701828  1
  Ni  Ni21  1  0.250000  0.134347  0.128924  1
  Ni  Ni22  1  0.750000  0.633813  0.371336  1
  Ni  Ni23  1  0.750000  0.866704  0.872813  1
