# generated using pymatgen
data_DyTm11ZnInCo4
_symmetry_space_group_name_H-M   'P 1'
_cell_length_a   8.22422712
_cell_length_b   8.22260371
_cell_length_c   8.22260409
_cell_angle_alpha   106.41513889
_cell_angle_beta   109.90636626
_cell_angle_gamma   112.13434466
_symmetry_Int_Tables_number   1
_chemical_formula_structural   DyTm11ZnInCo4
_chemical_formula_sum   'Dy1 Tm11 Zn1 In1 Co4'
_cell_volume   427.01639102
_cell_formula_units_Z   1
loop_
 _symmetry_equiv_pos_site_id
 _symmetry_equiv_pos_as_xyz
  1  'x, y, z'
loop_
 _atom_site_type_symbol
 _atom_site_label
 _atom_site_symmetry_multiplicity
 _atom_site_fract_x
 _atom_site_fract_y
 _atom_site_fract_z
 _atom_site_occupancy
  Dy  Dy0  1  0.602214  0.783147  0.819067  1
  Tm  Tm1  1  0.301353  0.266477  0.568817  1
  Tm  Tm2  1  0.697682  0.732807  0.429092  1
  Tm  Tm3  1  0.301353  0.732534  0.034876  1
  Tm  Tm4  1  0.697682  0.268592  0.964874  1
  Tm  Tm5  1  0.186265  0.511650  0.323788  1
  Tm  Tm6  1  0.186265  0.862476  0.674615  1
  Tm  Tm7  1  0.813316  0.487782  0.674857  1
  Tm  Tm8  1  0.813316  0.138460  0.325534  1
  Tm  Tm9  1  0.398974  0.217650  0.181323  1
  Tm  Tm10  1  0.036432  0.218066  0.818368  1
  Tm  Tm11  1  0.964456  0.782080  0.182375  1
  Zn  Zn12  1  0.498605  0.498545  0.000060  1
  In  In13  1  0.499890  0.999633  0.500256  1
  Co  Co14  1  0.158641  0.498797  0.659843  1
  Co  Co15  1  0.838871  0.499386  0.339485  1
  Co  Co16  1  0.002344  0.116149  0.116573  1
  Co  Co17  1  0.002344  0.885771  0.886196  1
