# generated using pymatgen
data_Tb3NdCdNi
_symmetry_space_group_name_H-M   'P 1'
_cell_length_a   9.66292789
_cell_length_b   9.64314558
_cell_length_c   9.64314633
_cell_angle_alpha   60.13577183
_cell_angle_beta   59.93211577
_cell_angle_gamma   59.93211709
_symmetry_Int_Tables_number   1
_chemical_formula_structural   Tb3NdCdNi
_chemical_formula_sum   'Tb12 Nd4 Cd4 Ni4'
_cell_volume   635.37127063
_cell_formula_units_Z   4
loop_
 _symmetry_equiv_pos_site_id
 _symmetry_equiv_pos_as_xyz
  1  'x, y, z'
loop_
 _atom_site_type_symbol
 _atom_site_label
 _atom_site_symmetry_multiplicity
 _atom_site_fract_x
 _atom_site_fract_y
 _atom_site_fract_z
 _atom_site_occupancy
  Tb  Tb0  1  0.597121  0.598140  0.598140  1
  Tb  Tb1  1  0.598140  0.597121  0.206598  1
  Tb  Tb2  1  0.598140  0.206598  0.597121  1
  Tb  Tb3  1  0.206598  0.598140  0.598140  1
  Tb  Tb4  1  0.061462  0.438538  0.438538  1
  Tb  Tb5  1  0.438538  0.061462  0.061462  1
  Tb  Tb6  1  0.438888  0.061112  0.438888  1
  Tb  Tb7  1  0.061112  0.438888  0.061112  1
  Tb  Tb8  1  0.438888  0.438888  0.061112  1
  Tb  Tb9  1  0.061112  0.061112  0.438888  1
  Tb  Tb10  1  0.190295  0.809705  0.809705  1
  Tb  Tb11  1  0.809705  0.190295  0.190295  1
  Nd  Nd12  1  0.813188  0.186812  0.813188  1
  Nd  Nd13  1  0.186812  0.813188  0.186812  1
  Nd  Nd14  1  0.813188  0.813188  0.186812  1
  Nd  Nd15  1  0.186812  0.186812  0.813188  1
  Cd  Cd16  1  0.831895  0.829001  0.829001  1
  Cd  Cd17  1  0.829001  0.831895  0.510103  1
  Cd  Cd18  1  0.829001  0.510103  0.831895  1
  Cd  Cd19  1  0.510103  0.829001  0.829001  1
  Ni  Ni20  1  0.394243  0.391306  0.391306  1
  Ni  Ni21  1  0.391306  0.394243  0.823145  1
  Ni  Ni22  1  0.391306  0.823145  0.394243  1
  Ni  Ni23  1  0.823145  0.391306  0.391306  1
