# generated using pymatgen
data_Ta6Al4Co2CN
_symmetry_space_group_name_H-M   'P 1'
_cell_length_a   8.18663831
_cell_length_b   8.18531105
_cell_length_c   8.17198805
_cell_angle_alpha   60.06442443
_cell_angle_beta   60.06923288
_cell_angle_gamma   60.14974190
_symmetry_Int_Tables_number   1
_chemical_formula_structural   Ta6Al4Co2CN
_chemical_formula_sum   'Ta12 Al8 Co4 C2 N2'
_cell_volume   388.04449624
_cell_formula_units_Z   2
loop_
 _symmetry_equiv_pos_site_id
 _symmetry_equiv_pos_as_xyz
  1  'x, y, z'
loop_
 _atom_site_type_symbol
 _atom_site_label
 _atom_site_symmetry_multiplicity
 _atom_site_fract_x
 _atom_site_fract_y
 _atom_site_fract_z
 _atom_site_occupancy
  Ta  Ta0  1  0.564000  0.937793  0.559222  1
  Ta  Ta1  1  0.312174  0.685998  0.690822  1
  Ta  Ta2  1  0.686060  0.312190  0.310991  1
  Ta  Ta3  1  0.312160  0.686056  0.310977  1
  Ta  Ta4  1  0.687969  0.687919  0.312044  1
  Ta  Ta5  1  0.311693  0.311712  0.688336  1
  Ta  Ta6  1  0.562031  0.562081  0.937956  1
  Ta  Ta7  1  0.937826  0.564002  0.559178  1
  Ta  Ta8  1  0.563940  0.937810  0.939009  1
  Ta  Ta9  1  0.938307  0.938288  0.561664  1
  Ta  Ta10  1  0.686000  0.312207  0.690778  1
  Ta  Ta11  1  0.937840  0.563944  0.939023  1
  Al  Al12  1  0.918738  0.918821  0.917536  1
  Al  Al13  1  0.003689  0.331005  0.332747  1
  Al  Al14  1  0.331076  0.003646  0.332736  1
  Al  Al15  1  0.331330  0.331257  0.005078  1
  Al  Al16  1  0.918924  0.246354  0.917264  1
  Al  Al17  1  0.918670  0.918743  0.244922  1
  Al  Al18  1  0.246311  0.918995  0.917253  1
  Al  Al19  1  0.331262  0.331179  0.332464  1
  Co  Co20  1  0.125000  0.125000  0.125000  1
  Co  Co21  1  0.625000  0.125000  0.125000  1
  Co  Co22  1  0.125000  0.625000  0.125000  1
  Co  Co23  1  0.125000  0.125000  0.625000  1
  C  C24  1  0.125000  0.625000  0.625000  1
  C  C25  1  0.625000  0.125000  0.625000  1
  N  N26  1  0.625000  0.625000  0.625000  1
  N  N27  1  0.625000  0.625000  0.125000  1
