# generated using pymatgen
data_Y2Si5RuPt2
_symmetry_space_group_name_H-M   'P 1'
_cell_length_a   8.15533393
_cell_length_b   8.15533388
_cell_length_c   5.92498700
_cell_angle_alpha   68.61975250
_cell_angle_beta   68.61975336
_cell_angle_gamma   89.17352153
_symmetry_Int_Tables_number   1
_chemical_formula_structural   Y2Si5RuPt2
_chemical_formula_sum   'Y4 Si10 Ru2 Pt4'
_cell_volume   338.49114856
_cell_formula_units_Z   2
loop_
 _symmetry_equiv_pos_site_id
 _symmetry_equiv_pos_as_xyz
  1  'x, y, z'
loop_
 _atom_site_type_symbol
 _atom_site_label
 _atom_site_symmetry_multiplicity
 _atom_site_fract_x
 _atom_site_fract_y
 _atom_site_fract_z
 _atom_site_occupancy
  Y  Y0  1  0.861655  0.601499  0.767970  1
  Y  Y1  1  0.398501  0.138345  0.732030  1
  Y  Y2  1  0.138345  0.398501  0.232030  1
  Y  Y3  1  0.601499  0.861655  0.267970  1
  Si  Si4  1  0.048248  0.254135  0.848855  1
  Si  Si5  1  0.745865  0.951752  0.651145  1
  Si  Si6  1  0.951752  0.745865  0.151145  1
  Si  Si7  1  0.254135  0.048248  0.348855  1
  Si  Si8  1  0.222318  0.777682  0.750000  1
  Si  Si9  1  0.777682  0.222318  0.250000  1
  Si  Si10  1  0.499883  0.500117  0.750000  1
  Si  Si11  1  0.500117  0.499883  0.250000  1
  Si  Si12  1  0.778069  0.221931  0.750000  1
  Si  Si13  1  0.221931  0.778069  0.250000  1
  Ru  Ru14  1  0.999668  0.000332  0.750000  1
  Ru  Ru15  1  0.000332  0.999668  0.250000  1
  Pt  Pt16  1  0.247969  0.526791  0.612618  1
  Pt  Pt17  1  0.473209  0.752031  0.887382  1
  Pt  Pt18  1  0.752031  0.473209  0.387382  1
  Pt  Pt19  1  0.526791  0.247969  0.112618  1
