# generated using pymatgen
data_LiS8Cl3
_symmetry_space_group_name_H-M   'P 1'
_cell_length_a   7.71025004
_cell_length_b   10.43753389
_cell_length_c   11.79219442
_cell_angle_alpha   114.66229696
_cell_angle_beta   87.58085136
_cell_angle_gamma   108.97339817
_symmetry_Int_Tables_number   1
_chemical_formula_structural   LiS8Cl3
_chemical_formula_sum   'Li2 S16 Cl6'
_cell_volume   810.73217902
_cell_formula_units_Z   2
loop_
 _symmetry_equiv_pos_site_id
 _symmetry_equiv_pos_as_xyz
  1  'x, y, z'
loop_
 _atom_site_type_symbol
 _atom_site_label
 _atom_site_symmetry_multiplicity
 _atom_site_fract_x
 _atom_site_fract_y
 _atom_site_fract_z
 _atom_site_occupancy
  Li  Li0  1  0.875247  0.042607  0.932915  1
  Li  Li1  1  0.124753  0.957393  0.067085  1
  S  S2  1  0.824226  0.557764  0.816778  1
  S  S3  1  0.175774  0.442236  0.183222  1
  S  S4  1  0.783306  0.454433  0.623611  1
  S  S5  1  0.216694  0.545567  0.376389  1
  S  S6  1  0.765957  0.234004  0.562031  1
  S  S7  1  0.234043  0.765996  0.437969  1
  S  S8  1  0.018161  0.216034  0.509146  1
  S  S9  1  0.981839  0.783966  0.490854  1
  S  S10  1  0.896814  0.322130  0.131379  1
  S  S11  1  0.103186  0.677870  0.868621  1
  S  S12  1  0.769358  0.446359  0.089784  1
  S  S13  1  0.230642  0.553641  0.910216  1
  S  S14  1  0.657124  0.553301  0.247788  1
  S  S15  1  0.342876  0.446699  0.752212  1
  S  S16  1  0.832151  0.771590  0.343562  1
  S  S17  1  0.167849  0.228410  0.656438  1
  Cl  Cl18  1  0.458862  0.996135  0.823921  1
  Cl  Cl19  1  0.541138  0.003865  0.176079  1
  Cl  Cl20  1  0.804528  0.926912  0.068200  1
  Cl  Cl21  1  0.195472  0.073088  0.931800  1
  Cl  Cl22  1  0.689236  0.935360  0.738671  1
  Cl  Cl23  1  0.310764  0.064640  0.261329  1
