# generated using pymatgen
data_Ho3ErTc5Os3
_symmetry_space_group_name_H-M   'P 1'
_cell_length_a   5.31085729
_cell_length_b   5.24396884
_cell_length_c   9.01954600
_cell_angle_alpha   90.00044200
_cell_angle_beta   90.00107373
_cell_angle_gamma   119.45037133
_symmetry_Int_Tables_number   1
_chemical_formula_structural   Ho3ErTc5Os3
_chemical_formula_sum   'Ho3 Er1 Tc5 Os3'
_cell_volume   218.73526393
_cell_formula_units_Z   1
loop_
 _symmetry_equiv_pos_site_id
 _symmetry_equiv_pos_as_xyz
  1  'x, y, z'
loop_
 _atom_site_type_symbol
 _atom_site_label
 _atom_site_symmetry_multiplicity
 _atom_site_fract_x
 _atom_site_fract_y
 _atom_site_fract_z
 _atom_site_occupancy
  Ho  Ho0  1  0.331999  0.665838  0.437344  1
  Ho  Ho1  1  0.669752  0.335005  0.564339  1
  Ho  Ho2  1  0.669771  0.335022  0.935787  1
  Er  Er3  1  0.331924  0.665809  0.062608  1
  Tc  Tc4  1  0.828744  0.170986  0.249717  1
  Tc  Tc5  1  0.828218  0.656470  0.249723  1
  Tc  Tc6  1  0.341165  0.171144  0.249682  1
  Tc  Tc7  1  0.169710  0.830115  0.750243  1
  Tc  Tc8  1  0.170366  0.340129  0.750228  1
  Os  Os9  1  0.002343  0.001286  0.500624  1
  Os  Os10  1  0.002470  0.001330  0.999432  1
  Os  Os11  1  0.653538  0.826864  0.750274  1
