# generated using pymatgen
data_Tb5Co2
_symmetry_space_group_name_H-M   'P 1'
_cell_length_a   8.63874776
_cell_length_b   8.63874800
_cell_length_c   6.94045853
_cell_angle_alpha   83.84464350
_cell_angle_beta   83.84464389
_cell_angle_gamma   42.48467053
_symmetry_Int_Tables_number   1
_chemical_formula_structural   Tb5Co2
_chemical_formula_sum   'Tb10 Co4'
_cell_volume   347.49876281
_cell_formula_units_Z   2
loop_
 _symmetry_equiv_pos_site_id
 _symmetry_equiv_pos_as_xyz
  1  'x, y, z'
loop_
 _atom_site_type_symbol
 _atom_site_label
 _atom_site_symmetry_multiplicity
 _atom_site_fract_x
 _atom_site_fract_y
 _atom_site_fract_z
 _atom_site_occupancy
  Tb  Tb0  1  0.645961  0.783968  0.684131  1
  Tb  Tb1  1  0.216032  0.354039  0.815869  1
  Tb  Tb2  1  0.354039  0.216032  0.315869  1
  Tb  Tb3  1  0.783968  0.645961  0.184131  1
  Tb  Tb4  1  0.431228  0.568772  0.750000  1
  Tb  Tb5  1  0.568772  0.431228  0.250000  1
  Tb  Tb6  1  0.201694  0.987517  0.086179  1
  Tb  Tb7  1  0.012483  0.798306  0.413821  1
  Tb  Tb8  1  0.798306  0.012483  0.913821  1
  Tb  Tb9  1  0.987517  0.201694  0.586179  1
  Co  Co10  1  0.401442  0.821428  0.427140  1
  Co  Co11  1  0.178572  0.598558  0.072860  1
  Co  Co12  1  0.598558  0.178572  0.572860  1
  Co  Co13  1  0.821428  0.401442  0.927140  1
