# generated using pymatgen
data_Sr3Pr5Te(IrO8)3
_symmetry_space_group_name_H-M   'P 1'
_cell_length_a   5.54319225
_cell_length_b   9.55778236
_cell_length_c   10.39552154
_cell_angle_alpha   89.57904303
_cell_angle_beta   89.77503074
_cell_angle_gamma   89.89276303
_symmetry_Int_Tables_number   1
_chemical_formula_structural   Sr3Pr5Te(IrO8)3
_chemical_formula_sum   'Sr3 Pr5 Te1 Ir3 O24'
_cell_volume   550.74118438
_cell_formula_units_Z   1
loop_
 _symmetry_equiv_pos_site_id
 _symmetry_equiv_pos_as_xyz
  1  'x, y, z'
loop_
 _atom_site_type_symbol
 _atom_site_label
 _atom_site_symmetry_multiplicity
 _atom_site_fract_x
 _atom_site_fract_y
 _atom_site_fract_z
 _atom_site_occupancy
  Sr  Sr0  1  0.028639  0.221787  0.134970  1
  Sr  Sr1  1  0.475356  0.771804  0.638924  1
  Sr  Sr2  1  0.970712  0.718751  0.367731  1
  Pr  Pr3  1  0.533423  0.286698  0.863451  1
  Pr  Pr4  1  0.027966  0.100427  0.539692  1
  Pr  Pr5  1  0.474052  0.903003  0.039827  1
  Pr  Pr6  1  0.974295  0.602478  0.958535  1
  Pr  Pr7  1  0.529773  0.398449  0.460535  1
  Te  Te8  1  0.039936  0.490904  0.642402  1
  Ir  Ir9  1  0.544245  0.004212  0.359055  1
  Ir  Ir10  1  0.956807  0.997535  0.858138  1
  Ir  Ir11  1  0.458286  0.505376  0.139689  1
  O  O12  1  0.427640  0.152902  0.473876  1
  O  O13  1  0.070566  0.852459  0.979725  1
  O  O14  1  0.569677  0.656320  0.023441  1
  O  O15  1  0.928313  0.341506  0.526885  1
  O  O16  1  0.716422  0.400120  0.059508  1
  O  O17  1  0.773425  0.595375  0.567030  1
  O  O18  1  0.284381  0.900230  0.432399  1
  O  O19  1  0.220234  0.105862  0.928750  1
  O  O20  1  0.258196  0.417639  0.003335  1
  O  O21  1  0.246388  0.574876  0.508342  1
  O  O22  1  0.748030  0.919182  0.492079  1
  O  O23  1  0.746661  0.089886  0.988906  1
  O  O24  1  0.197335  0.629308  0.169084  1
  O  O25  1  0.309376  0.359537  0.677804  1
  O  O26  1  0.803827  0.131761  0.330456  1
  O  O27  1  0.695450  0.872021  0.834216  1
  O  O28  1  0.352481  0.062528  0.217731  1
  O  O29  1  0.151799  0.943159  0.719636  1
  O  O30  1  0.657370  0.558060  0.277538  1
  O  O31  1  0.841503  0.435859  0.790126  1
  O  O32  1  0.338565  0.365214  0.252049  1
  O  O33  1  0.159558  0.633575  0.756673  1
  O  O34  1  0.667875  0.867237  0.244537  1
  O  O35  1  0.821438  0.133955  0.742930  1
