# generated using pymatgen
data_Pr4Mn4ZnFe3O20
_symmetry_space_group_name_H-M   'P 1'
_cell_length_a   5.82488600
_cell_length_b   7.65630510
_cell_length_c   8.80163219
_cell_angle_alpha   89.84380611
_cell_angle_beta   90.00000000
_cell_angle_gamma   90.00000000
_symmetry_Int_Tables_number   1
_chemical_formula_structural   Pr4Mn4ZnFe3O20
_chemical_formula_sum   'Pr4 Mn4 Zn1 Fe3 O20'
_cell_volume   392.52585104
_cell_formula_units_Z   1
loop_
 _symmetry_equiv_pos_site_id
 _symmetry_equiv_pos_as_xyz
  1  'x, y, z'
loop_
 _atom_site_type_symbol
 _atom_site_label
 _atom_site_symmetry_multiplicity
 _atom_site_fract_x
 _atom_site_fract_y
 _atom_site_fract_z
 _atom_site_occupancy
  Pr  Pr0  1  0.000000  0.638354  0.328303  1
  Pr  Pr1  1  0.000000  0.361741  0.672780  1
  Pr  Pr2  1  0.000000  0.136927  0.169566  1
  Pr  Pr3  1  0.000000  0.862690  0.829343  1
  Mn  Mn4  1  0.255083  0.500281  0.000052  1
  Mn  Mn5  1  0.747453  0.999687  0.498960  1
  Mn  Mn6  1  0.744917  0.500281  0.000052  1
  Mn  Mn7  1  0.252547  0.999687  0.498960  1
  Zn  Zn8  1  0.500000  0.891993  0.148123  1
  Fe  Fe9  1  0.500000  0.107611  0.858057  1
  Fe  Fe10  1  0.500000  0.389154  0.355982  1
  Fe  Fe11  1  0.500000  0.610223  0.643365  1
  O  O12  1  0.000000  0.654946  0.051878  1
  O  O13  1  0.000000  0.345082  0.947792  1
  O  O14  1  0.000000  0.156147  0.449257  1
  O  O15  1  0.000000  0.845018  0.553500  1
  O  O16  1  0.276548  0.499740  0.499982  1
  O  O17  1  0.727350  0.003290  0.995713  1
  O  O18  1  0.723452  0.499740  0.499982  1
  O  O19  1  0.272650  0.003290  0.995713  1
  O  O20  1  0.500000  0.647515  0.061108  1
  O  O21  1  0.500000  0.345658  0.934717  1
  O  O22  1  0.500000  0.152928  0.435243  1
  O  O23  1  0.500000  0.846644  0.564193  1
  O  O24  1  0.240859  0.903633  0.298651  1
  O  O25  1  0.250600  0.098468  0.705520  1
  O  O26  1  0.750697  0.401715  0.206248  1
  O  O27  1  0.750570  0.596870  0.793271  1
  O  O28  1  0.749400  0.098468  0.705520  1
  O  O29  1  0.759141  0.903633  0.298651  1
  O  O30  1  0.249430  0.596870  0.793271  1
  O  O31  1  0.249303  0.401715  0.206248  1
