# generated using pymatgen
data_SrNd6TcI12
_symmetry_space_group_name_H-M   'P 1'
_cell_length_a   10.07775348
_cell_length_b   10.07775276
_cell_length_c   10.07775300
_cell_angle_alpha   106.60839050
_cell_angle_beta   106.60838928
_cell_angle_gamma   106.60837636
_symmetry_Int_Tables_number   1
_chemical_formula_structural   SrNd6TcI12
_chemical_formula_sum   'Sr1 Nd6 Tc1 I12'
_cell_volume   861.33073679
_cell_formula_units_Z   1
loop_
 _symmetry_equiv_pos_site_id
 _symmetry_equiv_pos_as_xyz
  1  'x, y, z'
loop_
 _atom_site_type_symbol
 _atom_site_label
 _atom_site_symmetry_multiplicity
 _atom_site_fract_x
 _atom_site_fract_y
 _atom_site_fract_z
 _atom_site_occupancy
  Sr  Sr0  1  0.500000  0.500000  0.500000  1
  Nd  Nd1  1  0.096621  0.300197  0.023457  1
  Nd  Nd2  1  0.023457  0.096621  0.300197  1
  Nd  Nd3  1  0.300197  0.023457  0.096621  1
  Nd  Nd4  1  0.903379  0.699803  0.976543  1
  Nd  Nd5  1  0.976543  0.903379  0.699803  1
  Nd  Nd6  1  0.699803  0.976543  0.903379  1
  Tc  Tc7  1  0.000000  0.000000  0.000000  1
  I  I8  1  0.452695  0.373158  0.143610  1
  I  I9  1  0.143610  0.452695  0.373158  1
  I  I10  1  0.373158  0.143610  0.452695  1
  I  I11  1  0.547305  0.626842  0.856390  1
  I  I12  1  0.856390  0.547305  0.626842  1
  I  I13  1  0.626842  0.856390  0.547305  1
  I  I14  1  0.774437  0.317292  0.926514  1
  I  I15  1  0.926514  0.774437  0.317292  1
  I  I16  1  0.317292  0.926514  0.774437  1
  I  I17  1  0.225563  0.682708  0.073486  1
  I  I18  1  0.073486  0.225563  0.682708  1
  I  I19  1  0.682708  0.073486  0.225563  1
