# generated using pymatgen
data_PrInGa3Ni
_symmetry_space_group_name_H-M   'P 1'
_cell_length_a   8.32162877
_cell_length_b   8.32162934
_cell_length_c   6.69656600
_cell_angle_alpha   90.00000000
_cell_angle_beta   90.00000000
_cell_angle_gamma   149.87992982
_symmetry_Int_Tables_number   1
_chemical_formula_structural   PrInGa3Ni
_chemical_formula_sum   'Pr2 In2 Ga6 Ni2'
_cell_volume   232.70805992
_cell_formula_units_Z   2
loop_
 _symmetry_equiv_pos_site_id
 _symmetry_equiv_pos_as_xyz
  1  'x, y, z'
loop_
 _atom_site_type_symbol
 _atom_site_label
 _atom_site_symmetry_multiplicity
 _atom_site_fract_x
 _atom_site_fract_y
 _atom_site_fract_z
 _atom_site_occupancy
  Pr  Pr0  1  0.880311  0.119689  0.750000  1
  Pr  Pr1  1  0.119689  0.880311  0.250000  1
  In  In2  1  0.500000  0.500000  0.000000  1
  In  In3  1  0.500000  0.500000  0.500000  1
  Ga  Ga4  1  0.077692  0.922308  0.750000  1
  Ga  Ga5  1  0.922308  0.077692  0.250000  1
  Ga  Ga6  1  0.690471  0.309529  0.946629  1
  Ga  Ga7  1  0.309529  0.690471  0.053371  1
  Ga  Ga8  1  0.690471  0.309529  0.553371  1
  Ga  Ga9  1  0.309529  0.690471  0.446629  1
  Ni  Ni10  1  0.224012  0.775988  0.750000  1
  Ni  Ni11  1  0.775988  0.224012  0.250000  1
