# generated using pymatgen
data_Nd5Y3(PCl6)2
_symmetry_space_group_name_H-M   'P 1'
_cell_length_a   3.94941700
_cell_length_b   12.90205895
_cell_length_c   13.63327100
_cell_angle_alpha   89.58961546
_cell_angle_beta   90.00000000
_cell_angle_gamma   90.00000000
_symmetry_Int_Tables_number   1
_chemical_formula_structural   Nd5Y3(PCl6)2
_chemical_formula_sum   'Nd5 Y3 P2 Cl12'
_cell_volume   694.67383358
_cell_formula_units_Z   1
loop_
 _symmetry_equiv_pos_site_id
 _symmetry_equiv_pos_as_xyz
  1  'x, y, z'
loop_
 _atom_site_type_symbol
 _atom_site_label
 _atom_site_symmetry_multiplicity
 _atom_site_fract_x
 _atom_site_fract_y
 _atom_site_fract_z
 _atom_site_occupancy
  Nd  Nd0  1  0.500000  0.380096  0.838714  1
  Nd  Nd1  1  0.000000  0.121640  0.580721  1
  Nd  Nd2  1  0.000000  0.876499  0.418002  1
  Nd  Nd3  1  0.000000  0.623427  0.917460  1
  Nd  Nd4  1  0.000000  0.376500  0.082406  1
  Y  Y5  1  0.500000  0.118984  0.339262  1
  Y  Y6  1  0.500000  0.880523  0.660382  1
  Y  Y7  1  0.500000  0.620372  0.162149  1
  P  P8  1  0.500000  0.998995  0.499331  1
  P  P9  1  0.500000  0.502497  0.003363  1
  Cl  Cl10  1  0.500000  0.237551  0.170158  1
  Cl  Cl11  1  0.500000  0.763445  0.831069  1
  Cl  Cl12  1  0.500000  0.737634  0.331025  1
  Cl  Cl13  1  0.500000  0.260022  0.663155  1
  Cl  Cl14  1  0.000000  0.249505  0.404807  1
  Cl  Cl15  1  0.000000  0.750225  0.594801  1
  Cl  Cl16  1  0.000000  0.750143  0.094449  1
  Cl  Cl17  1  0.000000  0.242847  0.912802  1
  Cl  Cl18  1  0.000000  0.009128  0.245909  1
  Cl  Cl19  1  0.000000  0.990652  0.753602  1
  Cl  Cl20  1  0.000000  0.508810  0.254622  1
  Cl  Cl21  1  0.000000  0.500505  0.741812  1
