# generated using pymatgen
data_NbGa2PdPt8
_symmetry_space_group_name_H-M   'P 1'
_cell_length_a   3.97600400
_cell_length_b   3.97600400
_cell_length_c   11.84849900
_cell_angle_alpha   90.00000000
_cell_angle_beta   90.00000000
_cell_angle_gamma   90.00000000
_symmetry_Int_Tables_number   1
_chemical_formula_structural   NbGa2PdPt8
_chemical_formula_sum   'Nb1 Ga2 Pd1 Pt8'
_cell_volume   187.30827380
_cell_formula_units_Z   1
loop_
 _symmetry_equiv_pos_site_id
 _symmetry_equiv_pos_as_xyz
  1  'x, y, z'
loop_
 _atom_site_type_symbol
 _atom_site_label
 _atom_site_symmetry_multiplicity
 _atom_site_fract_x
 _atom_site_fract_y
 _atom_site_fract_z
 _atom_site_occupancy
  Nb  Nb0  1  0.000000  0.000000  0.999001  1
  Ga  Ga1  1  0.000000  0.000000  0.342234  1
  Ga  Ga2  1  0.000000  0.000000  0.658650  1
  Pd  Pd3  1  0.500000  0.500000  0.666961  1
  Pt  Pt4  1  0.500000  0.500000  0.000235  1
  Pt  Pt5  1  0.500000  0.500000  0.332963  1
  Pt  Pt6  1  0.500000  0.000000  0.165313  1
  Pt  Pt7  1  0.500000  0.000000  0.500509  1
  Pt  Pt8  1  0.500000  0.000000  0.834156  1
  Pt  Pt9  1  0.000000  0.500000  0.165313  1
  Pt  Pt10  1  0.000000  0.500000  0.500509  1
  Pt  Pt11  1  0.000000  0.500000  0.834156  1
