# generated using pymatgen
data_Lu5Sc2CdC4
_symmetry_space_group_name_H-M   'P 1'
_cell_length_a   11.18139900
_cell_length_b   11.18139900
_cell_length_c   3.53364400
_cell_angle_alpha   90.00000000
_cell_angle_beta   90.00000000
_cell_angle_gamma   90.00000000
_symmetry_Int_Tables_number   1
_chemical_formula_structural   Lu5Sc2CdC4
_chemical_formula_sum   'Lu10 Sc4 Cd2 C8'
_cell_volume   441.78918940
_cell_formula_units_Z   2
loop_
 _symmetry_equiv_pos_site_id
 _symmetry_equiv_pos_as_xyz
  1  'x, y, z'
loop_
 _atom_site_type_symbol
 _atom_site_label
 _atom_site_symmetry_multiplicity
 _atom_site_fract_x
 _atom_site_fract_y
 _atom_site_fract_z
 _atom_site_occupancy
  Lu  Lu0  1  0.547032  0.745273  0.500000  1
  Lu  Lu1  1  0.452968  0.254727  0.500000  1
  Lu  Lu2  1  0.047032  0.754727  0.500000  1
  Lu  Lu3  1  0.952968  0.245273  0.500000  1
  Lu  Lu4  1  0.254727  0.547032  0.500000  1
  Lu  Lu5  1  0.745273  0.452968  0.500000  1
  Lu  Lu6  1  0.245273  0.047032  0.500000  1
  Lu  Lu7  1  0.754727  0.952968  0.500000  1
  Lu  Lu8  1  0.500000  0.000000  0.000000  1
  Lu  Lu9  1  0.000000  0.500000  0.000000  1
  Sc  Sc10  1  0.703582  0.203582  0.000000  1
  Sc  Sc11  1  0.296418  0.796418  0.000000  1
  Sc  Sc12  1  0.203582  0.296418  0.000000  1
  Sc  Sc13  1  0.796418  0.703582  0.000000  1
  Cd  Cd14  1  0.500000  0.500000  0.000000  1
  Cd  Cd15  1  0.000000  0.000000  0.000000  1
  C  C16  1  0.618996  0.118996  0.500000  1
  C  C17  1  0.381004  0.881004  0.500000  1
  C  C18  1  0.118996  0.381004  0.500000  1
  C  C19  1  0.881004  0.618996  0.500000  1
  C  C20  1  0.155524  0.655524  0.000000  1
  C  C21  1  0.844476  0.344476  0.000000  1
  C  C22  1  0.655524  0.844476  0.000000  1
  C  C23  1  0.344476  0.155524  0.000000  1
