# generated using pymatgen
data_Zr6Tc5As6Ru
_symmetry_space_group_name_H-M   'P 1'
_cell_length_a   7.77651559
_cell_length_b   7.81761682
_cell_length_c   7.79532399
_cell_angle_alpha   127.72046753
_cell_angle_beta   122.54085799
_cell_angle_gamma   81.33007202
_symmetry_Int_Tables_number   1
_chemical_formula_structural   Zr6Tc5As6Ru
_chemical_formula_sum   'Zr6 Tc5 As6 Ru1'
_cell_volume   304.49975302
_cell_formula_units_Z   1
loop_
 _symmetry_equiv_pos_site_id
 _symmetry_equiv_pos_as_xyz
  1  'x, y, z'
loop_
 _atom_site_type_symbol
 _atom_site_label
 _atom_site_symmetry_multiplicity
 _atom_site_fract_x
 _atom_site_fract_y
 _atom_site_fract_z
 _atom_site_occupancy
  Zr  Zr0  1  0.462114  0.684743  0.719668  1
  Zr  Zr1  1  0.535564  0.254920  0.218094  1
  Zr  Zr2  1  0.748961  0.837549  0.592510  1
  Zr  Zr3  1  0.248382  0.837772  0.085809  1
  Zr  Zr4  1  0.052237  0.256079  0.703850  1
  Zr  Zr5  1  0.948179  0.656207  0.209250  1
  Tc  Tc6  1  0.483407  0.496343  0.980432  1
  Tc  Tc7  1  0.011598  0.496952  0.511687  1
  Tc  Tc8  1  0.098966  0.253787  0.105053  1
  Tc  Tc9  1  0.899087  0.008902  0.156613  1
  Tc  Tc10  1  0.352664  0.009567  0.607061  1
  As  As11  1  0.277116  0.260177  0.484692  1
  As  As12  1  0.732084  0.237737  0.007050  1
  As  As13  1  0.328857  0.586685  0.249645  1
  As  As14  1  0.668953  0.920808  0.258193  1
  As  As15  1  0.162958  0.922114  0.751135  1
  As  As16  1  0.835098  0.586319  0.758583  1
  Ru  Ru17  1  0.653774  0.252939  0.660276  1
