# generated using pymatgen
data_Tb6Al24Ru4Pt3Rh
_symmetry_space_group_name_H-M   'P 1'
_cell_length_a   8.84742319
_cell_length_b   8.84742337
_cell_length_c   9.52518324
_cell_angle_alpha   90.21265712
_cell_angle_beta   89.78734025
_cell_angle_gamma   119.89327081
_symmetry_Int_Tables_number   1
_chemical_formula_structural   Tb6Al24Ru4Pt3Rh
_chemical_formula_sum   'Tb6 Al24 Ru4 Pt3 Rh1'
_cell_volume   646.39748418
_cell_formula_units_Z   1
loop_
 _symmetry_equiv_pos_site_id
 _symmetry_equiv_pos_as_xyz
  1  'x, y, z'
loop_
 _atom_site_type_symbol
 _atom_site_label
 _atom_site_symmetry_multiplicity
 _atom_site_fract_x
 _atom_site_fract_y
 _atom_site_fract_z
 _atom_site_occupancy
  Tb  Tb0  1  0.381807  0.190009  0.248591  1
  Tb  Tb1  1  0.809568  0.190432  0.250207  1
  Tb  Tb2  1  0.809991  0.618193  0.248591  1
  Tb  Tb3  1  0.618193  0.809991  0.751409  1
  Tb  Tb4  1  0.190432  0.809568  0.749793  1
  Tb  Tb5  1  0.190009  0.381807  0.751409  1
  Al  Al6  1  0.437800  0.874620  0.246227  1
  Al  Al7  1  0.125380  0.562200  0.246227  1
  Al  Al8  1  0.436887  0.563113  0.253475  1
  Al  Al9  1  0.562200  0.125380  0.753773  1
  Al  Al10  1  0.874620  0.437800  0.753773  1
  Al  Al11  1  0.563113  0.436887  0.746525  1
  Al  Al12  1  0.162219  0.837781  0.421426  1
  Al  Al13  1  0.165345  0.324786  0.422633  1
  Al  Al14  1  0.675214  0.834655  0.422633  1
  Al  Al15  1  0.837781  0.162219  0.578574  1
  Al  Al16  1  0.834655  0.675214  0.577367  1
  Al  Al17  1  0.324786  0.165345  0.577367  1
  Al  Al18  1  0.836218  0.163782  0.924887  1
  Al  Al19  1  0.841904  0.674310  0.925420  1
  Al  Al20  1  0.325690  0.158096  0.925420  1
  Al  Al21  1  0.163782  0.836218  0.075113  1
  Al  Al22  1  0.158096  0.325690  0.074580  1
  Al  Al23  1  0.674310  0.841904  0.074580  1
  Al  Al24  1  0.335394  0.664606  0.531869  1
  Al  Al25  1  0.664606  0.335394  0.468131  1
  Al  Al26  1  0.669567  0.330433  0.028446  1
  Al  Al27  1  0.330433  0.669567  0.971554  1
  Al  Al28  1  0.000876  0.999124  0.249677  1
  Al  Al29  1  0.999124  0.000876  0.750323  1
  Ru  Ru30  1  0.000000  0.000000  0.500000  1
  Ru  Ru31  1  0.000000  0.000000  0.000000  1
  Ru  Ru32  1  0.500000  0.000000  0.000000  1
  Ru  Ru33  1  0.000000  0.500000  0.000000  1
  Pt  Pt34  1  0.500000  0.000000  0.500000  1
  Pt  Pt35  1  0.000000  0.500000  0.500000  1
  Pt  Pt36  1  0.500000  0.500000  0.000000  1
  Rh  Rh37  1  0.500000  0.500000  0.500000  1
