# generated using pymatgen
data_PrSmY4Ta2O14
_symmetry_space_group_name_H-M   'P 1'
_cell_length_a   6.51582452
_cell_length_b   6.51582347
_cell_length_c   7.61338220
_cell_angle_alpha   89.97873104
_cell_angle_beta   90.02127103
_cell_angle_gamma   109.42248293
_symmetry_Int_Tables_number   1
_chemical_formula_structural   PrSmY4Ta2O14
_chemical_formula_sum   'Pr1 Sm1 Y4 Ta2 O14'
_cell_volume   304.83894543
_cell_formula_units_Z   1
loop_
 _symmetry_equiv_pos_site_id
 _symmetry_equiv_pos_as_xyz
  1  'x, y, z'
loop_
 _atom_site_type_symbol
 _atom_site_label
 _atom_site_symmetry_multiplicity
 _atom_site_fract_x
 _atom_site_fract_y
 _atom_site_fract_z
 _atom_site_occupancy
  Pr  Pr0  1  0.500000  0.500000  0.500000  1
  Sm  Sm1  1  0.500000  0.500000  0.000000  1
  Y  Y2  1  0.533120  0.000502  0.751616  1
  Y  Y3  1  0.000502  0.533120  0.248384  1
  Y  Y4  1  0.466880  0.999498  0.248384  1
  Y  Y5  1  0.999498  0.466880  0.751616  1
  Ta  Ta6  1  0.000000  0.000000  0.500000  1
  Ta  Ta7  1  0.000000  0.000000  0.000000  1
  O  O8  1  0.680094  0.931295  0.468122  1
  O  O9  1  0.931295  0.680094  0.531878  1
  O  O10  1  0.680246  0.929678  0.031617  1
  O  O11  1  0.929678  0.680246  0.968383  1
  O  O12  1  0.319906  0.068705  0.531878  1
  O  O13  1  0.068705  0.319906  0.468122  1
  O  O14  1  0.319754  0.070322  0.968383  1
  O  O15  1  0.070322  0.319754  0.031617  1
  O  O16  1  0.937045  0.062955  0.749963  1
  O  O17  1  0.062955  0.937045  0.250037  1
  O  O18  1  0.364997  0.635002  0.755058  1
  O  O19  1  0.635002  0.364997  0.244942  1
  O  O20  1  0.641804  0.358196  0.754304  1
  O  O21  1  0.358196  0.641804  0.245696  1
