# generated using pymatgen
data_Er2Tm4ReBi2
_symmetry_space_group_name_H-M   'P 1'
_cell_length_a   8.17823600
_cell_length_b   8.18151314
_cell_length_c   4.32116200
_cell_angle_alpha   90.00000000
_cell_angle_beta   90.00000000
_cell_angle_gamma   119.98675064
_symmetry_Int_Tables_number   1
_chemical_formula_structural   Er2Tm4ReBi2
_chemical_formula_sum   'Er2 Tm4 Re1 Bi2'
_cell_volume   250.42773070
_cell_formula_units_Z   1
loop_
 _symmetry_equiv_pos_site_id
 _symmetry_equiv_pos_as_xyz
  1  'x, y, z'
loop_
 _atom_site_type_symbol
 _atom_site_label
 _atom_site_symmetry_multiplicity
 _atom_site_fract_x
 _atom_site_fract_y
 _atom_site_fract_z
 _atom_site_occupancy
  Er  Er0  1  0.000301  0.614792  0.000000  1
  Er  Er1  1  0.385511  0.385208  0.000000  1
  Tm  Tm2  1  0.230193  0.000000  0.500000  1
  Tm  Tm3  1  0.999631  0.231383  0.500000  1
  Tm  Tm4  1  0.768248  0.768617  0.500000  1
  Tm  Tm5  1  0.617520  0.000000  0.000000  1
  Re  Re6  1  0.998409  0.000000  0.000000  1
  Bi  Bi7  1  0.333923  0.667659  0.500000  1
  Bi  Bi8  1  0.666266  0.332341  0.500000  1
