# generated using pymatgen
data_Tb10Cd3Os
_symmetry_space_group_name_H-M   'P 1'
_cell_length_a   9.64830900
_cell_length_b   9.64830951
_cell_length_c   9.93183900
_cell_angle_alpha   90.00000000
_cell_angle_beta   90.00000000
_cell_angle_gamma   120.00000167
_symmetry_Int_Tables_number   1
_chemical_formula_structural   Tb10Cd3Os
_chemical_formula_sum   'Tb20 Cd6 Os2'
_cell_volume   800.68690534
_cell_formula_units_Z   2
loop_
 _symmetry_equiv_pos_site_id
 _symmetry_equiv_pos_as_xyz
  1  'x, y, z'
loop_
 _atom_site_type_symbol
 _atom_site_label
 _atom_site_symmetry_multiplicity
 _atom_site_fract_x
 _atom_site_fract_y
 _atom_site_fract_z
 _atom_site_occupancy
  Tb  Tb0  1  0.000000  0.000000  0.500000  1
  Tb  Tb1  1  0.000000  0.000000  0.000000  1
  Tb  Tb2  1  0.209720  0.790280  0.440208  1
  Tb  Tb3  1  0.209720  0.419439  0.440208  1
  Tb  Tb4  1  0.580561  0.790280  0.440208  1
  Tb  Tb5  1  0.790280  0.209720  0.559792  1
  Tb  Tb6  1  0.790280  0.580561  0.559792  1
  Tb  Tb7  1  0.419439  0.209720  0.559792  1
  Tb  Tb8  1  0.790280  0.209720  0.940208  1
  Tb  Tb9  1  0.790280  0.580561  0.940208  1
  Tb  Tb10  1  0.419439  0.209720  0.940208  1
  Tb  Tb11  1  0.209720  0.790280  0.059792  1
  Tb  Tb12  1  0.209720  0.419439  0.059792  1
  Tb  Tb13  1  0.580561  0.790280  0.059792  1
  Tb  Tb14  1  0.540291  0.459709  0.250000  1
  Tb  Tb15  1  0.540291  0.080582  0.250000  1
  Tb  Tb16  1  0.919418  0.459709  0.250000  1
  Tb  Tb17  1  0.459709  0.540291  0.750000  1
  Tb  Tb18  1  0.459709  0.919418  0.750000  1
  Tb  Tb19  1  0.080582  0.540291  0.750000  1
  Cd  Cd20  1  0.885503  0.114497  0.250000  1
  Cd  Cd21  1  0.885503  0.771009  0.250000  1
  Cd  Cd22  1  0.228991  0.114497  0.250000  1
  Cd  Cd23  1  0.114497  0.885503  0.750000  1
  Cd  Cd24  1  0.114497  0.228991  0.750000  1
  Cd  Cd25  1  0.771009  0.885503  0.750000  1
  Os  Os26  1  0.333333  0.666667  0.250000  1
  Os  Os27  1  0.666667  0.333333  0.750000  1
