# generated using pymatgen
data_DyHo(ZnPd2)2
_symmetry_space_group_name_H-M   'P 1'
_cell_length_a   4.42650300
_cell_length_b   4.42650457
_cell_length_c   8.91999100
_cell_angle_alpha   90.00000000
_cell_angle_beta   90.00000000
_cell_angle_gamma   120.00001065
_symmetry_Int_Tables_number   1
_chemical_formula_structural   DyHo(ZnPd2)2
_chemical_formula_sum   'Dy1 Ho1 Zn2 Pd4'
_cell_volume   151.36193864
_cell_formula_units_Z   1
loop_
 _symmetry_equiv_pos_site_id
 _symmetry_equiv_pos_as_xyz
  1  'x, y, z'
loop_
 _atom_site_type_symbol
 _atom_site_label
 _atom_site_symmetry_multiplicity
 _atom_site_fract_x
 _atom_site_fract_y
 _atom_site_fract_z
 _atom_site_occupancy
  Dy  Dy0  1  0.666667  0.333333  0.750000  1
  Ho  Ho1  1  0.333333  0.666667  0.250000  1
  Zn  Zn2  1  0.000000  0.000000  0.499484  1
  Zn  Zn3  1  0.000000  0.000000  0.000516  1
  Pd  Pd4  1  0.333333  0.666667  0.919027  1
  Pd  Pd5  1  0.666667  0.333333  0.083682  1
  Pd  Pd6  1  0.666667  0.333333  0.416318  1
  Pd  Pd7  1  0.333333  0.666667  0.580973  1
