# generated using pymatgen
data_Ho2Cr3O12
_symmetry_space_group_name_H-M   'P 1'
_cell_length_a   9.99484606
_cell_length_b   9.99482074
_cell_length_c   9.99474870
_cell_angle_alpha   58.14764294
_cell_angle_beta   58.14796414
_cell_angle_gamma   58.14728762
_symmetry_Int_Tables_number   1
_chemical_formula_structural   Ho2Cr3O12
_chemical_formula_sum   'Ho4 Cr6 O24'
_cell_volume   676.03033901
_cell_formula_units_Z   2
loop_
 _symmetry_equiv_pos_site_id
 _symmetry_equiv_pos_as_xyz
  1  'x, y, z'
loop_
 _atom_site_type_symbol
 _atom_site_label
 _atom_site_symmetry_multiplicity
 _atom_site_fract_x
 _atom_site_fract_y
 _atom_site_fract_z
 _atom_site_occupancy
  Ho  Ho0  1  0.642959  0.642961  0.642957  1
  Ho  Ho1  1  0.357038  0.357043  0.357038  1
  Ho  Ho2  1  0.142961  0.142955  0.142965  1
  Ho  Ho3  1  0.857034  0.857044  0.857039  1
  Cr  Cr4  1  0.749995  0.036437  0.463561  1
  Cr  Cr5  1  0.963564  0.536442  0.249997  1
  Cr  Cr6  1  0.536429  0.249995  0.963563  1
  Cr  Cr7  1  0.463569  0.750000  0.036438  1
  Cr  Cr8  1  0.036437  0.463567  0.749996  1
  Cr  Cr9  1  0.249993  0.963569  0.536446  1
  O  O10  1  0.917707  0.065166  0.293677  1
  O  O11  1  0.777812  0.004197  0.629476  1
  O  O12  1  0.995804  0.370522  0.222189  1
  O  O13  1  0.706322  0.082293  0.934833  1
  O  O14  1  0.582293  0.206319  0.434831  1
  O  O15  1  0.870525  0.495802  0.722189  1
  O  O16  1  0.504202  0.277805  0.129473  1
  O  O17  1  0.793680  0.565169  0.417706  1
  O  O18  1  0.934834  0.706324  0.082289  1
  O  O19  1  0.565167  0.417704  0.793680  1
  O  O20  1  0.370523  0.222189  0.995799  1
  O  O21  1  0.277808  0.129482  0.504203  1
  O  O22  1  0.722192  0.870517  0.495798  1
  O  O23  1  0.629480  0.777807  0.004202  1
  O  O24  1  0.434836  0.582292  0.206322  1
  O  O25  1  0.065170  0.293680  0.917708  1
  O  O26  1  0.206323  0.434831  0.582291  1
  O  O27  1  0.495802  0.722191  0.870523  1
  O  O28  1  0.129483  0.504198  0.277810  1
  O  O29  1  0.417702  0.793682  0.565170  1
  O  O30  1  0.293681  0.917706  0.065168  1
  O  O31  1  0.004200  0.629475  0.777810  1
  O  O32  1  0.222188  0.995802  0.370526  1
  O  O33  1  0.082288  0.934834  0.706327  1
