# generated using pymatgen
data_Tm3AlSiRh2
_symmetry_space_group_name_H-M   'P 1'
_cell_length_a   5.48674600
_cell_length_b   7.84533700
_cell_length_c   13.16996100
_cell_angle_alpha   90.00000000
_cell_angle_beta   90.00000000
_cell_angle_gamma   90.00000000
_symmetry_Int_Tables_number   1
_chemical_formula_structural   Tm3AlSiRh2
_chemical_formula_sum   'Tm12 Al4 Si4 Rh8'
_cell_volume   566.90586261
_cell_formula_units_Z   4
loop_
 _symmetry_equiv_pos_site_id
 _symmetry_equiv_pos_as_xyz
  1  'x, y, z'
loop_
 _atom_site_type_symbol
 _atom_site_label
 _atom_site_symmetry_multiplicity
 _atom_site_fract_x
 _atom_site_fract_y
 _atom_site_fract_z
 _atom_site_occupancy
  Tm  Tm0  1  0.632806  0.259222  0.250000  1
  Tm  Tm1  1  0.367194  0.740778  0.750000  1
  Tm  Tm2  1  0.367194  0.759222  0.250000  1
  Tm  Tm3  1  0.632806  0.240778  0.750000  1
  Tm  Tm4  1  0.146944  0.398662  0.102856  1
  Tm  Tm5  1  0.853056  0.601338  0.897144  1
  Tm  Tm6  1  0.853056  0.601338  0.602856  1
  Tm  Tm7  1  0.853056  0.898662  0.397144  1
  Tm  Tm8  1  0.146944  0.398662  0.397144  1
  Tm  Tm9  1  0.146944  0.101338  0.602856  1
  Tm  Tm10  1  0.146944  0.101338  0.897144  1
  Tm  Tm11  1  0.853056  0.898662  0.102856  1
  Al  Al12  1  0.630273  0.250000  0.000000  1
  Al  Al13  1  0.369727  0.750000  0.000000  1
  Al  Al14  1  0.369727  0.750000  0.500000  1
  Al  Al15  1  0.630273  0.250000  0.500000  1
  Si  Si16  1  0.132071  0.112449  0.250000  1
  Si  Si17  1  0.867929  0.887551  0.750000  1
  Si  Si18  1  0.867929  0.612449  0.250000  1
  Si  Si19  1  0.132071  0.387551  0.750000  1
  Rh  Rh20  1  0.355946  0.030829  0.094415  1
  Rh  Rh21  1  0.644054  0.969171  0.905585  1
  Rh  Rh22  1  0.644054  0.969171  0.594415  1
  Rh  Rh23  1  0.644054  0.530829  0.405585  1
  Rh  Rh24  1  0.355946  0.030829  0.405585  1
  Rh  Rh25  1  0.355946  0.469171  0.594415  1
  Rh  Rh26  1  0.355946  0.469171  0.905585  1
  Rh  Rh27  1  0.644054  0.530829  0.094415  1
