# generated using pymatgen
data_Tb3Dy4Y(WO6)4
_symmetry_space_group_name_H-M   'P 1'
_cell_length_a   5.41192500
_cell_length_b   7.72200851
_cell_length_c   11.49500208
_cell_angle_alpha   75.55757402
_cell_angle_beta   90.00000000
_cell_angle_gamma   90.00000000
_symmetry_Int_Tables_number   1
_chemical_formula_structural   Tb3Dy4Y(WO6)4
_chemical_formula_sum   'Tb3 Dy4 Y1 W4 O24'
_cell_volume   465.20601160
_cell_formula_units_Z   1
loop_
 _symmetry_equiv_pos_site_id
 _symmetry_equiv_pos_as_xyz
  1  'x, y, z'
loop_
 _atom_site_type_symbol
 _atom_site_label
 _atom_site_symmetry_multiplicity
 _atom_site_fract_x
 _atom_site_fract_y
 _atom_site_fract_z
 _atom_site_occupancy
  Tb  Tb0  1  0.260962  0.000000  0.250000  1
  Tb  Tb1  1  0.683655  0.500000  0.750000  1
  Tb  Tb2  1  0.316433  0.500000  0.250000  1
  Dy  Dy3  1  0.186360  0.795512  0.577862  1
  Dy  Dy4  1  0.813547  0.795443  0.077715  1
  Dy  Dy5  1  0.186360  0.204488  0.922138  1
  Dy  Dy6  1  0.813547  0.204557  0.422285  1
  Y  Y7  1  0.739082  0.000000  0.750000  1
  W  W8  1  0.254301  0.723024  0.885609  1
  W  W9  1  0.745759  0.722896  0.385699  1
  W  W10  1  0.254301  0.276976  0.614391  1
  W  W11  1  0.745759  0.277104  0.114301  1
  O  O12  1  0.042358  0.939040  0.895595  1
  O  O13  1  0.529313  0.848577  0.931035  1
  O  O14  1  0.957124  0.938962  0.395902  1
  O  O15  1  0.458897  0.788676  0.728206  1
  O  O16  1  0.470686  0.848346  0.431203  1
  O  O17  1  0.983315  0.710018  0.771679  1
  O  O18  1  0.541439  0.788392  0.228200  1
  O  O19  1  0.851256  0.635123  0.547939  1
  O  O20  1  0.361366  0.490153  0.886922  1
  O  O21  1  0.016785  0.709974  0.271715  1
  O  O22  1  0.361366  0.509847  0.613078  1
  O  O23  1  0.851256  0.364877  0.952061  1
  O  O24  1  0.148921  0.635346  0.047900  1
  O  O25  1  0.638506  0.490066  0.387034  1
  O  O26  1  0.983315  0.289982  0.728321  1
  O  O27  1  0.638506  0.509934  0.112966  1
  O  O28  1  0.148921  0.364654  0.452100  1
  O  O29  1  0.458897  0.211324  0.771794  1
  O  O30  1  0.016785  0.290026  0.228285  1
  O  O31  1  0.529313  0.151423  0.568965  1
  O  O32  1  0.541439  0.211608  0.271800  1
  O  O33  1  0.042358  0.060960  0.604405  1
  O  O34  1  0.470686  0.151654  0.068797  1
  O  O35  1  0.957124  0.061038  0.104098  1
