# generated using pymatgen
data_Pa2InPtRh
_symmetry_space_group_name_H-M   'P 1'
_cell_length_a   7.79718389
_cell_length_b   7.79718389
_cell_length_c   3.61848300
_cell_angle_alpha   90.00000000
_cell_angle_beta   90.00000000
_cell_angle_gamma   89.94531420
_symmetry_Int_Tables_number   1
_chemical_formula_structural   Pa2InPtRh
_chemical_formula_sum   'Pa4 In2 Pt2 Rh2'
_cell_volume   219.98946937
_cell_formula_units_Z   2
loop_
 _symmetry_equiv_pos_site_id
 _symmetry_equiv_pos_as_xyz
  1  'x, y, z'
loop_
 _atom_site_type_symbol
 _atom_site_label
 _atom_site_symmetry_multiplicity
 _atom_site_fract_x
 _atom_site_fract_y
 _atom_site_fract_z
 _atom_site_occupancy
  Pa  Pa0  1  0.667036  0.167036  0.500000  1
  Pa  Pa1  1  0.332964  0.832964  0.500000  1
  Pa  Pa2  1  0.175421  0.324579  0.500000  1
  Pa  Pa3  1  0.824579  0.675421  0.500000  1
  In  In4  1  0.000000  0.000000  0.000000  1
  In  In5  1  0.500000  0.500000  0.000000  1
  Pt  Pt6  1  0.131099  0.631099  0.000000  1
  Pt  Pt7  1  0.868901  0.368901  0.000000  1
  Rh  Rh8  1  0.633709  0.866291  0.000000  1
  Rh  Rh9  1  0.366291  0.133709  0.000000  1
