# generated using pymatgen
data_Er6Zn18Pt5Se
_symmetry_space_group_name_H-M   'P 1'
_cell_length_a   8.99502631
_cell_length_b   8.99517521
_cell_length_c   9.00251300
_cell_angle_alpha   59.97293436
_cell_angle_beta   59.97292328
_cell_angle_gamma   60.45609374
_symmetry_Int_Tables_number   1
_chemical_formula_structural   Er6Zn18Pt5Se
_chemical_formula_sum   'Er6 Zn18 Pt5 Se1'
_cell_volume   516.60239228
_cell_formula_units_Z   1
loop_
 _symmetry_equiv_pos_site_id
 _symmetry_equiv_pos_as_xyz
  1  'x, y, z'
loop_
 _atom_site_type_symbol
 _atom_site_label
 _atom_site_symmetry_multiplicity
 _atom_site_fract_x
 _atom_site_fract_y
 _atom_site_fract_z
 _atom_site_occupancy
  Er  Er0  1  0.724112  0.275883  0.281938  1
  Er  Er1  1  0.724108  0.275883  0.718071  1
  Er  Er2  1  0.720543  0.720564  0.279444  1
  Er  Er3  1  0.275888  0.724117  0.718062  1
  Er  Er4  1  0.275892  0.724117  0.281929  1
  Er  Er5  1  0.279457  0.279436  0.720556  1
  Zn  Zn6  1  0.627375  0.122949  0.124839  1
  Zn  Zn7  1  0.122937  0.627383  0.124839  1
  Zn  Zn8  1  0.124992  0.124998  0.625931  1
  Zn  Zn9  1  0.124990  0.124998  0.124081  1
  Zn  Zn10  1  0.372625  0.877051  0.875161  1
  Zn  Zn11  1  0.877063  0.372617  0.875161  1
  Zn  Zn12  1  0.875008  0.875002  0.374069  1
  Zn  Zn13  1  0.875010  0.875002  0.875919  1
  Zn  Zn14  1  0.500000  0.500000  0.000000  1
  Zn  Zn15  1  0.000000  0.000000  0.000000  1
  Zn  Zn16  1  0.005196  0.332056  0.331375  1
  Zn  Zn17  1  0.332048  0.005212  0.331370  1
  Zn  Zn18  1  0.333211  0.333218  0.001344  1
  Zn  Zn19  1  0.333213  0.333217  0.332230  1
  Zn  Zn20  1  0.994804  0.667944  0.668625  1
  Zn  Zn21  1  0.667952  0.994788  0.668630  1
  Zn  Zn22  1  0.666789  0.666782  0.998656  1
  Zn  Zn23  1  0.666787  0.666783  0.667770  1
  Pt  Pt24  1  0.500000  0.000000  0.000000  1
  Pt  Pt25  1  0.500000  0.000000  0.500000  1
  Pt  Pt26  1  0.000000  0.500000  0.500000  1
  Pt  Pt27  1  0.000000  0.500000  0.000000  1
  Pt  Pt28  1  0.000000  0.000000  0.500000  1
  Se  Se29  1  0.500000  0.500000  0.500000  1
