# generated using pymatgen
data_Pu2N3
_symmetry_space_group_name_H-M   'P 1'
_cell_length_a   3.66415700
_cell_length_b   3.66415671
_cell_length_c   5.75277200
_cell_angle_alpha   90.00000000
_cell_angle_beta   90.00000000
_cell_angle_gamma   119.99999358
_symmetry_Int_Tables_number   1
_chemical_formula_structural   Pu2N3
_chemical_formula_sum   'Pu2 N3'
_cell_volume   66.88918973
_cell_formula_units_Z   1
loop_
 _symmetry_equiv_pos_site_id
 _symmetry_equiv_pos_as_xyz
  1  'x, y, z'
loop_
 _atom_site_type_symbol
 _atom_site_label
 _atom_site_symmetry_multiplicity
 _atom_site_fract_x
 _atom_site_fract_y
 _atom_site_fract_z
 _atom_site_occupancy
  Pu  Pu0  1  0.333333  0.666667  0.246574  1
  Pu  Pu1  1  0.666667  0.333333  0.753426  1
  N  N2  1  0.000000  0.000000  0.000000  1
  N  N3  1  0.333333  0.666667  0.642842  1
  N  N4  1  0.666667  0.333333  0.357158  1
