# generated using pymatgen
data_DyHoInBi3(SbO7)2
_symmetry_space_group_name_H-M   'P 1'
_cell_length_a   6.47641978
_cell_length_b   6.61322479
_cell_length_c   7.63966261
_cell_angle_alpha   106.89692090
_cell_angle_beta   89.49848775
_cell_angle_gamma   98.56920916
_symmetry_Int_Tables_number   1
_chemical_formula_structural   DyHoInBi3(SbO7)2
_chemical_formula_sum   'Dy1 Ho1 In1 Bi3 Sb2 O14'
_cell_volume   309.37952854
_cell_formula_units_Z   1
loop_
 _symmetry_equiv_pos_site_id
 _symmetry_equiv_pos_as_xyz
  1  'x, y, z'
loop_
 _atom_site_type_symbol
 _atom_site_label
 _atom_site_symmetry_multiplicity
 _atom_site_fract_x
 _atom_site_fract_y
 _atom_site_fract_z
 _atom_site_occupancy
  Dy  Dy0  1  0.258621  0.538340  0.883434  1
  Ho  Ho1  1  0.544366  0.995798  0.751127  1
  In  In2  1  0.466566  0.001972  0.253002  1
  Bi  Bi3  1  0.744022  0.475895  0.114435  1
  Bi  Bi4  1  0.729247  0.461447  0.612156  1
  Bi  Bi5  1  0.258275  0.528786  0.386554  1
  Sb  Sb6  1  0.004389  0.005087  0.501462  1
  Sb  Sb7  1  0.004608  0.001750  0.000917  1
  O  O8  1  0.442698  0.663409  0.170396  1
  O  O9  1  0.542924  0.347302  0.827912  1
  O  O10  1  0.293980  0.933114  0.950201  1
  O  O11  1  0.706729  0.045840  0.045925  1
  O  O12  1  0.291639  0.930248  0.514607  1
  O  O13  1  0.710719  0.072587  0.487619  1
  O  O14  1  0.526922  0.340022  0.342134  1
  O  O15  1  0.455447  0.643769  0.657403  1
  O  O16  1  0.936065  0.679358  0.952541  1
  O  O17  1  0.082277  0.317377  0.038852  1
  O  O18  1  0.091798  0.317849  0.622908  1
  O  O19  1  0.906618  0.691523  0.384113  1
  O  O20  1  0.899737  0.947181  0.737167  1
  O  O21  1  0.102357  0.061349  0.265138  1
