# generated using pymatgen
data_Sc2Fe4Co6Ni2P7
_symmetry_space_group_name_H-M   'P 1'
_cell_length_a   8.88664617
_cell_length_b   8.95504464
_cell_length_c   3.56369400
_cell_angle_alpha   90.00000000
_cell_angle_beta   90.00000000
_cell_angle_gamma   119.79563806
_symmetry_Int_Tables_number   1
_chemical_formula_structural   Sc2Fe4Co6Ni2P7
_chemical_formula_sum   'Sc2 Fe4 Co6 Ni2 P7'
_cell_volume   246.10891142
_cell_formula_units_Z   1
loop_
 _symmetry_equiv_pos_site_id
 _symmetry_equiv_pos_as_xyz
  1  'x, y, z'
loop_
 _atom_site_type_symbol
 _atom_site_label
 _atom_site_symmetry_multiplicity
 _atom_site_fract_x
 _atom_site_fract_y
 _atom_site_fract_z
 _atom_site_occupancy
  Sc  Sc0  1  0.670842  0.338697  0.500000  1
  Sc  Sc1  1  0.329489  0.661235  0.000000  1
  Fe  Fe2  1  0.050053  0.613738  0.500000  1
  Fe  Fe3  1  0.219094  0.093206  0.500000  1
  Fe  Fe4  1  0.874399  0.781503  0.500000  1
  Fe  Fe5  1  0.904848  0.128047  0.500000  1
  Co  Co6  1  0.385499  0.435634  0.500000  1
  Co  Co7  1  0.720160  0.881689  0.000000  1
  Co  Co8  1  0.119237  0.843162  0.000000  1
  Co  Co9  1  0.158699  0.274976  0.000000  1
  Co  Co10  1  0.939719  0.371954  0.000000  1
  Co  Co11  1  0.630050  0.567376  0.000000  1
  Ni  Ni12  1  0.437454  0.064703  0.000000  1
  Ni  Ni13  1  0.559272  0.946716  0.500000  1
  P  P14  1  0.998222  0.999519  0.000000  1
  P  P15  1  0.415217  0.299521  0.000000  1
  P  P16  1  0.592329  0.706937  0.500000  1
  P  P17  1  0.281296  0.874913  0.500000  1
  P  P18  1  0.117070  0.407647  0.500000  1
  P  P19  1  0.711627  0.121635  0.000000  1
  P  P20  1  0.885423  0.587190  0.000000  1
