# generated using pymatgen
data_TbHf12Sc7Si15Ge
_symmetry_space_group_name_H-M   'P 1'
_cell_length_a   7.16881059
_cell_length_b   7.17201234
_cell_length_c   13.11477740
_cell_angle_alpha   89.90398784
_cell_angle_beta   89.86536062
_cell_angle_gamma   89.95339463
_symmetry_Int_Tables_number   1
_chemical_formula_structural   TbHf12Sc7Si15Ge
_chemical_formula_sum   'Tb1 Hf12 Sc7 Si15 Ge1'
_cell_volume   674.29060186
_cell_formula_units_Z   1
loop_
 _symmetry_equiv_pos_site_id
 _symmetry_equiv_pos_as_xyz
  1  'x, y, z'
loop_
 _atom_site_type_symbol
 _atom_site_label
 _atom_site_symmetry_multiplicity
 _atom_site_fract_x
 _atom_site_fract_y
 _atom_site_fract_z
 _atom_site_occupancy
  Tb  Tb0  1  0.657677  0.006711  0.283965  1
  Hf  Hf1  1  0.174574  0.175491  0.998632  1
  Hf  Hf2  1  0.825971  0.824325  0.501358  1
  Hf  Hf3  1  0.324262  0.676612  0.249125  1
  Hf  Hf4  1  0.675442  0.324747  0.750060  1
  Hf  Hf5  1  0.146212  0.995585  0.374504  1
  Hf  Hf6  1  0.854325  0.001876  0.874536  1
  Hf  Hf7  1  0.501804  0.646098  0.626261  1
  Hf  Hf8  1  0.353846  0.497994  0.874511  1
  Hf  Hf9  1  0.494671  0.353617  0.122281  1
  Hf  Hf10  1  0.649038  0.504612  0.376758  1
  Hf  Hf11  1  0.997926  0.145842  0.626970  1
  Hf  Hf12  1  0.001034  0.851262  0.123130  1
  Sc  Sc13  1  0.996380  0.348246  0.213030  1
  Sc  Sc14  1  0.003992  0.653875  0.715441  1
  Sc  Sc15  1  0.152508  0.500467  0.467607  1
  Sc  Sc16  1  0.503103  0.843901  0.033192  1
  Sc  Sc17  1  0.846386  0.503130  0.964405  1
  Sc  Sc18  1  0.497746  0.152416  0.537302  1
  Sc  Sc19  1  0.345898  0.996464  0.784728  1
  Si  Si20  1  0.645488  0.704463  0.820377  1
  Si  Si21  1  0.203997  0.855227  0.570708  1
  Si  Si22  1  0.145285  0.795331  0.928976  1
  Si  Si23  1  0.796270  0.145756  0.068299  1
  Si  Si24  1  0.860073  0.208070  0.434156  1
  Si  Si25  1  0.296196  0.354611  0.679932  1
  Si  Si26  1  0.705003  0.639323  0.178343  1
  Si  Si27  1  0.296941  0.045650  0.181898  1
  Si  Si28  1  0.697835  0.951589  0.686150  1
  Si  Si29  1  0.448914  0.799121  0.437877  1
  Si  Si30  1  0.196998  0.547836  0.063721  1
  Si  Si31  1  0.547687  0.197103  0.934777  1
  Si  Si32  1  0.802691  0.453016  0.565732  1
  Si  Si33  1  0.047687  0.302852  0.814206  1
  Si  Si34  1  0.953858  0.696095  0.314091  1
  Ge  Ge35  1  0.352284  0.300688  0.322959  1
