# generated using pymatgen
data_Tb2EuMnCrC6
_symmetry_space_group_name_H-M   'P 1'
_cell_length_a   8.17718800
_cell_length_b   8.15213345
_cell_length_c   5.07021100
_cell_angle_alpha   90.00000000
_cell_angle_beta   90.00000000
_cell_angle_gamma   120.15865326
_symmetry_Int_Tables_number   1
_chemical_formula_structural   Tb2EuMnCrC6
_chemical_formula_sum   'Tb4 Eu2 Mn2 Cr2 C12'
_cell_volume   292.23713475
_cell_formula_units_Z   2
loop_
 _symmetry_equiv_pos_site_id
 _symmetry_equiv_pos_as_xyz
  1  'x, y, z'
loop_
 _atom_site_type_symbol
 _atom_site_label
 _atom_site_symmetry_multiplicity
 _atom_site_fract_x
 _atom_site_fract_y
 _atom_site_fract_z
 _atom_site_occupancy
  Tb  Tb0  1  0.685314  0.067185  0.250000  1
  Tb  Tb1  1  0.310545  0.933351  0.750000  1
  Tb  Tb2  1  0.065186  0.380408  0.750000  1
  Tb  Tb3  1  0.378472  0.313285  0.250000  1
  Eu  Eu4  1  0.607406  0.680548  0.750000  1
  Eu  Eu5  1  0.927085  0.609840  0.250000  1
  Mn  Mn6  1  0.665994  0.327820  0.750000  1
  Mn  Mn7  1  0.336182  0.669377  0.250000  1
  Cr  Cr8  1  0.000206  0.000652  0.500029  1
  Cr  Cr9  1  0.000206  0.000652  0.999971  1
  C  C10  1  0.956626  0.768682  0.750000  1
  C  C11  1  0.191124  0.961646  0.250000  1
  C  C12  1  0.774101  0.820063  0.250000  1
  C  C13  1  0.230972  0.192888  0.750000  1
  C  C14  1  0.818587  0.042600  0.750000  1
  C  C15  1  0.039689  0.230692  0.250000  1
  C  C16  1  0.858867  0.574275  0.750000  1
  C  C17  1  0.288056  0.864643  0.250000  1
  C  C18  1  0.580731  0.720162  0.250000  1
  C  C19  1  0.425199  0.282072  0.750000  1
  C  C20  1  0.143553  0.425782  0.250000  1
  C  C21  1  0.715898  0.133380  0.750000  1
