# generated using pymatgen
data_Dy3LuTh6(Si3C)2
_symmetry_space_group_name_H-M   'P 1'
_cell_length_a   8.73777200
_cell_length_b   8.73777241
_cell_length_c   6.36300000
_cell_angle_alpha   90.00000000
_cell_angle_beta   90.00000000
_cell_angle_gamma   119.99999844
_symmetry_Int_Tables_number   1
_chemical_formula_structural   Dy3LuTh6(Si3C)2
_chemical_formula_sum   'Dy3 Lu1 Th6 Si6 C2'
_cell_volume   420.72081456
_cell_formula_units_Z   1
loop_
 _symmetry_equiv_pos_site_id
 _symmetry_equiv_pos_as_xyz
  1  'x, y, z'
loop_
 _atom_site_type_symbol
 _atom_site_label
 _atom_site_symmetry_multiplicity
 _atom_site_fract_x
 _atom_site_fract_y
 _atom_site_fract_z
 _atom_site_occupancy
  Dy  Dy0  1  0.333333  0.666667  0.000000  1
  Dy  Dy1  1  0.333333  0.666667  0.500000  1
  Dy  Dy2  1  0.666667  0.333333  0.500000  1
  Lu  Lu3  1  0.666667  0.333333  0.000000  1
  Th  Th4  1  0.766248  0.765994  0.750390  1
  Th  Th5  1  0.234006  0.000254  0.750390  1
  Th  Th6  1  0.999746  0.233752  0.750390  1
  Th  Th7  1  0.234006  0.233752  0.249610  1
  Th  Th8  1  0.766248  0.000254  0.249610  1
  Th  Th9  1  0.999746  0.765994  0.249610  1
  Si  Si10  1  0.402985  0.401169  0.752147  1
  Si  Si11  1  0.598831  0.001817  0.752147  1
  Si  Si12  1  0.998183  0.597015  0.752147  1
  Si  Si13  1  0.598831  0.597015  0.247853  1
  Si  Si14  1  0.402985  0.001817  0.247853  1
  Si  Si15  1  0.998183  0.401169  0.247853  1
  C  C16  1  0.000000  0.000000  0.000000  1
  C  C17  1  0.000000  0.000000  0.500000  1
