# generated using pymatgen
data_Tm4Pa4Tc(B8Mo)3
_symmetry_space_group_name_H-M   'P 1'
_cell_length_a   3.73541300
_cell_length_b   9.14214950
_cell_length_c   11.50422436
_cell_angle_alpha   89.96666145
_cell_angle_beta   90.00000000
_cell_angle_gamma   90.00000000
_symmetry_Int_Tables_number   1
_chemical_formula_structural   Tm4Pa4Tc(B8Mo)3
_chemical_formula_sum   'Tm4 Pa4 Tc1 B24 Mo3'
_cell_volume   392.86579132
_cell_formula_units_Z   1
loop_
 _symmetry_equiv_pos_site_id
 _symmetry_equiv_pos_as_xyz
  1  'x, y, z'
loop_
 _atom_site_type_symbol
 _atom_site_label
 _atom_site_symmetry_multiplicity
 _atom_site_fract_x
 _atom_site_fract_y
 _atom_site_fract_z
 _atom_site_occupancy
  Tm  Tm0  1  0.000000  0.945458  0.373936  1
  Tm  Tm1  1  0.000000  0.054888  0.626664  1
  Tm  Tm2  1  0.000000  0.445438  0.126274  1
  Tm  Tm3  1  0.000000  0.555180  0.873444  1
  Pa  Pa4  1  0.000000  0.322060  0.413139  1
  Pa  Pa5  1  0.000000  0.676870  0.585198  1
  Pa  Pa6  1  0.000000  0.822045  0.087652  1
  Pa  Pa7  1  0.000000  0.178932  0.914215  1
  Tc  Tc8  1  0.000000  0.861234  0.821375  1
  B  B9  1  0.500000  0.553461  0.433062  1
  B  B10  1  0.500000  0.446742  0.566962  1
  B  B11  1  0.500000  0.053019  0.066380  1
  B  B12  1  0.500000  0.945790  0.932352  1
  B  B13  1  0.500000  0.749607  0.420368  1
  B  B14  1  0.500000  0.250307  0.579904  1
  B  B15  1  0.500000  0.249789  0.079691  1
  B  B16  1  0.500000  0.750449  0.919419  1
  B  B17  1  0.500000  0.793525  0.264783  1
  B  B18  1  0.500000  0.206158  0.735384  1
  B  B19  1  0.500000  0.293177  0.235121  1
  B  B20  1  0.500000  0.707631  0.765449  1
  B  B21  1  0.500000  0.632428  0.184467  1
  B  B22  1  0.500000  0.367755  0.815659  1
  B  B23  1  0.500000  0.131856  0.315180  1
  B  B24  1  0.500000  0.868276  0.685233  1
  B  B25  1  0.500000  0.981622  0.212800  1
  B  B26  1  0.500000  0.016865  0.787148  1
  B  B27  1  0.500000  0.481834  0.286890  1
  B  B28  1  0.500000  0.518388  0.713172  1
  B  B29  1  0.500000  0.608542  0.029311  1
  B  B30  1  0.500000  0.392235  0.969980  1
  B  B31  1  0.500000  0.107819  0.470114  1
  B  B32  1  0.500000  0.892013  0.530647  1
  Mo  Mo33  1  0.000000  0.639080  0.321248  1
  Mo  Mo34  1  0.000000  0.361289  0.679312  1
  Mo  Mo35  1  0.000000  0.138239  0.178071  1
