# generated using pymatgen
data_TbHo2Co8P6W
_symmetry_space_group_name_H-M   'P 1'
_cell_length_a   3.72099600
_cell_length_b   10.55460400
_cell_length_c   12.25136600
_cell_angle_alpha   90.00000000
_cell_angle_beta   90.00000000
_cell_angle_gamma   90.00000000
_symmetry_Int_Tables_number   1
_chemical_formula_structural   TbHo2Co8P6W
_chemical_formula_sum   'Tb2 Ho4 Co16 P12 W2'
_cell_volume   481.15572879
_cell_formula_units_Z   2
loop_
 _symmetry_equiv_pos_site_id
 _symmetry_equiv_pos_as_xyz
  1  'x, y, z'
loop_
 _atom_site_type_symbol
 _atom_site_label
 _atom_site_symmetry_multiplicity
 _atom_site_fract_x
 _atom_site_fract_y
 _atom_site_fract_z
 _atom_site_occupancy
  Tb  Tb0  1  0.000000  0.500000  0.524635  1
  Tb  Tb1  1  0.500000  0.000000  0.475365  1
  Ho  Ho2  1  0.500000  0.819513  0.204982  1
  Ho  Ho3  1  0.500000  0.180487  0.204982  1
  Ho  Ho4  1  0.000000  0.680487  0.795018  1
  Ho  Ho5  1  0.000000  0.319513  0.795018  1
  Co  Co6  1  0.000000  0.500000  0.987091  1
  Co  Co7  1  0.500000  0.000000  0.012909  1
  Co  Co8  1  0.500000  0.295751  0.431245  1
  Co  Co9  1  0.500000  0.704249  0.431245  1
  Co  Co10  1  0.000000  0.204249  0.568755  1
  Co  Co11  1  0.000000  0.795751  0.568755  1
  Co  Co12  1  0.500000  0.878021  0.707465  1
  Co  Co13  1  0.500000  0.121979  0.707465  1
  Co  Co14  1  0.000000  0.621979  0.292535  1
  Co  Co15  1  0.000000  0.378021  0.292535  1
  Co  Co16  1  0.500000  0.332749  0.990279  1
  Co  Co17  1  0.500000  0.667251  0.990279  1
  Co  Co18  1  0.000000  0.167251  0.009721  1
  Co  Co19  1  0.000000  0.832749  0.009721  1
  Co  Co20  1  0.500000  0.500000  0.701609  1
  Co  Co21  1  0.000000  0.000000  0.298391  1
  P  P22  1  0.500000  0.311198  0.616062  1
  P  P23  1  0.500000  0.688802  0.616062  1
  P  P24  1  0.000000  0.188802  0.383938  1
  P  P25  1  0.000000  0.811198  0.383938  1
  P  P26  1  0.500000  0.500000  0.880218  1
  P  P27  1  0.000000  0.000000  0.119782  1
  P  P28  1  0.500000  0.843929  0.892404  1
  P  P29  1  0.500000  0.156071  0.892404  1
  P  P30  1  0.000000  0.656071  0.107596  1
  P  P31  1  0.000000  0.343929  0.107596  1
  P  P32  1  0.500000  0.500000  0.350121  1
  P  P33  1  0.000000  0.000000  0.649879  1
  W  W34  1  0.500000  0.500000  0.156524  1
  W  W35  1  0.000000  0.000000  0.843476  1
