# generated using pymatgen
data_Nd3InPt3Pb2
_symmetry_space_group_name_H-M   'P 1'
_cell_length_a   7.90301617
_cell_length_b   7.90301518
_cell_length_c   4.03190800
_cell_angle_alpha   90.00000000
_cell_angle_beta   90.00000000
_cell_angle_gamma   120.65769205
_symmetry_Int_Tables_number   1
_chemical_formula_structural   Nd3InPt3Pb2
_chemical_formula_sum   'Nd3 In1 Pt3 Pb2'
_cell_volume   216.62590697
_cell_formula_units_Z   1
loop_
 _symmetry_equiv_pos_site_id
 _symmetry_equiv_pos_as_xyz
  1  'x, y, z'
loop_
 _atom_site_type_symbol
 _atom_site_label
 _atom_site_symmetry_multiplicity
 _atom_site_fract_x
 _atom_site_fract_y
 _atom_site_fract_z
 _atom_site_occupancy
  Nd  Nd0  1  0.994154  0.591275  0.500000  1
  Nd  Nd1  1  0.591275  0.994154  0.500000  1
  Nd  Nd2  1  0.411566  0.411566  0.500000  1
  In  In3  1  0.743204  0.743204  0.000000  1
  Pt  Pt4  1  0.991222  0.991222  0.500000  1
  Pt  Pt5  1  0.669504  0.345981  0.000000  1
  Pt  Pt6  1  0.345981  0.669504  0.000000  1
  Pb  Pb7  1  0.997085  0.256009  0.000000  1
  Pb  Pb8  1  0.256009  0.997085  0.000000  1
