# generated using pymatgen
data_Os2PtCl15
_symmetry_space_group_name_H-M   'P 1'
_cell_length_a   13.11444082
_cell_length_b   13.11444110
_cell_length_c   6.19779500
_cell_angle_alpha   89.02038206
_cell_angle_beta   89.02037767
_cell_angle_gamma   86.85332202
_symmetry_Int_Tables_number   1
_chemical_formula_structural   Os2PtCl15
_chemical_formula_sum   'Os4 Pt2 Cl30'
_cell_volume   1064.04773669
_cell_formula_units_Z   2
loop_
 _symmetry_equiv_pos_site_id
 _symmetry_equiv_pos_as_xyz
  1  'x, y, z'
loop_
 _atom_site_type_symbol
 _atom_site_label
 _atom_site_symmetry_multiplicity
 _atom_site_fract_x
 _atom_site_fract_y
 _atom_site_fract_z
 _atom_site_occupancy
  Os  Os0  1  0.769834  0.564256  0.523738  1
  Os  Os1  1  0.435744  0.230166  0.476262  1
  Os  Os2  1  0.230166  0.435744  0.476262  1
  Os  Os3  1  0.564256  0.769834  0.523738  1
  Pt  Pt4  1  0.098150  0.901850  0.000000  1
  Pt  Pt5  1  0.901850  0.098150  0.000000  1
  Cl  Cl6  1  0.665751  0.474085  0.746518  1
  Cl  Cl7  1  0.525915  0.334249  0.253482  1
  Cl  Cl8  1  0.334249  0.525915  0.253482  1
  Cl  Cl9  1  0.474085  0.665751  0.746518  1
  Cl  Cl10  1  0.799145  0.430562  0.306226  1
  Cl  Cl11  1  0.569438  0.200855  0.693774  1
  Cl  Cl12  1  0.949429  0.949429  0.216825  1
  Cl  Cl13  1  0.050571  0.050571  0.783175  1
  Cl  Cl14  1  0.762116  0.133839  0.221985  1
  Cl  Cl15  1  0.866161  0.237884  0.778015  1
  Cl  Cl16  1  0.237884  0.866161  0.778015  1
  Cl  Cl17  1  0.133839  0.762116  0.221985  1
  Cl  Cl18  1  0.806183  0.997918  0.787169  1
  Cl  Cl19  1  0.002082  0.193817  0.212831  1
  Cl  Cl20  1  0.193817  0.002082  0.212831  1
  Cl  Cl21  1  0.997918  0.806183  0.787169  1
  Cl  Cl22  1  0.716737  0.716737  0.731935  1
  Cl  Cl23  1  0.283263  0.283263  0.268065  1
  Cl  Cl24  1  0.535014  0.903187  0.742672  1
  Cl  Cl25  1  0.096813  0.464986  0.257328  1
  Cl  Cl26  1  0.464986  0.096813  0.257328  1
  Cl  Cl27  1  0.903187  0.535014  0.742672  1
  Cl  Cl28  1  0.668600  0.859595  0.302513  1
  Cl  Cl29  1  0.140405  0.331400  0.697487  1
  Cl  Cl30  1  0.331400  0.140405  0.697487  1
  Cl  Cl31  1  0.859595  0.668600  0.302513  1
  Cl  Cl32  1  0.617086  0.617086  0.316405  1
  Cl  Cl33  1  0.382914  0.382914  0.683595  1
  Cl  Cl34  1  0.430562  0.799145  0.306226  1
  Cl  Cl35  1  0.200855  0.569438  0.693774  1
