# generated using pymatgen
data_Dy3Mn8P6Pt
_symmetry_space_group_name_H-M   'P 1'
_cell_length_a   3.61173900
_cell_length_b   10.97855400
_cell_length_c   12.75775800
_cell_angle_alpha   90.00000000
_cell_angle_beta   90.00000000
_cell_angle_gamma   90.00000000
_symmetry_Int_Tables_number   1
_chemical_formula_structural   Dy3Mn8P6Pt
_chemical_formula_sum   'Dy6 Mn16 P12 Pt2'
_cell_volume   505.86643115
_cell_formula_units_Z   2
loop_
 _symmetry_equiv_pos_site_id
 _symmetry_equiv_pos_as_xyz
  1  'x, y, z'
loop_
 _atom_site_type_symbol
 _atom_site_label
 _atom_site_symmetry_multiplicity
 _atom_site_fract_x
 _atom_site_fract_y
 _atom_site_fract_z
 _atom_site_occupancy
  Dy  Dy0  1  0.000000  0.500000  0.525245  1
  Dy  Dy1  1  0.500000  0.000000  0.474755  1
  Dy  Dy2  1  0.500000  0.815602  0.203551  1
  Dy  Dy3  1  0.500000  0.184398  0.203551  1
  Dy  Dy4  1  0.000000  0.684398  0.796449  1
  Dy  Dy5  1  0.000000  0.315602  0.796449  1
  Mn  Mn6  1  0.500000  0.500000  0.167192  1
  Mn  Mn7  1  0.000000  0.000000  0.832808  1
  Mn  Mn8  1  0.000000  0.500000  0.995167  1
  Mn  Mn9  1  0.500000  0.000000  0.004833  1
  Mn  Mn10  1  0.500000  0.331536  0.997569  1
  Mn  Mn11  1  0.500000  0.668464  0.997569  1
  Mn  Mn12  1  0.000000  0.168464  0.002431  1
  Mn  Mn13  1  0.000000  0.831536  0.002431  1
  Mn  Mn14  1  0.500000  0.300869  0.432249  1
  Mn  Mn15  1  0.500000  0.699131  0.432249  1
  Mn  Mn16  1  0.000000  0.199131  0.567751  1
  Mn  Mn17  1  0.000000  0.800869  0.567751  1
  Mn  Mn18  1  0.500000  0.883025  0.703798  1
  Mn  Mn19  1  0.500000  0.116975  0.703798  1
  Mn  Mn20  1  0.000000  0.616975  0.296202  1
  Mn  Mn21  1  0.000000  0.383025  0.296202  1
  P  P22  1  0.500000  0.500000  0.889784  1
  P  P23  1  0.000000  0.000000  0.110216  1
  P  P24  1  0.500000  0.500000  0.357920  1
  P  P25  1  0.000000  0.000000  0.642080  1
  P  P26  1  0.500000  0.308919  0.615129  1
  P  P27  1  0.500000  0.691081  0.615129  1
  P  P28  1  0.000000  0.191081  0.384871  1
  P  P29  1  0.000000  0.808919  0.384871  1
  P  P30  1  0.500000  0.846938  0.885356  1
  P  P31  1  0.500000  0.153062  0.885356  1
  P  P32  1  0.000000  0.653062  0.114644  1
  P  P33  1  0.000000  0.346938  0.114644  1
  Pt  Pt34  1  0.500000  0.500000  0.705303  1
  Pt  Pt35  1  0.000000  0.000000  0.294697  1
