# generated using pymatgen
data_Nd16MgHg3Pt4
_symmetry_space_group_name_H-M   'P 1'
_cell_length_a   10.02043210
_cell_length_b   10.02825293
_cell_length_c   10.02825300
_cell_angle_alpha   59.99999648
_cell_angle_beta   59.97417475
_cell_angle_gamma   59.97417937
_symmetry_Int_Tables_number   1
_chemical_formula_structural   Nd16MgHg3Pt4
_chemical_formula_sum   'Nd16 Mg1 Hg3 Pt4'
_cell_volume   712.28267326
_cell_formula_units_Z   1
loop_
 _symmetry_equiv_pos_site_id
 _symmetry_equiv_pos_as_xyz
  1  'x, y, z'
loop_
 _atom_site_type_symbol
 _atom_site_label
 _atom_site_symmetry_multiplicity
 _atom_site_fract_x
 _atom_site_fract_y
 _atom_site_fract_z
 _atom_site_occupancy
  Nd  Nd0  1  0.350546  0.348654  0.348654  1
  Nd  Nd1  1  0.350546  0.348654  0.952147  1
  Nd  Nd2  1  0.350546  0.952147  0.348654  1
  Nd  Nd3  1  0.948136  0.350622  0.350622  1
  Nd  Nd4  1  0.806622  0.193625  0.193625  1
  Nd  Nd5  1  0.189174  0.809628  0.809628  1
  Nd  Nd6  1  0.189174  0.809628  0.191570  1
  Nd  Nd7  1  0.806622  0.193625  0.806127  1
  Nd  Nd8  1  0.189174  0.191570  0.809628  1
  Nd  Nd9  1  0.806622  0.806127  0.193625  1
  Nd  Nd10  1  0.932008  0.566174  0.566174  1
  Nd  Nd11  1  0.563470  0.935909  0.935909  1
  Nd  Nd12  1  0.563470  0.935909  0.564711  1
  Nd  Nd13  1  0.932008  0.566174  0.935643  1
  Nd  Nd14  1  0.563470  0.564711  0.935909  1
  Nd  Nd15  1  0.932008  0.935643  0.566174  1
  Mg  Mg16  1  0.280185  0.573272  0.573272  1
  Hg  Hg17  1  0.581136  0.585550  0.585550  1
  Hg  Hg18  1  0.581136  0.585550  0.247764  1
  Hg  Hg19  1  0.581136  0.247764  0.585550  1
  Pt  Pt20  1  0.142721  0.142544  0.142544  1
  Pt  Pt21  1  0.142721  0.142544  0.572191  1
  Pt  Pt22  1  0.142721  0.572191  0.142544  1
  Pt  Pt23  1  0.574648  0.141784  0.141784  1
