# generated using pymatgen
data_Dy2Tm8Si5Ge
_symmetry_space_group_name_H-M   'P 1'
_cell_length_a   8.35590667
_cell_length_b   8.35590704
_cell_length_c   6.26159300
_cell_angle_alpha   90.00000000
_cell_angle_beta   90.00000000
_cell_angle_gamma   120.16666475
_symmetry_Int_Tables_number   1
_chemical_formula_structural   Dy2Tm8Si5Ge
_chemical_formula_sum   'Dy2 Tm8 Si5 Ge1'
_cell_volume   377.98174863
_cell_formula_units_Z   1
loop_
 _symmetry_equiv_pos_site_id
 _symmetry_equiv_pos_as_xyz
  1  'x, y, z'
loop_
 _atom_site_type_symbol
 _atom_site_label
 _atom_site_symmetry_multiplicity
 _atom_site_fract_x
 _atom_site_fract_y
 _atom_site_fract_z
 _atom_site_occupancy
  Dy  Dy0  1  0.759255  0.759255  0.250000  1
  Dy  Dy1  1  0.241464  0.241464  0.750000  1
  Tm  Tm2  1  0.668131  0.332819  0.500769  1
  Tm  Tm3  1  0.332819  0.668131  0.500769  1
  Tm  Tm4  1  0.332819  0.668131  0.999231  1
  Tm  Tm5  1  0.668131  0.332819  0.999231  1
  Tm  Tm6  1  0.242916  0.998193  0.250000  1
  Tm  Tm7  1  0.998193  0.242916  0.250000  1
  Tm  Tm8  1  0.756678  0.000108  0.750000  1
  Tm  Tm9  1  0.000108  0.756678  0.750000  1
  Si  Si10  1  0.605161  0.000617  0.250000  1
  Si  Si11  1  0.000617  0.605161  0.250000  1
  Si  Si12  1  0.606972  0.606972  0.750000  1
  Si  Si13  1  0.394691  0.999422  0.750000  1
  Si  Si14  1  0.999422  0.394691  0.750000  1
  Ge  Ge15  1  0.392620  0.392620  0.250000  1
