# generated using pymatgen
data_La2CrN3
_symmetry_space_group_name_H-M   'P 1'
_cell_length_a   6.16412442
_cell_length_b   6.16412392
_cell_length_c   12.22556400
_cell_angle_alpha   90.00000000
_cell_angle_beta   90.00000000
_cell_angle_gamma   126.66243904
_symmetry_Int_Tables_number   1
_chemical_formula_structural   La2CrN3
_chemical_formula_sum   'La8 Cr4 N12'
_cell_volume   372.62894690
_cell_formula_units_Z   4
loop_
 _symmetry_equiv_pos_site_id
 _symmetry_equiv_pos_as_xyz
  1  'x, y, z'
loop_
 _atom_site_type_symbol
 _atom_site_label
 _atom_site_symmetry_multiplicity
 _atom_site_fract_x
 _atom_site_fract_y
 _atom_site_fract_z
 _atom_site_occupancy
  La  La0  1  0.560946  0.439054  0.639945  1
  La  La1  1  0.439054  0.560946  0.360055  1
  La  La2  1  0.939054  0.060946  0.139945  1
  La  La3  1  0.060946  0.939054  0.860055  1
  La  La4  1  0.857793  0.142207  0.574764  1
  La  La5  1  0.142207  0.857793  0.425236  1
  La  La6  1  0.642207  0.357793  0.074764  1
  La  La7  1  0.357793  0.642207  0.925236  1
  Cr  Cr8  1  0.741514  0.258486  0.838677  1
  Cr  Cr9  1  0.258486  0.741514  0.161323  1
  Cr  Cr10  1  0.758486  0.241514  0.338677  1
  Cr  Cr11  1  0.241514  0.758486  0.661323  1
  N  N12  1  0.847055  0.152945  0.960661  1
  N  N13  1  0.152945  0.847055  0.039339  1
  N  N14  1  0.652945  0.347055  0.460661  1
  N  N15  1  0.347055  0.652945  0.539339  1
  N  N16  1  0.576410  0.423590  0.869675  1
  N  N17  1  0.423590  0.576410  0.130325  1
  N  N18  1  0.923590  0.076410  0.369675  1
  N  N19  1  0.076410  0.923590  0.630325  1
  N  N20  1  0.517350  0.982650  0.750000  1
  N  N21  1  0.982650  0.517350  0.250000  1
  N  N22  1  0.482650  0.017350  0.250000  1
  N  N23  1  0.017350  0.482650  0.750000  1
