# generated using pymatgen
data_Sr11Ca(PrSi2)8
_symmetry_space_group_name_H-M   'P 1'
_cell_length_a   8.20366168
_cell_length_b   8.20366202
_cell_length_c   15.72963700
_cell_angle_alpha   89.91665786
_cell_angle_beta   90.08334215
_cell_angle_gamma   90.17299351
_symmetry_Int_Tables_number   1
_chemical_formula_structural   Sr11Ca(PrSi2)8
_chemical_formula_sum   'Sr11 Ca1 Pr8 Si16'
_cell_volume   1058.59857725
_cell_formula_units_Z   1
loop_
 _symmetry_equiv_pos_site_id
 _symmetry_equiv_pos_as_xyz
  1  'x, y, z'
loop_
 _atom_site_type_symbol
 _atom_site_label
 _atom_site_symmetry_multiplicity
 _atom_site_fract_x
 _atom_site_fract_y
 _atom_site_fract_z
 _atom_site_occupancy
  Sr  Sr0  1  0.309382  0.309382  0.000000  1
  Sr  Sr1  1  0.190872  0.809469  0.250681  1
  Sr  Sr2  1  0.809469  0.190872  0.749319  1
  Sr  Sr3  1  0.373110  0.011608  0.452956  1
  Sr  Sr4  1  0.487773  0.871565  0.700253  1
  Sr  Sr5  1  0.514085  0.129416  0.203158  1
  Sr  Sr6  1  0.871565  0.487773  0.299747  1
  Sr  Sr7  1  0.129416  0.514085  0.796842  1
  Sr  Sr8  1  0.628393  0.986843  0.952055  1
  Sr  Sr9  1  0.011608  0.373110  0.547044  1
  Sr  Sr10  1  0.986843  0.628393  0.047945  1
  Ca  Ca11  1  0.689954  0.689954  0.500000  1
  Pr  Pr12  1  0.128026  0.987219  0.874614  1
  Pr  Pr13  1  0.513284  0.627842  0.125850  1
  Pr  Pr14  1  0.488070  0.372910  0.624018  1
  Pr  Pr15  1  0.627842  0.513284  0.874150  1
  Pr  Pr16  1  0.372910  0.488070  0.375982  1
  Pr  Pr17  1  0.871090  0.011019  0.376374  1
  Pr  Pr18  1  0.987219  0.128026  0.125386  1
  Pr  Pr19  1  0.011019  0.871090  0.623626  1
  Si  Si20  1  0.208570  0.154203  0.697474  1
  Si  Si21  1  0.345743  0.708769  0.948213  1
  Si  Si22  1  0.655408  0.293342  0.449325  1
  Si  Si23  1  0.708769  0.345743  0.051787  1
  Si  Si24  1  0.293342  0.655408  0.550675  1
  Si  Si25  1  0.791120  0.845296  0.199681  1
  Si  Si26  1  0.154203  0.208570  0.302526  1
  Si  Si27  1  0.845296  0.791120  0.800319  1
  Si  Si28  1  0.275021  0.912033  0.055024  1
  Si  Si29  1  0.589286  0.773577  0.308008  1
  Si  Si30  1  0.412266  0.225879  0.804248  1
  Si  Si31  1  0.773577  0.589286  0.691992  1
  Si  Si32  1  0.225879  0.412266  0.195752  1
  Si  Si33  1  0.723675  0.083884  0.554404  1
  Si  Si34  1  0.912033  0.275021  0.944976  1
  Si  Si35  1  0.083884  0.723675  0.445596  1
