# generated using pymatgen
data_Tm20Ir9RuRh2
_symmetry_space_group_name_H-M   'P 1'
_cell_length_a   10.70947100
_cell_length_b   10.70947100
_cell_length_c   6.32600700
_cell_angle_alpha   90.00000000
_cell_angle_beta   90.00000000
_cell_angle_gamma   90.00000000
_symmetry_Int_Tables_number   1
_chemical_formula_structural   Tm20Ir9RuRh2
_chemical_formula_sum   'Tm20 Ir9 Ru1 Rh2'
_cell_volume   725.54726017
_cell_formula_units_Z   1
loop_
 _symmetry_equiv_pos_site_id
 _symmetry_equiv_pos_as_xyz
  1  'x, y, z'
loop_
 _atom_site_type_symbol
 _atom_site_label
 _atom_site_symmetry_multiplicity
 _atom_site_fract_x
 _atom_site_fract_y
 _atom_site_fract_z
 _atom_site_occupancy
  Tm  Tm0  1  0.289868  0.088141  0.377688  1
  Tm  Tm1  1  0.289922  0.912015  0.878029  1
  Tm  Tm2  1  0.710078  0.087985  0.878029  1
  Tm  Tm3  1  0.710132  0.911859  0.377688  1
  Tm  Tm4  1  0.587985  0.789922  0.878029  1
  Tm  Tm5  1  0.588141  0.210132  0.377688  1
  Tm  Tm6  1  0.411859  0.789868  0.377688  1
  Tm  Tm7  1  0.412015  0.210078  0.878029  1
  Tm  Tm8  1  0.207539  0.413003  0.624303  1
  Tm  Tm9  1  0.207198  0.587069  0.121386  1
  Tm  Tm10  1  0.792802  0.412931  0.121386  1
  Tm  Tm11  1  0.792461  0.586997  0.624303  1
  Tm  Tm12  1  0.912931  0.707198  0.121386  1
  Tm  Tm13  1  0.913003  0.292461  0.624303  1
  Tm  Tm14  1  0.086997  0.707539  0.624303  1
  Tm  Tm15  1  0.087069  0.292802  0.121386  1
  Tm  Tm16  1  0.000000  0.000000  0.500270  1
  Tm  Tm17  1  0.000000  0.000000  0.000260  1
  Tm  Tm18  1  0.500000  0.500000  0.000260  1
  Tm  Tm19  1  0.500000  0.500000  0.500270  1
  Ir  Ir20  1  0.845915  0.152578  0.249558  1
  Ir  Ir21  1  0.845646  0.847407  0.749356  1
  Ir  Ir22  1  0.154354  0.152593  0.749356  1
  Ir  Ir23  1  0.154085  0.847422  0.249558  1
  Ir  Ir24  1  0.652593  0.345646  0.749356  1
  Ir  Ir25  1  0.652578  0.654085  0.249558  1
  Ir  Ir26  1  0.347422  0.345915  0.249558  1
  Ir  Ir27  1  0.347407  0.654354  0.749356  1
  Ir  Ir28  1  0.000000  0.500000  0.376965  1
  Ru  Ru29  1  0.000000  0.500000  0.876046  1
  Rh  Rh30  1  0.500000  0.000000  0.122313  1
  Rh  Rh31  1  0.500000  0.000000  0.622332  1
