# generated using pymatgen
data_Er5GaBiOs
_symmetry_space_group_name_H-M   'P 1'
_cell_length_a   8.68813916
_cell_length_b   8.68813881
_cell_length_c   8.81109806
_cell_angle_alpha   126.64090789
_cell_angle_beta   126.64089845
_cell_angle_gamma   77.84904179
_symmetry_Int_Tables_number   1
_chemical_formula_structural   Er5GaBiOs
_chemical_formula_sum   'Er10 Ga2 Bi2 Os2'
_cell_volume   417.10381507
_cell_formula_units_Z   2
loop_
 _symmetry_equiv_pos_site_id
 _symmetry_equiv_pos_as_xyz
  1  'x, y, z'
loop_
 _atom_site_type_symbol
 _atom_site_label
 _atom_site_symmetry_multiplicity
 _atom_site_fract_x
 _atom_site_fract_y
 _atom_site_fract_z
 _atom_site_occupancy
  Er  Er0  1  0.000000  0.000000  0.000000  1
  Er  Er1  1  0.500000  0.500000  0.000000  1
  Er  Er2  1  0.782567  0.282567  0.794009  1
  Er  Er3  1  0.217433  0.717433  0.205991  1
  Er  Er4  1  0.488557  0.988557  0.205991  1
  Er  Er5  1  0.308872  0.460789  0.500000  1
  Er  Er6  1  0.039211  0.191128  0.500000  1
  Er  Er7  1  0.511443  0.011443  0.794009  1
  Er  Er8  1  0.691128  0.539211  0.500000  1
  Er  Er9  1  0.960789  0.808872  0.500000  1
  Ga  Ga10  1  0.137433  0.637433  0.774868  1
  Ga  Ga11  1  0.862567  0.362567  0.225132  1
  Bi  Bi12  1  0.250000  0.250000  0.000000  1
  Bi  Bi13  1  0.750000  0.750000  0.000000  1
  Os  Os14  1  0.635252  0.864748  0.500000  1
  Os  Os15  1  0.364748  0.135252  0.500000  1
