# generated using pymatgen
data_TbDy3(Y2Ru)4
_symmetry_space_group_name_H-M   'P 1'
_cell_length_a   6.36194238
_cell_length_b   7.31582353
_cell_length_c   9.24793100
_cell_angle_alpha   90.00000000
_cell_angle_beta   90.00000000
_cell_angle_gamma   89.97222237
_symmetry_Int_Tables_number   1
_chemical_formula_structural   TbDy3(Y2Ru)4
_chemical_formula_sum   'Tb1 Dy3 Y8 Ru4'
_cell_volume   430.42499442
_cell_formula_units_Z   1
loop_
 _symmetry_equiv_pos_site_id
 _symmetry_equiv_pos_as_xyz
  1  'x, y, z'
loop_
 _atom_site_type_symbol
 _atom_site_label
 _atom_site_symmetry_multiplicity
 _atom_site_fract_x
 _atom_site_fract_y
 _atom_site_fract_z
 _atom_site_occupancy
  Tb  Tb0  1  0.864874  0.541936  0.250000  1
  Dy  Dy1  1  0.636310  0.042923  0.250000  1
  Dy  Dy2  1  0.135985  0.457301  0.750000  1
  Dy  Dy3  1  0.363610  0.957057  0.750000  1
  Y  Y4  1  0.328874  0.676573  0.065033  1
  Y  Y5  1  0.171727  0.176195  0.435209  1
  Y  Y6  1  0.671102  0.323399  0.565351  1
  Y  Y7  1  0.828431  0.823858  0.934800  1
  Y  Y8  1  0.671102  0.323399  0.934649  1
  Y  Y9  1  0.828431  0.823858  0.565200  1
  Y  Y10  1  0.328874  0.676573  0.434967  1
  Y  Y11  1  0.171727  0.176195  0.064791  1
  Ru  Ru12  1  0.035138  0.885927  0.250000  1
  Ru  Ru13  1  0.463979  0.384582  0.250000  1
  Ru  Ru14  1  0.966092  0.115102  0.750000  1
  Ru  Ru15  1  0.533742  0.615119  0.750000  1
