# generated using pymatgen
data_Rb2ThCd2S5
_symmetry_space_group_name_H-M   'P 1'
_cell_length_a   10.20350929
_cell_length_b   4.20335500
_cell_length_c   14.79706400
_cell_angle_alpha   90.00000000
_cell_angle_beta   102.81255274
_cell_angle_gamma   90.00000000
_symmetry_Int_Tables_number   1
_chemical_formula_structural   Rb2ThCd2S5
_chemical_formula_sum   'Rb4 Th2 Cd4 S10'
_cell_volume   618.82905533
_cell_formula_units_Z   2
loop_
 _symmetry_equiv_pos_site_id
 _symmetry_equiv_pos_as_xyz
  1  'x, y, z'
loop_
 _atom_site_type_symbol
 _atom_site_label
 _atom_site_symmetry_multiplicity
 _atom_site_fract_x
 _atom_site_fract_y
 _atom_site_fract_z
 _atom_site_occupancy
  Rb  Rb0  1  0.275301  0.307213  0.059793  1
  Rb  Rb1  1  0.224699  0.307213  0.440207  1
  Rb  Rb2  1  0.775300  0.692788  0.559793  1
  Rb  Rb3  1  0.724700  0.692788  0.940207  1
  Th  Th4  1  0.750000  0.189037  0.250000  1
  Th  Th5  1  0.250000  0.810962  0.750000  1
  Cd  Cd6  1  0.022070  0.674112  0.199909  1
  Cd  Cd7  1  0.477930  0.674112  0.300091  1
  Cd  Cd8  1  0.522070  0.325887  0.699909  1
  Cd  Cd9  1  0.977929  0.325887  0.800091  1
  S  S10  1  0.903032  0.191575  0.114258  1
  S  S11  1  0.594521  0.687817  0.154789  1
  S  S12  1  0.250000  0.891903  0.250000  1
  S  S13  1  0.905480  0.687817  0.345211  1
  S  S14  1  0.596969  0.191575  0.385742  1
  S  S15  1  0.403032  0.808426  0.614258  1
  S  S16  1  0.094521  0.312185  0.654789  1
  S  S17  1  0.750000  0.108098  0.750000  1
  S  S18  1  0.405479  0.312185  0.845211  1
  S  S19  1  0.096969  0.808426  0.885742  1
