# generated using pymatgen
data_Cs4Na2TmInSb4
_symmetry_space_group_name_H-M   'P 1'
_cell_length_a   10.35404678
_cell_length_b   10.35404512
_cell_length_c   10.35404510
_cell_angle_alpha   137.10077643
_cell_angle_beta   61.25410120
_cell_angle_gamma   138.44971717
_symmetry_Int_Tables_number   1
_chemical_formula_structural   Cs4Na2TmInSb4
_chemical_formula_sum   'Cs4 Na2 Tm1 In1 Sb4'
_cell_volume   495.57491227
_cell_formula_units_Z   1
loop_
 _symmetry_equiv_pos_site_id
 _symmetry_equiv_pos_as_xyz
  1  'x, y, z'
loop_
 _atom_site_type_symbol
 _atom_site_label
 _atom_site_symmetry_multiplicity
 _atom_site_fract_x
 _atom_site_fract_y
 _atom_site_fract_z
 _atom_site_occupancy
  Cs  Cs0  1  0.330625  0.772895  0.094561  1
  Cs  Cs1  1  0.169375  0.263938  0.442271  1
  Cs  Cs2  1  0.821668  0.727105  0.557730  1
  Cs  Cs3  1  0.678333  0.236062  0.905439  1
  Na  Na4  1  0.750000  0.250000  0.500000  1
  Na  Na5  1  0.250000  0.750000  0.500000  1
  Tm  Tm6  1  0.250000  0.250000  0.000000  1
  In  In7  1  0.750000  0.750000  0.000000  1
  Sb  Sb8  1  0.902236  0.217997  0.127141  1
  Sb  Sb9  1  0.597764  0.724905  0.315762  1
  Sb  Sb10  1  0.409144  0.282003  0.684239  1
  Sb  Sb11  1  0.090856  0.775095  0.872859  1
