# generated using pymatgen
data_Eu4Hf2ZrVO12
_symmetry_space_group_name_H-M   'P 1'
_cell_length_a   5.68879536
_cell_length_b   5.81084058
_cell_length_c   8.15077594
_cell_angle_alpha   89.91166249
_cell_angle_beta   90.09865655
_cell_angle_gamma   90.12309281
_symmetry_Int_Tables_number   1
_chemical_formula_structural   Eu4Hf2ZrVO12
_chemical_formula_sum   'Eu4 Hf2 Zr1 V1 O12'
_cell_volume   269.43627608
_cell_formula_units_Z   1
loop_
 _symmetry_equiv_pos_site_id
 _symmetry_equiv_pos_as_xyz
  1  'x, y, z'
loop_
 _atom_site_type_symbol
 _atom_site_label
 _atom_site_symmetry_multiplicity
 _atom_site_fract_x
 _atom_site_fract_y
 _atom_site_fract_z
 _atom_site_occupancy
  Eu  Eu0  1  0.990494  0.047168  0.260537  1
  Eu  Eu1  1  0.490711  0.462137  0.740796  1
  Eu  Eu2  1  0.509289  0.537863  0.259204  1
  Eu  Eu3  1  0.009506  0.952832  0.739463  1
  Hf  Hf4  1  0.500000  0.000000  0.000000  1
  Hf  Hf5  1  0.000000  0.500000  0.000000  1
  Zr  Zr6  1  0.500000  0.000000  0.500000  1
  V  V7  1  0.000000  0.500000  0.500000  1
  O  O8  1  0.588049  0.027187  0.753360  1
  O  O9  1  0.205837  0.210586  0.541844  1
  O  O10  1  0.206378  0.206530  0.952739  1
  O  O11  1  0.704894  0.292761  0.048401  1
  O  O12  1  0.712869  0.293002  0.455905  1
  O  O13  1  0.085610  0.473253  0.248814  1
  O  O14  1  0.914390  0.526747  0.751186  1
  O  O15  1  0.295106  0.707239  0.951599  1
  O  O16  1  0.287131  0.706998  0.544095  1
  O  O17  1  0.793622  0.793470  0.047261  1
  O  O18  1  0.794163  0.789414  0.458156  1
  O  O19  1  0.411951  0.972813  0.246640  1
