# generated using pymatgen
data_La4Sm3Pa3Rh8
_symmetry_space_group_name_H-M   'P 1'
_cell_length_a   7.72863300
_cell_length_b   7.64194878
_cell_length_c   14.56591458
_cell_angle_alpha   89.87746916
_cell_angle_beta   90.00000000
_cell_angle_gamma   90.00000000
_symmetry_Int_Tables_number   1
_chemical_formula_structural   La4Sm3Pa3Rh8
_chemical_formula_sum   'La8 Sm6 Pa6 Rh16'
_cell_volume   860.28742165
_cell_formula_units_Z   2
loop_
 _symmetry_equiv_pos_site_id
 _symmetry_equiv_pos_as_xyz
  1  'x, y, z'
loop_
 _atom_site_type_symbol
 _atom_site_label
 _atom_site_symmetry_multiplicity
 _atom_site_fract_x
 _atom_site_fract_y
 _atom_site_fract_z
 _atom_site_occupancy
  La  La0  1  0.489412  0.323742  0.906379  1
  La  La1  1  0.989412  0.176258  0.593621  1
  La  La2  1  0.509473  0.677322  0.406703  1
  La  La3  1  0.009473  0.822678  0.093297  1
  La  La4  1  0.509870  0.680194  0.092058  1
  La  La5  1  0.009870  0.819806  0.407942  1
  La  La6  1  0.490483  0.325973  0.594078  1
  La  La7  1  0.990483  0.174027  0.905922  1
  Sm  Sm8  1  0.340653  0.839052  0.880213  1
  Sm  Sm9  1  0.840653  0.660948  0.619787  1
  Sm  Sm10  1  0.184542  0.487907  0.749803  1
  Sm  Sm11  1  0.684542  0.012093  0.750197  1
  Sm  Sm12  1  0.810447  0.518560  0.250216  1
  Sm  Sm13  1  0.310447  0.981440  0.249784  1
  Pa  Pa14  1  0.657721  0.154679  0.376361  1
  Pa  Pa15  1  0.157721  0.345321  0.123639  1
  Pa  Pa16  1  0.660650  0.158692  0.123777  1
  Pa  Pa17  1  0.160650  0.341308  0.376223  1
  Pa  Pa18  1  0.340397  0.844765  0.624999  1
  Pa  Pa19  1  0.840397  0.655235  0.875001  1
  Rh  Rh20  1  0.332687  0.071189  0.048857  1
  Rh  Rh21  1  0.832687  0.428811  0.451143  1
  Rh  Rh22  1  0.663834  0.968752  0.532585  1
  Rh  Rh23  1  0.163834  0.531248  0.967415  1
  Rh  Rh24  1  0.700770  0.940491  0.963577  1
  Rh  Rh25  1  0.200770  0.559509  0.536423  1
  Rh  Rh26  1  0.310793  0.060646  0.458002  1
  Rh  Rh27  1  0.810793  0.439354  0.041998  1
  Rh  Rh28  1  0.542821  0.642487  0.745602  1
  Rh  Rh29  1  0.042821  0.857513  0.754398  1
  Rh  Rh30  1  0.456567  0.350282  0.252150  1
  Rh  Rh31  1  0.956567  0.149718  0.247850  1
  Rh  Rh32  1  0.313868  0.115382  0.737764  1
  Rh  Rh33  1  0.813868  0.384618  0.762236  1
  Rh  Rh34  1  0.685012  0.894199  0.248981  1
  Rh  Rh35  1  0.185012  0.605801  0.251019  1
