# generated using pymatgen
data_RbDy4Er2(CBr6)2
_symmetry_space_group_name_H-M   'P 1'
_cell_length_a   8.86003584
_cell_length_b   8.84392584
_cell_length_c   9.37744262
_cell_angle_alpha   72.39908225
_cell_angle_beta   71.17067112
_cell_angle_gamma   72.97135479
_symmetry_Int_Tables_number   1
_chemical_formula_structural   RbDy4Er2(CBr6)2
_chemical_formula_sum   'Rb1 Dy4 Er2 C2 Br12'
_cell_volume   647.20027884
_cell_formula_units_Z   1
loop_
 _symmetry_equiv_pos_site_id
 _symmetry_equiv_pos_as_xyz
  1  'x, y, z'
loop_
 _atom_site_type_symbol
 _atom_site_label
 _atom_site_symmetry_multiplicity
 _atom_site_fract_x
 _atom_site_fract_y
 _atom_site_fract_z
 _atom_site_occupancy
  Rb  Rb0  1  0.999743  0.500135  0.000141  1
  Dy  Dy1  1  0.473459  0.116400  0.182839  1
  Dy  Dy2  1  0.776552  0.032951  0.407554  1
  Dy  Dy3  1  0.592987  0.724967  0.475393  1
  Dy  Dy4  1  0.407110  0.274851  0.524225  1
  Er  Er5  1  0.225289  0.966693  0.592808  1
  Er  Er6  1  0.526756  0.884073  0.815619  1
  C  C7  1  0.491631  0.026108  0.422889  1
  C  C8  1  0.506651  0.973171  0.578375  1
  Br  Br9  1  0.797452  0.159450  0.082946  1
  Br  Br10  1  0.583537  0.785681  0.138210  1
  Br  Br11  1  0.350587  0.433839  0.224074  1
  Br  Br12  1  0.134834  0.069427  0.299132  1
  Br  Br13  1  0.922725  0.722360  0.353886  1
  Br  Br14  1  0.713831  0.366106  0.431169  1
  Br  Br15  1  0.284370  0.637018  0.569775  1
  Br  Br16  1  0.077821  0.274207  0.645209  1
  Br  Br17  1  0.864324  0.929170  0.704917  1
  Br  Br18  1  0.648545  0.568718  0.776931  1
  Br  Br19  1  0.416731  0.212685  0.859115  1
  Br  Br20  1  0.205070  0.841993  0.914792  1
