# generated using pymatgen
data_Sr7Nd(Ho3Sn4)4
_symmetry_space_group_name_H-M   'P 1'
_cell_length_a   8.06369608
_cell_length_b   8.48082497
_cell_length_c   16.00751700
_cell_angle_alpha   89.97785409
_cell_angle_beta   90.35648728
_cell_angle_gamma   90.79898853
_symmetry_Int_Tables_number   1
_chemical_formula_structural   Sr7Nd(Ho3Sn4)4
_chemical_formula_sum   'Sr7 Nd1 Ho12 Sn16'
_cell_volume   1094.57511078
_cell_formula_units_Z   1
loop_
 _symmetry_equiv_pos_site_id
 _symmetry_equiv_pos_as_xyz
  1  'x, y, z'
loop_
 _atom_site_type_symbol
 _atom_site_label
 _atom_site_symmetry_multiplicity
 _atom_site_fract_x
 _atom_site_fract_y
 _atom_site_fract_z
 _atom_site_occupancy
  Sr  Sr0  1  0.502127  0.323256  0.906796  1
  Sr  Sr1  1  0.002287  0.175620  0.594021  1
  Sr  Sr2  1  0.500054  0.676385  0.407141  1
  Sr  Sr3  1  0.997795  0.822202  0.090942  1
  Sr  Sr4  1  0.499655  0.679629  0.090406  1
  Sr  Sr5  1  0.998802  0.823800  0.407504  1
  Sr  Sr6  1  0.500686  0.322906  0.596354  1
  Nd  Nd7  1  0.000574  0.181642  0.904044  1
  Ho  Ho8  1  0.334289  0.839402  0.876933  1
  Ho  Ho9  1  0.827989  0.660544  0.627798  1
  Ho  Ho10  1  0.669593  0.164662  0.376262  1
  Ho  Ho11  1  0.168541  0.336813  0.124626  1
  Ho  Ho12  1  0.666914  0.160503  0.122004  1
  Ho  Ho13  1  0.170635  0.337548  0.375717  1
  Ho  Ho14  1  0.328788  0.836431  0.625829  1
  Ho  Ho15  1  0.829375  0.661956  0.874069  1
  Ho  Ho16  1  0.167357  0.496880  0.751279  1
  Ho  Ho17  1  0.667992  0.004512  0.750379  1
  Ho  Ho18  1  0.833252  0.504576  0.249298  1
  Ho  Ho19  1  0.329357  0.994692  0.248779  1
  Sn  Sn20  1  0.323884  0.047814  0.040131  1
  Sn  Sn21  1  0.836072  0.459427  0.457798  1
  Sn  Sn22  1  0.664392  0.957379  0.544445  1
  Sn  Sn23  1  0.164409  0.534337  0.955040  1
  Sn  Sn24  1  0.678491  0.963725  0.953338  1
  Sn  Sn25  1  0.163744  0.541233  0.544168  1
  Sn  Sn26  1  0.335611  0.042715  0.457401  1
  Sn  Sn27  1  0.835967  0.452008  0.038777  1
  Sn  Sn28  1  0.526234  0.636810  0.751758  1
  Sn  Sn29  1  0.030832  0.871793  0.751825  1
  Sn  Sn30  1  0.471308  0.363518  0.248453  1
  Sn  Sn31  1  0.966563  0.130400  0.250942  1
  Sn  Sn32  1  0.294800  0.134189  0.754783  1
  Sn  Sn33  1  0.807643  0.355885  0.752792  1
  Sn  Sn34  1  0.702356  0.868623  0.248512  1
  Sn  Sn35  1  0.201631  0.636185  0.249656  1
