# generated using pymatgen
data_Y5Sc5Si20(IrRh)4
_symmetry_space_group_name_H-M   'P 1'
_cell_length_a   12.53503203
_cell_length_b   12.52275203
_cell_length_c   4.15995600
_cell_angle_alpha   90.00000000
_cell_angle_beta   90.00000000
_cell_angle_gamma   89.99192849
_symmetry_Int_Tables_number   1
_chemical_formula_structural   Y5Sc5Si20(IrRh)4
_chemical_formula_sum   'Y5 Sc5 Si20 Ir4 Rh4'
_cell_volume   653.00117366
_cell_formula_units_Z   1
loop_
 _symmetry_equiv_pos_site_id
 _symmetry_equiv_pos_as_xyz
  1  'x, y, z'
loop_
 _atom_site_type_symbol
 _atom_site_label
 _atom_site_symmetry_multiplicity
 _atom_site_fract_x
 _atom_site_fract_y
 _atom_site_fract_z
 _atom_site_occupancy
  Y  Y0  1  0.000000  0.000000  0.000000  1
  Y  Y1  1  0.884408  0.385629  0.500000  1
  Y  Y2  1  0.115592  0.614371  0.500000  1
  Y  Y3  1  0.385698  0.115683  0.500000  1
  Y  Y4  1  0.614302  0.884317  0.500000  1
  Sc  Sc5  1  0.500000  0.500000  0.000000  1
  Sc  Sc6  1  0.673006  0.175029  0.500000  1
  Sc  Sc7  1  0.326994  0.824971  0.500000  1
  Sc  Sc8  1  0.174825  0.326849  0.500000  1
  Sc  Sc9  1  0.825175  0.673151  0.500000  1
  Si  Si10  1  0.566881  0.068240  0.000000  1
  Si  Si11  1  0.433119  0.931760  0.000000  1
  Si  Si12  1  0.068738  0.433707  0.000000  1
  Si  Si13  1  0.931262  0.566293  0.000000  1
  Si  Si14  1  0.665409  0.698934  0.000000  1
  Si  Si15  1  0.334591  0.301066  0.000000  1
  Si  Si16  1  0.165924  0.800280  0.000000  1
  Si  Si17  1  0.834076  0.199720  0.000000  1
  Si  Si18  1  0.301144  0.664646  0.000000  1
  Si  Si19  1  0.698856  0.335354  0.000000  1
  Si  Si20  1  0.199501  0.165269  0.000000  1
  Si  Si21  1  0.800499  0.834731  0.000000  1
  Si  Si22  1  0.651467  0.506864  0.500000  1
  Si  Si23  1  0.348533  0.493136  0.500000  1
  Si  Si24  1  0.158508  0.993685  0.500000  1
  Si  Si25  1  0.841492  0.006315  0.500000  1
  Si  Si26  1  0.493235  0.650683  0.500000  1
  Si  Si27  1  0.506765  0.349317  0.500000  1
  Si  Si28  1  0.006302  0.157599  0.500000  1
  Si  Si29  1  0.993698  0.842401  0.500000  1
  Ir  Ir30  1  0.479892  0.743513  0.000000  1
  Ir  Ir31  1  0.520108  0.256487  0.000000  1
  Ir  Ir32  1  0.020364  0.247278  0.000000  1
  Ir  Ir33  1  0.979636  0.752722  0.000000  1
  Rh  Rh34  1  0.742770  0.520057  0.000000  1
  Rh  Rh35  1  0.257230  0.479943  0.000000  1
  Rh  Rh36  1  0.246425  0.979638  0.000000  1
  Rh  Rh37  1  0.753575  0.020362  0.000000  1
