# generated using pymatgen
data_Hf12Zr6Co2Re6MoW
_symmetry_space_group_name_H-M   'P 1'
_cell_length_a   8.67349700
_cell_length_b   8.67349611
_cell_length_c   8.43224100
_cell_angle_alpha   90.00000000
_cell_angle_beta   90.00000000
_cell_angle_gamma   119.99999959
_symmetry_Int_Tables_number   1
_chemical_formula_structural   Hf12Zr6Co2Re6MoW
_chemical_formula_sum   'Hf12 Zr6 Co2 Re6 Mo1 W1'
_cell_volume   549.36636294
_cell_formula_units_Z   1
loop_
 _symmetry_equiv_pos_site_id
 _symmetry_equiv_pos_as_xyz
  1  'x, y, z'
loop_
 _atom_site_type_symbol
 _atom_site_label
 _atom_site_symmetry_multiplicity
 _atom_site_fract_x
 _atom_site_fract_y
 _atom_site_fract_z
 _atom_site_occupancy
  Hf  Hf0  1  0.199546  0.800454  0.440534  1
  Hf  Hf1  1  0.199546  0.399092  0.440534  1
  Hf  Hf2  1  0.600908  0.800454  0.440534  1
  Hf  Hf3  1  0.800454  0.199546  0.559466  1
  Hf  Hf4  1  0.800454  0.600908  0.559466  1
  Hf  Hf5  1  0.399092  0.199546  0.559466  1
  Hf  Hf6  1  0.800454  0.199546  0.940534  1
  Hf  Hf7  1  0.800454  0.600908  0.940534  1
  Hf  Hf8  1  0.399092  0.199546  0.940534  1
  Hf  Hf9  1  0.199546  0.800454  0.059466  1
  Hf  Hf10  1  0.199546  0.399092  0.059466  1
  Hf  Hf11  1  0.600908  0.800454  0.059466  1
  Zr  Zr12  1  0.541357  0.458643  0.250000  1
  Zr  Zr13  1  0.541357  0.082713  0.250000  1
  Zr  Zr14  1  0.917287  0.458643  0.250000  1
  Zr  Zr15  1  0.458643  0.541357  0.750000  1
  Zr  Zr16  1  0.458643  0.917287  0.750000  1
  Zr  Zr17  1  0.082713  0.541357  0.750000  1
  Co  Co18  1  0.333333  0.666667  0.250000  1
  Co  Co19  1  0.666667  0.333333  0.750000  1
  Re  Re20  1  0.889346  0.110654  0.250000  1
  Re  Re21  1  0.889346  0.778693  0.250000  1
  Re  Re22  1  0.221307  0.110654  0.250000  1
  Re  Re23  1  0.110654  0.889346  0.750000  1
  Re  Re24  1  0.110654  0.221307  0.750000  1
  Re  Re25  1  0.778693  0.889346  0.750000  1
  Mo  Mo26  1  0.000000  0.000000  0.000000  1
  W  W27  1  0.000000  0.000000  0.500000  1
