# generated using pymatgen
data_Tb20GaTc3Bi8
_symmetry_space_group_name_H-M   'P 1'
_cell_length_a   8.04413274
_cell_length_b   9.16218100
_cell_length_c   12.37107296
_cell_angle_alpha   90.00000000
_cell_angle_beta   89.80448234
_cell_angle_gamma   90.00000000
_symmetry_Int_Tables_number   1
_chemical_formula_structural   Tb20GaTc3Bi8
_chemical_formula_sum   'Tb20 Ga1 Tc3 Bi8'
_cell_volume   911.76503829
_cell_formula_units_Z   1
loop_
 _symmetry_equiv_pos_site_id
 _symmetry_equiv_pos_as_xyz
  1  'x, y, z'
loop_
 _atom_site_type_symbol
 _atom_site_label
 _atom_site_symmetry_multiplicity
 _atom_site_fract_x
 _atom_site_fract_y
 _atom_site_fract_z
 _atom_site_occupancy
  Tb  Tb0  1  0.846250  0.750000  0.793762  1
  Tb  Tb1  1  0.156662  0.250000  0.209018  1
  Tb  Tb2  1  0.340430  0.250000  0.711206  1
  Tb  Tb3  1  0.671775  0.750000  0.278788  1
  Tb  Tb4  1  0.364274  0.750000  0.704261  1
  Tb  Tb5  1  0.624084  0.250000  0.304036  1
  Tb  Tb6  1  0.879837  0.250000  0.805255  1
  Tb  Tb7  1  0.125421  0.750000  0.197501  1
  Tb  Tb8  1  0.964475  0.750000  0.501315  1
  Tb  Tb9  1  0.046031  0.250000  0.496801  1
  Tb  Tb10  1  0.446998  0.250000  0.996120  1
  Tb  Tb11  1  0.550114  0.750000  0.001267  1
  Tb  Tb12  1  0.677944  0.053425  0.564158  1
  Tb  Tb13  1  0.319293  0.968994  0.434461  1
  Tb  Tb14  1  0.175835  0.959970  0.938100  1
  Tb  Tb15  1  0.319293  0.531006  0.434461  1
  Tb  Tb16  1  0.823250  0.038138  0.062824  1
  Tb  Tb17  1  0.677944  0.446575  0.564158  1
  Tb  Tb18  1  0.823250  0.461862  0.062824  1
  Tb  Tb19  1  0.175835  0.540030  0.938100  1
  Ga  Ga20  1  0.576387  0.750000  0.513846  1
  Tc  Tc21  1  0.417359  0.250000  0.486817  1
  Tc  Tc22  1  0.079858  0.250000  0.987148  1
  Tc  Tc23  1  0.918464  0.750000  0.017139  1
  Bi  Bi24  1  0.572219  0.493381  0.824761  1
  Bi  Bi25  1  0.429668  0.507772  0.173191  1
  Bi  Bi26  1  0.072660  0.507465  0.670434  1
  Bi  Bi27  1  0.429668  0.992228  0.173191  1
  Bi  Bi28  1  0.924922  0.492265  0.329931  1
  Bi  Bi29  1  0.572219  0.006619  0.824761  1
  Bi  Bi30  1  0.924922  0.007735  0.329931  1
  Bi  Bi31  1  0.072660  0.992535  0.670434  1
