# generated using pymatgen
data_Er3Lu7(Bi2Ir)2
_symmetry_space_group_name_H-M   'P 1'
_cell_length_a   7.83340516
_cell_length_b   8.94456400
_cell_length_c   12.39239924
_cell_angle_alpha   90.00000000
_cell_angle_beta   89.97710704
_cell_angle_gamma   90.00000000
_symmetry_Int_Tables_number   1
_chemical_formula_structural   Er3Lu7(Bi2Ir)2
_chemical_formula_sum   'Er6 Lu14 Bi8 Ir4'
_cell_volume   868.29065597
_cell_formula_units_Z   2
loop_
 _symmetry_equiv_pos_site_id
 _symmetry_equiv_pos_as_xyz
  1  'x, y, z'
loop_
 _atom_site_type_symbol
 _atom_site_label
 _atom_site_symmetry_multiplicity
 _atom_site_fract_x
 _atom_site_fract_y
 _atom_site_fract_z
 _atom_site_occupancy
  Er  Er0  1  0.627869  0.250000  0.688970  1
  Er  Er1  1  0.372131  0.750000  0.311030  1
  Er  Er2  1  0.556644  0.750000  0.998079  1
  Er  Er3  1  0.443356  0.250000  0.001921  1
  Er  Er4  1  0.056496  0.250000  0.501982  1
  Er  Er5  1  0.943504  0.750000  0.498018  1
  Lu  Lu6  1  0.660534  0.750000  0.706544  1
  Lu  Lu7  1  0.339466  0.250000  0.293456  1
  Lu  Lu8  1  0.160449  0.250000  0.793696  1
  Lu  Lu9  1  0.839551  0.750000  0.206304  1
  Lu  Lu10  1  0.127080  0.750000  0.812173  1
  Lu  Lu11  1  0.872920  0.250000  0.187827  1
  Lu  Lu12  1  0.828859  0.459072  0.932366  1
  Lu  Lu13  1  0.171141  0.540928  0.067634  1
  Lu  Lu14  1  0.328496  0.541220  0.567956  1
  Lu  Lu15  1  0.171141  0.959072  0.067634  1
  Lu  Lu16  1  0.671504  0.458780  0.432044  1
  Lu  Lu17  1  0.828859  0.040928  0.932366  1
  Lu  Lu18  1  0.671504  0.041220  0.432044  1
  Lu  Lu19  1  0.328496  0.958780  0.567956  1
  Bi  Bi20  1  0.937819  0.007079  0.673328  1
  Bi  Bi21  1  0.062181  0.992921  0.326672  1
  Bi  Bi22  1  0.436893  0.992225  0.826882  1
  Bi  Bi23  1  0.062181  0.507079  0.326672  1
  Bi  Bi24  1  0.563107  0.007775  0.173118  1
  Bi  Bi25  1  0.937819  0.492921  0.673328  1
  Bi  Bi26  1  0.563107  0.492225  0.173118  1
  Bi  Bi27  1  0.436893  0.507775  0.826882  1
  Ir  Ir28  1  0.930593  0.750000  0.992616  1
  Ir  Ir29  1  0.069407  0.250000  0.007384  1
  Ir  Ir30  1  0.429668  0.250000  0.506518  1
  Ir  Ir31  1  0.570332  0.750000  0.493482  1
