# generated using pymatgen
data_Pr5NdDy10(CdIr)4
_symmetry_space_group_name_H-M   'P 1'
_cell_length_a   9.77743603
_cell_length_b   9.77863509
_cell_length_c   9.77863609
_cell_angle_alpha   59.99014135
_cell_angle_beta   60.00405496
_cell_angle_gamma   60.00405005
_symmetry_Int_Tables_number   1
_chemical_formula_structural   Pr5NdDy10(CdIr)4
_chemical_formula_sum   'Pr5 Nd1 Dy10 Cd4 Ir4'
_cell_volume   661.09022667
_cell_formula_units_Z   1
loop_
 _symmetry_equiv_pos_site_id
 _symmetry_equiv_pos_as_xyz
  1  'x, y, z'
loop_
 _atom_site_type_symbol
 _atom_site_label
 _atom_site_symmetry_multiplicity
 _atom_site_fract_x
 _atom_site_fract_y
 _atom_site_fract_z
 _atom_site_occupancy
  Pr  Pr0  1  0.558141  0.941859  0.941859  1
  Pr  Pr1  1  0.559047  0.941149  0.558234  1
  Pr  Pr2  1  0.941569  0.558234  0.941149  1
  Pr  Pr3  1  0.559047  0.558234  0.941149  1
  Pr  Pr4  1  0.941569  0.941149  0.558234  1
  Nd  Nd5  1  0.941493  0.558507  0.558507  1
  Dy  Dy6  1  0.346438  0.347652  0.347652  1
  Dy  Dy7  1  0.347129  0.348134  0.957606  1
  Dy  Dy8  1  0.347129  0.957606  0.348134  1
  Dy  Dy9  1  0.958257  0.347652  0.347652  1
  Dy  Dy10  1  0.812410  0.187590  0.187590  1
  Dy  Dy11  1  0.187543  0.812457  0.812457  1
  Dy  Dy12  1  0.188222  0.811768  0.187029  1
  Dy  Dy13  1  0.812982  0.187029  0.811768  1
  Dy  Dy14  1  0.188222  0.187029  0.811768  1
  Dy  Dy15  1  0.812982  0.811768  0.187029  1
  Cd  Cd16  1  0.579616  0.579192  0.579192  1
  Cd  Cd17  1  0.579360  0.579488  0.261790  1
  Cd  Cd18  1  0.579360  0.261790  0.579488  1
  Cd  Cd19  1  0.261998  0.579192  0.579192  1
  Ir  Ir20  1  0.140458  0.141800  0.141800  1
  Ir  Ir21  1  0.140540  0.142661  0.576259  1
  Ir  Ir22  1  0.140540  0.576259  0.142661  1
  Ir  Ir23  1  0.575943  0.141800  0.141800  1
