# generated using pymatgen
data_HoEr(IrO4)2
_symmetry_space_group_name_H-M   'P 1'
_cell_length_a   5.32675677
_cell_length_b   7.61372732
_cell_length_c   7.37292306
_cell_angle_alpha   80.87483060
_cell_angle_beta   90.75358404
_cell_angle_gamma   92.83738221
_symmetry_Int_Tables_number   1
_chemical_formula_structural   HoEr(IrO4)2
_chemical_formula_sum   'Ho2 Er2 Ir4 O16'
_cell_volume   294.86923062
_cell_formula_units_Z   2
loop_
 _symmetry_equiv_pos_site_id
 _symmetry_equiv_pos_as_xyz
  1  'x, y, z'
loop_
 _atom_site_type_symbol
 _atom_site_label
 _atom_site_symmetry_multiplicity
 _atom_site_fract_x
 _atom_site_fract_y
 _atom_site_fract_z
 _atom_site_occupancy
  Ho  Ho0  1  0.264318  0.127939  0.612414  1
  Ho  Ho1  1  0.735682  0.872061  0.387586  1
  Er  Er2  1  0.202561  0.163501  0.106708  1
  Er  Er3  1  0.797439  0.836499  0.893292  1
  Ir  Ir4  1  0.238293  0.660281  0.203195  1
  Ir  Ir5  1  0.761707  0.339719  0.796805  1
  Ir  Ir6  1  0.718906  0.337254  0.300606  1
  Ir  Ir7  1  0.281094  0.662746  0.699394  1
  O  O8  1  0.080629  0.445788  0.687500  1
  O  O9  1  0.919371  0.554212  0.312500  1
  O  O10  1  0.606997  0.327842  0.553196  1
  O  O11  1  0.393003  0.672158  0.446804  1
  O  O12  1  0.866205  0.332302  0.055507  1
  O  O13  1  0.133795  0.667698  0.944493  1
  O  O14  1  0.400990  0.437053  0.192225  1
  O  O15  1  0.599010  0.562947  0.807775  1
  O  O16  1  0.043469  0.887698  0.172219  1
  O  O17  1  0.956531  0.112302  0.827781  1
  O  O18  1  0.498778  0.107593  0.321783  1
  O  O19  1  0.501222  0.892407  0.678217  1
  O  O20  1  0.458264  0.199003  0.876491  1
  O  O21  1  0.541736  0.800997  0.123509  1
  O  O22  1  0.986164  0.169642  0.382120  1
  O  O23  1  0.013836  0.830358  0.617880  1
