# generated using pymatgen
data_Cu2Pd(CO4)2
_symmetry_space_group_name_H-M   'P 1'
_cell_length_a   5.73768800
_cell_length_b   5.11932932
_cell_length_c   10.75459038
_cell_angle_alpha   81.94203939
_cell_angle_beta   90.00000000
_cell_angle_gamma   90.00000000
_symmetry_Int_Tables_number   1
_chemical_formula_structural   Cu2Pd(CO4)2
_chemical_formula_sum   'Cu4 Pd2 C4 O16'
_cell_volume   312.77690267
_cell_formula_units_Z   2
loop_
 _symmetry_equiv_pos_site_id
 _symmetry_equiv_pos_as_xyz
  1  'x, y, z'
loop_
 _atom_site_type_symbol
 _atom_site_label
 _atom_site_symmetry_multiplicity
 _atom_site_fract_x
 _atom_site_fract_y
 _atom_site_fract_z
 _atom_site_occupancy
  Cu  Cu0  1  0.003095  0.757929  0.583579  1
  Cu  Cu1  1  0.503095  0.242071  0.916421  1
  Cu  Cu2  1  0.996905  0.242071  0.416421  1
  Cu  Cu3  1  0.496905  0.757929  0.083579  1
  Pd  Pd4  1  0.500000  0.000000  0.500000  1
  Pd  Pd5  1  0.000000  0.000000  0.000000  1
  C  C6  1  0.807136  0.674030  0.817728  1
  C  C7  1  0.307136  0.325970  0.682272  1
  C  C8  1  0.192864  0.325970  0.182272  1
  C  C9  1  0.692864  0.674030  0.317728  1
  O  O10  1  0.322913  0.937711  0.951459  1
  O  O11  1  0.822913  0.062289  0.548541  1
  O  O12  1  0.677087  0.062289  0.048541  1
  O  O13  1  0.177087  0.937711  0.451459  1
  O  O14  1  0.912436  0.891850  0.829683  1
  O  O15  1  0.412436  0.108150  0.670317  1
  O  O16  1  0.087564  0.108150  0.170317  1
  O  O17  1  0.587564  0.891850  0.329683  1
  O  O18  1  0.704321  0.539254  0.913627  1
  O  O19  1  0.204321  0.460746  0.586373  1
  O  O20  1  0.295679  0.460746  0.086373  1
  O  O21  1  0.795679  0.539254  0.413627  1
  O  O22  1  0.803504  0.589034  0.710111  1
  O  O23  1  0.303504  0.410966  0.789889  1
  O  O24  1  0.196496  0.410966  0.289889  1
  O  O25  1  0.696496  0.589034  0.210111  1
