# generated using pymatgen
data_Pr3SmGa4(SiPt)6
_symmetry_space_group_name_H-M   'P 1'
_cell_length_a   8.43664803
_cell_length_b   8.42510431
_cell_length_c   8.42510499
_cell_angle_alpha   137.90131966
_cell_angle_beta   105.97899865
_cell_angle_gamma   88.98986284
_symmetry_Int_Tables_number   1
_chemical_formula_structural   Pr3SmGa4(SiPt)6
_chemical_formula_sum   'Pr3 Sm1 Ga4 Si6 Pt6'
_cell_volume   369.42908645
_cell_formula_units_Z   1
loop_
 _symmetry_equiv_pos_site_id
 _symmetry_equiv_pos_as_xyz
  1  'x, y, z'
loop_
 _atom_site_type_symbol
 _atom_site_label
 _atom_site_symmetry_multiplicity
 _atom_site_fract_x
 _atom_site_fract_y
 _atom_site_fract_z
 _atom_site_occupancy
  Pr  Pr0  1  0.634336  0.368566  0.265769  1
  Pr  Pr1  1  0.365632  0.631453  0.734178  1
  Pr  Pr2  1  0.102432  0.868302  0.234132  1
  Sm  Sm3  1  0.897603  0.131233  0.766369  1
  Ga  Ga4  1  0.269064  0.519440  0.249297  1
  Ga  Ga5  1  0.730256  0.479482  0.750016  1
  Ga  Ga6  1  0.730256  0.980240  0.250774  1
  Ga  Ga7  1  0.269064  0.019767  0.749624  1
  Si  Si8  1  0.457706  0.107296  0.350409  1
  Si  Si9  1  0.543391  0.893658  0.649734  1
  Si  Si10  1  0.757048  0.607300  0.149749  1
  Si  Si11  1  0.242740  0.392229  0.850511  1
  Si  Si12  1  0.000022  0.250172  0.249480  1
  Si  Si13  1  0.000022  0.750541  0.749850  1
  Pt  Pt14  1  0.243163  0.127538  0.115623  1
  Pt  Pt15  1  0.757239  0.873245  0.883995  1
  Pt  Pt16  1  0.010979  0.627536  0.383443  1
  Pt  Pt17  1  0.987888  0.371716  0.616171  1
  Pt  Pt18  1  0.500580  0.250193  0.750487  1
  Pt  Pt19  1  0.500580  0.750094  0.250387  1
