# generated using pymatgen
data_Ti2MnBe(BIr2)2
_symmetry_space_group_name_H-M   'P 1'
_cell_length_a   8.99491200
_cell_length_b   8.99491200
_cell_length_c   2.92933600
_cell_angle_alpha   90.00000000
_cell_angle_beta   90.00000000
_cell_angle_gamma   90.00000000
_symmetry_Int_Tables_number   1
_chemical_formula_structural   Ti2MnBe(BIr2)2
_chemical_formula_sum   'Ti4 Mn2 Be2 B4 Ir8'
_cell_volume   237.00801153
_cell_formula_units_Z   2
loop_
 _symmetry_equiv_pos_site_id
 _symmetry_equiv_pos_as_xyz
  1  'x, y, z'
loop_
 _atom_site_type_symbol
 _atom_site_label
 _atom_site_symmetry_multiplicity
 _atom_site_fract_x
 _atom_site_fract_y
 _atom_site_fract_z
 _atom_site_occupancy
  Ti  Ti0  1  0.330343  0.169657  0.000000  1
  Ti  Ti1  1  0.830343  0.330343  0.000000  1
  Ti  Ti2  1  0.169657  0.669657  0.000000  1
  Ti  Ti3  1  0.669657  0.830343  0.000000  1
  Mn  Mn4  1  0.500000  0.000000  0.499999  1
  Mn  Mn5  1  0.000000  0.500000  0.499999  1
  Be  Be6  1  0.000000  0.000000  0.000000  1
  Be  Be7  1  0.500000  0.500000  0.000000  1
  B  B8  1  0.618328  0.118328  0.000000  1
  B  B9  1  0.118328  0.381672  0.000000  1
  B  B10  1  0.881671  0.618328  0.000000  1
  B  B11  1  0.381672  0.881671  0.000000  1
  Ir  Ir12  1  0.789841  0.067027  0.499999  1
  Ir  Ir13  1  0.067027  0.210159  0.499999  1
  Ir  Ir14  1  0.567026  0.289841  0.499999  1
  Ir  Ir15  1  0.289841  0.432974  0.499999  1
  Ir  Ir16  1  0.710158  0.567026  0.499999  1
  Ir  Ir17  1  0.432974  0.710158  0.499999  1
  Ir  Ir18  1  0.932973  0.789841  0.499999  1
  Ir  Ir19  1  0.210159  0.932973  0.499999  1
