# generated using pymatgen
data_TbTmMnIr3
_symmetry_space_group_name_H-M   'P 1'
_cell_length_a   5.17379448
_cell_length_b   5.17379453
_cell_length_c   5.17379406
_cell_angle_alpha   63.85430446
_cell_angle_beta   63.85430629
_cell_angle_gamma   63.85431017
_symmetry_Int_Tables_number   1
_chemical_formula_structural   TbTmMnIr3
_chemical_formula_sum   'Tb1 Tm1 Mn1 Ir3'
_cell_volume   106.25205059
_cell_formula_units_Z   1
loop_
 _symmetry_equiv_pos_site_id
 _symmetry_equiv_pos_as_xyz
  1  'x, y, z'
loop_
 _atom_site_type_symbol
 _atom_site_label
 _atom_site_symmetry_multiplicity
 _atom_site_fract_x
 _atom_site_fract_y
 _atom_site_fract_z
 _atom_site_occupancy
  Tb  Tb0  1  0.251117  0.251117  0.251117  1
  Tm  Tm1  1  0.998232  0.998232  0.998232  1
  Mn  Mn2  1  0.625081  0.625081  0.625081  1
  Ir  Ir3  1  0.625427  0.625427  0.124717  1
  Ir  Ir4  1  0.625427  0.124717  0.625427  1
  Ir  Ir5  1  0.124717  0.625427  0.625427  1
