# generated using pymatgen
data_DyMnNbB2Ru5
_symmetry_space_group_name_H-M   'P 1'
_cell_length_a   9.43426761
_cell_length_b   9.43426704
_cell_length_c   3.04880100
_cell_angle_alpha   90.00000000
_cell_angle_beta   90.00000000
_cell_angle_gamma   91.02656976
_symmetry_Int_Tables_number   1
_chemical_formula_structural   DyMnNbB2Ru5
_chemical_formula_sum   'Dy2 Mn2 Nb2 B4 Ru10'
_cell_volume   271.31619763
_cell_formula_units_Z   2
loop_
 _symmetry_equiv_pos_site_id
 _symmetry_equiv_pos_as_xyz
  1  'x, y, z'
loop_
 _atom_site_type_symbol
 _atom_site_label
 _atom_site_symmetry_multiplicity
 _atom_site_fract_x
 _atom_site_fract_y
 _atom_site_fract_z
 _atom_site_occupancy
  Dy  Dy0  1  0.822647  0.677353  0.000000  1
  Dy  Dy1  1  0.177353  0.322647  0.000000  1
  Mn  Mn2  1  0.500000  0.500000  0.000000  1
  Mn  Mn3  1  0.000000  0.000000  0.000000  1
  Nb  Nb4  1  0.324223  0.824223  0.000000  1
  Nb  Nb5  1  0.675777  0.175777  0.000000  1
  B  B6  1  0.622182  0.877818  0.000000  1
  B  B7  1  0.377818  0.122182  0.000000  1
  B  B8  1  0.123989  0.623989  0.000000  1
  B  B9  1  0.876011  0.376011  0.000000  1
  Ru  Ru10  1  0.558479  0.719392  0.500000  1
  Ru  Ru11  1  0.441521  0.280608  0.500000  1
  Ru  Ru12  1  0.081480  0.788970  0.500000  1
  Ru  Ru13  1  0.918520  0.211030  0.500000  1
  Ru  Ru14  1  0.288970  0.581480  0.500000  1
  Ru  Ru15  1  0.711030  0.418520  0.500000  1
  Ru  Ru16  1  0.219392  0.058479  0.500000  1
  Ru  Ru17  1  0.780608  0.941521  0.500000  1
  Ru  Ru18  1  0.500000  0.000000  0.500000  1
  Ru  Ru19  1  0.000000  0.500000  0.500000  1
