# generated using pymatgen
data_SrZrNiAs2
_symmetry_space_group_name_H-M   'P 1'
_cell_length_a   4.15590100
_cell_length_b   4.15590175
_cell_length_c   14.40551700
_cell_angle_alpha   90.00000000
_cell_angle_beta   90.00000000
_cell_angle_gamma   119.99998605
_symmetry_Int_Tables_number   1
_chemical_formula_structural   SrZrNiAs2
_chemical_formula_sum   'Sr2 Zr2 Ni2 As4'
_cell_volume   215.47158566
_cell_formula_units_Z   2
loop_
 _symmetry_equiv_pos_site_id
 _symmetry_equiv_pos_as_xyz
  1  'x, y, z'
loop_
 _atom_site_type_symbol
 _atom_site_label
 _atom_site_symmetry_multiplicity
 _atom_site_fract_x
 _atom_site_fract_y
 _atom_site_fract_z
 _atom_site_occupancy
  Sr  Sr0  1  0.666667  0.333333  0.390233  1
  Sr  Sr1  1  0.333333  0.666667  0.890233  1
  Zr  Zr2  1  0.333333  0.666667  0.624742  1
  Zr  Zr3  1  0.666667  0.333333  0.124742  1
  Ni  Ni4  1  0.000000  0.000000  0.704550  1
  Ni  Ni5  1  0.000000  0.000000  0.204550  1
  As  As6  1  0.333333  0.666667  0.249570  1
  As  As7  1  0.000000  0.000000  0.030905  1
  As  As8  1  0.000000  0.000000  0.530905  1
  As  As9  1  0.666667  0.333333  0.749570  1
