# generated using pymatgen
data_Tb3Ho5(GeBr6)2
_symmetry_space_group_name_H-M   'P 1'
_cell_length_a   4.06814800
_cell_length_b   13.25374390
_cell_length_c   14.04136119
_cell_angle_alpha   90.06790711
_cell_angle_beta   90.00000000
_cell_angle_gamma   90.00000000
_symmetry_Int_Tables_number   1
_chemical_formula_structural   Tb3Ho5(GeBr6)2
_chemical_formula_sum   'Tb3 Ho5 Ge2 Br12'
_cell_volume   757.08427336
_cell_formula_units_Z   1
loop_
 _symmetry_equiv_pos_site_id
 _symmetry_equiv_pos_as_xyz
  1  'x, y, z'
loop_
 _atom_site_type_symbol
 _atom_site_label
 _atom_site_symmetry_multiplicity
 _atom_site_fract_x
 _atom_site_fract_y
 _atom_site_fract_z
 _atom_site_occupancy
  Tb  Tb0  1  0.000000  0.881329  0.421124  1
  Tb  Tb1  1  0.000000  0.619325  0.920701  1
  Tb  Tb2  1  0.000000  0.380643  0.079260  1
  Ho  Ho3  1  0.500000  0.118329  0.341004  1
  Ho  Ho4  1  0.500000  0.881877  0.659148  1
  Ho  Ho5  1  0.500000  0.618304  0.159181  1
  Ho  Ho6  1  0.500000  0.381593  0.840750  1
  Ho  Ho7  1  0.000000  0.118580  0.578803  1
  Ge  Ge8  1  0.500000  0.000974  0.500659  1
  Ge  Ge9  1  0.500000  0.499950  0.999920  1
  Br  Br10  1  0.500000  0.242656  0.164209  1
  Br  Br11  1  0.500000  0.757462  0.835870  1
  Br  Br12  1  0.500000  0.743104  0.336211  1
  Br  Br13  1  0.500000  0.255132  0.662900  1
  Br  Br14  1  0.000000  0.254444  0.411261  1
  Br  Br15  1  0.000000  0.745284  0.589990  1
  Br  Br16  1  0.000000  0.754875  0.090102  1
  Br  Br17  1  0.000000  0.245065  0.909789  1
  Br  Br18  1  0.000000  0.003411  0.243079  1
  Br  Br19  1  0.000000  0.997898  0.756155  1
  Br  Br20  1  0.000000  0.503453  0.257107  1
  Br  Br21  1  0.000000  0.496311  0.742777  1
