# generated using pymatgen
data_V4Ga2MoOs
_symmetry_space_group_name_H-M   'P 1'
_cell_length_a   4.80390558
_cell_length_b   4.86992658
_cell_length_c   4.77515700
_cell_angle_alpha   90.00000000
_cell_angle_beta   90.00000000
_cell_angle_gamma   90.05607801
_symmetry_Int_Tables_number   1
_chemical_formula_structural   V4Ga2MoOs
_chemical_formula_sum   'V4 Ga2 Mo1 Os1'
_cell_volume   111.71315659
_cell_formula_units_Z   1
loop_
 _symmetry_equiv_pos_site_id
 _symmetry_equiv_pos_as_xyz
  1  'x, y, z'
loop_
 _atom_site_type_symbol
 _atom_site_label
 _atom_site_symmetry_multiplicity
 _atom_site_fract_x
 _atom_site_fract_y
 _atom_site_fract_z
 _atom_site_occupancy
  V  V0  1  0.495735  0.749138  0.000000  1
  V  V1  1  0.753002  0.005183  0.500000  1
  V  V2  1  0.003163  0.496880  0.250334  1
  V  V3  1  0.003163  0.496880  0.749666  1
  Ga  Ga4  1  0.507058  0.507991  0.500000  1
  Ga  Ga5  1  0.991822  0.989740  0.000000  1
  Mo  Mo6  1  0.248411  0.001700  0.500000  1
  Os  Os7  1  0.497646  0.252487  0.000000  1
