# generated using pymatgen
data_LuNbFe4P3
_symmetry_space_group_name_H-M   'P 1'
_cell_length_a   3.66863500
_cell_length_b   10.44026400
_cell_length_c   12.27794100
_cell_angle_alpha   90.00000000
_cell_angle_beta   90.00000000
_cell_angle_gamma   90.00000000
_symmetry_Int_Tables_number   1
_chemical_formula_structural   LuNbFe4P3
_chemical_formula_sum   'Lu4 Nb4 Fe16 P12'
_cell_volume   470.26377723
_cell_formula_units_Z   4
loop_
 _symmetry_equiv_pos_site_id
 _symmetry_equiv_pos_as_xyz
  1  'x, y, z'
loop_
 _atom_site_type_symbol
 _atom_site_label
 _atom_site_symmetry_multiplicity
 _atom_site_fract_x
 _atom_site_fract_y
 _atom_site_fract_z
 _atom_site_occupancy
  Lu  Lu0  1  0.250000  0.584349  0.713007  1
  Lu  Lu1  1  0.250000  0.915651  0.213007  1
  Lu  Lu2  1  0.750000  0.415651  0.286993  1
  Lu  Lu3  1  0.750000  0.084349  0.786993  1
  Nb  Nb4  1  0.250000  0.705322  0.991006  1
  Nb  Nb5  1  0.250000  0.794678  0.491006  1
  Nb  Nb6  1  0.750000  0.294678  0.008994  1
  Nb  Nb7  1  0.750000  0.205322  0.508994  1
  Fe  Fe8  1  0.250000  0.416356  0.492075  1
  Fe  Fe9  1  0.250000  0.083645  0.992075  1
  Fe  Fe10  1  0.750000  0.583644  0.507925  1
  Fe  Fe11  1  0.750000  0.916356  0.007925  1
  Fe  Fe12  1  0.250000  0.216970  0.173307  1
  Fe  Fe13  1  0.250000  0.283030  0.673307  1
  Fe  Fe14  1  0.750000  0.783030  0.826693  1
  Fe  Fe15  1  0.750000  0.716970  0.326693  1
  Fe  Fe16  1  0.250000  0.879344  0.699841  1
  Fe  Fe17  1  0.250000  0.620656  0.199841  1
  Fe  Fe18  1  0.750000  0.120656  0.300159  1
  Fe  Fe19  1  0.750000  0.379344  0.800159  1
  Fe  Fe20  1  0.250000  0.463868  0.932785  1
  Fe  Fe21  1  0.250000  0.036132  0.432785  1
  Fe  Fe22  1  0.750000  0.536132  0.067215  1
  Fe  Fe23  1  0.750000  0.963868  0.567215  1
  P  P24  1  0.250000  0.427096  0.114070  1
  P  P25  1  0.250000  0.072904  0.614070  1
  P  P26  1  0.750000  0.572904  0.885930  1
  P  P27  1  0.750000  0.927096  0.385930  1
  P  P28  1  0.250000  0.270446  0.856897  1
  P  P29  1  0.250000  0.229554  0.356897  1
  P  P30  1  0.750000  0.729554  0.143103  1
  P  P31  1  0.750000  0.770446  0.643103  1
  P  P32  1  0.250000  0.592575  0.377985  1
  P  P33  1  0.250000  0.907425  0.877985  1
  P  P34  1  0.750000  0.407425  0.622015  1
  P  P35  1  0.750000  0.092575  0.122015  1
