# generated using pymatgen
data_Lu4Ga2B4(RuRh)5
_symmetry_space_group_name_H-M   'P 1'
_cell_length_a   9.52408585
_cell_length_b   9.52538085
_cell_length_c   3.08116500
_cell_angle_alpha   90.00000000
_cell_angle_beta   90.00000000
_cell_angle_gamma   90.04851480
_symmetry_Int_Tables_number   1
_chemical_formula_structural   Lu4Ga2B4(RuRh)5
_chemical_formula_sum   'Lu4 Ga2 B4 Ru5 Rh5'
_cell_volume   279.52486795
_cell_formula_units_Z   1
loop_
 _symmetry_equiv_pos_site_id
 _symmetry_equiv_pos_as_xyz
  1  'x, y, z'
loop_
 _atom_site_type_symbol
 _atom_site_label
 _atom_site_symmetry_multiplicity
 _atom_site_fract_x
 _atom_site_fract_y
 _atom_site_fract_z
 _atom_site_occupancy
  Lu  Lu0  1  0.827104  0.322593  0.000000  1
  Lu  Lu1  1  0.322942  0.173626  0.000000  1
  Lu  Lu2  1  0.674818  0.828280  0.000000  1
  Lu  Lu3  1  0.175788  0.675846  0.000000  1
  Ga  Ga4  1  0.000434  0.001546  0.000000  1
  Ga  Ga5  1  0.499621  0.499698  0.000000  1
  B  B6  1  0.626327  0.117592  0.000000  1
  B  B7  1  0.118551  0.373915  0.000000  1
  B  B8  1  0.879918  0.621032  0.000000  1
  B  B9  1  0.373809  0.881877  0.000000  1
  Ru  Ru10  1  0.070732  0.217615  0.500000  1
  Ru  Ru11  1  0.216489  0.929641  0.500000  1
  Ru  Ru12  1  0.783814  0.069989  0.500000  1
  Ru  Ru13  1  0.499165  0.000381  0.500000  1
  Ru  Ru14  1  0.999961  0.501643  0.500000  1
  Rh  Rh15  1  0.929260  0.783782  0.500000  1
  Rh  Rh16  1  0.430794  0.715823  0.500000  1
  Rh  Rh17  1  0.569930  0.283483  0.500000  1
  Rh  Rh18  1  0.716801  0.570870  0.500000  1
  Rh  Rh19  1  0.283742  0.430768  0.500000  1
