# generated using pymatgen
data_Ho5VOsO12
_symmetry_space_group_name_H-M   'P 1'
_cell_length_a   6.77500592
_cell_length_b   6.77500473
_cell_length_c   7.38439200
_cell_angle_alpha   74.04061721
_cell_angle_beta   74.04062190
_cell_angle_gamma   50.28381561
_symmetry_Int_Tables_number   1
_chemical_formula_structural   Ho5VOsO12
_chemical_formula_sum   'Ho5 V1 Os1 O12'
_cell_volume   248.40851413
_cell_formula_units_Z   1
loop_
 _symmetry_equiv_pos_site_id
 _symmetry_equiv_pos_as_xyz
  1  'x, y, z'
loop_
 _atom_site_type_symbol
 _atom_site_label
 _atom_site_symmetry_multiplicity
 _atom_site_fract_x
 _atom_site_fract_y
 _atom_site_fract_z
 _atom_site_occupancy
  Ho  Ho0  1  0.307256  0.301124  0.359534  1
  Ho  Ho1  1  0.698876  0.692744  0.640466  1
  Ho  Ho2  1  0.310480  0.313041  0.827049  1
  Ho  Ho3  1  0.686959  0.689520  0.172951  1
  Ho  Ho4  1  0.001786  0.998214  0.500000  1
  V  V5  1  0.775922  0.224078  0.000000  1
  Os  Os6  1  0.229765  0.770235  0.000000  1
  O  O7  1  0.901303  0.416409  0.918736  1
  O  O8  1  0.423227  0.911013  0.916499  1
  O  O9  1  0.088987  0.576773  0.083501  1
  O  O10  1  0.583591  0.098697  0.081264  1
  O  O11  1  0.099978  0.591776  0.575262  1
  O  O12  1  0.597721  0.095285  0.574449  1
  O  O13  1  0.904715  0.402279  0.425551  1
  O  O14  1  0.408224  0.900022  0.424738  1
  O  O15  1  0.994613  0.004485  0.803364  1
  O  O16  1  0.995515  0.005387  0.196636  1
  O  O17  1  0.495978  0.504898  0.820204  1
  O  O18  1  0.495102  0.504022  0.179796  1
