# generated using pymatgen
data_Hf18Re5(WN2)3
_symmetry_space_group_name_H-M   'P 1'
_cell_length_a   8.53910700
_cell_length_b   8.54839431
_cell_length_c   8.46488200
_cell_angle_alpha   90.00000000
_cell_angle_beta   90.00000000
_cell_angle_gamma   119.96406351
_symmetry_Int_Tables_number   1
_chemical_formula_structural   Hf18Re5(WN2)3
_chemical_formula_sum   'Hf18 Re5 W3 N6'
_cell_volume   535.31041763
_cell_formula_units_Z   1
loop_
 _symmetry_equiv_pos_site_id
 _symmetry_equiv_pos_as_xyz
  1  'x, y, z'
loop_
 _atom_site_type_symbol
 _atom_site_label
 _atom_site_symmetry_multiplicity
 _atom_site_fract_x
 _atom_site_fract_y
 _atom_site_fract_z
 _atom_site_occupancy
  Hf  Hf0  1  0.454829  0.909658  0.250000  1
  Hf  Hf1  1  0.545120  0.090239  0.750000  1
  Hf  Hf2  1  0.089931  0.545258  0.250000  1
  Hf  Hf3  1  0.909627  0.454851  0.750000  1
  Hf  Hf4  1  0.455326  0.545258  0.250000  1
  Hf  Hf5  1  0.545225  0.454851  0.750000  1
  Hf  Hf6  1  0.205003  0.410006  0.557910  1
  Hf  Hf7  1  0.795492  0.590984  0.442765  1
  Hf  Hf8  1  0.590794  0.795455  0.557338  1
  Hf  Hf9  1  0.795492  0.590984  0.057235  1
  Hf  Hf10  1  0.410213  0.205316  0.442885  1
  Hf  Hf11  1  0.205003  0.410006  0.942090  1
  Hf  Hf12  1  0.204662  0.795455  0.557338  1
  Hf  Hf13  1  0.410213  0.205316  0.057115  1
  Hf  Hf14  1  0.795103  0.205316  0.442885  1
  Hf  Hf15  1  0.590794  0.795455  0.942662  1
  Hf  Hf16  1  0.795103  0.205316  0.057115  1
  Hf  Hf17  1  0.204662  0.795455  0.942662  1
  Re  Re18  1  0.890726  0.781450  0.750000  1
  Re  Re19  1  0.779747  0.889101  0.250000  1
  Re  Re20  1  0.218885  0.109181  0.750000  1
  Re  Re21  1  0.109353  0.889101  0.250000  1
  Re  Re22  1  0.890297  0.109181  0.750000  1
  W  W23  1  0.108323  0.216647  0.250000  1
  W  W24  1  0.999726  0.999452  0.999999  1
  W  W25  1  0.999726  0.999452  0.500001  1
  N  N26  1  0.499826  0.999652  0.999961  1
  N  N27  1  0.999902  0.500487  0.999626  1
  N  N28  1  0.499826  0.999652  0.500039  1
  N  N29  1  0.500586  0.500487  0.999626  1
  N  N30  1  0.999902  0.500487  0.500374  1
  N  N31  1  0.500586  0.500487  0.500374  1
