# generated using pymatgen
data_LaDyFe3Re14C3
_symmetry_space_group_name_H-M   'P 1'
_cell_length_a   6.94843453
_cell_length_b   6.94843585
_cell_length_c   6.94843377
_cell_angle_alpha   82.65792626
_cell_angle_beta   82.65792479
_cell_angle_gamma   82.65791503
_symmetry_Int_Tables_number   1
_chemical_formula_structural   LaDyFe3Re14C3
_chemical_formula_sum   'La1 Dy1 Fe3 Re14 C3'
_cell_volume   327.87155550
_cell_formula_units_Z   1
loop_
 _symmetry_equiv_pos_site_id
 _symmetry_equiv_pos_as_xyz
  1  'x, y, z'
loop_
 _atom_site_type_symbol
 _atom_site_label
 _atom_site_symmetry_multiplicity
 _atom_site_fract_x
 _atom_site_fract_y
 _atom_site_fract_z
 _atom_site_occupancy
  La  La0  1  0.647735  0.647735  0.647735  1
  Dy  Dy1  1  0.350154  0.350154  0.350154  1
  Fe  Fe2  1  0.998616  0.998616  0.500520  1
  Fe  Fe3  1  0.500520  0.998616  0.998616  1
  Fe  Fe4  1  0.998616  0.500520  0.998616  1
  Re  Re5  1  0.721663  0.277601  0.000861  1
  Re  Re6  1  0.000861  0.721663  0.277601  1
  Re  Re7  1  0.277601  0.000861  0.721663  1
  Re  Re8  1  0.000861  0.277601  0.721663  1
  Re  Re9  1  0.721663  0.000861  0.277601  1
  Re  Re10  1  0.277601  0.721663  0.000861  1
  Re  Re11  1  0.344686  0.344686  0.865578  1
  Re  Re12  1  0.865578  0.344686  0.344686  1
  Re  Re13  1  0.344686  0.865578  0.344686  1
  Re  Re14  1  0.653790  0.653790  0.139426  1
  Re  Re15  1  0.139426  0.653790  0.653790  1
  Re  Re16  1  0.653790  0.139426  0.653790  1
  Re  Re17  1  0.898773  0.898773  0.898773  1
  Re  Re18  1  0.101839  0.101839  0.101839  1
  C  C19  1  0.495254  0.495254  0.011034  1
  C  C20  1  0.011034  0.495254  0.495254  1
  C  C21  1  0.495254  0.011034  0.495254  1
