# generated using pymatgen
data_Nd4Zn2OsRu5
_symmetry_space_group_name_H-M   'P 1'
_cell_length_a   5.41858326
_cell_length_b   5.37320406
_cell_length_c   9.00228700
_cell_angle_alpha   90.00000000
_cell_angle_beta   90.00000000
_cell_angle_gamma   118.81316991
_symmetry_Int_Tables_number   1
_chemical_formula_structural   Nd4Zn2OsRu5
_chemical_formula_sum   'Nd4 Zn2 Os1 Ru5'
_cell_volume   229.65355201
_cell_formula_units_Z   1
loop_
 _symmetry_equiv_pos_site_id
 _symmetry_equiv_pos_as_xyz
  1  'x, y, z'
loop_
 _atom_site_type_symbol
 _atom_site_label
 _atom_site_symmetry_multiplicity
 _atom_site_fract_x
 _atom_site_fract_y
 _atom_site_fract_z
 _atom_site_occupancy
  Nd  Nd0  1  0.324614  0.663076  0.432593  1
  Nd  Nd1  1  0.658302  0.331261  0.557521  1
  Nd  Nd2  1  0.658302  0.331261  0.942479  1
  Nd  Nd3  1  0.324614  0.663076  0.067407  1
  Zn  Zn4  1  0.182071  0.841342  0.750000  1
  Zn  Zn5  1  0.178406  0.341513  0.750000  1
  Os  Os6  1  0.841538  0.154631  0.250000  1
  Ru  Ru7  1  0.975337  0.997048  0.498743  1
  Ru  Ru8  1  0.975337  0.997048  0.001257  1
  Ru  Ru9  1  0.832436  0.663123  0.250000  1
  Ru  Ru10  1  0.361099  0.172932  0.250000  1
  Ru  Ru11  1  0.687942  0.843692  0.750000  1
