# generated using pymatgen
data_Tb7Sm(Si4Mo3)4
_symmetry_space_group_name_H-M   'P 1'
_cell_length_a   6.80754509
_cell_length_b   6.97957283
_cell_length_c   12.96917595
_cell_angle_alpha   90.04634750
_cell_angle_beta   90.00046164
_cell_angle_gamma   89.96760783
_symmetry_Int_Tables_number   1
_chemical_formula_structural   Tb7Sm(Si4Mo3)4
_chemical_formula_sum   'Tb7 Sm1 Si16 Mo12'
_cell_volume   616.21397113
_cell_formula_units_Z   1
loop_
 _symmetry_equiv_pos_site_id
 _symmetry_equiv_pos_as_xyz
  1  'x, y, z'
loop_
 _atom_site_type_symbol
 _atom_site_label
 _atom_site_symmetry_multiplicity
 _atom_site_fract_x
 _atom_site_fract_y
 _atom_site_fract_z
 _atom_site_occupancy
  Tb  Tb0  1  0.497127  0.333507  0.094259  1
  Tb  Tb1  1  0.997529  0.166445  0.405745  1
  Tb  Tb2  1  0.502980  0.666652  0.594343  1
  Tb  Tb3  1  0.002628  0.833731  0.905397  1
  Tb  Tb4  1  0.503094  0.666294  0.905424  1
  Tb  Tb5  1  0.002458  0.833405  0.594307  1
  Tb  Tb6  1  0.497134  0.333645  0.406161  1
  Sm  Sm7  1  0.997815  0.165812  0.093659  1
  Si  Si8  1  0.657955  0.043114  0.547901  1
  Si  Si9  1  0.158422  0.458293  0.951611  1
  Si  Si10  1  0.343883  0.955883  0.047645  1
  Si  Si11  1  0.841963  0.542492  0.452232  1
  Si  Si12  1  0.342071  0.956938  0.452303  1
  Si  Si13  1  0.841252  0.544090  0.047609  1
  Si  Si14  1  0.657026  0.042942  0.951517  1
  Si  Si15  1  0.158154  0.457431  0.547901  1
  Si  Si16  1  0.535019  0.363978  0.749831  1
  Si  Si17  1  0.035472  0.135880  0.749960  1
  Si  Si18  1  0.464708  0.635915  0.250200  1
  Si  Si19  1  0.964294  0.863101  0.250508  1
  Si  Si20  1  0.803595  0.626778  0.749884  1
  Si  Si21  1  0.303616  0.872738  0.749952  1
  Si  Si22  1  0.196859  0.374379  0.250514  1
  Si  Si23  1  0.695441  0.126916  0.250488  1
  Mo  Mo24  1  0.831414  0.334789  0.625439  1
  Mo  Mo25  1  0.330706  0.164856  0.874312  1
  Mo  Mo26  1  0.168684  0.665311  0.125520  1
  Mo  Mo27  1  0.669272  0.834969  0.374904  1
  Mo  Mo28  1  0.168798  0.665320  0.374917  1
  Mo  Mo29  1  0.669051  0.834927  0.125785  1
  Mo  Mo30  1  0.831127  0.335161  0.874124  1
  Mo  Mo31  1  0.330494  0.164791  0.625454  1
  Mo  Mo32  1  0.665752  0.000452  0.749809  1
  Mo  Mo33  1  0.165671  0.499873  0.749888  1
  Mo  Mo34  1  0.334306  0.998720  0.250335  1
  Mo  Mo35  1  0.834231  0.500471  0.250162  1
