# generated using pymatgen
data_Li3Eu4AgO8
_symmetry_space_group_name_H-M   'P 1'
_cell_length_a   3.53263900
_cell_length_b   5.50186200
_cell_length_c   11.66286688
_cell_angle_alpha   90.21764906
_cell_angle_beta   90.00000000
_cell_angle_gamma   90.00000000
_symmetry_Int_Tables_number   1
_chemical_formula_structural   Li3Eu4AgO8
_chemical_formula_sum   'Li3 Eu4 Ag1 O8'
_cell_volume   226.67892128
_cell_formula_units_Z   1
loop_
 _symmetry_equiv_pos_site_id
 _symmetry_equiv_pos_as_xyz
  1  'x, y, z'
loop_
 _atom_site_type_symbol
 _atom_site_label
 _atom_site_symmetry_multiplicity
 _atom_site_fract_x
 _atom_site_fract_y
 _atom_site_fract_z
 _atom_site_occupancy
  Li  Li0  1  0.250000  0.093140  0.066665  1
  Li  Li1  1  0.750000  0.591578  0.422616  1
  Li  Li2  1  0.750000  0.909221  0.932184  1
  Eu  Eu3  1  0.250000  0.458740  0.867042  1
  Eu  Eu4  1  0.250000  0.047757  0.354350  1
  Eu  Eu5  1  0.750000  0.542936  0.138215  1
  Eu  Eu6  1  0.750000  0.943284  0.641110  1
  Ag  Ag7  1  0.250000  0.429813  0.590750  1
  O  O8  1  0.250000  0.781504  0.517585  1
  O  O9  1  0.250000  0.746615  0.026139  1
  O  O10  1  0.750000  0.239134  0.456265  1
  O  O11  1  0.750000  0.256099  0.974893  1
  O  O12  1  0.250000  0.159187  0.720923  1
  O  O13  1  0.250000  0.304402  0.197629  1
  O  O14  1  0.750000  0.803799  0.293135  1
  O  O15  1  0.750000  0.692791  0.800498  1
