# generated using pymatgen
data_Pr4Nd16Si15Ag
_symmetry_space_group_name_H-M   'P 1'
_cell_length_a   7.88841300
_cell_length_b   7.88173154
_cell_length_c   15.16164700
_cell_angle_alpha   90.21529226
_cell_angle_beta   89.99898314
_cell_angle_gamma   90.09081371
_symmetry_Int_Tables_number   1
_chemical_formula_structural   Pr4Nd16Si15Ag
_chemical_formula_sum   'Pr4 Nd16 Si15 Ag1'
_cell_volume   942.65776220
_cell_formula_units_Z   1
loop_
 _symmetry_equiv_pos_site_id
 _symmetry_equiv_pos_as_xyz
  1  'x, y, z'
loop_
 _atom_site_type_symbol
 _atom_site_label
 _atom_site_symmetry_multiplicity
 _atom_site_fract_x
 _atom_site_fract_y
 _atom_site_fract_z
 _atom_site_occupancy
  Pr  Pr0  1  0.373100  0.483056  0.372845  1
  Pr  Pr1  1  0.873179  0.021066  0.376433  1
  Pr  Pr2  1  0.982177  0.125422  0.123672  1
  Pr  Pr3  1  0.012995  0.863596  0.622809  1
  Nd  Nd4  1  0.305733  0.306629  0.999232  1
  Nd  Nd5  1  0.192923  0.808769  0.249836  1
  Nd  Nd6  1  0.803284  0.187354  0.751312  1
  Nd  Nd7  1  0.692692  0.690623  0.499073  1
  Nd  Nd8  1  0.373561  0.011768  0.448491  1
  Nd  Nd9  1  0.492337  0.869642  0.699752  1
  Nd  Nd10  1  0.511036  0.123591  0.197742  1
  Nd  Nd11  1  0.877092  0.488384  0.300605  1
  Nd  Nd12  1  0.119687  0.518956  0.802410  1
  Nd  Nd13  1  0.626464  0.987881  0.949970  1
  Nd  Nd14  1  0.000677  0.383222  0.547713  1
  Nd  Nd15  1  0.988372  0.625584  0.051215  1
  Nd  Nd16  1  0.133340  0.983424  0.877961  1
  Nd  Nd17  1  0.518101  0.629949  0.126164  1
  Nd  Nd18  1  0.483489  0.373611  0.626896  1
  Nd  Nd19  1  0.628398  0.518245  0.875592  1
  Si  Si20  1  0.332399  0.694056  0.951091  1
  Si  Si21  1  0.663391  0.304548  0.451703  1
  Si  Si22  1  0.696769  0.334889  0.049700  1
  Si  Si23  1  0.306824  0.669895  0.547944  1
  Si  Si24  1  0.806146  0.830473  0.202099  1
  Si  Si25  1  0.169442  0.195717  0.298220  1
  Si  Si26  1  0.833740  0.804527  0.800686  1
  Si  Si27  1  0.288503  0.921008  0.060098  1
  Si  Si28  1  0.579160  0.787278  0.310068  1
  Si  Si29  1  0.434027  0.209040  0.814692  1
  Si  Si30  1  0.784334  0.577119  0.691577  1
  Si  Si31  1  0.212419  0.423241  0.189502  1
  Si  Si32  1  0.707223  0.077422  0.559758  1
  Si  Si33  1  0.922732  0.288871  0.939940  1
  Si  Si34  1  0.079392  0.713318  0.439214  1
  Ag  Ag35  1  0.194859  0.167824  0.693983  1
