# generated using pymatgen
data_Li6Hg5GePd12
_symmetry_space_group_name_H-M   'P 1'
_cell_length_a   4.12259376
_cell_length_b   7.41195040
_cell_length_c   12.49815500
_cell_angle_alpha   89.99982757
_cell_angle_beta   89.99972942
_cell_angle_gamma   89.87128831
_symmetry_Int_Tables_number   1
_chemical_formula_structural   Li6Hg5GePd12
_chemical_formula_sum   'Li6 Hg5 Ge1 Pd12'
_cell_volume   381.89841541
_cell_formula_units_Z   1
loop_
 _symmetry_equiv_pos_site_id
 _symmetry_equiv_pos_as_xyz
  1  'x, y, z'
loop_
 _atom_site_type_symbol
 _atom_site_label
 _atom_site_symmetry_multiplicity
 _atom_site_fract_x
 _atom_site_fract_y
 _atom_site_fract_z
 _atom_site_occupancy
  Li  Li0  1  0.000001  0.999998  0.000015  1
  Li  Li1  1  0.500000  0.499995  0.175578  1
  Li  Li2  1  0.000013  0.000004  0.327607  1
  Li  Li3  1  0.500002  0.499998  0.499980  1
  Li  Li4  1  0.999982  0.999999  0.672384  1
  Li  Li5  1  0.500007  0.500000  0.824436  1
  Hg  Hg6  1  0.499994  0.999998  0.154016  1
  Hg  Hg7  1  0.000014  0.500002  0.334550  1
  Hg  Hg8  1  0.500001  0.999999  0.500003  1
  Hg  Hg9  1  0.999991  0.500000  0.665461  1
  Hg  Hg10  1  0.500006  0.999999  0.845976  1
  Ge  Ge11  1  0.000001  0.500001  0.999993  1
  Pd  Pd12  1  0.500410  0.293574  0.999984  1
  Pd  Pd13  1  0.499590  0.706425  0.999983  1
  Pd  Pd14  1  0.999866  0.269603  0.156902  1
  Pd  Pd15  1  0.000150  0.730394  0.156903  1
  Pd  Pd16  1  0.500144  0.241345  0.327760  1
  Pd  Pd17  1  0.499874  0.758657  0.327762  1
  Pd  Pd18  1  0.999677  0.250260  0.500020  1
  Pd  Pd19  1  0.000326  0.749741  0.500021  1
  Pd  Pd20  1  0.500125  0.241337  0.672254  1
  Pd  Pd21  1  0.499858  0.758664  0.672253  1
  Pd  Pd22  1  0.999851  0.269619  0.843081  1
  Pd  Pd23  1  0.000135  0.730382  0.843079  1
