# generated using pymatgen
data_SrCa7Sb12
_symmetry_space_group_name_H-M   'P 1'
_cell_length_a   6.59978714
_cell_length_b   12.76276400
_cell_length_c   14.92528200
_cell_angle_alpha   90.00000000
_cell_angle_beta   90.01171129
_cell_angle_gamma   90.00000000
_symmetry_Int_Tables_number   1
_chemical_formula_structural   SrCa7Sb12
_chemical_formula_sum   'Sr2 Ca14 Sb24'
_cell_volume   1257.17924796
_cell_formula_units_Z   2
loop_
 _symmetry_equiv_pos_site_id
 _symmetry_equiv_pos_as_xyz
  1  'x, y, z'
loop_
 _atom_site_type_symbol
 _atom_site_label
 _atom_site_symmetry_multiplicity
 _atom_site_fract_x
 _atom_site_fract_y
 _atom_site_fract_z
 _atom_site_occupancy
  Sr  Sr0  1  0.501456  0.530336  0.746837  1
  Sr  Sr1  1  0.498544  0.030336  0.753163  1
  Ca  Ca2  1  0.747687  0.123803  0.004947  1
  Ca  Ca3  1  0.252313  0.623803  0.495053  1
  Ca  Ca4  1  0.256265  0.876138  0.001093  1
  Ca  Ca5  1  0.743735  0.376138  0.498907  1
  Ca  Ca6  1  0.247761  0.125530  0.494861  1
  Ca  Ca7  1  0.752239  0.625530  0.005139  1
  Ca  Ca8  1  0.746224  0.875568  0.502863  1
  Ca  Ca9  1  0.253776  0.375568  0.997137  1
  Ca  Ca10  1  0.997463  0.281488  0.248577  1
  Ca  Ca11  1  0.002537  0.781488  0.251423  1
  Ca  Ca12  1  0.002372  0.719757  0.752506  1
  Ca  Ca13  1  0.997628  0.219757  0.747494  1
  Ca  Ca14  1  0.496888  0.468924  0.250359  1
  Ca  Ca15  1  0.503112  0.968924  0.249641  1
  Sb  Sb16  1  0.748171  0.374110  0.066770  1
  Sb  Sb17  1  0.251829  0.874110  0.433230  1
  Sb  Sb18  1  0.256420  0.629507  0.935949  1
  Sb  Sb19  1  0.743580  0.129507  0.564051  1
  Sb  Sb20  1  0.432128  0.210983  0.154617  1
  Sb  Sb21  1  0.567872  0.710983  0.345383  1
  Sb  Sb22  1  0.564664  0.786277  0.845808  1
  Sb  Sb23  1  0.435336  0.286277  0.654192  1
  Sb  Sb24  1  0.568080  0.208440  0.345780  1
  Sb  Sb25  1  0.431920  0.708440  0.154220  1
  Sb  Sb26  1  0.425961  0.789726  0.651867  1
  Sb  Sb27  1  0.574039  0.289726  0.848133  1
  Sb  Sb28  1  0.930576  0.039460  0.347693  1
  Sb  Sb29  1  0.069424  0.539460  0.152307  1
  Sb  Sb30  1  0.063115  0.957815  0.651139  1
  Sb  Sb31  1  0.936885  0.457815  0.848861  1
  Sb  Sb32  1  0.066002  0.040360  0.156442  1
  Sb  Sb33  1  0.933998  0.540360  0.343558  1
  Sb  Sb34  1  0.951050  0.962133  0.846388  1
  Sb  Sb35  1  0.048950  0.462133  0.653612  1
  Sb  Sb36  1  0.245532  0.375396  0.430282  1
  Sb  Sb37  1  0.754468  0.875396  0.069718  1
  Sb  Sb38  1  0.756697  0.624248  0.560926  1
  Sb  Sb39  1  0.243303  0.124248  0.939074  1
