# generated using pymatgen
data_Na3CdAu2
_symmetry_space_group_name_H-M   'P 1'
_cell_length_a   5.76527259
_cell_length_b   5.76526931
_cell_length_c   5.92176689
_cell_angle_alpha   102.91644874
_cell_angle_beta   102.91656692
_cell_angle_gamma   122.73840916
_symmetry_Int_Tables_number   1
_chemical_formula_structural   Na3CdAu2
_chemical_formula_sum   'Na3 Cd1 Au2'
_cell_volume   146.44382025
_cell_formula_units_Z   1
loop_
 _symmetry_equiv_pos_site_id
 _symmetry_equiv_pos_as_xyz
  1  'x, y, z'
loop_
 _atom_site_type_symbol
 _atom_site_label
 _atom_site_symmetry_multiplicity
 _atom_site_fract_x
 _atom_site_fract_y
 _atom_site_fract_z
 _atom_site_occupancy
  Na  Na0  1  0.667069  0.834825  0.501894  1
  Na  Na1  1  0.159997  0.659997  0.819992  1
  Na  Na2  1  0.334825  0.167069  0.501893  1
  Cd  Cd3  1  0.825327  0.325327  0.150655  1
  Au  Au4  1  0.756391  0.756391  0.012782  1
  Au  Au5  1  0.256391  0.256391  0.012782  1
