# generated using pymatgen
data_La4Pr2Cd23P
_symmetry_space_group_name_H-M   'P 1'
_cell_length_a   10.13966420
_cell_length_b   10.13966432
_cell_length_c   10.14243400
_cell_angle_alpha   59.99095723
_cell_angle_beta   59.99095684
_cell_angle_gamma   60.07734310
_symmetry_Int_Tables_number   1
_chemical_formula_structural   La4Pr2Cd23P
_chemical_formula_sum   'La4 Pr2 Cd23 P1'
_cell_volume   737.68017044
_cell_formula_units_Z   1
loop_
 _symmetry_equiv_pos_site_id
 _symmetry_equiv_pos_as_xyz
  1  'x, y, z'
loop_
 _atom_site_type_symbol
 _atom_site_label
 _atom_site_symmetry_multiplicity
 _atom_site_fract_x
 _atom_site_fract_y
 _atom_site_fract_z
 _atom_site_occupancy
  La  La0  1  0.795338  0.795338  0.204292  1
  La  La1  1  0.204675  0.795325  0.204316  1
  La  La2  1  0.795325  0.204675  0.204316  1
  La  La3  1  0.204662  0.204662  0.794969  1
  Pr  Pr4  1  0.796022  0.203978  0.795650  1
  Pr  Pr5  1  0.203978  0.796022  0.795650  1
  Cd  Cd6  1  0.832236  0.832236  0.503052  1
  Cd  Cd7  1  0.832280  0.502588  0.832134  1
  Cd  Cd8  1  0.502588  0.832280  0.832134  1
  Cd  Cd9  1  0.833071  0.833071  0.832412  1
  Cd  Cd10  1  0.166929  0.166929  0.498556  1
  Cd  Cd11  1  0.167720  0.497412  0.167003  1
  Cd  Cd12  1  0.497412  0.167720  0.167003  1
  Cd  Cd13  1  0.167764  0.167764  0.167525  1
  Cd  Cd14  1  0.621238  0.621238  0.136236  1
  Cd  Cd15  1  0.621632  0.136297  0.621604  1
  Cd  Cd16  1  0.136297  0.621632  0.621604  1
  Cd  Cd17  1  0.620767  0.620767  0.621940  1
  Cd  Cd18  1  0.379233  0.379233  0.863473  1
  Cd  Cd19  1  0.378368  0.863703  0.379532  1
  Cd  Cd20  1  0.863703  0.378368  0.379532  1
  Cd  Cd21  1  0.378762  0.378762  0.378713  1
  Cd  Cd22  1  0.000000  0.000000  0.500245  1
  Cd  Cd23  1  0.499794  0.999857  0.500027  1
  Cd  Cd24  1  0.999857  0.499794  0.500027  1
  Cd  Cd25  1  0.500000  0.500000  0.999495  1
  Cd  Cd26  1  0.000143  0.500206  0.999678  1
  Cd  Cd27  1  0.500206  0.000143  0.999678  1
  Cd  Cd28  1  0.500000  0.500000  0.499944  1
  P  P29  1  0.000000  0.000000  0.999261  1
