# generated using pymatgen
data_Pr3Sn3PtRh2
_symmetry_space_group_name_H-M   'P 1'
_cell_length_a   7.61489600
_cell_length_b   7.61489703
_cell_length_c   4.15160700
_cell_angle_alpha   90.00000000
_cell_angle_beta   90.00000000
_cell_angle_gamma   120.00000420
_symmetry_Int_Tables_number   1
_chemical_formula_structural   Pr3Sn3PtRh2
_chemical_formula_sum   'Pr3 Sn3 Pt1 Rh2'
_cell_volume   208.48502237
_cell_formula_units_Z   1
loop_
 _symmetry_equiv_pos_site_id
 _symmetry_equiv_pos_as_xyz
  1  'x, y, z'
loop_
 _atom_site_type_symbol
 _atom_site_label
 _atom_site_symmetry_multiplicity
 _atom_site_fract_x
 _atom_site_fract_y
 _atom_site_fract_z
 _atom_site_occupancy
  Pr  Pr0  1  0.589829  0.004350  0.500000  1
  Pr  Pr1  1  0.414522  0.410171  0.500000  1
  Pr  Pr2  1  0.995650  0.585478  0.500000  1
  Sn  Sn3  1  0.250894  0.003949  0.000000  1
  Sn  Sn4  1  0.753055  0.749106  0.000000  1
  Sn  Sn5  1  0.996051  0.246945  0.000000  1
  Pt  Pt6  1  0.333333  0.666667  0.000000  1
  Rh  Rh7  1  0.000000  0.000000  0.500000  1
  Rh  Rh8  1  0.666667  0.333333  0.000000  1
