# generated using pymatgen
data_NiI28
_symmetry_space_group_name_H-M   'P 1'
_cell_length_a   10.67681737
_cell_length_b   14.33344904
_cell_length_c   12.98270300
_cell_angle_alpha   108.44914254
_cell_angle_beta   105.43469067
_cell_angle_gamma   86.57346759
_symmetry_Int_Tables_number   1
_chemical_formula_structural   NiI28
_chemical_formula_sum   'Ni1 I28'
_cell_volume   1816.08072199
_cell_formula_units_Z   1
loop_
 _symmetry_equiv_pos_site_id
 _symmetry_equiv_pos_as_xyz
  1  'x, y, z'
loop_
 _atom_site_type_symbol
 _atom_site_label
 _atom_site_symmetry_multiplicity
 _atom_site_fract_x
 _atom_site_fract_y
 _atom_site_fract_z
 _atom_site_occupancy
  Ni  Ni0  1  0.500000  0.000000  0.000000  1
  I  I1  1  0.050025  0.096810  0.411501  1
  I  I2  1  0.574199  0.125350  0.384733  1
  I  I3  1  0.305101  0.250075  0.861698  1
  I  I4  1  0.774056  0.279902  0.842902  1
  I  I5  1  0.223190  0.491551  0.653027  1
  I  I6  1  0.790306  0.603981  0.750409  1
  I  I7  1  0.425801  0.874650  0.615267  1
  I  I8  1  0.949975  0.903190  0.588499  1
  I  I9  1  0.225944  0.720098  0.157098  1
  I  I10  1  0.694899  0.749925  0.138302  1
  I  I11  1  0.209694  0.396019  0.249591  1
  I  I12  1  0.776810  0.508449  0.346973  1
  I  I13  1  0.863263  0.088713  0.718126  1
  I  I14  1  0.319232  0.961203  0.822725  1
  I  I15  1  0.011798  0.659035  0.956247  1
  I  I16  1  0.506158  0.818753  0.966112  1
  I  I17  1  0.687992  0.375152  0.432468  1
  I  I18  1  0.136924  0.246759  0.331624  1
  I  I19  1  0.680768  0.038797  0.177275  1
  I  I20  1  0.136737  0.911287  0.281874  1
  I  I21  1  0.493842  0.181247  0.033888  1
  I  I22  1  0.988202  0.340965  0.043753  1
  I  I23  1  0.863076  0.753241  0.668376  1
  I  I24  1  0.312008  0.624848  0.567532  1
  I  I25  1  0.107991  0.337214  0.718509  1
  I  I26  1  0.491899  0.205339  0.581929  1
  I  I27  1  0.508101  0.794661  0.418071  1
  I  I28  1  0.892009  0.662786  0.281491  1
