# generated using pymatgen
data_Tb4NdP12Ru19
_symmetry_space_group_name_H-M   'P 1'
_cell_length_a   3.99580000
_cell_length_b   12.57656551
_cell_length_c   12.56521501
_cell_angle_alpha   119.97275659
_cell_angle_beta   90.00000000
_cell_angle_gamma   90.00000000
_symmetry_Int_Tables_number   1
_chemical_formula_structural   Tb4NdP12Ru19
_chemical_formula_sum   'Tb4 Nd1 P12 Ru19'
_cell_volume   546.99771745
_cell_formula_units_Z   1
loop_
 _symmetry_equiv_pos_site_id
 _symmetry_equiv_pos_as_xyz
  1  'x, y, z'
loop_
 _atom_site_type_symbol
 _atom_site_label
 _atom_site_symmetry_multiplicity
 _atom_site_fract_x
 _atom_site_fract_y
 _atom_site_fract_z
 _atom_site_occupancy
  Tb  Tb0  1  0.500000  0.183663  0.999884  1
  Tb  Tb1  1  0.500000  0.816340  0.816219  1
  Tb  Tb2  1  0.000000  0.333258  0.667077  1
  Tb  Tb3  1  0.000000  0.666731  0.333824  1
  Nd  Nd4  1  0.500000  0.000004  0.183747  1
  P  P5  1  0.000000  0.999999  0.814533  1
  P  P6  1  0.000000  0.813158  0.998119  1
  P  P7  1  0.000000  0.186839  0.184960  1
  P  P8  1  0.500000  0.306105  0.477918  1
  P  P9  1  0.500000  0.171748  0.694449  1
  P  P10  1  0.500000  0.521347  0.827692  1
  P  P11  1  0.500000  0.828236  0.522689  1
  P  P12  1  0.500000  0.478650  0.306337  1
  P  P13  1  0.500000  0.693881  0.171794  1
  P  P14  1  0.000000  0.000002  0.374239  1
  P  P15  1  0.000000  0.372692  0.999844  1
  P  P16  1  0.000000  0.627296  0.627139  1
  Ru  Ru17  1  0.000000  0.000002  0.555150  1
  Ru  Ru18  1  0.000000  0.553631  0.999020  1
  Ru  Ru19  1  0.000000  0.446361  0.445394  1
  Ru  Ru20  1  0.500000  0.999992  0.716353  1
  Ru  Ru21  1  0.500000  0.714305  0.998626  1
  Ru  Ru22  1  0.500000  0.285707  0.284340  1
  Ru  Ru23  1  0.000000  0.194898  0.379251  1
  Ru  Ru24  1  0.000000  0.184846  0.807436  1
  Ru  Ru25  1  0.000000  0.621597  0.814361  1
  Ru  Ru26  1  0.000000  0.815140  0.622579  1
  Ru  Ru27  1  0.000000  0.378389  0.192770  1
  Ru  Ru28  1  0.000000  0.805101  0.184356  1
  Ru  Ru29  1  0.500000  0.125631  0.492656  1
  Ru  Ru30  1  0.500000  0.365960  0.874523  1
  Ru  Ru31  1  0.500000  0.507883  0.633419  1
  Ru  Ru32  1  0.500000  0.634035  0.508563  1
  Ru  Ru33  1  0.500000  0.492113  0.125540  1
  Ru  Ru34  1  0.500000  0.874365  0.367021  1
  Ru  Ru35  1  0.000000  0.999995  0.998179  1
