# generated using pymatgen
data_TbHoSn(PRh2)6
_symmetry_space_group_name_H-M   'P 1'
_cell_length_a   9.78409600
_cell_length_b   9.78409677
_cell_length_c   3.87130500
_cell_angle_alpha   90.00000000
_cell_angle_beta   90.00000000
_cell_angle_gamma   120.00000416
_symmetry_Int_Tables_number   1
_chemical_formula_structural   TbHoSn(PRh2)6
_chemical_formula_sum   'Tb1 Ho1 Sn1 P6 Rh12'
_cell_volume   320.94413718
_cell_formula_units_Z   1
loop_
 _symmetry_equiv_pos_site_id
 _symmetry_equiv_pos_as_xyz
  1  'x, y, z'
loop_
 _atom_site_type_symbol
 _atom_site_label
 _atom_site_symmetry_multiplicity
 _atom_site_fract_x
 _atom_site_fract_y
 _atom_site_fract_z
 _atom_site_occupancy
  Tb  Tb0  1  0.333333  0.666667  0.753243  1
  Ho  Ho1  1  0.666667  0.333333  0.246778  1
  Sn  Sn2  1  0.000000  0.000000  0.497705  1
  P  P3  1  0.406036  0.288354  0.746176  1
  P  P4  1  0.711646  0.117682  0.746176  1
  P  P5  1  0.882318  0.593964  0.746176  1
  P  P6  1  0.594390  0.711964  0.253949  1
  P  P7  1  0.288036  0.882426  0.253949  1
  P  P8  1  0.117574  0.405610  0.253949  1
  Rh  Rh9  1  0.453817  0.068536  0.747402  1
  Rh  Rh10  1  0.931464  0.385280  0.747402  1
  Rh  Rh11  1  0.614720  0.546183  0.747402  1
  Rh  Rh12  1  0.547264  0.933251  0.252839  1
  Rh  Rh13  1  0.066749  0.614014  0.252839  1
  Rh  Rh14  1  0.385986  0.452736  0.252839  1
  Rh  Rh15  1  0.161186  0.287324  0.759366  1
  Rh  Rh16  1  0.712676  0.873863  0.759366  1
  Rh  Rh17  1  0.126137  0.838814  0.759366  1
  Rh  Rh18  1  0.838640  0.712287  0.241027  1
  Rh  Rh19  1  0.287713  0.126354  0.241027  1
  Rh  Rh20  1  0.873646  0.161360  0.241027  1
