# generated using pymatgen
data_Nd2Al20CrRh3
_symmetry_space_group_name_H-M   'P 1'
_cell_length_a   6.86293055
_cell_length_b   6.89001858
_cell_length_c   9.21566975
_cell_angle_alpha   90.28280473
_cell_angle_beta   90.28363725
_cell_angle_gamma   97.04890400
_symmetry_Int_Tables_number   1
_chemical_formula_structural   Nd2Al20CrRh3
_chemical_formula_sum   'Nd2 Al20 Cr1 Rh3'
_cell_volume   432.46387794
_cell_formula_units_Z   1
loop_
 _symmetry_equiv_pos_site_id
 _symmetry_equiv_pos_as_xyz
  1  'x, y, z'
loop_
 _atom_site_type_symbol
 _atom_site_label
 _atom_site_symmetry_multiplicity
 _atom_site_fract_x
 _atom_site_fract_y
 _atom_site_fract_z
 _atom_site_occupancy
  Nd  Nd0  1  0.870467  0.121634  0.748315  1
  Nd  Nd1  1  0.129533  0.878366  0.251685  1
  Al  Al2  1  0.408734  0.136848  0.746731  1
  Al  Al3  1  0.138425  0.406357  0.250658  1
  Al  Al4  1  0.591266  0.863152  0.253269  1
  Al  Al5  1  0.861575  0.593643  0.749342  1
  Al  Al6  1  0.518707  0.776847  0.744305  1
  Al  Al7  1  0.774306  0.520188  0.248995  1
  Al  Al8  1  0.481293  0.223153  0.255695  1
  Al  Al9  1  0.225694  0.479812  0.751005  1
  Al  Al10  1  0.836485  0.157293  0.399647  1
  Al  Al11  1  0.163515  0.842707  0.600353  1
  Al  Al12  1  0.840798  0.160875  0.103754  1
  Al  Al13  1  0.159202  0.839125  0.896246  1
  Al  Al14  1  0.620292  0.378869  0.947224  1
  Al  Al15  1  0.379708  0.621131  0.052776  1
  Al  Al16  1  0.617668  0.373747  0.550036  1
  Al  Al17  1  0.382332  0.626253  0.449964  1
  Al  Al18  1  0.774806  0.775506  0.000802  1
  Al  Al19  1  0.771305  0.777569  0.501785  1
  Al  Al20  1  0.225194  0.224494  0.999198  1
  Al  Al21  1  0.228695  0.222431  0.498215  1
  Cr  Cr22  1  0.500000  0.000000  0.500000  1
  Rh  Rh23  1  0.500000  0.000000  0.000000  1
  Rh  Rh24  1  0.000000  0.500000  0.000000  1
  Rh  Rh25  1  0.000000  0.500000  0.500000  1
