# generated using pymatgen
data_YbEu3(ErSe2)8
_symmetry_space_group_name_H-M   'P 1'
_cell_length_a   4.05472100
_cell_length_b   13.52393769
_cell_length_c   13.84497676
_cell_angle_alpha   90.08458567
_cell_angle_beta   90.00000000
_cell_angle_gamma   90.00000000
_symmetry_Int_Tables_number   1
_chemical_formula_structural   YbEu3(ErSe2)8
_chemical_formula_sum   'Yb1 Eu3 Er8 Se16'
_cell_volume   759.19946869
_cell_formula_units_Z   1
loop_
 _symmetry_equiv_pos_site_id
 _symmetry_equiv_pos_as_xyz
  1  'x, y, z'
loop_
 _atom_site_type_symbol
 _atom_site_label
 _atom_site_symmetry_multiplicity
 _atom_site_fract_x
 _atom_site_fract_y
 _atom_site_fract_z
 _atom_site_occupancy
  Yb  Yb0  1  0.750000  0.130409  0.082112  1
  Eu  Eu1  1  0.250000  0.368302  0.584462  1
  Eu  Eu2  1  0.250000  0.869027  0.915927  1
  Eu  Eu3  1  0.750000  0.631547  0.415081  1
  Er  Er4  1  0.250000  0.106019  0.416559  1
  Er  Er5  1  0.250000  0.605885  0.082274  1
  Er  Er6  1  0.750000  0.894337  0.582199  1
  Er  Er7  1  0.750000  0.392625  0.919168  1
  Er  Er8  1  0.250000  0.149041  0.798144  1
  Er  Er9  1  0.250000  0.649249  0.702681  1
  Er  Er10  1  0.750000  0.852949  0.201488  1
  Er  Er11  1  0.750000  0.349194  0.296317  1
  Se  Se12  1  0.250000  0.214029  0.236087  1
  Se  Se13  1  0.250000  0.716731  0.260972  1
  Se  Se14  1  0.750000  0.784572  0.761790  1
  Se  Se15  1  0.750000  0.284515  0.739180  1
  Se  Se16  1  0.250000  0.256861  0.975087  1
  Se  Se17  1  0.250000  0.759378  0.527192  1
  Se  Se18  1  0.750000  0.741011  0.027373  1
  Se  Se19  1  0.750000  0.240340  0.472723  1
  Se  Se20  1  0.250000  0.466619  0.380060  1
  Se  Se21  1  0.250000  0.971421  0.118754  1
  Se  Se22  1  0.750000  0.532784  0.619554  1
  Se  Se23  1  0.750000  0.034118  0.883859  1
  Se  Se24  1  0.250000  0.035564  0.618824  1
  Se  Se25  1  0.250000  0.534500  0.881982  1
  Se  Se26  1  0.750000  0.964297  0.381695  1
  Se  Se27  1  0.750000  0.464676  0.118456  1
