# generated using pymatgen
data_TbPrZn2(Ni3B)2
_symmetry_space_group_name_H-M   'P 1'
_cell_length_a   5.18472500
_cell_length_b   5.18512154
_cell_length_c   6.88215200
_cell_angle_alpha   90.00000000
_cell_angle_beta   90.00000000
_cell_angle_gamma   119.99750209
_symmetry_Int_Tables_number   1
_chemical_formula_structural   TbPrZn2(Ni3B)2
_chemical_formula_sum   'Tb1 Pr1 Zn2 Ni6 B2'
_cell_volume   160.23245618
_cell_formula_units_Z   1
loop_
 _symmetry_equiv_pos_site_id
 _symmetry_equiv_pos_as_xyz
  1  'x, y, z'
loop_
 _atom_site_type_symbol
 _atom_site_label
 _atom_site_symmetry_multiplicity
 _atom_site_fract_x
 _atom_site_fract_y
 _atom_site_fract_z
 _atom_site_occupancy
  Tb  Tb0  1  0.999989  0.000000  0.500000  1
  Pr  Pr1  1  0.999986  0.000000  0.000000  1
  Zn  Zn2  1  0.333352  0.666747  0.000000  1
  Zn  Zn3  1  0.666604  0.333253  0.000000  1
  Ni  Ni4  1  0.499986  0.000000  0.301630  1
  Ni  Ni5  1  0.499984  0.500001  0.301567  1
  Ni  Ni6  1  0.999982  0.499999  0.301567  1
  Ni  Ni7  1  0.499986  0.000000  0.698370  1
  Ni  Ni8  1  0.499984  0.500001  0.698433  1
  Ni  Ni9  1  0.999982  0.499999  0.698433  1
  B  B10  1  0.333295  0.666628  0.500000  1
  B  B11  1  0.666667  0.333372  0.500000  1
