# generated using pymatgen
data_Y3Er2In4CoNi
_symmetry_space_group_name_H-M   'P 1'
_cell_length_a   3.57104700
_cell_length_b   8.05956011
_cell_length_c   17.94817007
_cell_angle_alpha   90.10113693
_cell_angle_beta   90.00000000
_cell_angle_gamma   90.00000000
_symmetry_Int_Tables_number   1
_chemical_formula_structural   Y3Er2In4CoNi
_chemical_formula_sum   'Y6 Er4 In8 Co2 Ni2'
_cell_volume   516.56669721
_cell_formula_units_Z   2
loop_
 _symmetry_equiv_pos_site_id
 _symmetry_equiv_pos_as_xyz
  1  'x, y, z'
loop_
 _atom_site_type_symbol
 _atom_site_label
 _atom_site_symmetry_multiplicity
 _atom_site_fract_x
 _atom_site_fract_y
 _atom_site_fract_z
 _atom_site_occupancy
  Y  Y0  1  0.000000  0.500000  0.500000  1
  Y  Y1  1  0.000000  0.000000  0.000000  1
  Y  Y2  1  0.000000  0.735853  0.278842  1
  Y  Y3  1  0.000000  0.264147  0.721158  1
  Y  Y4  1  0.000000  0.744854  0.780335  1
  Y  Y5  1  0.000000  0.255146  0.219665  1
  Er  Er6  1  0.000000  0.618294  0.090705  1
  Er  Er7  1  0.000000  0.381706  0.909295  1
  Er  Er8  1  0.000000  0.881442  0.590244  1
  Er  Er9  1  0.000000  0.118558  0.409756  1
  In  In10  1  0.500000  0.699738  0.931996  1
  In  In11  1  0.500000  0.300262  0.068004  1
  In  In12  1  0.500000  0.799689  0.432897  1
  In  In13  1  0.500000  0.200311  0.567103  1
  In  In14  1  0.500000  0.572478  0.652236  1
  In  In15  1  0.500000  0.427522  0.347764  1
  In  In16  1  0.500000  0.927563  0.153590  1
  In  In17  1  0.500000  0.072437  0.846410  1
  Co  Co18  1  0.500000  0.521309  0.194032  1
  Co  Co19  1  0.500000  0.478691  0.805968  1
  Ni  Ni20  1  0.500000  0.979045  0.694735  1
  Ni  Ni21  1  0.500000  0.020955  0.305265  1
