# generated using pymatgen
data_Ta10ZnSi4Sn
_symmetry_space_group_name_H-M   'P 1'
_cell_length_a   7.63955531
_cell_length_b   7.63955469
_cell_length_c   7.63955557
_cell_angle_alpha   128.26645403
_cell_angle_beta   128.26645549
_cell_angle_gamma   76.19377591
_symmetry_Int_Tables_number   1
_chemical_formula_structural   Ta10ZnSi4Sn
_chemical_formula_sum   'Ta10 Zn1 Si4 Sn1'
_cell_volume   267.14820506
_cell_formula_units_Z   1
loop_
 _symmetry_equiv_pos_site_id
 _symmetry_equiv_pos_as_xyz
  1  'x, y, z'
loop_
 _atom_site_type_symbol
 _atom_site_label
 _atom_site_symmetry_multiplicity
 _atom_site_fract_x
 _atom_site_fract_y
 _atom_site_fract_z
 _atom_site_occupancy
  Ta  Ta0  1  0.020314  0.196252  0.511674  1
  Ta  Ta1  1  0.684577  0.508640  0.488326  1
  Ta  Ta2  1  0.508640  0.020314  0.824062  1
  Ta  Ta3  1  0.196252  0.684577  0.175938  1
  Ta  Ta4  1  0.991360  0.815423  0.511674  1
  Ta  Ta5  1  0.303748  0.479686  0.488326  1
  Ta  Ta6  1  0.479686  0.991360  0.175938  1
  Ta  Ta7  1  0.815423  0.303748  0.824062  1
  Ta  Ta8  1  0.001780  0.001780  0.000000  1
  Ta  Ta9  1  0.498220  0.498220  0.000000  1
  Zn  Zn10  1  0.250000  0.250000  0.000000  1
  Si  Si11  1  0.368996  0.131004  0.500000  1
  Si  Si12  1  0.631004  0.868996  0.500000  1
  Si  Si13  1  0.868996  0.368996  0.237991  1
  Si  Si14  1  0.131004  0.631004  0.762009  1
  Sn  Sn15  1  0.750000  0.750000  0.000000  1
