# generated using pymatgen
data_Yb20(AsRh3)3
_symmetry_space_group_name_H-M   'P 1'
_cell_length_a   7.44577000
_cell_length_b   7.44577000
_cell_length_c   13.37733400
_cell_angle_alpha   90.00000000
_cell_angle_beta   90.00000000
_cell_angle_gamma   89.99992305
_symmetry_Int_Tables_number   1
_chemical_formula_structural   Yb20(AsRh3)3
_chemical_formula_sum   'Yb20 As3 Rh9'
_cell_volume   741.63258646
_cell_formula_units_Z   1
loop_
 _symmetry_equiv_pos_site_id
 _symmetry_equiv_pos_as_xyz
  1  'x, y, z'
loop_
 _atom_site_type_symbol
 _atom_site_label
 _atom_site_symmetry_multiplicity
 _atom_site_fract_x
 _atom_site_fract_y
 _atom_site_fract_z
 _atom_site_occupancy
  Yb  Yb0  1  0.000000  0.000000  0.761033  1
  Yb  Yb1  1  0.500000  0.500000  0.245635  1
  Yb  Yb2  1  0.000000  0.000000  0.238967  1
  Yb  Yb3  1  0.500000  0.500000  0.754365  1
  Yb  Yb4  1  0.173782  0.663438  0.107561  1
  Yb  Yb5  1  0.672503  0.170611  0.616157  1
  Yb  Yb6  1  0.826218  0.336562  0.107561  1
  Yb  Yb7  1  0.327497  0.829389  0.616157  1
  Yb  Yb8  1  0.336592  0.173774  0.107572  1
  Yb  Yb9  1  0.829405  0.672474  0.616173  1
  Yb  Yb10  1  0.663408  0.826226  0.107572  1
  Yb  Yb11  1  0.170595  0.327526  0.616173  1
  Yb  Yb12  1  0.336562  0.826218  0.892439  1
  Yb  Yb13  1  0.829389  0.327497  0.383843  1
  Yb  Yb14  1  0.663438  0.173782  0.892439  1
  Yb  Yb15  1  0.170611  0.672503  0.383843  1
  Yb  Yb16  1  0.173774  0.336592  0.892428  1
  Yb  Yb17  1  0.672474  0.829405  0.383827  1
  Yb  Yb18  1  0.826226  0.663408  0.892428  1
  Yb  Yb19  1  0.327526  0.170595  0.383827  1
  As  As20  1  0.000000  0.000000  0.500000  1
  As  As21  1  0.000000  0.000000  0.000000  1
  As  As22  1  0.500000  0.500000  0.500000  1
  Rh  Rh23  1  0.629133  0.128856  0.245790  1
  Rh  Rh24  1  0.128856  0.629133  0.754210  1
  Rh  Rh25  1  0.871144  0.370867  0.754210  1
  Rh  Rh26  1  0.370867  0.871144  0.245790  1
  Rh  Rh27  1  0.370607  0.129221  0.754164  1
  Rh  Rh28  1  0.870779  0.629393  0.245836  1
  Rh  Rh29  1  0.129221  0.370607  0.245836  1
  Rh  Rh30  1  0.629393  0.870779  0.754164  1
  Rh  Rh31  1  0.500000  0.500000  0.000000  1
