# generated using pymatgen
data_Hf18Ga2Re3W5
_symmetry_space_group_name_H-M   'P 1'
_cell_length_a   8.68030852
_cell_length_b   8.68031430
_cell_length_c   8.68856000
_cell_angle_alpha   90.00000000
_cell_angle_beta   90.00000000
_cell_angle_gamma   119.99684614
_symmetry_Int_Tables_number   1
_chemical_formula_structural   Hf18Ga2Re3W5
_chemical_formula_sum   'Hf18 Ga2 Re3 W5'
_cell_volume   566.97361604
_cell_formula_units_Z   1
loop_
 _symmetry_equiv_pos_site_id
 _symmetry_equiv_pos_as_xyz
  1  'x, y, z'
loop_
 _atom_site_type_symbol
 _atom_site_label
 _atom_site_symmetry_multiplicity
 _atom_site_fract_x
 _atom_site_fract_y
 _atom_site_fract_z
 _atom_site_occupancy
  Hf  Hf0  1  0.804170  0.608301  0.544558  1
  Hf  Hf1  1  0.803982  0.196018  0.544380  1
  Hf  Hf2  1  0.391700  0.195831  0.544558  1
  Hf  Hf3  1  0.195009  0.390048  0.450788  1
  Hf  Hf4  1  0.195194  0.804806  0.450953  1
  Hf  Hf5  1  0.609952  0.804991  0.450788  1
  Hf  Hf6  1  0.195009  0.390048  0.049212  1
  Hf  Hf7  1  0.195194  0.804806  0.049047  1
  Hf  Hf8  1  0.609952  0.804991  0.049212  1
  Hf  Hf9  1  0.804170  0.608301  0.955442  1
  Hf  Hf10  1  0.803982  0.196018  0.955620  1
  Hf  Hf11  1  0.391700  0.195831  0.955442  1
  Hf  Hf12  1  0.461225  0.922355  0.750000  1
  Hf  Hf13  1  0.461055  0.538945  0.750000  1
  Hf  Hf14  1  0.077645  0.538775  0.750000  1
  Hf  Hf15  1  0.540179  0.080524  0.250000  1
  Hf  Hf16  1  0.540352  0.459648  0.250000  1
  Hf  Hf17  1  0.919476  0.459821  0.250000  1
  Ga  Ga18  1  0.666581  0.333419  0.750000  1
  Ga  Ga19  1  0.333431  0.666569  0.250000  1
  Re  Re20  1  0.889573  0.778962  0.250000  1
  Re  Re21  1  0.889473  0.110527  0.250000  1
  Re  Re22  1  0.221038  0.110427  0.250000  1
  W  W23  1  0.110151  0.220465  0.750000  1
  W  W24  1  0.110262  0.889737  0.750000  1
  W  W25  1  0.779535  0.889849  0.750000  1
  W  W26  1  0.000002  0.999997  0.498814  1
  W  W27  1  0.000002  0.999997  0.001186  1
