# generated using pymatgen
data_Sm7Zr(Si4W3)4
_symmetry_space_group_name_H-M   'P 1'
_cell_length_a   6.82680532
_cell_length_b   6.96690986
_cell_length_c   13.01342406
_cell_angle_alpha   89.81243410
_cell_angle_beta   90.05377185
_cell_angle_gamma   90.12860297
_symmetry_Int_Tables_number   1
_chemical_formula_structural   Sm7Zr(Si4W3)4
_chemical_formula_sum   'Sm7 Zr1 Si16 W12'
_cell_volume   618.93591251
_cell_formula_units_Z   1
loop_
 _symmetry_equiv_pos_site_id
 _symmetry_equiv_pos_as_xyz
  1  'x, y, z'
loop_
 _atom_site_type_symbol
 _atom_site_label
 _atom_site_symmetry_multiplicity
 _atom_site_fract_x
 _atom_site_fract_y
 _atom_site_fract_z
 _atom_site_occupancy
  Sm  Sm0  1  0.996582  0.165708  0.093877  1
  Sm  Sm1  1  0.003725  0.834171  0.904844  1
  Sm  Sm2  1  0.503421  0.665334  0.906363  1
  Sm  Sm3  1  0.004763  0.833650  0.593044  1
  Sm  Sm4  1  0.496724  0.333320  0.093880  1
  Sm  Sm5  1  0.997626  0.166585  0.408027  1
  Sm  Sm6  1  0.498103  0.333994  0.408122  1
  Zr  Zr7  1  0.505691  0.670578  0.598186  1
  Si  Si8  1  0.035798  0.135109  0.749054  1
  Si  Si9  1  0.962286  0.865515  0.250735  1
  Si  Si10  1  0.462961  0.632191  0.250081  1
  Si  Si11  1  0.536179  0.370425  0.746886  1
  Si  Si12  1  0.306932  0.868549  0.747780  1
  Si  Si13  1  0.694811  0.126469  0.251163  1
  Si  Si14  1  0.196168  0.370793  0.250715  1
  Si  Si15  1  0.799682  0.630896  0.748264  1
  Si  Si16  1  0.168707  0.459502  0.546706  1
  Si  Si17  1  0.837524  0.545448  0.456062  1
  Si  Si18  1  0.342280  0.950619  0.456411  1
  Si  Si19  1  0.841267  0.545017  0.047182  1
  Si  Si20  1  0.656921  0.040159  0.547156  1
  Si  Si21  1  0.157275  0.454729  0.951289  1
  Si  Si22  1  0.657853  0.045113  0.951449  1
  Si  Si23  1  0.341187  0.955508  0.046977  1
  W  W24  1  0.165428  0.500326  0.746475  1
  W  W25  1  0.836081  0.503177  0.252024  1
  W  W26  1  0.334980  0.994718  0.250752  1
  W  W27  1  0.664001  0.000048  0.747534  1
  W  W28  1  0.333217  0.163676  0.625450  1
  W  W29  1  0.664572  0.832613  0.376609  1
  W  W30  1  0.167423  0.663458  0.374447  1
  W  W31  1  0.665565  0.834353  0.126658  1
  W  W32  1  0.832932  0.341031  0.625330  1
  W  W33  1  0.333998  0.166001  0.871759  1
  W  W34  1  0.830911  0.338012  0.872949  1
  W  W35  1  0.166425  0.663203  0.125761  1
