# generated using pymatgen
data_Y5Ho3(ErRh)4
_symmetry_space_group_name_H-M   'P 1'
_cell_length_a   6.29833829
_cell_length_b   7.18641972
_cell_length_c   9.40327739
_cell_angle_alpha   90.03494124
_cell_angle_beta   89.69874476
_cell_angle_gamma   90.02054465
_symmetry_Int_Tables_number   1
_chemical_formula_structural   Y5Ho3(ErRh)4
_chemical_formula_sum   'Y5 Ho3 Er4 Rh4'
_cell_volume   425.60987720
_cell_formula_units_Z   1
loop_
 _symmetry_equiv_pos_site_id
 _symmetry_equiv_pos_as_xyz
  1  'x, y, z'
loop_
 _atom_site_type_symbol
 _atom_site_label
 _atom_site_symmetry_multiplicity
 _atom_site_fract_x
 _atom_site_fract_y
 _atom_site_fract_z
 _atom_site_occupancy
  Y  Y0  1  0.670805  0.177461  0.062479  1
  Y  Y1  1  0.868946  0.966497  0.749004  1
  Y  Y2  1  0.368738  0.533680  0.249836  1
  Y  Y3  1  0.630757  0.467111  0.748994  1
  Y  Y4  1  0.131464  0.033384  0.250153  1
  Ho  Ho5  1  0.170946  0.322472  0.936563  1
  Ho  Ho6  1  0.828927  0.677271  0.437013  1
  Ho  Ho7  1  0.329363  0.822154  0.562400  1
  Er  Er8  1  0.328465  0.822198  0.935862  1
  Er  Er9  1  0.829355  0.677736  0.063383  1
  Er  Er10  1  0.169758  0.322776  0.562944  1
  Er  Er11  1  0.670228  0.177713  0.436994  1
  Rh  Rh12  1  0.060598  0.616295  0.751196  1
  Rh  Rh13  1  0.559760  0.882438  0.252990  1
  Rh  Rh14  1  0.439103  0.116252  0.747683  1
  Rh  Rh15  1  0.942790  0.384560  0.252507  1
