# generated using pymatgen
data_Er2Lu2B12RuW
_symmetry_space_group_name_H-M   'P 1'
_cell_length_a   3.58813400
_cell_length_b   9.13593961
_cell_length_c   11.53570615
_cell_angle_alpha   89.77523481
_cell_angle_beta   90.00000000
_cell_angle_gamma   90.00000000
_symmetry_Int_Tables_number   1
_chemical_formula_structural   Er2Lu2B12RuW
_chemical_formula_sum   'Er4 Lu4 B24 Ru2 W2'
_cell_volume   378.14879125
_cell_formula_units_Z   2
loop_
 _symmetry_equiv_pos_site_id
 _symmetry_equiv_pos_as_xyz
  1  'x, y, z'
loop_
 _atom_site_type_symbol
 _atom_site_label
 _atom_site_symmetry_multiplicity
 _atom_site_fract_x
 _atom_site_fract_y
 _atom_site_fract_z
 _atom_site_occupancy
  Er  Er0  1  0.000000  0.321616  0.414380  1
  Er  Er1  1  0.000000  0.678384  0.585620  1
  Er  Er2  1  0.000000  0.821305  0.086165  1
  Er  Er3  1  0.000000  0.178695  0.913835  1
  Lu  Lu4  1  0.000000  0.945464  0.371370  1
  Lu  Lu5  1  0.000000  0.054536  0.628630  1
  Lu  Lu6  1  0.000000  0.442158  0.127534  1
  Lu  Lu7  1  0.000000  0.557842  0.872466  1
  B  B8  1  0.500000  0.551493  0.434454  1
  B  B9  1  0.500000  0.448507  0.565546  1
  B  B10  1  0.500000  0.054244  0.066779  1
  B  B11  1  0.500000  0.945756  0.933221  1
  B  B12  1  0.500000  0.752709  0.421487  1
  B  B13  1  0.500000  0.247291  0.578513  1
  B  B14  1  0.500000  0.249557  0.080904  1
  B  B15  1  0.500000  0.750443  0.919096  1
  B  B16  1  0.500000  0.796912  0.263140  1
  B  B17  1  0.500000  0.203088  0.736860  1
  B  B18  1  0.500000  0.290817  0.233902  1
  B  B19  1  0.500000  0.709183  0.766098  1
  B  B20  1  0.500000  0.631228  0.181219  1
  B  B21  1  0.500000  0.368772  0.818781  1
  B  B22  1  0.500000  0.130252  0.314346  1
  B  B23  1  0.500000  0.869748  0.685654  1
  B  B24  1  0.500000  0.983198  0.212181  1
  B  B25  1  0.500000  0.016802  0.787819  1
  B  B26  1  0.500000  0.476970  0.286027  1
  B  B27  1  0.500000  0.523030  0.713973  1
  B  B28  1  0.500000  0.602372  0.027216  1
  B  B29  1  0.500000  0.397628  0.972784  1
  B  B30  1  0.500000  0.101458  0.471220  1
  B  B31  1  0.500000  0.898542  0.528780  1
  Ru  Ru32  1  0.000000  0.138453  0.179093  1
  Ru  Ru33  1  0.000000  0.861547  0.820907  1
  W  W34  1  0.000000  0.639128  0.319102  1
  W  W35  1  0.000000  0.360872  0.680898  1
