# generated using pymatgen
data_Pr3Dy2P12Ir13Ru6
_symmetry_space_group_name_H-M   'P 1'
_cell_length_a   12.69687774
_cell_length_b   12.68931246
_cell_length_c   4.01053800
_cell_angle_alpha   90.00000000
_cell_angle_beta   90.00000000
_cell_angle_gamma   119.75535269
_symmetry_Int_Tables_number   1
_chemical_formula_structural   Pr3Dy2P12Ir13Ru6
_chemical_formula_sum   'Pr3 Dy2 P12 Ir13 Ru6'
_cell_volume   560.96228297
_cell_formula_units_Z   1
loop_
 _symmetry_equiv_pos_site_id
 _symmetry_equiv_pos_as_xyz
  1  'x, y, z'
loop_
 _atom_site_type_symbol
 _atom_site_label
 _atom_site_symmetry_multiplicity
 _atom_site_fract_x
 _atom_site_fract_y
 _atom_site_fract_z
 _atom_site_occupancy
  Pr  Pr0  1  0.813974  0.001282  0.500000  1
  Pr  Pr1  1  0.185994  0.186698  0.500000  1
  Pr  Pr2  1  0.999670  0.812993  0.500000  1
  Dy  Dy3  1  0.667932  0.333547  0.000000  1
  Dy  Dy4  1  0.333054  0.665722  0.000000  1
  P  P5  1  0.640486  0.004221  0.000000  1
  P  P6  1  0.366348  0.366428  0.000000  1
  P  P7  1  0.999347  0.633087  0.000000  1
  P  P8  1  0.689921  0.518940  0.500000  1
  P  P9  1  0.828108  0.307196  0.500000  1
  P  P10  1  0.307317  0.826130  0.500000  1
  P  P11  1  0.518811  0.689094  0.500000  1
  P  P12  1  0.184295  0.000265  0.000000  1
  P  P13  1  0.816352  0.817011  0.000000  1
  P  P14  1  0.997712  0.184121  0.000000  1
  P  P15  1  0.481255  0.173035  0.500000  1
  P  P16  1  0.170433  0.480831  0.500000  1
  Ir  Ir17  1  0.619464  0.802782  0.000000  1
  Ir  Ir18  1  0.182665  0.381013  0.000000  1
  Ir  Ir19  1  0.381933  0.182630  0.000000  1
  Ir  Ir20  1  0.199010  0.817334  0.000000  1
  Ir  Ir21  1  0.800495  0.619046  0.000000  1
  Ir  Ir22  1  0.868631  0.504927  0.500000  1
  Ir  Ir23  1  0.494056  0.364994  0.500000  1
  Ir  Ir24  1  0.635015  0.129279  0.500000  1
  Ir  Ir25  1  0.128418  0.635314  0.500000  1
  Ir  Ir26  1  0.362832  0.493770  0.500000  1
  Ir  Ir27  1  0.503347  0.866717  0.500000  1
  Ir  Ir28  1  0.000549  0.000119  0.000000  1
  Ir  Ir29  1  0.457507  0.998581  0.000000  1
  Ru  Ru30  1  0.710579  0.710963  0.500000  1
  Ru  Ru31  1  0.001347  0.290874  0.500000  1
  Ru  Ru32  1  0.545296  0.547192  0.000000  1
  Ru  Ru33  1  0.000275  0.453293  0.000000  1
  Ru  Ru34  1  0.818455  0.200480  0.000000  1
  Ru  Ru35  1  0.289117  0.000095  0.500000  1
