# generated using pymatgen
data_Cs6V(RhBr6)3
_symmetry_space_group_name_H-M   'P 1'
_cell_length_a   7.76233207
_cell_length_b   7.76314792
_cell_length_c   19.50271720
_cell_angle_alpha   89.98661738
_cell_angle_beta   90.01511462
_cell_angle_gamma   119.99998978
_symmetry_Int_Tables_number   1
_chemical_formula_structural   Cs6V(RhBr6)3
_chemical_formula_sum   'Cs6 V1 Rh3 Br18'
_cell_volume   1017.78456582
_cell_formula_units_Z   1
loop_
 _symmetry_equiv_pos_site_id
 _symmetry_equiv_pos_as_xyz
  1  'x, y, z'
loop_
 _atom_site_type_symbol
 _atom_site_label
 _atom_site_symmetry_multiplicity
 _atom_site_fract_x
 _atom_site_fract_y
 _atom_site_fract_z
 _atom_site_occupancy
  Cs  Cs0  1  0.666644  0.333364  0.565591  1
  Cs  Cs1  1  0.333329  0.666673  0.067851  1
  Cs  Cs2  1  0.333354  0.666633  0.429834  1
  Cs  Cs3  1  0.666803  0.333187  0.933477  1
  Cs  Cs4  1  0.999854  0.000184  0.252494  1
  Cs  Cs5  1  0.000047  0.999941  0.749542  1
  V  V6  1  0.666617  0.333457  0.165237  1
  Rh  Rh7  1  0.333341  0.666652  0.666259  1
  Rh  Rh8  1  0.666727  0.333245  0.330104  1
  Rh  Rh9  1  0.333293  0.666701  0.833908  1
  Br  Br10  1  0.818599  0.637117  0.403401  1
  Br  Br11  1  0.181059  0.818953  0.594071  1
  Br  Br12  1  0.637924  0.819025  0.594157  1
  Br  Br13  1  0.818458  0.181476  0.403511  1
  Br  Br14  1  0.362888  0.181406  0.403409  1
  Br  Br15  1  0.180878  0.361983  0.906029  1
  Br  Br16  1  0.041007  0.520400  0.750172  1
  Br  Br17  1  0.638072  0.819151  0.906037  1
  Br  Br18  1  0.822847  0.645488  0.096592  1
  Br  Br19  1  0.180979  0.362090  0.594167  1
  Br  Br20  1  0.479573  0.958934  0.750180  1
  Br  Br21  1  0.515473  0.484555  0.251530  1
  Br  Br22  1  0.479606  0.520381  0.750165  1
  Br  Br23  1  0.180847  0.819156  0.906056  1
  Br  Br24  1  0.354535  0.177139  0.096581  1
  Br  Br25  1  0.969177  0.484462  0.251619  1
  Br  Br26  1  0.515511  0.030827  0.251635  1
  Br  Br27  1  0.822557  0.177422  0.096392  1
