# generated using pymatgen
data_Lu2Be25Ni
_symmetry_space_group_name_H-M   'P 1'
_cell_length_a   7.19408797
_cell_length_b   7.17693647
_cell_length_c   7.21697830
_cell_angle_alpha   59.97303534
_cell_angle_beta   59.73728954
_cell_angle_gamma   59.86472096
_symmetry_Int_Tables_number   1
_chemical_formula_structural   Lu2Be25Ni
_chemical_formula_sum   'Lu2 Be25 Ni1'
_cell_volume   262.63541337
_cell_formula_units_Z   1
loop_
 _symmetry_equiv_pos_site_id
 _symmetry_equiv_pos_as_xyz
  1  'x, y, z'
loop_
 _atom_site_type_symbol
 _atom_site_label
 _atom_site_symmetry_multiplicity
 _atom_site_fract_x
 _atom_site_fract_y
 _atom_site_fract_z
 _atom_site_occupancy
  Lu  Lu0  1  0.250920  0.249946  0.247030  1
  Lu  Lu1  1  0.750052  0.749076  0.747898  1
  Be  Be2  1  0.934691  0.065308  0.708586  1
  Be  Be3  1  0.296442  0.703559  0.061091  1
  Be  Be4  1  0.064823  0.935175  0.294427  1
  Be  Be5  1  0.707820  0.935923  0.064409  1
  Be  Be6  1  0.707181  0.060793  0.295789  1
  Be  Be7  1  0.064084  0.292178  0.708151  1
  Be  Be8  1  0.939203  0.292815  0.063758  1
  Be  Be9  1  0.938251  0.707300  0.291244  1
  Be  Be10  1  0.293684  0.938964  0.704438  1
  Be  Be11  1  0.292698  0.061747  0.936798  1
  Be  Be12  1  0.061040  0.706315  0.937084  1
  Be  Be13  1  0.791161  0.437018  0.562815  1
  Be  Be14  1  0.562981  0.208841  0.790993  1
  Be  Be15  1  0.207644  0.564638  0.437008  1
  Be  Be16  1  0.435360  0.792351  0.209294  1
  Be  Be17  1  0.792450  0.207550  0.435783  1
  Be  Be18  1  0.790252  0.563695  0.212983  1
  Be  Be19  1  0.433017  0.566981  0.786783  1
  Be  Be20  1  0.564025  0.789232  0.435370  1
  Be  Be21  1  0.565444  0.434558  0.211124  1
  Be  Be22  1  0.210767  0.435970  0.788634  1
  Be  Be23  1  0.207970  0.792027  0.564601  1
  Be  Be24  1  0.436310  0.209747  0.566937  1
  Be  Be25  1  0.999449  0.000549  0.999571  1
  Be  Be26  1  0.500566  0.499433  0.498518  1
  Ni  Ni27  1  0.701713  0.298313  0.938883  1
