# generated using pymatgen
data_La3Ga(SiRh3)2
_symmetry_space_group_name_H-M   'P 1'
_cell_length_a   5.69656600
_cell_length_b   5.69656425
_cell_length_c   15.36141100
_cell_angle_alpha   90.00000000
_cell_angle_beta   90.00000000
_cell_angle_gamma   119.99998696
_symmetry_Int_Tables_number   1
_chemical_formula_structural   La3Ga(SiRh3)2
_chemical_formula_sum   'La6 Ga2 Si4 Rh12'
_cell_volume   431.70584723
_cell_formula_units_Z   2
loop_
 _symmetry_equiv_pos_site_id
 _symmetry_equiv_pos_as_xyz
  1  'x, y, z'
loop_
 _atom_site_type_symbol
 _atom_site_label
 _atom_site_symmetry_multiplicity
 _atom_site_fract_x
 _atom_site_fract_y
 _atom_site_fract_z
 _atom_site_occupancy
  La  La0  1  0.333333  0.666667  0.538843  1
  La  La1  1  0.666667  0.333333  0.461157  1
  La  La2  1  0.666667  0.333333  0.038843  1
  La  La3  1  0.333333  0.666667  0.961157  1
  La  La4  1  0.333333  0.666667  0.750000  1
  La  La5  1  0.666667  0.333333  0.250000  1
  Ga  Ga6  1  0.000000  0.000000  0.000000  1
  Ga  Ga7  1  0.000000  0.000000  0.500000  1
  Si  Si8  1  0.000000  0.000000  0.250000  1
  Si  Si9  1  0.000000  0.000000  0.750000  1
  Si  Si10  1  0.333333  0.666667  0.250000  1
  Si  Si11  1  0.666667  0.333333  0.750000  1
  Rh  Rh12  1  0.166564  0.333126  0.136261  1
  Rh  Rh13  1  0.833436  0.666874  0.863739  1
  Rh  Rh14  1  0.666874  0.833436  0.136261  1
  Rh  Rh15  1  0.833436  0.666874  0.636261  1
  Rh  Rh16  1  0.333126  0.166564  0.863739  1
  Rh  Rh17  1  0.166564  0.333126  0.363739  1
  Rh  Rh18  1  0.166564  0.833436  0.136261  1
  Rh  Rh19  1  0.333126  0.166564  0.636261  1
  Rh  Rh20  1  0.833436  0.166564  0.863739  1
  Rh  Rh21  1  0.666874  0.833436  0.363739  1
  Rh  Rh22  1  0.833436  0.166564  0.636261  1
  Rh  Rh23  1  0.166564  0.833436  0.363739  1
