# generated using pymatgen
data_LiLa8Ho8Sc3Si16
_symmetry_space_group_name_H-M   'P 1'
_cell_length_a   7.39897151
_cell_length_b   7.80151792
_cell_length_c   14.83995000
_cell_angle_alpha   90.00000000
_cell_angle_beta   90.00000000
_cell_angle_gamma   90.12794276
_symmetry_Int_Tables_number   1
_chemical_formula_structural   LiLa8Ho8Sc3Si16
_chemical_formula_sum   'Li1 La8 Ho8 Sc3 Si16'
_cell_volume   856.60739678
_cell_formula_units_Z   1
loop_
 _symmetry_equiv_pos_site_id
 _symmetry_equiv_pos_as_xyz
  1  'x, y, z'
loop_
 _atom_site_type_symbol
 _atom_site_label
 _atom_site_symmetry_multiplicity
 _atom_site_fract_x
 _atom_site_fract_y
 _atom_site_fract_z
 _atom_site_occupancy
  Li  Li0  1  0.652479  0.992935  0.750000  1
  La  La1  1  0.018205  0.177568  0.400886  1
  La  La2  1  0.518261  0.324154  0.400680  1
  La  La3  1  0.481937  0.686639  0.898434  1
  La  La4  1  0.481937  0.686639  0.601566  1
  La  La5  1  0.973099  0.822795  0.601516  1
  La  La6  1  0.973099  0.822795  0.898484  1
  La  La7  1  0.518261  0.324154  0.099320  1
  La  La8  1  0.018205  0.177568  0.099114  1
  Ho  Ho9  1  0.329255  0.174060  0.625199  1
  Ho  Ho10  1  0.680570  0.820709  0.373569  1
  Ho  Ho11  1  0.179165  0.675867  0.375738  1
  Ho  Ho12  1  0.819461  0.315301  0.874480  1
  Ho  Ho13  1  0.819461  0.315301  0.625520  1
  Ho  Ho14  1  0.329255  0.174060  0.874801  1
  Ho  Ho15  1  0.179165  0.675867  0.124262  1
  Ho  Ho16  1  0.680570  0.820709  0.126431  1
  Sc  Sc17  1  0.846857  0.489935  0.250000  1
  Sc  Sc18  1  0.346667  0.007709  0.250000  1
  Sc  Sc19  1  0.151060  0.505729  0.750000  1
  Si  Si20  1  0.266019  0.878881  0.750000  1
  Si  Si21  1  0.478597  0.609620  0.250000  1
  Si  Si22  1  0.032330  0.111957  0.750000  1
  Si  Si23  1  0.519310  0.401740  0.750000  1
  Si  Si24  1  0.146958  0.469388  0.542336  1
  Si  Si25  1  0.981795  0.886272  0.250000  1
  Si  Si26  1  0.716833  0.125237  0.250000  1
  Si  Si27  1  0.854307  0.531884  0.037346  1
  Si  Si28  1  0.355177  0.968089  0.041450  1
  Si  Si29  1  0.146958  0.469388  0.957664  1
  Si  Si30  1  0.648509  0.037092  0.531053  1
  Si  Si31  1  0.355177  0.968089  0.458550  1
  Si  Si32  1  0.854307  0.531884  0.462654  1
  Si  Si33  1  0.780253  0.606962  0.750000  1
  Si  Si34  1  0.217988  0.375930  0.250000  1
  Si  Si35  1  0.648509  0.037092  0.968947  1
