# generated using pymatgen
data_Nb4Si2PdRu9
_symmetry_space_group_name_H-M   'P 1'
_cell_length_a   4.06747100
_cell_length_b   5.43792721
_cell_length_c   10.67734339
_cell_angle_alpha   88.93457571
_cell_angle_beta   90.00000000
_cell_angle_gamma   90.00000000
_symmetry_Int_Tables_number   1
_chemical_formula_structural   Nb4Si2PdRu9
_chemical_formula_sum   'Nb4 Si2 Pd1 Ru9'
_cell_volume   236.12717726
_cell_formula_units_Z   1
loop_
 _symmetry_equiv_pos_site_id
 _symmetry_equiv_pos_as_xyz
  1  'x, y, z'
loop_
 _atom_site_type_symbol
 _atom_site_label
 _atom_site_symmetry_multiplicity
 _atom_site_fract_x
 _atom_site_fract_y
 _atom_site_fract_z
 _atom_site_occupancy
  Nb  Nb0  1  0.500000  0.848091  0.363562  1
  Nb  Nb1  1  0.500000  0.173850  0.641726  1
  Nb  Nb2  1  0.500000  0.316848  0.135035  1
  Nb  Nb3  1  0.500000  0.666447  0.858400  1
  Si  Si4  1  0.000000  0.507693  0.502777  1
  Si  Si5  1  0.000000  0.992797  0.998536  1
  Pd  Pd6  1  0.000000  0.579425  0.251633  1
  Ru  Ru7  1  0.000000  0.491722  0.998930  1
  Ru  Ru8  1  0.000000  0.010721  0.501984  1
  Ru  Ru9  1  0.000000  0.415927  0.747949  1
  Ru  Ru10  1  0.000000  0.080431  0.245739  1
  Ru  Ru11  1  0.000000  0.914622  0.753251  1
  Ru  Ru12  1  0.500000  0.815945  0.105898  1
  Ru  Ru13  1  0.500000  0.172545  0.894576  1
  Ru  Ru14  1  0.500000  0.330918  0.394363  1
  Ru  Ru15  1  0.500000  0.682019  0.605641  1
