# generated using pymatgen
data_NiTeBr18
_symmetry_space_group_name_H-M   'P 1'
_cell_length_a   9.32129181
_cell_length_b   9.32129288
_cell_length_c   9.32129323
_cell_angle_alpha   87.84704909
_cell_angle_beta   87.84703883
_cell_angle_gamma   87.84704894
_symmetry_Int_Tables_number   1
_chemical_formula_structural   NiTeBr18
_chemical_formula_sum   'Ni1 Te1 Br18'
_cell_volume   808.22116235
_cell_formula_units_Z   1
loop_
 _symmetry_equiv_pos_site_id
 _symmetry_equiv_pos_as_xyz
  1  'x, y, z'
loop_
 _atom_site_type_symbol
 _atom_site_label
 _atom_site_symmetry_multiplicity
 _atom_site_fract_x
 _atom_site_fract_y
 _atom_site_fract_z
 _atom_site_occupancy
  Ni  Ni0  1  0.000000  0.000000  0.000000  1
  Te  Te1  1  0.500000  0.500000  0.500000  1
  Br  Br2  1  0.731149  0.995074  0.042143  1
  Br  Br3  1  0.765947  0.119142  0.622482  1
  Br  Br4  1  0.042143  0.731149  0.995074  1
  Br  Br5  1  0.234053  0.880858  0.377518  1
  Br  Br6  1  0.119142  0.622482  0.765947  1
  Br  Br7  1  0.004926  0.957857  0.268851  1
  Br  Br8  1  0.622482  0.765947  0.119142  1
  Br  Br9  1  0.957857  0.268851  0.004926  1
  Br  Br10  1  0.880858  0.377518  0.234053  1
  Br  Br11  1  0.377518  0.234053  0.880858  1
  Br  Br12  1  0.995074  0.042143  0.731149  1
  Br  Br13  1  0.268851  0.004926  0.957857  1
  Br  Br14  1  0.796060  0.519528  0.475186  1
  Br  Br15  1  0.524814  0.203940  0.480472  1
  Br  Br16  1  0.480472  0.524814  0.203940  1
  Br  Br17  1  0.475186  0.796060  0.519528  1
  Br  Br18  1  0.519528  0.475186  0.796060  1
  Br  Br19  1  0.203940  0.480472  0.524814  1
