# generated using pymatgen
data_Y8Nb7Si16W5
_symmetry_space_group_name_H-M   'P 1'
_cell_length_a   6.98275286
_cell_length_b   6.98580257
_cell_length_c   12.98371685
_cell_angle_alpha   89.88720790
_cell_angle_beta   89.92561462
_cell_angle_gamma   90.01891618
_symmetry_Int_Tables_number   1
_chemical_formula_structural   Y8Nb7Si16W5
_chemical_formula_sum   'Y8 Nb7 Si16 W5'
_cell_volume   633.34563727
_cell_formula_units_Z   1
loop_
 _symmetry_equiv_pos_site_id
 _symmetry_equiv_pos_as_xyz
  1  'x, y, z'
loop_
 _atom_site_type_symbol
 _atom_site_label
 _atom_site_symmetry_multiplicity
 _atom_site_fract_x
 _atom_site_fract_y
 _atom_site_fract_z
 _atom_site_occupancy
  Y  Y0  1  0.999607  0.338765  0.218892  1
  Y  Y1  1  0.000719  0.661451  0.717000  1
  Y  Y2  1  0.160804  0.499899  0.467850  1
  Y  Y3  1  0.499560  0.839555  0.032864  1
  Y  Y4  1  0.838952  0.500625  0.967906  1
  Y  Y5  1  0.499800  0.160442  0.531433  1
  Y  Y6  1  0.339190  0.999976  0.782106  1
  Y  Y7  1  0.661547  0.999958  0.282199  1
  Nb  Nb8  1  0.844943  0.006850  0.874497  1
  Nb  Nb9  1  0.505854  0.656580  0.623638  1
  Nb  Nb10  1  0.345036  0.493765  0.875229  1
  Nb  Nb11  1  0.491465  0.344133  0.125719  1
  Nb  Nb12  1  0.655349  0.506131  0.375459  1
  Nb  Nb13  1  0.994448  0.155211  0.624933  1
  Nb  Nb14  1  0.006057  0.845202  0.125693  1
  Si  Si15  1  0.292805  0.040954  0.187331  1
  Si  Si16  1  0.706012  0.957655  0.685157  1
  Si  Si17  1  0.453974  0.794528  0.433984  1
  Si  Si18  1  0.204867  0.543014  0.064778  1
  Si  Si19  1  0.542523  0.205630  0.935401  1
  Si  Si20  1  0.793854  0.457006  0.564779  1
  Si  Si21  1  0.042879  0.294508  0.814675  1
  Si  Si22  1  0.960300  0.709197  0.315069  1
  Si  Si23  1  0.369496  0.293535  0.318242  1
  Si  Si24  1  0.631023  0.702509  0.816502  1
  Si  Si25  1  0.200917  0.870016  0.564657  1
  Si  Si26  1  0.131393  0.798363  0.933295  1
  Si  Si27  1  0.797858  0.131929  0.066979  1
  Si  Si28  1  0.872508  0.198810  0.432403  1
  Si  Si29  1  0.298372  0.369195  0.682946  1
  Si  Si30  1  0.702073  0.630011  0.183566  1
  W  W31  1  0.169499  0.169933  0.000667  1
  W  W32  1  0.830399  0.831136  0.499573  1
  W  W33  1  0.329347  0.668983  0.250222  1
  W  W34  1  0.669905  0.330540  0.749784  1
  W  W35  1  0.156666  0.994004  0.374578  1
