# generated using pymatgen
data_Tb8TiNb11Si15Ge
_symmetry_space_group_name_H-M   'P 1'
_cell_length_a   6.91542245
_cell_length_b   7.10616606
_cell_length_c   13.47612361
_cell_angle_alpha   90.03593567
_cell_angle_beta   89.93209893
_cell_angle_gamma   90.05454826
_symmetry_Int_Tables_number   1
_chemical_formula_structural   Tb8TiNb11Si15Ge
_chemical_formula_sum   'Tb8 Ti1 Nb11 Si15 Ge1'
_cell_volume   662.24466232
_cell_formula_units_Z   1
loop_
 _symmetry_equiv_pos_site_id
 _symmetry_equiv_pos_as_xyz
  1  'x, y, z'
loop_
 _atom_site_type_symbol
 _atom_site_label
 _atom_site_symmetry_multiplicity
 _atom_site_fract_x
 _atom_site_fract_y
 _atom_site_fract_z
 _atom_site_occupancy
  Tb  Tb0  1  0.995397  0.171343  0.403707  1
  Tb  Tb1  1  0.497153  0.329687  0.096461  1
  Tb  Tb2  1  0.504249  0.670387  0.596035  1
  Tb  Tb3  1  0.001198  0.827487  0.903170  1
  Tb  Tb4  1  0.003779  0.829159  0.595753  1
  Tb  Tb5  1  0.503561  0.670772  0.903770  1
  Tb  Tb6  1  0.496009  0.329896  0.403970  1
  Tb  Tb7  1  0.995741  0.171865  0.097082  1
  Ti  Ti8  1  0.337582  0.825157  0.373916  1
  Nb  Nb9  1  0.338786  0.821765  0.127806  1
  Nb  Nb10  1  0.836674  0.675194  0.374350  1
  Nb  Nb11  1  0.663026  0.175167  0.625558  1
  Nb  Nb12  1  0.160142  0.328455  0.872883  1
  Nb  Nb13  1  0.163557  0.324507  0.625215  1
  Nb  Nb14  1  0.665520  0.176027  0.874065  1
  Nb  Nb15  1  0.337610  0.009731  0.747787  1
  Nb  Nb16  1  0.837030  0.674783  0.126151  1
  Nb  Nb17  1  0.662583  0.991189  0.250210  1
  Nb  Nb18  1  0.163210  0.509151  0.249796  1
  Nb  Nb19  1  0.837477  0.491222  0.749776  1
  Si  Si20  1  0.339554  0.035903  0.540284  1
  Si  Si21  1  0.837565  0.462413  0.959893  1
  Si  Si22  1  0.665596  0.961906  0.042030  1
  Si  Si23  1  0.161632  0.538974  0.458179  1
  Si  Si24  1  0.161771  0.537692  0.041026  1
  Si  Si25  1  0.660121  0.962215  0.458263  1
  Si  Si26  1  0.839072  0.461988  0.540975  1
  Si  Si27  1  0.795304  0.375621  0.250463  1
  Si  Si28  1  0.295317  0.122633  0.250940  1
  Si  Si29  1  0.703840  0.875802  0.749670  1
  Si  Si30  1  0.205057  0.625239  0.749366  1
  Si  Si31  1  0.042548  0.874542  0.251112  1
  Si  Si32  1  0.541083  0.625169  0.251704  1
  Si  Si33  1  0.459241  0.375299  0.750022  1
  Si  Si34  1  0.958939  0.124357  0.749420  1
  Ge  Ge35  1  0.333077  0.037304  0.959187  1
