# generated using pymatgen
data_Er2Al3Re14C3
_symmetry_space_group_name_H-M   'P 1'
_cell_length_a   6.96900239
_cell_length_b   6.96900395
_cell_length_c   6.96900343
_cell_angle_alpha   82.28209469
_cell_angle_beta   82.28209426
_cell_angle_gamma   82.28208995
_symmetry_Int_Tables_number   1
_chemical_formula_structural   Er2Al3Re14C3
_chemical_formula_sum   'Er2 Al3 Re14 C3'
_cell_volume   330.02164685
_cell_formula_units_Z   1
loop_
 _symmetry_equiv_pos_site_id
 _symmetry_equiv_pos_as_xyz
  1  'x, y, z'
loop_
 _atom_site_type_symbol
 _atom_site_label
 _atom_site_symmetry_multiplicity
 _atom_site_fract_x
 _atom_site_fract_y
 _atom_site_fract_z
 _atom_site_occupancy
  Er  Er0  1  0.656461  0.656461  0.656461  1
  Er  Er1  1  0.343539  0.343539  0.343539  1
  Al  Al2  1  0.000000  0.000000  0.500000  1
  Al  Al3  1  0.500000  0.000000  0.000000  1
  Al  Al4  1  0.000000  0.500000  0.000000  1
  Re  Re5  1  0.721006  0.278994  0.000000  1
  Re  Re6  1  0.000000  0.721006  0.278994  1
  Re  Re7  1  0.278994  0.000000  0.721006  1
  Re  Re8  1  0.000000  0.278994  0.721006  1
  Re  Re9  1  0.721006  0.000000  0.278994  1
  Re  Re10  1  0.278994  0.721006  0.000000  1
  Re  Re11  1  0.350082  0.350082  0.849618  1
  Re  Re12  1  0.849618  0.350082  0.350082  1
  Re  Re13  1  0.350082  0.849618  0.350082  1
  Re  Re14  1  0.649918  0.649918  0.150382  1
  Re  Re15  1  0.150382  0.649918  0.649918  1
  Re  Re16  1  0.649918  0.150382  0.649918  1
  Re  Re17  1  0.902670  0.902670  0.902670  1
  Re  Re18  1  0.097330  0.097330  0.097330  1
  C  C19  1  0.500000  0.500000  0.000000  1
  C  C20  1  0.000000  0.500000  0.500000  1
  C  C21  1  0.500000  0.000000  0.500000  1
