# generated using pymatgen
data_Pr8Y2B2Br15
_symmetry_space_group_name_H-M   'P 1'
_cell_length_a   9.41090196
_cell_length_b   10.19319673
_cell_length_c   11.07754057
_cell_angle_alpha   91.36106680
_cell_angle_beta   114.50341643
_cell_angle_gamma   110.73178488
_symmetry_Int_Tables_number   1
_chemical_formula_structural   Pr8Y2B2Br15
_chemical_formula_sum   'Pr8 Y2 B2 Br15'
_cell_volume   885.97055380
_cell_formula_units_Z   1
loop_
 _symmetry_equiv_pos_site_id
 _symmetry_equiv_pos_as_xyz
  1  'x, y, z'
loop_
 _atom_site_type_symbol
 _atom_site_label
 _atom_site_symmetry_multiplicity
 _atom_site_fract_x
 _atom_site_fract_y
 _atom_site_fract_z
 _atom_site_occupancy
  Pr  Pr0  1  0.801829  0.409403  0.276083  1
  Pr  Pr1  1  0.198171  0.590597  0.723917  1
  Pr  Pr2  1  0.675480  0.747023  0.821293  1
  Pr  Pr3  1  0.324520  0.252977  0.178707  1
  Pr  Pr4  1  0.526497  0.704106  0.097236  1
  Pr  Pr5  1  0.473503  0.295894  0.902764  1
  Pr  Pr6  1  0.587087  0.036946  0.325590  1
  Pr  Pr7  1  0.412913  0.963054  0.674410  1
  Y  Y8  1  0.716473  0.072633  0.046770  1
  Y  Y9  1  0.283527  0.927367  0.953230  1
  B  B10  1  0.467823  0.823990  0.879127  1
  B  B11  1  0.532177  0.176010  0.120873  1
  Br  Br12  1  0.000000  0.000000  0.000000  1
  Br  Br13  1  0.636920  0.881990  0.582941  1
  Br  Br14  1  0.363080  0.118010  0.417059  1
  Br  Br15  1  0.883989  0.298778  0.529378  1
  Br  Br16  1  0.116011  0.701222  0.470622  1
  Br  Br17  1  0.281318  0.765585  0.169812  1
  Br  Br18  1  0.718682  0.234415  0.830188  1
  Br  Br19  1  0.043793  0.331109  0.218171  1
  Br  Br20  1  0.158884  0.049795  0.710630  1
  Br  Br21  1  0.841116  0.950205  0.289370  1
  Br  Br22  1  0.228148  0.409276  0.943407  1
  Br  Br23  1  0.771852  0.590724  0.056593  1
  Br  Br24  1  0.407543  0.462244  0.657330  1
  Br  Br25  1  0.592457  0.537756  0.342670  1
  Br  Br26  1  0.956207  0.668891  0.781829  1
