# generated using pymatgen
data_Pr2Al20FeRuRh2
_symmetry_space_group_name_H-M   'P 1'
_cell_length_a   6.87679489
_cell_length_b   6.86222929
_cell_length_c   9.18506519
_cell_angle_alpha   90.09468438
_cell_angle_beta   90.28281289
_cell_angle_gamma   97.30997686
_symmetry_Int_Tables_number   1
_chemical_formula_structural   Pr2Al20FeRuRh2
_chemical_formula_sum   'Pr2 Al20 Fe1 Ru1 Rh2'
_cell_volume   429.91526189
_cell_formula_units_Z   1
loop_
 _symmetry_equiv_pos_site_id
 _symmetry_equiv_pos_as_xyz
  1  'x, y, z'
loop_
 _atom_site_type_symbol
 _atom_site_label
 _atom_site_symmetry_multiplicity
 _atom_site_fract_x
 _atom_site_fract_y
 _atom_site_fract_z
 _atom_site_occupancy
  Pr  Pr0  1  0.874241  0.125833  0.751212  1
  Pr  Pr1  1  0.125759  0.874167  0.248788  1
  Al  Al2  1  0.621308  0.377409  0.550028  1
  Al  Al3  1  0.378692  0.622591  0.449972  1
  Al  Al4  1  0.372938  0.619065  0.048001  1
  Al  Al5  1  0.627062  0.380935  0.951999  1
  Al  Al6  1  0.225885  0.225300  0.498513  1
  Al  Al7  1  0.774115  0.774700  0.501487  1
  Al  Al8  1  0.778265  0.769976  0.001817  1
  Al  Al9  1  0.221735  0.230024  0.998183  1
  Al  Al10  1  0.844802  0.164051  0.101100  1
  Al  Al11  1  0.155198  0.835949  0.898900  1
  Al  Al12  1  0.159954  0.841888  0.603374  1
  Al  Al13  1  0.840046  0.158112  0.396626  1
  Al  Al14  1  0.861256  0.588961  0.754204  1
  Al  Al15  1  0.138744  0.411039  0.245796  1
  Al  Al16  1  0.408395  0.140724  0.750211  1
  Al  Al17  1  0.591605  0.859276  0.249789  1
  Al  Al18  1  0.222719  0.482378  0.756010  1
  Al  Al19  1  0.777281  0.517622  0.243990  1
  Al  Al20  1  0.519035  0.774868  0.749047  1
  Al  Al21  1  0.480965  0.225132  0.250953  1
  Fe  Fe22  1  0.000000  0.500000  0.000000  1
  Ru  Ru23  1  0.500000  0.000000  0.500000  1
  Rh  Rh24  1  0.000000  0.500000  0.500000  1
  Rh  Rh25  1  0.500000  0.000000  0.000000  1
