# generated using pymatgen
data_Nd3Lu(MoO4)6
_symmetry_space_group_name_H-M   'P 1'
_cell_length_a   7.57513826
_cell_length_b   7.57513763
_cell_length_c   10.86846334
_cell_angle_alpha   89.82353638
_cell_angle_beta   90.17646386
_cell_angle_gamma   89.75179454
_symmetry_Int_Tables_number   1
_chemical_formula_structural   Nd3Lu(MoO4)6
_chemical_formula_sum   'Nd3 Lu1 Mo6 O24'
_cell_volume   623.65013904
_cell_formula_units_Z   1
loop_
 _symmetry_equiv_pos_site_id
 _symmetry_equiv_pos_as_xyz
  1  'x, y, z'
loop_
 _atom_site_type_symbol
 _atom_site_label
 _atom_site_symmetry_multiplicity
 _atom_site_fract_x
 _atom_site_fract_y
 _atom_site_fract_z
 _atom_site_occupancy
  Nd  Nd0  1  0.189245  0.688523  0.738764  1
  Nd  Nd1  1  0.811477  0.310755  0.738764  1
  Nd  Nd2  1  0.684066  0.815934  0.259682  1
  Lu  Lu3  1  0.307090  0.192910  0.265327  1
  Mo  Mo4  1  0.209363  0.706182  0.352579  1
  Mo  Mo5  1  0.793818  0.290637  0.352579  1
  Mo  Mo6  1  0.708025  0.791975  0.645541  1
  Mo  Mo7  1  0.291280  0.208720  0.635599  1
  Mo  Mo8  1  0.008697  0.006945  0.005559  1
  Mo  Mo9  1  0.493055  0.491303  0.005559  1
  O  O10  1  0.006131  0.221862  0.297338  1
  O  O11  1  0.998260  0.767490  0.294066  1
  O  O12  1  0.225935  0.000177  0.695784  1
  O  O13  1  0.500366  0.724783  0.705663  1
  O  O14  1  0.775217  0.999634  0.705663  1
  O  O15  1  0.499823  0.274065  0.695784  1
  O  O16  1  0.278138  0.493869  0.297338  1
  O  O17  1  0.732510  0.501740  0.294066  1
  O  O18  1  0.189691  0.054485  0.107052  1
  O  O19  1  0.814337  0.962980  0.094092  1
  O  O20  1  0.057238  0.819175  0.911497  1
  O  O21  1  0.308256  0.532319  0.906624  1
  O  O22  1  0.967681  0.191744  0.906624  1
  O  O23  1  0.680825  0.442762  0.911497  1
  O  O24  1  0.445515  0.310309  0.107052  1
  O  O25  1  0.537020  0.685663  0.094092  1
  O  O26  1  0.620369  0.134363  0.306934  1
  O  O27  1  0.365637  0.879631  0.306934  1
  O  O28  1  0.127715  0.372285  0.683688  1
  O  O29  1  0.872928  0.627072  0.692691  1
  O  O30  1  0.198340  0.696483  0.516027  1
  O  O31  1  0.803517  0.301660  0.516027  1
  O  O32  1  0.695166  0.804834  0.482064  1
  O  O33  1  0.303269  0.196731  0.471447  1
