# generated using pymatgen
data_Er8Ti11Si16Pd
_symmetry_space_group_name_H-M   'P 1'
_cell_length_a   7.02052745
_cell_length_b   7.02052745
_cell_length_c   12.82768813
_cell_angle_alpha   90.09094885
_cell_angle_beta   89.90905115
_cell_angle_gamma   89.72485724
_symmetry_Int_Tables_number   1
_chemical_formula_structural   Er8Ti11Si16Pd
_chemical_formula_sum   'Er8 Ti11 Si16 Pd1'
_cell_volume   632.23970923
_cell_formula_units_Z   1
loop_
 _symmetry_equiv_pos_site_id
 _symmetry_equiv_pos_as_xyz
  1  'x, y, z'
loop_
 _atom_site_type_symbol
 _atom_site_label
 _atom_site_symmetry_multiplicity
 _atom_site_fract_x
 _atom_site_fract_y
 _atom_site_fract_z
 _atom_site_occupancy
  Er  Er0  1  0.340669  0.003002  0.466791  1
  Er  Er1  1  0.497539  0.841082  0.717672  1
  Er  Er2  1  0.500929  0.158531  0.214834  1
  Er  Er3  1  0.841082  0.497539  0.282328  1
  Er  Er4  1  0.158531  0.500929  0.785166  1
  Er  Er5  1  0.657002  0.999226  0.968023  1
  Er  Er6  1  0.003002  0.340669  0.533209  1
  Er  Er7  1  0.999226  0.657002  0.031977  1
  Ti  Ti8  1  0.175076  0.827230  0.249034  1
  Ti  Ti9  1  0.827230  0.175076  0.750966  1
  Ti  Ti10  1  0.673014  0.673014  0.500000  1
  Ti  Ti11  1  0.148884  0.004856  0.876313  1
  Ti  Ti12  1  0.494340  0.653077  0.124238  1
  Ti  Ti13  1  0.507268  0.350159  0.626351  1
  Ti  Ti14  1  0.653077  0.494340  0.875762  1
  Ti  Ti15  1  0.350159  0.507268  0.373649  1
  Ti  Ti16  1  0.850086  0.993643  0.374751  1
  Ti  Ti17  1  0.004856  0.148884  0.123687  1
  Ti  Ti18  1  0.993643  0.850086  0.625249  1
  Si  Si19  1  0.202788  0.133067  0.684449  1
  Si  Si20  1  0.372197  0.710294  0.931973  1
  Si  Si21  1  0.631660  0.294596  0.432789  1
  Si  Si22  1  0.710294  0.372197  0.068027  1
  Si  Si23  1  0.294596  0.631660  0.567211  1
  Si  Si24  1  0.796485  0.867977  0.183098  1
  Si  Si25  1  0.133067  0.202788  0.315551  1
  Si  Si26  1  0.867977  0.796485  0.816902  1
  Si  Si27  1  0.286873  0.945261  0.064679  1
  Si  Si28  1  0.546777  0.792106  0.314921  1
  Si  Si29  1  0.451623  0.208603  0.813521  1
  Si  Si30  1  0.792106  0.546777  0.685079  1
  Si  Si31  1  0.208603  0.451623  0.186479  1
  Si  Si32  1  0.708065  0.047440  0.565178  1
  Si  Si33  1  0.945261  0.286873  0.935321  1
  Si  Si34  1  0.047440  0.708065  0.434822  1
  Pd  Pd35  1  0.328577  0.328577  0.000000  1
