# generated using pymatgen
data_Pr4Dy(IrO6)2
_symmetry_space_group_name_H-M   'P 1'
_cell_length_a   7.10192537
_cell_length_b   7.10192497
_cell_length_c   7.52191758
_cell_angle_alpha   74.39876346
_cell_angle_beta   74.39877168
_cell_angle_gamma   51.63663154
_symmetry_Int_Tables_number   1
_chemical_formula_structural   Pr4Dy(IrO6)2
_chemical_formula_sum   'Pr4 Dy1 Ir2 O12'
_cell_volume   283.88617287
_cell_formula_units_Z   1
loop_
 _symmetry_equiv_pos_site_id
 _symmetry_equiv_pos_as_xyz
  1  'x, y, z'
loop_
 _atom_site_type_symbol
 _atom_site_label
 _atom_site_symmetry_multiplicity
 _atom_site_fract_x
 _atom_site_fract_y
 _atom_site_fract_z
 _atom_site_occupancy
  Pr  Pr0  1  0.697740  0.697740  0.638070  1
  Pr  Pr1  1  0.695265  0.695265  0.165449  1
  Pr  Pr2  1  0.304727  0.304727  0.833309  1
  Pr  Pr3  1  0.001590  0.001590  0.497348  1
  Dy  Dy4  1  0.303036  0.303036  0.357333  1
  Ir  Ir5  1  0.751688  0.246387  0.002688  1
  Ir  Ir6  1  0.246387  0.751688  0.002688  1
  O  O7  1  0.101850  0.593352  0.565759  1
  O  O8  1  0.999808  0.999808  0.168004  1
  O  O9  1  0.397496  0.914496  0.422876  1
  O  O10  1  0.497987  0.497987  0.179280  1
  O  O11  1  0.106309  0.566764  0.089540  1
  O  O12  1  0.914496  0.397496  0.422876  1
  O  O13  1  0.997806  0.997806  0.835309  1
  O  O14  1  0.593352  0.101849  0.565759  1
  O  O15  1  0.498643  0.498643  0.828138  1
  O  O16  1  0.566764  0.106309  0.089540  1
  O  O17  1  0.428212  0.896843  0.918017  1
  O  O18  1  0.896843  0.428212  0.918017  1
