# generated using pymatgen
data_SbRu2Cl15
_symmetry_space_group_name_H-M   'P 1'
_cell_length_a   13.51913449
_cell_length_b   13.51913478
_cell_length_c   6.39646000
_cell_angle_alpha   89.27791765
_cell_angle_beta   89.27791523
_cell_angle_gamma   85.61800464
_symmetry_Int_Tables_number   1
_chemical_formula_structural   SbRu2Cl15
_chemical_formula_sum   'Sb2 Ru4 Cl30'
_cell_volume   1165.47242515
_cell_formula_units_Z   2
loop_
 _symmetry_equiv_pos_site_id
 _symmetry_equiv_pos_as_xyz
  1  'x, y, z'
loop_
 _atom_site_type_symbol
 _atom_site_label
 _atom_site_symmetry_multiplicity
 _atom_site_fract_x
 _atom_site_fract_y
 _atom_site_fract_z
 _atom_site_occupancy
  Sb  Sb0  1  0.439145  0.227264  0.474894  1
  Sb  Sb1  1  0.772736  0.560855  0.525106  1
  Ru  Ru2  1  0.562984  0.770807  0.525197  1
  Ru  Ru3  1  0.229193  0.437016  0.474803  1
  Ru  Ru4  1  0.102040  0.897960  0.000000  1
  Ru  Ru5  1  0.897822  0.102178  0.000000  1
  Cl  Cl6  1  0.526051  0.332696  0.252652  1
  Cl  Cl7  1  0.667304  0.473949  0.747348  1
  Cl  Cl8  1  0.475513  0.672092  0.739216  1
  Cl  Cl9  1  0.327908  0.524487  0.260784  1
  Cl  Cl10  1  0.574196  0.199269  0.699850  1
  Cl  Cl11  1  0.800731  0.425804  0.300150  1
  Cl  Cl12  1  0.868724  0.232751  0.782960  1
  Cl  Cl13  1  0.767249  0.131276  0.217040  1
  Cl  Cl14  1  0.131026  0.767240  0.217732  1
  Cl  Cl15  1  0.232760  0.868974  0.782268  1
  Cl  Cl16  1  0.996032  0.189410  0.206405  1
  Cl  Cl17  1  0.810590  0.003968  0.793595  1
  Cl  Cl18  1  0.004534  0.810025  0.793675  1
  Cl  Cl19  1  0.189975  0.995466  0.206325  1
  Cl  Cl20  1  0.047865  0.047748  0.795912  1
  Cl  Cl21  1  0.952252  0.952135  0.204088  1
  Cl  Cl22  1  0.281169  0.287966  0.269447  1
  Cl  Cl23  1  0.712034  0.718831  0.730553  1
  Cl  Cl24  1  0.099055  0.466000  0.261699  1
  Cl  Cl25  1  0.534000  0.900945  0.738301  1
  Cl  Cl26  1  0.907799  0.533596  0.750492  1
  Cl  Cl27  1  0.466404  0.092201  0.249508  1
  Cl  Cl28  1  0.142460  0.338182  0.689083  1
  Cl  Cl29  1  0.661818  0.857540  0.310917  1
  Cl  Cl30  1  0.859556  0.666860  0.303503  1
  Cl  Cl31  1  0.333140  0.140444  0.696497  1
  Cl  Cl32  1  0.378596  0.385292  0.679736  1
  Cl  Cl33  1  0.614708  0.621404  0.320264  1
  Cl  Cl34  1  0.199877  0.567252  0.688302  1
  Cl  Cl35  1  0.432748  0.800123  0.311698  1
