# generated using pymatgen
data_Pr6Al24Os7Ru
_symmetry_space_group_name_H-M   'P 1'
_cell_length_a   8.92512200
_cell_length_b   8.92512117
_cell_length_c   9.69710300
_cell_angle_alpha   90.00000000
_cell_angle_beta   90.00000000
_cell_angle_gamma   119.99999567
_symmetry_Int_Tables_number   1
_chemical_formula_structural   Pr6Al24Os7Ru
_chemical_formula_sum   'Pr6 Al24 Os7 Ru1'
_cell_volume   668.96121864
_cell_formula_units_Z   1
loop_
 _symmetry_equiv_pos_site_id
 _symmetry_equiv_pos_as_xyz
  1  'x, y, z'
loop_
 _atom_site_type_symbol
 _atom_site_label
 _atom_site_symmetry_multiplicity
 _atom_site_fract_x
 _atom_site_fract_y
 _atom_site_fract_z
 _atom_site_occupancy
  Pr  Pr0  1  0.192437  0.384873  0.250177  1
  Pr  Pr1  1  0.807563  0.615127  0.749823  1
  Pr  Pr2  1  0.615127  0.807563  0.250177  1
  Pr  Pr3  1  0.384873  0.192437  0.749823  1
  Pr  Pr4  1  0.192437  0.807563  0.250177  1
  Pr  Pr5  1  0.807563  0.192437  0.749823  1
  Al  Al6  1  0.333333  0.666667  0.009203  1
  Al  Al7  1  0.666667  0.333333  0.990797  1
  Al  Al8  1  0.666667  0.333333  0.509144  1
  Al  Al9  1  0.333333  0.666667  0.490856  1
  Al  Al10  1  0.162455  0.324908  0.575372  1
  Al  Al11  1  0.837545  0.675092  0.424628  1
  Al  Al12  1  0.675092  0.837545  0.575372  1
  Al  Al13  1  0.837474  0.674948  0.075296  1
  Al  Al14  1  0.324908  0.162455  0.424628  1
  Al  Al15  1  0.162526  0.325052  0.924704  1
  Al  Al16  1  0.162455  0.837545  0.575372  1
  Al  Al17  1  0.325052  0.162526  0.075296  1
  Al  Al18  1  0.837545  0.162455  0.424628  1
  Al  Al19  1  0.674948  0.837474  0.924704  1
  Al  Al20  1  0.837474  0.162526  0.075296  1
  Al  Al21  1  0.162526  0.837474  0.924704  1
  Al  Al22  1  0.562243  0.124486  0.249981  1
  Al  Al23  1  0.437757  0.875514  0.750019  1
  Al  Al24  1  0.875514  0.437757  0.249981  1
  Al  Al25  1  0.124486  0.562243  0.750019  1
  Al  Al26  1  0.562243  0.437757  0.249981  1
  Al  Al27  1  0.437757  0.562243  0.750019  1
  Al  Al28  1  0.000000  0.000000  0.251478  1
  Al  Al29  1  0.000000  0.000000  0.748522  1
  Os  Os30  1  0.500000  0.000000  0.000000  1
  Os  Os31  1  0.000000  0.500000  0.000000  1
  Os  Os32  1  0.500000  0.000000  0.500000  1
  Os  Os33  1  0.500000  0.500000  0.000000  1
  Os  Os34  1  0.000000  0.500000  0.500000  1
  Os  Os35  1  0.500000  0.500000  0.500000  1
  Os  Os36  1  0.000000  0.000000  0.000000  1
  Ru  Ru37  1  0.000000  0.000000  0.500000  1
