# generated using pymatgen
data_Tb3YAl17GaIr6
_symmetry_space_group_name_H-M   'P 1'
_cell_length_a   7.55641176
_cell_length_b   7.55607863
_cell_length_c   9.51972800
_cell_angle_alpha   90.00000000
_cell_angle_beta   90.00000000
_cell_angle_gamma   119.41399030
_symmetry_Int_Tables_number   1
_chemical_formula_structural   Tb3YAl17GaIr6
_chemical_formula_sum   'Tb3 Y1 Al17 Ga1 Ir6'
_cell_volume   473.47996285
_cell_formula_units_Z   1
loop_
 _symmetry_equiv_pos_site_id
 _symmetry_equiv_pos_as_xyz
  1  'x, y, z'
loop_
 _atom_site_type_symbol
 _atom_site_label
 _atom_site_symmetry_multiplicity
 _atom_site_fract_x
 _atom_site_fract_y
 _atom_site_fract_z
 _atom_site_occupancy
  Tb  Tb0  1  0.006145  0.326133  0.750000  1
  Tb  Tb1  1  0.671715  0.994703  0.250000  1
  Tb  Tb2  1  0.326123  0.006102  0.750000  1
  Y  Y3  1  0.994639  0.671651  0.250000  1
  Al  Al4  1  0.130035  0.130074  0.250000  1
  Al  Al5  1  0.001432  0.335704  0.073839  1
  Al  Al6  1  0.998663  0.664367  0.926990  1
  Al  Al7  1  0.998663  0.664367  0.573010  1
  Al  Al8  1  0.335462  0.001322  0.426166  1
  Al  Al9  1  0.001432  0.335704  0.426161  1
  Al  Al10  1  0.664356  0.998641  0.573119  1
  Al  Al11  1  0.664356  0.998641  0.926881  1
  Al  Al12  1  0.335462  0.001322  0.073834  1
  Al  Al13  1  0.334088  0.334079  0.550216  1
  Al  Al14  1  0.666560  0.666477  0.447513  1
  Al  Al15  1  0.666560  0.666477  0.052487  1
  Al  Al16  1  0.334088  0.334079  0.949784  1
  Al  Al17  1  0.339298  0.548374  0.250000  1
  Al  Al18  1  0.661433  0.451194  0.750000  1
  Al  Al19  1  0.548375  0.339301  0.250000  1
  Al  Al20  1  0.451154  0.661351  0.750000  1
  Ga  Ga21  1  0.866098  0.866042  0.750000  1
  Ir  Ir22  1  0.672214  0.328826  0.999862  1
  Ir  Ir23  1  0.328847  0.672229  0.999831  1
  Ir  Ir24  1  0.328847  0.672229  0.500169  1
  Ir  Ir25  1  0.672214  0.328826  0.500138  1
  Ir  Ir26  1  0.000870  0.000891  0.002521  1
  Ir  Ir27  1  0.000870  0.000891  0.497479  1
