# generated using pymatgen
data_Li2Nb6Co16As5P7
_symmetry_space_group_name_H-M   'P 1'
_cell_length_a   12.19672402
_cell_length_b   12.16684691
_cell_length_c   3.63815800
_cell_angle_alpha   90.00000000
_cell_angle_beta   90.00000000
_cell_angle_gamma   120.14330839
_symmetry_Int_Tables_number   1
_chemical_formula_structural   Li2Nb6Co16As5P7
_chemical_formula_sum   'Li2 Nb6 Co16 As5 P7'
_cell_volume   466.87913240
_cell_formula_units_Z   1
loop_
 _symmetry_equiv_pos_site_id
 _symmetry_equiv_pos_as_xyz
  1  'x, y, z'
loop_
 _atom_site_type_symbol
 _atom_site_label
 _atom_site_symmetry_multiplicity
 _atom_site_fract_x
 _atom_site_fract_y
 _atom_site_fract_z
 _atom_site_occupancy
  Li  Li0  1  0.333866  0.666516  0.000000  1
  Li  Li1  1  0.691228  0.329944  0.000000  1
  Nb  Nb2  1  0.822532  0.000666  0.500000  1
  Nb  Nb3  1  0.999319  0.822875  0.500000  1
  Nb  Nb4  1  0.175720  0.176987  0.500000  1
  Nb  Nb5  1  0.445556  0.002525  0.000000  1
  Nb  Nb6  1  0.995126  0.442129  0.000000  1
  Nb  Nb7  1  0.555100  0.555445  0.000000  1
  Co  Co8  1  0.271586  0.001016  0.500000  1
  Co  Co9  1  0.997247  0.271578  0.500000  1
  Co  Co10  1  0.728799  0.727920  0.500000  1
  Co  Co11  1  0.643504  0.816640  0.000000  1
  Co  Co12  1  0.183699  0.827865  0.000000  1
  Co  Co13  1  0.170772  0.357466  0.000000  1
  Co  Co14  1  0.355917  0.173265  0.000000  1
  Co  Co15  1  0.814337  0.639868  0.000000  1
  Co  Co16  1  0.827803  0.189643  0.000000  1
  Co  Co17  1  0.534726  0.884643  0.500000  1
  Co  Co18  1  0.114447  0.651899  0.500000  1
  Co  Co19  1  0.346994  0.469271  0.500000  1
  Co  Co20  1  0.462434  0.348438  0.500000  1
  Co  Co21  1  0.875016  0.518422  0.500000  1
  Co  Co22  1  0.656772  0.126062  0.500000  1
  Co  Co23  1  0.999124  0.999721  0.000000  1
  As  As24  1  0.510528  0.686499  0.500000  1
  As  As25  1  0.314305  0.825661  0.500000  1
  As  As26  1  0.172938  0.491015  0.500000  1
  As  As27  1  0.492359  0.179051  0.500000  1
  As  As28  1  0.682976  0.505433  0.500000  1
  P  P29  1  0.170370  0.000222  0.000000  1
  P  P30  1  0.998490  0.171071  0.000000  1
  P  P31  1  0.828411  0.827396  0.000000  1
  P  P32  1  0.831042  0.310917  0.500000  1
  P  P33  1  0.650286  0.002557  0.000000  1
  P  P34  1  0.997949  0.647806  0.000000  1
  P  P35  1  0.348722  0.351567  0.000000  1
