# generated using pymatgen
data_Er4Sc8Co4CuSn
_symmetry_space_group_name_H-M   'P 1'
_cell_length_a   7.91035670
_cell_length_b   7.91035639
_cell_length_c   7.91035673
_cell_angle_alpha   110.66080060
_cell_angle_beta   110.83663081
_cell_angle_gamma   106.94542473
_symmetry_Int_Tables_number   1
_chemical_formula_structural   Er4Sc8Co4CuSn
_chemical_formula_sum   'Er4 Sc8 Co4 Cu1 Sn1'
_cell_volume   380.48302436
_cell_formula_units_Z   1
loop_
 _symmetry_equiv_pos_site_id
 _symmetry_equiv_pos_as_xyz
  1  'x, y, z'
loop_
 _atom_site_type_symbol
 _atom_site_label
 _atom_site_symmetry_multiplicity
 _atom_site_fract_x
 _atom_site_fract_y
 _atom_site_fract_z
 _atom_site_occupancy
  Er  Er0  1  0.190282  0.284867  0.475148  1
  Er  Er1  1  0.809718  0.715133  0.524852  1
  Er  Er2  1  0.190282  0.715133  0.905415  1
  Er  Er3  1  0.809718  0.284867  0.094585  1
  Sc  Sc4  1  0.313766  0.618421  0.304654  1
  Sc  Sc5  1  0.686234  0.381580  0.695346  1
  Sc  Sc6  1  0.313766  0.009113  0.695346  1
  Sc  Sc7  1  0.686234  0.990887  0.304654  1
  Sc  Sc8  1  0.420878  0.218560  0.202318  1
  Sc  Sc9  1  0.579122  0.781440  0.797682  1
  Sc  Sc10  1  0.016242  0.218560  0.797682  1
  Sc  Sc11  1  0.983758  0.781440  0.202318  1
  Co  Co12  1  0.120056  0.620056  0.500000  1
  Co  Co13  1  0.879945  0.379945  0.500000  1
  Co  Co14  1  0.372204  0.000000  0.372204  1
  Co  Co15  1  0.627796  0.000000  0.627796  1
  Cu  Cu16  1  0.000000  0.000000  0.000000  1
  Sn  Sn17  1  0.500000  0.500000  0.000000  1
