# generated using pymatgen
data_Li2Pr3Tm3(Co4P3)4
_symmetry_space_group_name_H-M   'P 1'
_cell_length_a   3.74126900
_cell_length_b   10.64297425
_cell_length_c   12.28024119
_cell_angle_alpha   90.12408487
_cell_angle_beta   90.00000000
_cell_angle_gamma   90.00000000
_symmetry_Int_Tables_number   1
_chemical_formula_structural   Li2Pr3Tm3(Co4P3)4
_chemical_formula_sum   'Li2 Pr3 Tm3 Co16 P12'
_cell_volume   488.97631681
_cell_formula_units_Z   1
loop_
 _symmetry_equiv_pos_site_id
 _symmetry_equiv_pos_as_xyz
  1  'x, y, z'
loop_
 _atom_site_type_symbol
 _atom_site_label
 _atom_site_symmetry_multiplicity
 _atom_site_fract_x
 _atom_site_fract_y
 _atom_site_fract_z
 _atom_site_occupancy
  Li  Li0  1  0.500000  0.499216  0.149970  1
  Li  Li1  1  0.000000  0.000483  0.849583  1
  Pr  Pr2  1  0.000000  0.499476  0.524517  1
  Pr  Pr3  1  0.500000  0.000581  0.477273  1
  Pr  Pr4  1  0.500000  0.820519  0.206132  1
  Tm  Tm5  1  0.500000  0.182201  0.204411  1
  Tm  Tm6  1  0.000000  0.679246  0.795979  1
  Tm  Tm7  1  0.000000  0.319546  0.793878  1
  Co  Co8  1  0.500000  0.498921  0.709230  1
  Co  Co9  1  0.000000  0.006502  0.290605  1
  Co  Co10  1  0.000000  0.497791  0.985305  1
  Co  Co11  1  0.500000  0.002415  0.009385  1
  Co  Co12  1  0.500000  0.332733  0.996402  1
  Co  Co13  1  0.500000  0.665400  0.993889  1
  Co  Co14  1  0.000000  0.169587  0.000889  1
  Co  Co15  1  0.000000  0.832896  0.000182  1
  Co  Co16  1  0.500000  0.296065  0.429546  1
  Co  Co17  1  0.500000  0.702444  0.433899  1
  Co  Co18  1  0.000000  0.204759  0.570985  1
  Co  Co19  1  0.000000  0.795649  0.574519  1
  Co  Co20  1  0.500000  0.878205  0.711343  1
  Co  Co21  1  0.500000  0.121750  0.710013  1
  Co  Co22  1  0.000000  0.618246  0.292967  1
  Co  Co23  1  0.000000  0.377564  0.289300  1
  P  P24  1  0.500000  0.498269  0.884996  1
  P  P25  1  0.000000  0.004704  0.110477  1
  P  P26  1  0.500000  0.499421  0.341659  1
  P  P27  1  0.000000  0.000127  0.659502  1
  P  P28  1  0.500000  0.305956  0.618565  1
  P  P29  1  0.500000  0.692691  0.621187  1
  P  P30  1  0.000000  0.194703  0.381715  1
  P  P31  1  0.000000  0.803581  0.388801  1
  P  P32  1  0.500000  0.841909  0.893471  1
  P  P33  1  0.500000  0.159420  0.892286  1
  P  P34  1  0.000000  0.654525  0.101492  1
  P  P35  1  0.000000  0.342499  0.105647  1
