# generated using pymatgen
data_Nd5ZnGaRu3
_symmetry_space_group_name_H-M   'P 1'
_cell_length_a   8.58613191
_cell_length_b   8.58613341
_cell_length_c   8.51870800
_cell_angle_alpha   109.49741454
_cell_angle_beta   109.47347869
_cell_angle_gamma   109.76140339
_symmetry_Int_Tables_number   1
_chemical_formula_structural   Nd5ZnGaRu3
_chemical_formula_sum   'Nd10 Zn2 Ga2 Ru6'
_cell_volume   481.53167532
_cell_formula_units_Z   2
loop_
 _symmetry_equiv_pos_site_id
 _symmetry_equiv_pos_as_xyz
  1  'x, y, z'
loop_
 _atom_site_type_symbol
 _atom_site_label
 _atom_site_symmetry_multiplicity
 _atom_site_fract_x
 _atom_site_fract_y
 _atom_site_fract_z
 _atom_site_occupancy
  Nd  Nd0  1  0.251345  0.685130  0.437180  1
  Nd  Nd1  1  0.747951  0.814166  0.062821  1
  Nd  Nd2  1  0.434850  0.250517  0.686122  1
  Nd  Nd3  1  0.685545  0.435546  0.250000  1
  Nd  Nd4  1  0.064394  0.748727  0.813878  1
  Nd  Nd5  1  0.814944  0.064944  0.750000  1
  Nd  Nd6  1  0.218915  0.218878  0.218229  1
  Nd  Nd7  1  0.500650  0.000686  0.281771  1
  Nd  Nd8  1  0.281213  0.500419  0.000625  1
  Nd  Nd9  1  0.999793  0.280588  0.499376  1
  Zn  Zn10  1  0.499826  0.001050  0.912125  1
  Zn  Zn11  1  0.588925  0.587700  0.587875  1
  Ga  Ga12  1  0.911308  0.501418  0.001782  1
  Ga  Ga13  1  0.999635  0.909525  0.498219  1
  Ru  Ru14  1  0.244943  0.122320  0.870304  1
  Ru  Ru15  1  0.752016  0.374637  0.629695  1
  Ru  Ru16  1  0.879206  0.255913  0.124941  1
  Ru  Ru17  1  0.121194  0.871194  0.250001  1
  Ru  Ru18  1  0.630970  0.754264  0.375058  1
  Ru  Ru19  1  0.372378  0.622378  0.750000  1
