# generated using pymatgen
data_KSe39
_symmetry_space_group_name_H-M   'P 1'
_cell_length_a   13.63822424
_cell_length_b   10.95887791
_cell_length_c   10.97789721
_cell_angle_alpha   69.58937837
_cell_angle_beta   69.25128698
_cell_angle_gamma   81.79666156
_symmetry_Int_Tables_number   1
_chemical_formula_structural   KSe39
_chemical_formula_sum   'K1 Se39'
_cell_volume   1437.66584213
_cell_formula_units_Z   1
loop_
 _symmetry_equiv_pos_site_id
 _symmetry_equiv_pos_as_xyz
  1  'x, y, z'
loop_
 _atom_site_type_symbol
 _atom_site_label
 _atom_site_symmetry_multiplicity
 _atom_site_fract_x
 _atom_site_fract_y
 _atom_site_fract_z
 _atom_site_occupancy
  K  K0  1  0.000000  0.500000  0.500000  1
  Se  Se1  1  0.000000  0.000000  0.000000  1
  Se  Se2  1  0.279224  0.303418  0.240789  1
  Se  Se3  1  0.711378  0.997182  0.492516  1
  Se  Se4  1  0.594394  0.507927  0.175717  1
  Se  Se5  1  0.687938  0.408252  0.624571  1
  Se  Se6  1  0.288622  0.002818  0.507484  1
  Se  Se7  1  0.926110  0.311704  0.920812  1
  Se  Se8  1  0.720776  0.696582  0.759211  1
  Se  Se9  1  0.405606  0.492073  0.824283  1
  Se  Se10  1  0.230507  0.172578  0.996591  1
  Se  Se11  1  0.872763  0.121609  0.662243  1
  Se  Se12  1  0.127237  0.878391  0.337757  1
  Se  Se13  1  0.769493  0.827422  0.003409  1
  Se  Se14  1  0.073890  0.688296  0.079188  1
  Se  Se15  1  0.312062  0.591748  0.375429  1
  Se  Se16  1  0.257518  0.233774  0.485563  1
  Se  Se17  1  0.206845  0.975767  0.969198  1
  Se  Se18  1  0.075992  0.763778  0.567955  1
  Se  Se19  1  0.193015  0.560658  0.594450  1
  Se  Se20  1  0.558064  0.274106  0.264958  1
  Se  Se21  1  0.044563  0.200483  0.768135  1
  Se  Se22  1  0.704115  0.018914  0.695714  1
  Se  Se23  1  0.441936  0.725894  0.735042  1
  Se  Se24  1  0.806985  0.439342  0.405550  1
  Se  Se25  1  0.766181  0.522396  0.023212  1
  Se  Se26  1  0.407755  0.202697  0.893373  1
  Se  Se27  1  0.793155  0.024233  0.030802  1
  Se  Se28  1  0.749241  0.461156  0.785630  1
  Se  Se29  1  0.944070  0.169747  0.133649  1
  Se  Se30  1  0.471207  0.261371  0.121576  1
  Se  Se31  1  0.528793  0.738629  0.878424  1
  Se  Se32  1  0.055930  0.830253  0.866351  1
  Se  Se33  1  0.742482  0.766226  0.514437  1
  Se  Se34  1  0.250759  0.538844  0.214370  1
  Se  Se35  1  0.592245  0.797303  0.106627  1
  Se  Se36  1  0.233819  0.477604  0.976788  1
  Se  Se37  1  0.295885  0.981086  0.304286  1
  Se  Se38  1  0.955437  0.799517  0.231865  1
  Se  Se39  1  0.924008  0.236222  0.432045  1
