# generated using pymatgen
data_Dy3Y(IrRh)2
_symmetry_space_group_name_H-M   'P 1'
_cell_length_a   4.87096700
_cell_length_b   6.85136300
_cell_length_c   14.59926200
_cell_angle_alpha   90.00134012
_cell_angle_beta   90.00023928
_cell_angle_gamma   89.99919866
_symmetry_Int_Tables_number   1
_chemical_formula_structural   Dy3Y(IrRh)2
_chemical_formula_sum   'Dy9 Y3 Ir6 Rh6'
_cell_volume   487.21771175
_cell_formula_units_Z   3
loop_
 _symmetry_equiv_pos_site_id
 _symmetry_equiv_pos_as_xyz
  1  'x, y, z'
loop_
 _atom_site_type_symbol
 _atom_site_label
 _atom_site_symmetry_multiplicity
 _atom_site_fract_x
 _atom_site_fract_y
 _atom_site_fract_z
 _atom_site_occupancy
  Dy  Dy0  1  0.499999  0.250305  0.000024  1
  Dy  Dy1  1  0.500005  0.749682  0.999956  1
  Dy  Dy2  1  0.999974  0.249765  0.166712  1
  Dy  Dy3  1  0.999975  0.750232  0.166716  1
  Dy  Dy4  1  0.499986  0.250329  0.333319  1
  Dy  Dy5  1  0.499987  0.749682  0.333386  1
  Dy  Dy6  1  0.000007  0.249721  0.499952  1
  Dy  Dy7  1  0.999999  0.750214  0.499908  1
  Dy  Dy8  1  0.500015  0.250365  0.666653  1
  Y  Y9  1  0.500014  0.749681  0.666720  1
  Y  Y10  1  0.000025  0.249605  0.833303  1
  Y  Y11  1  0.000023  0.750350  0.833338  1
  Ir  Ir12  1  0.000005  0.999995  0.000610  1
  Ir  Ir13  1  0.499971  0.499990  0.166732  1
  Ir  Ir14  1  0.999987  0.000001  0.333309  1
  Ir  Ir15  1  0.499997  0.499583  0.499663  1
  Ir  Ir16  1  0.000002  0.000696  0.666072  1
  Ir  Ir17  1  0.500032  0.499576  0.833611  1
  Rh  Rh18  1  0.999998  0.499988  0.000628  1
  Rh  Rh19  1  0.499973  0.000067  0.166746  1
  Rh  Rh20  1  0.999997  0.499973  0.333269  1
  Rh  Rh21  1  0.500000  0.000485  0.499644  1
  Rh  Rh22  1  0.000008  0.499227  0.666115  1
  Rh  Rh23  1  0.500025  0.000489  0.833617  1
