# generated using pymatgen
data_Pa9Si16W11
_symmetry_space_group_name_H-M   'P 1'
_cell_length_a   6.96813859
_cell_length_b   6.97537850
_cell_length_c   12.96551958
_cell_angle_alpha   89.38520674
_cell_angle_beta   90.11184302
_cell_angle_gamma   90.04164344
_symmetry_Int_Tables_number   1
_chemical_formula_structural   Pa9Si16W11
_chemical_formula_sum   'Pa9 Si16 W11'
_cell_volume   630.15668185
_cell_formula_units_Z   1
loop_
 _symmetry_equiv_pos_site_id
 _symmetry_equiv_pos_as_xyz
  1  'x, y, z'
loop_
 _atom_site_type_symbol
 _atom_site_label
 _atom_site_symmetry_multiplicity
 _atom_site_fract_x
 _atom_site_fract_y
 _atom_site_fract_z
 _atom_site_occupancy
  Pa  Pa0  1  0.326631  0.994550  0.470294  1
  Pa  Pa1  1  0.500883  0.833103  0.720991  1
  Pa  Pa2  1  0.494807  0.162099  0.220683  1
  Pa  Pa3  1  0.834351  0.499325  0.274363  1
  Pa  Pa4  1  0.159250  0.513908  0.777904  1
  Pa  Pa5  1  0.658206  0.010401  0.975360  1
  Pa  Pa6  1  0.998626  0.334739  0.530456  1
  Pa  Pa7  1  0.004919  0.663907  0.031649  1
  Pa  Pa8  1  0.015864  0.825576  0.630052  1
  Si  Si9  1  0.209534  0.140578  0.689123  1
  Si  Si10  1  0.381192  0.703358  0.933658  1
  Si  Si11  1  0.625607  0.293451  0.430762  1
  Si  Si12  1  0.697531  0.383066  0.067868  1
  Si  Si13  1  0.321241  0.611375  0.560675  1
  Si  Si14  1  0.800598  0.881002  0.184071  1
  Si  Si15  1  0.115965  0.197901  0.316578  1
  Si  Si16  1  0.873870  0.806275  0.831062  1
  Si  Si17  1  0.277562  0.973331  0.065159  1
  Si  Si18  1  0.530465  0.780753  0.314645  1
  Si  Si19  1  0.466414  0.222473  0.814105  1
  Si  Si20  1  0.770556  0.514586  0.687182  1
  Si  Si21  1  0.221249  0.468571  0.184749  1
  Si  Si22  1  0.702619  0.037165  0.562564  1
  Si  Si23  1  0.969479  0.285122  0.935713  1
  Si  Si24  1  0.037229  0.708419  0.423589  1
  W  W25  1  0.330564  0.339266  0.999427  1
  W  W26  1  0.166948  0.830633  0.247068  1
  W  W27  1  0.828750  0.164335  0.752958  1
  W  W28  1  0.675533  0.658621  0.496573  1
  W  W29  1  0.174902  0.992692  0.873565  1
  W  W30  1  0.512118  0.677030  0.120763  1
  W  W31  1  0.495587  0.322111  0.617064  1
  W  W32  1  0.673766  0.508677  0.881358  1
  W  W33  1  0.336527  0.478159  0.375085  1
  W  W34  1  0.824579  0.006978  0.373289  1
  W  W35  1  0.986083  0.176463  0.129593  1
