# generated using pymatgen
data_Y3In4NiIr
_symmetry_space_group_name_H-M   'P 1'
_cell_length_a   7.94903100
_cell_length_b   7.94903057
_cell_length_c   3.71049500
_cell_angle_alpha   90.00000000
_cell_angle_beta   90.00000000
_cell_angle_gamma   120.00000594
_symmetry_Int_Tables_number   1
_chemical_formula_structural   Y3In4NiIr
_chemical_formula_sum   'Y3 In4 Ni1 Ir1'
_cell_volume   203.04430573
_cell_formula_units_Z   1
loop_
 _symmetry_equiv_pos_site_id
 _symmetry_equiv_pos_as_xyz
  1  'x, y, z'
loop_
 _atom_site_type_symbol
 _atom_site_label
 _atom_site_symmetry_multiplicity
 _atom_site_fract_x
 _atom_site_fract_y
 _atom_site_fract_z
 _atom_site_occupancy
  Y  Y0  1  0.050377  0.299972  0.500000  1
  Y  Y1  1  0.700028  0.750404  0.500000  1
  Y  Y2  1  0.249596  0.949623  0.500000  1
  In  In3  1  0.665745  0.083854  0.000000  1
  In  In4  1  0.916146  0.581892  0.000000  1
  In  In5  1  0.418108  0.334255  0.000000  1
  In  In6  1  0.333333  0.666667  0.000000  1
  Ni  Ni7  1  0.666667  0.333333  0.500000  1
  Ir  Ir8  1  0.000000  0.000000  0.000000  1
