# generated using pymatgen
data_Tm2LuZr3(SnRh)6
_symmetry_space_group_name_H-M   'P 1'
_cell_length_a   7.49714421
_cell_length_b   7.50006996
_cell_length_c   7.43258700
_cell_angle_alpha   90.00000000
_cell_angle_beta   90.00000000
_cell_angle_gamma   120.01407111
_symmetry_Int_Tables_number   1
_chemical_formula_structural   Tm2LuZr3(SnRh)6
_chemical_formula_sum   'Tm2 Lu1 Zr3 Sn6 Rh6'
_cell_volume   361.88469511
_cell_formula_units_Z   1
loop_
 _symmetry_equiv_pos_site_id
 _symmetry_equiv_pos_as_xyz
  1  'x, y, z'
loop_
 _atom_site_type_symbol
 _atom_site_label
 _atom_site_symmetry_multiplicity
 _atom_site_fract_x
 _atom_site_fract_y
 _atom_site_fract_z
 _atom_site_occupancy
  Tm  Tm0  1  0.595297  0.998948  0.750000  1
  Tm  Tm1  1  0.403623  0.404730  0.750000  1
  Lu  Lu2  1  0.001040  0.596560  0.750000  1
  Zr  Zr3  1  0.605613  0.003039  0.250000  1
  Zr  Zr4  1  0.397449  0.394362  0.250000  1
  Zr  Zr5  1  0.996933  0.602515  0.250000  1
  Sn  Sn6  1  0.266247  0.998690  0.004406  1
  Sn  Sn7  1  0.732625  0.733572  0.495577  1
  Sn  Sn8  1  0.001111  0.267685  0.495848  1
  Sn  Sn9  1  0.001111  0.267685  0.004152  1
  Sn  Sn10  1  0.732625  0.733572  0.004423  1
  Sn  Sn11  1  0.266247  0.998690  0.495594  1
  Rh  Rh12  1  0.666971  0.333578  0.020033  1
  Rh  Rh13  1  0.666971  0.333578  0.479967  1
  Rh  Rh14  1  0.333064  0.666610  0.029959  1
  Rh  Rh15  1  0.333064  0.666610  0.470041  1
  Rh  Rh16  1  0.000009  0.999621  0.750000  1
  Rh  Rh17  1  0.999999  0.999955  0.250000  1
