# generated using pymatgen
data_TbPr16Er3Sn16
_symmetry_space_group_name_H-M   'P 1'
_cell_length_a   8.28912778
_cell_length_b   8.45082834
_cell_length_c   16.04432800
_cell_angle_alpha   90.00000000
_cell_angle_beta   90.00000000
_cell_angle_gamma   90.02617047
_symmetry_Int_Tables_number   1
_chemical_formula_structural   TbPr16Er3Sn16
_chemical_formula_sum   'Tb1 Pr16 Er3 Sn16'
_cell_volume   1123.90499437
_cell_formula_units_Z   1
loop_
 _symmetry_equiv_pos_site_id
 _symmetry_equiv_pos_as_xyz
  1  'x, y, z'
loop_
 _atom_site_type_symbol
 _atom_site_label
 _atom_site_symmetry_multiplicity
 _atom_site_fract_x
 _atom_site_fract_y
 _atom_site_fract_z
 _atom_site_occupancy
  Tb  Tb0  1  0.302395  0.001505  0.250000  1
  Pr  Pr1  1  0.366596  0.837760  0.878184  1
  Pr  Pr2  1  0.866705  0.661571  0.620451  1
  Pr  Pr3  1  0.633454  0.162451  0.379476  1
  Pr  Pr4  1  0.132923  0.337928  0.119967  1
  Pr  Pr5  1  0.633454  0.162451  0.120524  1
  Pr  Pr6  1  0.132923  0.337928  0.380033  1
  Pr  Pr7  1  0.366596  0.837760  0.621816  1
  Pr  Pr8  1  0.866705  0.661571  0.879549  1
  Pr  Pr9  1  0.518362  0.318616  0.901233  1
  Pr  Pr10  1  0.018361  0.181188  0.599604  1
  Pr  Pr11  1  0.481576  0.681038  0.401651  1
  Pr  Pr12  1  0.981926  0.818737  0.098303  1
  Pr  Pr13  1  0.481576  0.681038  0.098349  1
  Pr  Pr14  1  0.981926  0.818737  0.401697  1
  Pr  Pr15  1  0.518362  0.318616  0.598767  1
  Pr  Pr16  1  0.018361  0.181188  0.900396  1
  Er  Er17  1  0.198887  0.501607  0.750000  1
  Er  Er18  1  0.698421  0.998060  0.750000  1
  Er  Er19  1  0.801783  0.497539  0.250000  1
  Sn  Sn20  1  0.292720  0.035486  0.042953  1
  Sn  Sn21  1  0.792139  0.466488  0.455075  1
  Sn  Sn22  1  0.707212  0.966017  0.545009  1
  Sn  Sn23  1  0.208184  0.534096  0.954696  1
  Sn  Sn24  1  0.707212  0.966017  0.954991  1
  Sn  Sn25  1  0.208184  0.534096  0.545304  1
  Sn  Sn26  1  0.292720  0.035486  0.457047  1
  Sn  Sn27  1  0.792139  0.466488  0.044925  1
  Sn  Sn28  1  0.563614  0.616119  0.750000  1
  Sn  Sn29  1  0.062086  0.883189  0.750000  1
  Sn  Sn30  1  0.437182  0.384339  0.250000  1
  Sn  Sn31  1  0.936148  0.116847  0.250000  1
  Sn  Sn32  1  0.323839  0.147728  0.750000  1
  Sn  Sn33  1  0.822818  0.353162  0.750000  1
  Sn  Sn34  1  0.677185  0.852079  0.250000  1
  Sn  Sn35  1  0.175324  0.645074  0.250000  1
