# generated using pymatgen
data_YbMg(TaSe2)6
_symmetry_space_group_name_H-M   'P 1'
_cell_length_a   6.07986200
_cell_length_b   6.07986205
_cell_length_c   14.02207600
_cell_angle_alpha   90.00000000
_cell_angle_beta   90.00000000
_cell_angle_gamma   119.99999973
_symmetry_Int_Tables_number   1
_chemical_formula_structural   YbMg(TaSe2)6
_chemical_formula_sum   'Yb1 Mg1 Ta6 Se12'
_cell_volume   448.88014570
_cell_formula_units_Z   1
loop_
 _symmetry_equiv_pos_site_id
 _symmetry_equiv_pos_as_xyz
  1  'x, y, z'
loop_
 _atom_site_type_symbol
 _atom_site_label
 _atom_site_symmetry_multiplicity
 _atom_site_fract_x
 _atom_site_fract_y
 _atom_site_fract_z
 _atom_site_occupancy
  Yb  Yb0  1  0.000000  0.000000  0.000000  1
  Mg  Mg1  1  0.000000  0.000000  0.500000  1
  Ta  Ta2  1  0.333333  0.666667  0.260525  1
  Ta  Ta3  1  0.000000  0.000000  0.259687  1
  Ta  Ta4  1  0.000000  0.000000  0.740313  1
  Ta  Ta5  1  0.333333  0.666667  0.739475  1
  Ta  Ta6  1  0.666667  0.333333  0.739475  1
  Ta  Ta7  1  0.666667  0.333333  0.260525  1
  Se  Se8  1  0.000000  0.661511  0.621373  1
  Se  Se9  1  0.000000  0.660868  0.858300  1
  Se  Se10  1  0.000000  0.339132  0.141700  1
  Se  Se11  1  0.000000  0.338489  0.378627  1
  Se  Se12  1  0.338489  0.338489  0.621373  1
  Se  Se13  1  0.339132  0.339132  0.858300  1
  Se  Se14  1  0.660868  0.660868  0.141700  1
  Se  Se15  1  0.661511  0.661511  0.378627  1
  Se  Se16  1  0.339132  0.000000  0.141700  1
  Se  Se17  1  0.338489  0.000000  0.378627  1
  Se  Se18  1  0.661511  0.000000  0.621373  1
  Se  Se19  1  0.660868  0.000000  0.858300  1
