# generated using pymatgen
data_YTh2In3CuPd2
_symmetry_space_group_name_H-M   'P 1'
_cell_length_a   7.68213600
_cell_length_b   7.68213635
_cell_length_c   4.08498800
_cell_angle_alpha   90.00000000
_cell_angle_beta   90.00000000
_cell_angle_gamma   120.34199139
_symmetry_Int_Tables_number   1
_chemical_formula_structural   YTh2In3CuPd2
_chemical_formula_sum   'Y1 Th2 In3 Cu1 Pd2'
_cell_volume   208.05513750
_cell_formula_units_Z   1
loop_
 _symmetry_equiv_pos_site_id
 _symmetry_equiv_pos_as_xyz
  1  'x, y, z'
loop_
 _atom_site_type_symbol
 _atom_site_label
 _atom_site_symmetry_multiplicity
 _atom_site_fract_x
 _atom_site_fract_y
 _atom_site_fract_z
 _atom_site_occupancy
  Y  Y0  1  0.412171  0.412171  0.500000  1
  Th  Th1  1  0.584870  0.001153  0.500000  1
  Th  Th2  1  0.001153  0.584870  0.500000  1
  In  In3  1  0.245129  0.007193  0.000000  1
  In  In4  1  0.007193  0.245129  0.000000  1
  In  In5  1  0.748569  0.748569  0.000000  1
  Cu  Cu6  1  0.994763  0.994763  0.500000  1
  Pd  Pd7  1  0.331620  0.674533  0.000000  1
  Pd  Pd8  1  0.674533  0.331620  0.000000  1
