# generated using pymatgen
data_Nd4HgPd2PtPb2
_symmetry_space_group_name_H-M   'P 1'
_cell_length_a   3.74746300
_cell_length_b   8.29626523
_cell_length_c   8.27861770
_cell_angle_alpha   89.42263121
_cell_angle_beta   90.00000000
_cell_angle_gamma   90.00000000
_symmetry_Int_Tables_number   1
_chemical_formula_structural   Nd4HgPd2PtPb2
_chemical_formula_sum   'Nd4 Hg1 Pd2 Pt1 Pb2'
_cell_volume   257.36871758
_cell_formula_units_Z   1
loop_
 _symmetry_equiv_pos_site_id
 _symmetry_equiv_pos_as_xyz
  1  'x, y, z'
loop_
 _atom_site_type_symbol
 _atom_site_label
 _atom_site_symmetry_multiplicity
 _atom_site_fract_x
 _atom_site_fract_y
 _atom_site_fract_z
 _atom_site_occupancy
  Nd  Nd0  1  0.500000  0.167428  0.676364  1
  Nd  Nd1  1  0.500000  0.843307  0.348732  1
  Nd  Nd2  1  0.500000  0.309689  0.164588  1
  Nd  Nd3  1  0.500000  0.671726  0.805436  1
  Hg  Hg4  1  0.000000  0.624523  0.122646  1
  Pd  Pd5  1  0.000000  0.377764  0.876484  1
  Pd  Pd6  1  0.000000  0.134106  0.378046  1
  Pt  Pt7  1  0.000000  0.883443  0.626327  1
  Pb  Pb8  1  0.000000  0.001657  0.000196  1
  Pb  Pb9  1  0.000000  0.486356  0.501182  1
