# generated using pymatgen
data_Cs6Si2PdO8
_symmetry_space_group_name_H-M   'P 1'
_cell_length_a   7.04863480
_cell_length_b   7.31881441
_cell_length_c   8.19347554
_cell_angle_alpha   85.88126868
_cell_angle_beta   88.73190435
_cell_angle_gamma   68.92338071
_symmetry_Int_Tables_number   1
_chemical_formula_structural   Cs6Si2PdO8
_chemical_formula_sum   'Cs6 Si2 Pd1 O8'
_cell_volume   393.38315171
_cell_formula_units_Z   1
loop_
 _symmetry_equiv_pos_site_id
 _symmetry_equiv_pos_as_xyz
  1  'x, y, z'
loop_
 _atom_site_type_symbol
 _atom_site_label
 _atom_site_symmetry_multiplicity
 _atom_site_fract_x
 _atom_site_fract_y
 _atom_site_fract_z
 _atom_site_occupancy
  Cs  Cs0  1  0.203078  0.701951  0.012467  1
  Cs  Cs1  1  0.716334  0.202648  0.474371  1
  Cs  Cs2  1  0.796922  0.298049  0.987533  1
  Cs  Cs3  1  0.661925  0.828328  0.168240  1
  Cs  Cs4  1  0.338075  0.171672  0.831760  1
  Cs  Cs5  1  0.283666  0.797352  0.525629  1
  Si  Si6  1  0.772983  0.744879  0.730260  1
  Si  Si7  1  0.227017  0.255121  0.269740  1
  Pd  Pd8  1  0.000000  0.500000  0.500000  1
  O  O9  1  0.013864  0.459215  0.249911  1
  O  O10  1  0.752718  0.760504  0.523373  1
  O  O11  1  0.986136  0.540785  0.750089  1
  O  O12  1  0.423955  0.290133  0.181633  1
  O  O13  1  0.810003  0.935830  0.796815  1
  O  O14  1  0.247282  0.239496  0.476627  1
  O  O15  1  0.576045  0.709867  0.818367  1
  O  O16  1  0.189997  0.064170  0.203185  1
