# generated using pymatgen
data_Ho7Er5ZnInCo4
_symmetry_space_group_name_H-M   'P 1'
_cell_length_a   8.25878809
_cell_length_b   8.25862533
_cell_length_c   8.25903252
_cell_angle_alpha   111.55702333
_cell_angle_beta   110.23888692
_cell_angle_gamma   106.65517329
_symmetry_Int_Tables_number   1
_chemical_formula_structural   Ho7Er5ZnInCo4
_chemical_formula_sum   'Ho7 Er5 Zn1 In1 Co4'
_cell_volume   432.80990244
_cell_formula_units_Z   1
loop_
 _symmetry_equiv_pos_site_id
 _symmetry_equiv_pos_as_xyz
  1  'x, y, z'
loop_
 _atom_site_type_symbol
 _atom_site_label
 _atom_site_symmetry_multiplicity
 _atom_site_fract_x
 _atom_site_fract_y
 _atom_site_fract_z
 _atom_site_occupancy
  Ho  Ho0  1  0.814945  0.713880  0.528821  1
  Ho  Ho1  1  0.185027  0.713789  0.898811  1
  Ho  Ho2  1  0.815103  0.286164  0.101265  1
  Ho  Ho3  1  0.429112  0.225268  0.204025  1
  Ho  Ho4  1  0.570698  0.774613  0.795947  1
  Ho  Ho5  1  0.021340  0.225247  0.795950  1
  Ho  Ho6  1  0.978760  0.774918  0.204036  1
  Er  Er7  1  0.315214  0.618915  0.303816  1
  Er  Er8  1  0.684607  0.380989  0.696192  1
  Er  Er9  1  0.315174  0.011522  0.696156  1
  Er  Er10  1  0.684859  0.988582  0.303808  1
  Er  Er11  1  0.185009  0.286139  0.471080  1
  Zn  Zn12  1  0.000060  0.000119  0.000159  1
  In  In13  1  0.499985  0.499989  0.999972  1
  Co  Co14  1  0.113070  0.612893  0.499958  1
  Co  Co15  1  0.887068  0.386888  0.499960  1
  Co  Co16  1  0.375921  0.000055  0.375974  1
  Co  Co17  1  0.624048  0.000030  0.624069  1
