# generated using pymatgen
data_La15YCd4IrRu3
_symmetry_space_group_name_H-M   'P 1'
_cell_length_a   10.09175251
_cell_length_b   10.10651857
_cell_length_c   10.09175308
_cell_angle_alpha   59.55073715
_cell_angle_beta   59.89245054
_cell_angle_gamma   59.55074584
_symmetry_Int_Tables_number   1
_chemical_formula_structural   La15YCd4IrRu3
_chemical_formula_sum   'La15 Y1 Cd4 Ir1 Ru3'
_cell_volume   722.25025437
_cell_formula_units_Z   1
loop_
 _symmetry_equiv_pos_site_id
 _symmetry_equiv_pos_as_xyz
  1  'x, y, z'
loop_
 _atom_site_type_symbol
 _atom_site_label
 _atom_site_symmetry_multiplicity
 _atom_site_fract_x
 _atom_site_fract_y
 _atom_site_fract_z
 _atom_site_occupancy
  La  La0  1  0.442887  0.438760  0.059026  1
  La  La1  1  0.061239  0.060420  0.440738  1
  La  La2  1  0.440738  0.060420  0.061239  1
  La  La3  1  0.844291  0.847656  0.844291  1
  La  La4  1  0.691959  0.313411  0.310917  1
  La  La5  1  0.059026  0.438760  0.442887  1
  La  La6  1  0.315874  0.685085  0.690251  1
  La  La7  1  0.310917  0.313411  0.691959  1
  La  La8  1  0.847800  0.845562  0.458437  1
  La  La9  1  0.690251  0.685085  0.315874  1
  La  La10  1  0.458437  0.845562  0.847800  1
  La  La11  1  0.059402  0.441780  0.059402  1
  La  La12  1  0.842531  0.463032  0.842531  1
  La  La13  1  0.443563  0.056192  0.443563  1
  La  La14  1  0.312342  0.688219  0.312342  1
  Y  Y15  1  0.692230  0.307722  0.692230  1
  Cd  Cd16  1  0.078260  0.763475  0.078260  1
  Cd  Cd17  1  0.074543  0.081139  0.763000  1
  Cd  Cd18  1  0.763000  0.081139  0.074543  1
  Cd  Cd19  1  0.078156  0.079671  0.078156  1
  Ir  Ir20  1  0.636767  0.082293  0.636767  1
  Ru  Ru21  1  0.632470  0.647205  0.632470  1
  Ru  Ru22  1  0.634461  0.637000  0.088853  1
  Ru  Ru23  1  0.088853  0.637000  0.634461  1
