# generated using pymatgen
data_Tb2Lu6Sc12Si15Ir
_symmetry_space_group_name_H-M   'P 1'
_cell_length_a   7.04393669
_cell_length_b   7.39220127
_cell_length_c   13.87939337
_cell_angle_alpha   90.12114166
_cell_angle_beta   89.96667168
_cell_angle_gamma   90.05804309
_symmetry_Int_Tables_number   1
_chemical_formula_structural   Tb2Lu6Sc12Si15Ir
_chemical_formula_sum   'Tb2 Lu6 Sc12 Si15 Ir1'
_cell_volume   722.70065034
_cell_formula_units_Z   1
loop_
 _symmetry_equiv_pos_site_id
 _symmetry_equiv_pos_as_xyz
  1  'x, y, z'
loop_
 _atom_site_type_symbol
 _atom_site_label
 _atom_site_symmetry_multiplicity
 _atom_site_fract_x
 _atom_site_fract_y
 _atom_site_fract_z
 _atom_site_occupancy
  Tb  Tb0  1  0.511594  0.324276  0.403688  1
  Tb  Tb1  1  0.489545  0.675112  0.594440  1
  Lu  Lu2  1  0.011315  0.180375  0.094911  1
  Lu  Lu3  1  0.990492  0.825249  0.905479  1
  Lu  Lu4  1  0.489604  0.677501  0.905123  1
  Lu  Lu5  1  0.990904  0.826062  0.596500  1
  Lu  Lu6  1  0.511551  0.322580  0.096354  1
  Lu  Lu7  1  0.010857  0.180407  0.403268  1
  Sc  Sc8  1  0.159308  0.503597  0.750794  1
  Sc  Sc9  1  0.837778  0.496705  0.249008  1
  Sc  Sc10  1  0.339421  0.007128  0.249115  1
  Sc  Sc11  1  0.667243  0.994560  0.750952  1
  Sc  Sc12  1  0.317862  0.170773  0.627884  1
  Sc  Sc13  1  0.672731  0.827823  0.372888  1
  Sc  Sc14  1  0.169829  0.679564  0.373451  1
  Sc  Sc15  1  0.672378  0.825838  0.125603  1
  Sc  Sc16  1  0.836953  0.318677  0.628241  1
  Sc  Sc17  1  0.318515  0.171814  0.873546  1
  Sc  Sc18  1  0.837478  0.318513  0.873064  1
  Sc  Sc19  1  0.170061  0.679040  0.125127  1
  Si  Si20  1  0.970193  0.890715  0.249124  1
  Si  Si21  1  0.468640  0.614990  0.249003  1
  Si  Si22  1  0.530554  0.387743  0.751367  1
  Si  Si23  1  0.287737  0.863174  0.751797  1
  Si  Si24  1  0.715354  0.133621  0.248442  1
  Si  Si25  1  0.211820  0.369980  0.248239  1
  Si  Si26  1  0.780167  0.626405  0.751724  1
  Si  Si27  1  0.157616  0.467333  0.537653  1
  Si  Si28  1  0.844051  0.536956  0.461627  1
  Si  Si29  1  0.341856  0.967459  0.460326  1
  Si  Si30  1  0.840423  0.534796  0.038283  1
  Si  Si31  1  0.657942  0.033536  0.538655  1
  Si  Si32  1  0.161656  0.468846  0.962050  1
  Si  Si33  1  0.657397  0.033143  0.961558  1
  Si  Si34  1  0.343476  0.967810  0.039819  1
  Ir  Ir35  1  0.025692  0.097898  0.750898  1
