# generated using pymatgen
data_DyTm11(CoTc)2
_symmetry_space_group_name_H-M   'P 1'
_cell_length_a   6.24192100
_cell_length_b   7.15497500
_cell_length_c   9.09635700
_cell_angle_alpha   90.00000000
_cell_angle_beta   90.00000000
_cell_angle_gamma   90.00012012
_symmetry_Int_Tables_number   1
_chemical_formula_structural   DyTm11(CoTc)2
_chemical_formula_sum   'Dy1 Tm11 Co2 Tc2'
_cell_volume   406.25047798
_cell_formula_units_Z   1
loop_
 _symmetry_equiv_pos_site_id
 _symmetry_equiv_pos_as_xyz
  1  'x, y, z'
loop_
 _atom_site_type_symbol
 _atom_site_label
 _atom_site_symmetry_multiplicity
 _atom_site_fract_x
 _atom_site_fract_y
 _atom_site_fract_z
 _atom_site_occupancy
  Dy  Dy0  1  0.643549  0.459415  0.750000  1
  Tm  Tm1  1  0.667846  0.172639  0.063753  1
  Tm  Tm2  1  0.371358  0.547224  0.250000  1
  Tm  Tm3  1  0.143610  0.040887  0.250000  1
  Tm  Tm4  1  0.823866  0.681786  0.433495  1
  Tm  Tm5  1  0.323287  0.818603  0.933920  1
  Tm  Tm6  1  0.167312  0.326833  0.563244  1
  Tm  Tm7  1  0.667846  0.172639  0.436247  1
  Tm  Tm8  1  0.167312  0.326833  0.936756  1
  Tm  Tm9  1  0.323287  0.818603  0.566080  1
  Tm  Tm10  1  0.871761  0.953011  0.750000  1
  Tm  Tm11  1  0.823866  0.681786  0.066505  1
  Co  Co12  1  0.538874  0.885519  0.250000  1
  Co  Co13  1  0.039994  0.614898  0.750000  1
  Tc  Tc14  1  0.963456  0.390802  0.250000  1
  Tc  Tc15  1  0.462775  0.108521  0.750000  1
