# generated using pymatgen
data_Tb3Si3Ru2
_symmetry_space_group_name_H-M   'P 1'
_cell_length_a   5.79117116
_cell_length_b   5.79117073
_cell_length_c   13.84393900
_cell_angle_alpha   90.00000000
_cell_angle_beta   90.00000000
_cell_angle_gamma   137.61304543
_symmetry_Int_Tables_number   1
_chemical_formula_structural   Tb3Si3Ru2
_chemical_formula_sum   'Tb6 Si6 Ru4'
_cell_volume   312.99602993
_cell_formula_units_Z   2
loop_
 _symmetry_equiv_pos_site_id
 _symmetry_equiv_pos_as_xyz
  1  'x, y, z'
loop_
 _atom_site_type_symbol
 _atom_site_label
 _atom_site_symmetry_multiplicity
 _atom_site_fract_x
 _atom_site_fract_y
 _atom_site_fract_z
 _atom_site_occupancy
  Tb  Tb0  1  0.924028  0.075972  0.385384  1
  Tb  Tb1  1  0.075972  0.924028  0.614616  1
  Tb  Tb2  1  0.924028  0.075972  0.114616  1
  Tb  Tb3  1  0.075972  0.924028  0.885384  1
  Tb  Tb4  1  0.642270  0.357730  0.250000  1
  Tb  Tb5  1  0.357730  0.642270  0.750000  1
  Si  Si6  1  0.619493  0.380507  0.461510  1
  Si  Si7  1  0.380507  0.619493  0.538490  1
  Si  Si8  1  0.619493  0.380507  0.038490  1
  Si  Si9  1  0.380507  0.619493  0.961510  1
  Si  Si10  1  0.328350  0.671650  0.250000  1
  Si  Si11  1  0.671650  0.328350  0.750000  1
  Ru  Ru12  1  0.785843  0.214157  0.919459  1
  Ru  Ru13  1  0.214157  0.785843  0.080541  1
  Ru  Ru14  1  0.785843  0.214157  0.580541  1
  Ru  Ru15  1  0.214157  0.785843  0.419459  1
