# generated using pymatgen
data_Sc3ZnSn3IrOs
_symmetry_space_group_name_H-M   'P 1'
_cell_length_a   7.57745800
_cell_length_b   7.57795262
_cell_length_c   3.55407500
_cell_angle_alpha   90.00000000
_cell_angle_beta   90.00000000
_cell_angle_gamma   119.99742134
_symmetry_Int_Tables_number   1
_chemical_formula_structural   Sc3ZnSn3IrOs
_chemical_formula_sum   'Sc3 Zn1 Sn3 Ir1 Os1'
_cell_volume   176.74369406
_cell_formula_units_Z   1
loop_
 _symmetry_equiv_pos_site_id
 _symmetry_equiv_pos_as_xyz
  1  'x, y, z'
loop_
 _atom_site_type_symbol
 _atom_site_label
 _atom_site_symmetry_multiplicity
 _atom_site_fract_x
 _atom_site_fract_y
 _atom_site_fract_z
 _atom_site_occupancy
  Sc  Sc0  1  0.597390  0.972995  0.000000  1
  Sc  Sc1  1  0.027023  0.624408  0.000000  1
  Sc  Sc2  1  0.375602  0.402618  0.000000  1
  Zn  Zn3  1  0.666667  0.333329  0.500000  1
  Sn  Sn4  1  0.276718  0.007012  0.500000  1
  Sn  Sn5  1  0.992978  0.269693  0.500000  1
  Sn  Sn6  1  0.730302  0.723299  0.500000  1
  Ir  Ir7  1  0.000009  0.999995  0.000000  1
  Os  Os8  1  0.333311  0.666651  0.500000  1
