# generated using pymatgen
data_Tb7Dy(InIr)2
_symmetry_space_group_name_H-M   'P 1'
_cell_length_a   9.70603599
_cell_length_b   9.71611366
_cell_length_c   9.71983300
_cell_angle_alpha   59.98733964
_cell_angle_beta   59.95296982
_cell_angle_gamma   59.94913386
_symmetry_Int_Tables_number   1
_chemical_formula_structural   Tb7Dy(InIr)2
_chemical_formula_sum   'Tb14 Dy2 In4 Ir4'
_cell_volume   647.61227116
_cell_formula_units_Z   2
loop_
 _symmetry_equiv_pos_site_id
 _symmetry_equiv_pos_as_xyz
  1  'x, y, z'
loop_
 _atom_site_type_symbol
 _atom_site_label
 _atom_site_symmetry_multiplicity
 _atom_site_fract_x
 _atom_site_fract_y
 _atom_site_fract_z
 _atom_site_occupancy
  Tb  Tb0  1  0.940828  0.559264  0.940914  1
  Tb  Tb1  1  0.310477  0.689781  0.309931  1
  Tb  Tb2  1  0.940828  0.559264  0.558994  1
  Tb  Tb3  1  0.310983  0.310311  0.689353  1
  Tb  Tb4  1  0.099091  0.098939  0.098819  1
  Tb  Tb5  1  0.558937  0.559234  0.940914  1
  Tb  Tb6  1  0.099091  0.098939  0.703151  1
  Tb  Tb7  1  0.689762  0.310021  0.689776  1
  Tb  Tb8  1  0.689574  0.688925  0.310751  1
  Tb  Tb9  1  0.689762  0.310021  0.310441  1
  Tb  Tb10  1  0.310477  0.689781  0.689810  1
  Tb  Tb11  1  0.559357  0.940673  0.559373  1
  Tb  Tb12  1  0.703038  0.098726  0.099118  1
  Tb  Tb13  1  0.559357  0.940673  0.940598  1
  Dy  Dy14  1  0.098430  0.703863  0.098854  1
  Dy  Dy15  1  0.940846  0.940632  0.559261  1
  In  In16  1  0.332636  0.333154  0.333121  1
  In  In17  1  0.001328  0.333069  0.332801  1
  In  In18  1  0.332250  0.001771  0.332989  1
  In  In19  1  0.332636  0.333154  0.001088  1
  Ir  Ir20  1  0.891652  0.891264  0.890877  1
  Ir  Ir21  1  0.891652  0.891264  0.326208  1
  Ir  Ir22  1  0.325739  0.890958  0.891651  1
  Ir  Ir23  1  0.891268  0.326319  0.891206  1
