# generated using pymatgen
data_Tb3YGa3SiNi4
_symmetry_space_group_name_H-M   'P 1'
_cell_length_a   4.27690700
_cell_length_b   6.90574417
_cell_length_c   7.28781700
_cell_angle_alpha   91.39166668
_cell_angle_beta   90.00000000
_cell_angle_gamma   90.00000000
_symmetry_Int_Tables_number   1
_chemical_formula_structural   Tb3YGa3SiNi4
_chemical_formula_sum   'Tb3 Y1 Ga3 Si1 Ni4'
_cell_volume   215.18382834
_cell_formula_units_Z   1
loop_
 _symmetry_equiv_pos_site_id
 _symmetry_equiv_pos_as_xyz
  1  'x, y, z'
loop_
 _atom_site_type_symbol
 _atom_site_label
 _atom_site_symmetry_multiplicity
 _atom_site_fract_x
 _atom_site_fract_y
 _atom_site_fract_z
 _atom_site_occupancy
  Tb  Tb0  1  0.250000  0.485493  0.201412  1
  Tb  Tb1  1  0.750000  0.515875  0.797084  1
  Tb  Tb2  1  0.250000  0.981675  0.299446  1
  Y  Y3  1  0.750000  0.010036  0.697922  1
  Ga  Ga4  1  0.250000  0.813034  0.916820  1
  Ga  Ga5  1  0.750000  0.183573  0.082920  1
  Ga  Ga6  1  0.250000  0.308299  0.584864  1
  Si  Si7  1  0.750000  0.683220  0.416665  1
  Ni  Ni8  1  0.750000  0.792439  0.097872  1
  Ni  Ni9  1  0.250000  0.202932  0.912147  1
  Ni  Ni10  1  0.750000  0.319458  0.415320  1
  Ni  Ni11  1  0.250000  0.703964  0.577529  1
