# generated using pymatgen
data_Sc12In3Tc2
_symmetry_space_group_name_H-M   'P 1'
_cell_length_a   7.97271814
_cell_length_b   7.97271938
_cell_length_c   7.97271862
_cell_angle_alpha   110.50943280
_cell_angle_beta   110.50943500
_cell_angle_gamma   107.41416864
_symmetry_Int_Tables_number   1
_chemical_formula_structural   Sc12In3Tc2
_chemical_formula_sum   'Sc12 In3 Tc2'
_cell_volume   389.74385131
_cell_formula_units_Z   1
loop_
 _symmetry_equiv_pos_site_id
 _symmetry_equiv_pos_as_xyz
  1  'x, y, z'
loop_
 _atom_site_type_symbol
 _atom_site_label
 _atom_site_symmetry_multiplicity
 _atom_site_fract_x
 _atom_site_fract_y
 _atom_site_fract_z
 _atom_site_occupancy
  Sc  Sc0  1  0.459871  0.205942  0.253930  1
  Sc  Sc1  1  0.540129  0.794058  0.746070  1
  Sc  Sc2  1  0.952012  0.205942  0.746070  1
  Sc  Sc3  1  0.205942  0.952012  0.746070  1
  Sc  Sc4  1  0.047988  0.794058  0.253930  1
  Sc  Sc5  1  0.794058  0.047988  0.253930  1
  Sc  Sc6  1  0.205942  0.459871  0.253930  1
  Sc  Sc7  1  0.794058  0.540129  0.746070  1
  Sc  Sc8  1  0.312768  0.312768  0.625536  1
  Sc  Sc9  1  0.687232  0.687232  0.374464  1
  Sc  Sc10  1  0.312768  0.687232  0.000000  1
  Sc  Sc11  1  0.687232  0.312768  0.000000  1
  In  In12  1  0.500000  0.000000  0.500000  1
  In  In13  1  0.000000  0.500000  0.500000  1
  In  In14  1  0.000000  0.000000  0.000000  1
  Tc  Tc15  1  0.342384  0.342384  0.000000  1
  Tc  Tc16  1  0.657616  0.657616  0.000000  1
