# generated using pymatgen
data_Sm7Pt16
_symmetry_space_group_name_H-M   'P 1'
_cell_length_a   9.48338041
_cell_length_b   9.48337981
_cell_length_c   9.48338055
_cell_angle_alpha   131.69194708
_cell_angle_beta   131.69195123
_cell_angle_gamma   70.71600144
_symmetry_Int_Tables_number   1
_chemical_formula_structural   Sm7Pt16
_chemical_formula_sum   'Sm7 Pt16'
_cell_volume   465.85785074
_cell_formula_units_Z   1
loop_
 _symmetry_equiv_pos_site_id
 _symmetry_equiv_pos_as_xyz
  1  'x, y, z'
loop_
 _atom_site_type_symbol
 _atom_site_label
 _atom_site_symmetry_multiplicity
 _atom_site_fract_x
 _atom_site_fract_y
 _atom_site_fract_z
 _atom_site_occupancy
  Sm  Sm0  1  0.104550  0.104550  0.423948  1
  Sm  Sm1  1  0.680602  0.680602  0.576052  1
  Sm  Sm2  1  0.895450  0.319398  0.000000  1
  Sm  Sm3  1  0.750000  0.250000  0.500000  1
  Sm  Sm4  1  0.500000  0.500000  0.000000  1
  Sm  Sm5  1  0.319398  0.895450  0.000000  1
  Sm  Sm6  1  0.250000  0.750000  0.500000  1
  Pt  Pt7  1  0.434893  0.190112  0.000000  1
  Pt  Pt8  1  0.683639  0.934811  0.488848  1
  Pt  Pt9  1  0.934811  0.683639  0.488848  1
  Pt  Pt10  1  0.190112  0.434893  0.000000  1
  Pt  Pt11  1  0.316361  0.805208  0.251171  1
  Pt  Pt12  1  0.938631  0.676236  0.000000  1
  Pt  Pt13  1  0.809888  0.809888  0.244781  1
  Pt  Pt14  1  0.065189  0.554036  0.748829  1
  Pt  Pt15  1  0.061369  0.061369  0.737605  1
  Pt  Pt16  1  0.676236  0.938631  0.000000  1
  Pt  Pt17  1  0.565107  0.565107  0.755219  1
  Pt  Pt18  1  0.805208  0.316361  0.251171  1
  Pt  Pt19  1  0.554036  0.065189  0.748829  1
  Pt  Pt20  1  0.194792  0.445964  0.511152  1
  Pt  Pt21  1  0.323764  0.323764  0.262395  1
  Pt  Pt22  1  0.445964  0.194792  0.511152  1
