# generated using pymatgen
data_Hf6Al16Cu3Rh4
_symmetry_space_group_name_H-M   'P 1'
_cell_length_a   8.64465302
_cell_length_b   8.67732857
_cell_length_c   8.67189085
_cell_angle_alpha   59.75495390
_cell_angle_beta   59.74423268
_cell_angle_gamma   60.10036666
_symmetry_Int_Tables_number   1
_chemical_formula_structural   Hf6Al16Cu3Rh4
_chemical_formula_sum   'Hf6 Al16 Cu3 Rh4'
_cell_volume   458.56832207
_cell_formula_units_Z   1
loop_
 _symmetry_equiv_pos_site_id
 _symmetry_equiv_pos_as_xyz
  1  'x, y, z'
loop_
 _atom_site_type_symbol
 _atom_site_label
 _atom_site_symmetry_multiplicity
 _atom_site_fract_x
 _atom_site_fract_y
 _atom_site_fract_z
 _atom_site_occupancy
  Hf  Hf0  1  0.691260  0.310679  0.308682  1
  Hf  Hf1  1  0.308749  0.689430  0.691155  1
  Hf  Hf2  1  0.312729  0.687387  0.312604  1
  Hf  Hf3  1  0.320766  0.320919  0.679335  1
  Hf  Hf4  1  0.687378  0.312688  0.687338  1
  Hf  Hf5  1  0.679161  0.679126  0.320843  1
  Al  Al6  1  0.336873  0.335577  0.332939  1
  Al  Al7  1  0.334032  0.335211  0.998343  1
  Al  Al8  1  0.998196  0.332386  0.334145  1
  Al  Al9  1  0.333008  0.994793  0.336847  1
  Al  Al10  1  0.663080  0.664523  0.667134  1
  Al  Al11  1  0.665892  0.664822  0.001745  1
  Al  Al12  1  0.667202  0.005299  0.663054  1
  Al  Al13  1  0.001803  0.667454  0.665923  1
  Al  Al14  1  0.124875  0.115867  0.116206  1
  Al  Al15  1  0.123382  0.122775  0.640419  1
  Al  Al16  1  0.640421  0.113587  0.123325  1
  Al  Al17  1  0.116106  0.643011  0.124874  1
  Al  Al18  1  0.875185  0.884115  0.883725  1
  Al  Al19  1  0.876655  0.877164  0.359612  1
  Al  Al20  1  0.883745  0.356988  0.875285  1
  Al  Al21  1  0.359600  0.886484  0.876714  1
  Cu  Cu22  1  0.999605  0.499529  0.999901  1
  Cu  Cu23  1  0.000494  0.999712  0.499700  1
  Cu  Cu24  1  0.499868  0.500357  0.999931  1
  Rh  Rh25  1  0.999926  0.000018  0.000034  1
  Rh  Rh26  1  0.500040  0.000062  0.000028  1
  Rh  Rh27  1  0.999921  0.500031  0.500091  1
  Rh  Rh28  1  0.500046  0.000003  0.500066  1
