# generated using pymatgen
data_La2TbGd3Nb2O14
_symmetry_space_group_name_H-M   'P 1'
_cell_length_a   6.57988489
_cell_length_b   6.58972052
_cell_length_c   7.71848000
_cell_angle_alpha   90.00000000
_cell_angle_beta   90.00000000
_cell_angle_gamma   109.25909548
_symmetry_Int_Tables_number   1
_chemical_formula_structural   La2TbGd3Nb2O14
_chemical_formula_sum   'La2 Tb1 Gd3 Nb2 O14'
_cell_volume   315.94096471
_cell_formula_units_Z   1
loop_
 _symmetry_equiv_pos_site_id
 _symmetry_equiv_pos_as_xyz
  1  'x, y, z'
loop_
 _atom_site_type_symbol
 _atom_site_label
 _atom_site_symmetry_multiplicity
 _atom_site_fract_x
 _atom_site_fract_y
 _atom_site_fract_z
 _atom_site_occupancy
  La  La0  1  0.500183  0.500329  0.500714  1
  La  La1  1  0.500183  0.500329  0.999286  1
  Tb  Tb2  1  0.534697  0.000850  0.750000  1
  Gd  Gd3  1  0.000315  0.534140  0.250000  1
  Gd  Gd4  1  0.466513  0.999410  0.250000  1
  Gd  Gd5  1  0.999610  0.465924  0.750000  1
  Nb  Nb6  1  0.000387  0.000012  0.500399  1
  Nb  Nb7  1  0.000387  0.000012  0.999601  1
  O  O8  1  0.680879  0.932226  0.469579  1
  O  O9  1  0.931612  0.681485  0.532146  1
  O  O10  1  0.680879  0.932226  0.030421  1
  O  O11  1  0.931612  0.681485  0.967854  1
  O  O12  1  0.318241  0.066882  0.534352  1
  O  O13  1  0.068508  0.318179  0.467838  1
  O  O14  1  0.318241  0.066882  0.965648  1
  O  O15  1  0.068508  0.318179  0.032162  1
  O  O16  1  0.366303  0.637764  0.750000  1
  O  O17  1  0.634672  0.364875  0.250000  1
  O  O18  1  0.641375  0.357096  0.750000  1
  O  O19  1  0.359069  0.641340  0.250000  1
  O  O20  1  0.934189  0.063441  0.750000  1
  O  O21  1  0.063635  0.936933  0.250000  1
