# generated using pymatgen
data_YLu(ZnIr)2
_symmetry_space_group_name_H-M   'P 1'
_cell_length_a   4.03754000
_cell_length_b   6.97103830
_cell_length_c   8.06958869
_cell_angle_alpha   89.32502816
_cell_angle_beta   90.00000000
_cell_angle_gamma   90.00000000
_symmetry_Int_Tables_number   1
_chemical_formula_structural   YLu(ZnIr)2
_chemical_formula_sum   'Y2 Lu2 Zn4 Ir4'
_cell_volume   227.10964051
_cell_formula_units_Z   2
loop_
 _symmetry_equiv_pos_site_id
 _symmetry_equiv_pos_as_xyz
  1  'x, y, z'
loop_
 _atom_site_type_symbol
 _atom_site_label
 _atom_site_symmetry_multiplicity
 _atom_site_fract_x
 _atom_site_fract_y
 _atom_site_fract_z
 _atom_site_occupancy
  Y  Y0  1  0.250000  0.534510  0.184415  1
  Y  Y1  1  0.750000  0.465490  0.815585  1
  Lu  Lu2  1  0.750000  0.965958  0.680262  1
  Lu  Lu3  1  0.250000  0.034042  0.319738  1
  Zn  Zn4  1  0.250000  0.641676  0.566823  1
  Zn  Zn5  1  0.750000  0.358324  0.433177  1
  Zn  Zn6  1  0.750000  0.861150  0.066385  1
  Zn  Zn7  1  0.250000  0.138850  0.933615  1
  Ir  Ir8  1  0.250000  0.763992  0.874506  1
  Ir  Ir9  1  0.750000  0.236008  0.125494  1
  Ir  Ir10  1  0.750000  0.746243  0.380675  1
  Ir  Ir11  1  0.250000  0.253757  0.619325  1
