# generated using pymatgen
data_Nd3U3(SiPt5)2
_symmetry_space_group_name_H-M   'P 1'
_cell_length_a   8.34295467
_cell_length_b   8.43032782
_cell_length_c   8.43032744
_cell_angle_alpha   128.84457142
_cell_angle_beta   127.03775647
_cell_angle_gamma   76.95907690
_symmetry_Int_Tables_number   1
_chemical_formula_structural   Nd3U3(SiPt5)2
_chemical_formula_sum   'Nd3 U3 Si2 Pt10'
_cell_volume   357.42496239
_cell_formula_units_Z   1
loop_
 _symmetry_equiv_pos_site_id
 _symmetry_equiv_pos_as_xyz
  1  'x, y, z'
loop_
 _atom_site_type_symbol
 _atom_site_label
 _atom_site_symmetry_multiplicity
 _atom_site_fract_x
 _atom_site_fract_y
 _atom_site_fract_z
 _atom_site_occupancy
  Nd  Nd0  1  0.823176  0.545533  0.277643  1
  Nd  Nd1  1  0.614895  0.253352  0.361544  1
  Nd  Nd2  1  0.171766  0.449284  0.722482  1
  U  U3  1  0.375762  0.747010  0.628752  1
  U  U4  1  0.236817  0.955728  0.281089  1
  U  U5  1  0.761219  0.046324  0.714894  1
  Si  Si6  1  0.199295  0.250398  0.948898  1
  Si  Si7  1  0.765738  0.748275  0.017462  1
  Pt  Pt8  1  0.173715  0.908551  0.865865  1
  Pt  Pt9  1  0.838589  0.094442  0.131915  1
  Pt  Pt10  1  0.450573  0.168929  0.839286  1
  Pt  Pt11  1  0.546144  0.386696  0.729038  1
  Pt  Pt12  1  0.838589  0.706674  0.744147  1
  Pt  Pt13  1  0.450573  0.611287  0.281643  1
  Pt  Pt14  1  0.546144  0.817107  0.159448  1
  Pt  Pt15  1  0.173715  0.307850  0.265164  1
  Pt  Pt16  1  0.016644  0.967647  0.481730  1
  Pt  Pt17  1  0.016644  0.534914  0.048999  1
