# generated using pymatgen
data_Hg4Ir3AuO14
_symmetry_space_group_name_H-M   'P 1'
_cell_length_a   7.36102600
_cell_length_b   7.34698133
_cell_length_c   7.34698072
_cell_angle_alpha   60.12652535
_cell_angle_beta   90.00000000
_cell_angle_gamma   59.93674379
_symmetry_Int_Tables_number   1
_chemical_formula_structural   Hg4Ir3AuO14
_chemical_formula_sum   'Hg4 Ir3 Au1 O14'
_cell_volume   281.22556082
_cell_formula_units_Z   1
loop_
 _symmetry_equiv_pos_site_id
 _symmetry_equiv_pos_as_xyz
  1  'x, y, z'
loop_
 _atom_site_type_symbol
 _atom_site_label
 _atom_site_symmetry_multiplicity
 _atom_site_fract_x
 _atom_site_fract_y
 _atom_site_fract_z
 _atom_site_occupancy
  Hg  Hg0  1  0.499999  0.000000  0.000000  1
  Hg  Hg1  1  0.000000  0.500000  0.000000  1
  Hg  Hg2  1  0.500001  0.500000  0.000000  1
  Hg  Hg3  1  0.500001  0.000000  0.500000  1
  Ir  Ir4  1  0.000000  0.000000  0.000000  1
  Ir  Ir5  1  0.000000  0.499998  0.500002  1
  Ir  Ir6  1  0.500001  0.499998  0.500002  1
  Au  Au7  1  0.000000  0.000000  0.500000  1
  O  O8  1  0.377251  0.245497  0.122747  1
  O  O9  1  0.315398  0.764429  0.184599  1
  O  O10  1  0.920171  0.764429  0.184599  1
  O  O11  1  0.918038  0.163925  0.157443  1
  O  O12  1  0.081960  0.260596  0.418037  1
  O  O13  1  0.657443  0.260596  0.418037  1
  O  O14  1  0.684600  0.630801  0.420173  1
  O  O15  1  0.342557  0.739405  0.581962  1
  O  O16  1  0.918038  0.739405  0.581962  1
  O  O17  1  0.315400  0.369198  0.579829  1
  O  O18  1  0.081963  0.836074  0.842556  1
  O  O19  1  0.079829  0.235573  0.815400  1
  O  O20  1  0.684599  0.235573  0.815400  1
  O  O21  1  0.622748  0.754504  0.877253  1
