# generated using pymatgen
data_Pr8CdHgIrPt
_symmetry_space_group_name_H-M   'P 1'
_cell_length_a   10.05525833
_cell_length_b   10.05525786
_cell_length_c   10.04595900
_cell_angle_alpha   60.03059649
_cell_angle_beta   60.03059804
_cell_angle_gamma   60.23821943
_symmetry_Int_Tables_number   1
_chemical_formula_structural   Pr8CdHgIrPt
_chemical_formula_sum   'Pr16 Cd2 Hg2 Ir2 Pt2'
_cell_volume   719.84676001
_cell_formula_units_Z   2
loop_
 _symmetry_equiv_pos_site_id
 _symmetry_equiv_pos_as_xyz
  1  'x, y, z'
loop_
 _atom_site_type_symbol
 _atom_site_label
 _atom_site_symmetry_multiplicity
 _atom_site_fract_x
 _atom_site_fract_y
 _atom_site_fract_z
 _atom_site_occupancy
  Pr  Pr0  1  0.350540  0.350540  0.345973  1
  Pr  Pr1  1  0.350540  0.350540  0.952945  1
  Pr  Pr2  1  0.355537  0.944705  0.349879  1
  Pr  Pr3  1  0.944705  0.355537  0.349879  1
  Pr  Pr4  1  0.805869  0.189584  0.192001  1
  Pr  Pr5  1  0.189584  0.805869  0.812545  1
  Pr  Pr6  1  0.189584  0.805869  0.192001  1
  Pr  Pr7  1  0.805869  0.189584  0.812545  1
  Pr  Pr8  1  0.190500  0.190500  0.809500  1
  Pr  Pr9  1  0.808832  0.808832  0.191168  1
  Pr  Pr10  1  0.939267  0.562352  0.561529  1
  Pr  Pr11  1  0.562352  0.939267  0.936852  1
  Pr  Pr12  1  0.562352  0.939267  0.561529  1
  Pr  Pr13  1  0.939267  0.562352  0.936852  1
  Pr  Pr14  1  0.561943  0.561943  0.938057  1
  Pr  Pr15  1  0.938473  0.938473  0.561527  1
  Cd  Cd16  1  0.578771  0.260973  0.580128  1
  Cd  Cd17  1  0.260973  0.578771  0.580128  1
  Hg  Hg18  1  0.583555  0.583555  0.585438  1
  Hg  Hg19  1  0.583555  0.583555  0.247451  1
  Ir  Ir20  1  0.141537  0.572025  0.143220  1
  Ir  Ir21  1  0.572025  0.141537  0.143220  1
  Pt  Pt22  1  0.142183  0.142183  0.144969  1
  Pt  Pt23  1  0.142183  0.142183  0.570665  1
