# generated using pymatgen
data_Ta2SiH
_symmetry_space_group_name_H-M   'P 1'
_cell_length_a   5.11994907
_cell_length_b   5.11994939
_cell_length_c   5.11994947
_cell_angle_alpha   105.17340240
_cell_angle_beta   105.17340519
_cell_angle_gamma   118.45821223
_symmetry_Int_Tables_number   1
_chemical_formula_structural   Ta2SiH
_chemical_formula_sum   'Ta4 Si2 H2'
_cell_volume   101.38451395
_cell_formula_units_Z   2
loop_
 _symmetry_equiv_pos_site_id
 _symmetry_equiv_pos_as_xyz
  1  'x, y, z'
loop_
 _atom_site_type_symbol
 _atom_site_label
 _atom_site_symmetry_multiplicity
 _atom_site_fract_x
 _atom_site_fract_y
 _atom_site_fract_z
 _atom_site_occupancy
  Ta  Ta0  1  0.167776  0.667776  0.835553  1
  Ta  Ta1  1  0.832224  0.332224  0.164447  1
  Ta  Ta2  1  0.332224  0.167776  0.500000  1
  Ta  Ta3  1  0.667776  0.832224  0.500000  1
  Si  Si4  1  0.250000  0.250000  0.000000  1
  Si  Si5  1  0.750000  0.750000  0.000000  1
  H  H6  1  0.750000  0.250000  0.500000  1
  H  H7  1  0.250000  0.750000  0.500000  1
