# generated using pymatgen
data_Yb2Ho2TmRh2
_symmetry_space_group_name_H-M   'P 1'
_cell_length_a   6.40264892
_cell_length_b   7.21614295
_cell_length_c   8.49179400
_cell_angle_alpha   97.35338436
_cell_angle_beta   112.14739320
_cell_angle_gamma   90.00000588
_symmetry_Int_Tables_number   1
_chemical_formula_structural   Yb2Ho2TmRh2
_chemical_formula_sum   'Yb4 Ho4 Tm2 Rh4'
_cell_volume   359.90721810
_cell_formula_units_Z   2
loop_
 _symmetry_equiv_pos_site_id
 _symmetry_equiv_pos_as_xyz
  1  'x, y, z'
loop_
 _atom_site_type_symbol
 _atom_site_label
 _atom_site_symmetry_multiplicity
 _atom_site_fract_x
 _atom_site_fract_y
 _atom_site_fract_z
 _atom_site_occupancy
  Yb  Yb0  1  0.791805  0.081518  0.811752  1
  Yb  Yb1  1  0.980051  0.418482  0.188248  1
  Yb  Yb2  1  0.208195  0.918482  0.188248  1
  Yb  Yb3  1  0.019949  0.581518  0.811752  1
  Ho  Ho4  1  0.206319  0.187178  0.565098  1
  Ho  Ho5  1  0.641222  0.312822  0.434902  1
  Ho  Ho6  1  0.793681  0.812822  0.434902  1
  Ho  Ho7  1  0.358778  0.687178  0.565098  1
  Tm  Tm8  1  0.428610  0.250000  0.000000  1
  Tm  Tm9  1  0.571390  0.750000  0.000000  1
  Rh  Rh10  1  0.588270  0.428710  0.774663  1
  Rh  Rh11  1  0.813606  0.071290  0.225337  1
  Rh  Rh12  1  0.411730  0.571290  0.225337  1
  Rh  Rh13  1  0.186394  0.928710  0.774663  1
