# generated using pymatgen
data_TmLuIn4(Ni7B2)2
_symmetry_space_group_name_H-M   'P 1'
_cell_length_a   4.97942300
_cell_length_b   4.97942378
_cell_length_c   14.01849900
_cell_angle_alpha   90.00000000
_cell_angle_beta   90.00000000
_cell_angle_gamma   119.99998820
_symmetry_Int_Tables_number   1
_chemical_formula_structural   TmLuIn4(Ni7B2)2
_chemical_formula_sum   'Tm1 Lu1 In4 Ni14 B4'
_cell_volume   301.01650437
_cell_formula_units_Z   1
loop_
 _symmetry_equiv_pos_site_id
 _symmetry_equiv_pos_as_xyz
  1  'x, y, z'
loop_
 _atom_site_type_symbol
 _atom_site_label
 _atom_site_symmetry_multiplicity
 _atom_site_fract_x
 _atom_site_fract_y
 _atom_site_fract_z
 _atom_site_occupancy
  Tm  Tm0  1  0.333333  0.666667  0.750000  1
  Lu  Lu1  1  0.666667  0.333333  0.250000  1
  In  In2  1  0.333333  0.666667  0.531445  1
  In  In3  1  0.666667  0.333333  0.031789  1
  In  In4  1  0.666667  0.333333  0.468211  1
  In  In5  1  0.333333  0.666667  0.968555  1
  Ni  Ni6  1  0.000000  0.000000  0.999980  1
  Ni  Ni7  1  0.000000  0.000000  0.500020  1
  Ni  Ni8  1  0.166755  0.333512  0.146566  1
  Ni  Ni9  1  0.833254  0.666506  0.646314  1
  Ni  Ni10  1  0.666488  0.833245  0.146566  1
  Ni  Ni11  1  0.166755  0.833245  0.146566  1
  Ni  Ni12  1  0.833254  0.166746  0.646314  1
  Ni  Ni13  1  0.333494  0.166746  0.646314  1
  Ni  Ni14  1  0.833254  0.666506  0.853686  1
  Ni  Ni15  1  0.833254  0.166746  0.853686  1
  Ni  Ni16  1  0.333494  0.166746  0.853686  1
  Ni  Ni17  1  0.666488  0.833245  0.353434  1
  Ni  Ni18  1  0.166755  0.833245  0.353434  1
  Ni  Ni19  1  0.166755  0.333512  0.353434  1
  B  B20  1  0.333333  0.666667  0.250000  1
  B  B21  1  0.666667  0.333333  0.750000  1
  B  B22  1  0.000000  0.000000  0.250000  1
  B  B23  1  0.000000  0.000000  0.750000  1
