# generated using pymatgen
data_Tb3Y5(InRh)2
_symmetry_space_group_name_H-M   'P 1'
_cell_length_a   9.74412493
_cell_length_b   9.76227188
_cell_length_c   9.76227200
_cell_angle_alpha   59.87705530
_cell_angle_beta   60.06147144
_cell_angle_gamma   60.06147438
_symmetry_Int_Tables_number   1
_chemical_formula_structural   Tb3Y5(InRh)2
_chemical_formula_sum   'Tb6 Y10 In4 Rh4'
_cell_volume   656.63897341
_cell_formula_units_Z   2
loop_
 _symmetry_equiv_pos_site_id
 _symmetry_equiv_pos_as_xyz
  1  'x, y, z'
loop_
 _atom_site_type_symbol
 _atom_site_label
 _atom_site_symmetry_multiplicity
 _atom_site_fract_x
 _atom_site_fract_y
 _atom_site_fract_z
 _atom_site_occupancy
  Tb  Tb0  1  0.349448  0.350372  0.350372  1
  Tb  Tb1  1  0.350372  0.349448  0.949807  1
  Tb  Tb2  1  0.350372  0.949807  0.349448  1
  Tb  Tb3  1  0.949807  0.350372  0.350372  1
  Tb  Tb4  1  0.811142  0.188858  0.188858  1
  Tb  Tb5  1  0.188858  0.811142  0.811142  1
  Y  Y6  1  0.189529  0.810471  0.189529  1
  Y  Y7  1  0.810471  0.189529  0.810471  1
  Y  Y8  1  0.189529  0.189529  0.810471  1
  Y  Y9  1  0.810471  0.810471  0.189529  1
  Y  Y10  1  0.937579  0.562421  0.562421  1
  Y  Y11  1  0.562421  0.937579  0.937579  1
  Y  Y12  1  0.561830  0.938170  0.561830  1
  Y  Y13  1  0.938170  0.561830  0.938170  1
  Y  Y14  1  0.561830  0.561830  0.938170  1
  Y  Y15  1  0.938170  0.938170  0.561830  1
  In  In16  1  0.583905  0.583222  0.583222  1
  In  In17  1  0.583222  0.583905  0.249651  1
  In  In18  1  0.583222  0.249651  0.583905  1
  In  In19  1  0.249651  0.583222  0.583222  1
  Rh  Rh20  1  0.141920  0.143885  0.143885  1
  Rh  Rh21  1  0.143885  0.141920  0.570309  1
  Rh  Rh22  1  0.143885  0.570309  0.141920  1
  Rh  Rh23  1  0.570309  0.143885  0.143885  1
