# generated using pymatgen
data_Sr2Sn5Pt3
_symmetry_space_group_name_H-M   'P 1'
_cell_length_a   9.26277908
_cell_length_b   9.26277827
_cell_length_c   9.26277892
_cell_angle_alpha   137.72259865
_cell_angle_beta   104.21387953
_cell_angle_gamma   90.83433446
_symmetry_Int_Tables_number   1
_chemical_formula_structural   Sr2Sn5Pt3
_chemical_formula_sum   'Sr4 Sn10 Pt6'
_cell_volume   494.24722693
_cell_formula_units_Z   2
loop_
 _symmetry_equiv_pos_site_id
 _symmetry_equiv_pos_as_xyz
  1  'x, y, z'
loop_
 _atom_site_type_symbol
 _atom_site_label
 _atom_site_symmetry_multiplicity
 _atom_site_fract_x
 _atom_site_fract_y
 _atom_site_fract_z
 _atom_site_occupancy
  Sr  Sr0  1  0.910449  0.142928  0.767520  1
  Sr  Sr1  1  0.089551  0.857072  0.232480  1
  Sr  Sr2  1  0.624592  0.357072  0.267520  1
  Sr  Sr3  1  0.375408  0.642928  0.732480  1
  Sn  Sn4  1  0.567679  0.908437  0.659242  1
  Sn  Sn5  1  0.249196  0.408437  0.840758  1
  Sn  Sn6  1  0.432321  0.091563  0.340758  1
  Sn  Sn7  1  0.750804  0.591563  0.159242  1
  Sn  Sn8  1  0.000000  0.250000  0.250000  1
  Sn  Sn9  1  0.000000  0.750000  0.750000  1
  Sn  Sn10  1  0.731071  0.981071  0.250000  1
  Sn  Sn11  1  0.268929  0.518929  0.250000  1
  Sn  Sn12  1  0.268929  0.018929  0.750000  1
  Sn  Sn13  1  0.731071  0.481071  0.750000  1
  Pt  Pt14  1  0.247224  0.135135  0.112088  1
  Pt  Pt15  1  0.976953  0.364865  0.612088  1
  Pt  Pt16  1  0.023047  0.635135  0.387912  1
  Pt  Pt17  1  0.752776  0.864865  0.887912  1
  Pt  Pt18  1  0.500000  0.250000  0.750000  1
  Pt  Pt19  1  0.500000  0.750000  0.250000  1
