# generated using pymatgen
data_Y2ScGaSi
_symmetry_space_group_name_H-M   'P 1'
_cell_length_a   7.36554800
_cell_length_b   7.34992200
_cell_length_c   4.27833000
_cell_angle_alpha   90.00000000
_cell_angle_beta   90.00000000
_cell_angle_gamma   90.00000000
_symmetry_Int_Tables_number   1
_chemical_formula_structural   Y2ScGaSi
_chemical_formula_sum   'Y4 Sc2 Ga2 Si2'
_cell_volume   231.61254261
_cell_formula_units_Z   2
loop_
 _symmetry_equiv_pos_site_id
 _symmetry_equiv_pos_as_xyz
  1  'x, y, z'
loop_
 _atom_site_type_symbol
 _atom_site_label
 _atom_site_symmetry_multiplicity
 _atom_site_fract_x
 _atom_site_fract_y
 _atom_site_fract_z
 _atom_site_occupancy
  Y  Y0  1  0.674985  0.177350  0.500000  1
  Y  Y1  1  0.825015  0.677350  0.500000  1
  Y  Y2  1  0.179187  0.323217  0.500000  1
  Y  Y3  1  0.320813  0.823217  0.500000  1
  Sc  Sc4  1  0.494331  0.496433  0.000000  1
  Sc  Sc5  1  0.005669  0.996433  0.000000  1
  Ga  Ga6  1  0.621099  0.879381  0.000000  1
  Ga  Ga7  1  0.878901  0.379381  0.000000  1
  Si  Si8  1  0.123585  0.623619  0.000000  1
  Si  Si9  1  0.376415  0.123619  0.000000  1
