# generated using pymatgen
data_ScGa2Pd5
_symmetry_space_group_name_H-M   'P 1'
_cell_length_a   7.97489045
_cell_length_b   7.97488976
_cell_length_c   7.97488994
_cell_angle_alpha   150.26766435
_cell_angle_beta   150.26764904
_cell_angle_gamma   42.54865003
_symmetry_Int_Tables_number   1
_chemical_formula_structural   ScGa2Pd5
_chemical_formula_sum   'Sc1 Ga2 Pd5'
_cell_volume   124.44206976
_cell_formula_units_Z   1
loop_
 _symmetry_equiv_pos_site_id
 _symmetry_equiv_pos_as_xyz
  1  'x, y, z'
loop_
 _atom_site_type_symbol
 _atom_site_label
 _atom_site_symmetry_multiplicity
 _atom_site_fract_x
 _atom_site_fract_y
 _atom_site_fract_z
 _atom_site_occupancy
  Sc  Sc0  1  0.000000  0.000000  0.000000  1
  Ga  Ga1  1  0.253432  0.253432  0.000000  1
  Ga  Ga2  1  0.746568  0.746568  0.000000  1
  Pd  Pd3  1  0.500000  0.500000  0.000000  1
  Pd  Pd4  1  0.637638  0.137637  0.500001  1
  Pd  Pd5  1  0.862364  0.362363  0.500001  1
  Pd  Pd6  1  0.137637  0.637638  0.500001  1
  Pd  Pd7  1  0.362363  0.862364  0.500001  1
