# generated using pymatgen
data_Y6Th2MgHgIr2
_symmetry_space_group_name_H-M   'P 1'
_cell_length_a   9.77782890
_cell_length_b   9.77782952
_cell_length_c   9.80561900
_cell_angle_alpha   59.90594315
_cell_angle_beta   59.90594104
_cell_angle_gamma   59.98220741
_symmetry_Int_Tables_number   1
_chemical_formula_structural   Y6Th2MgHgIr2
_chemical_formula_sum   'Y12 Th4 Mg2 Hg2 Ir4'
_cell_volume   661.86246100
_cell_formula_units_Z   2
loop_
 _symmetry_equiv_pos_site_id
 _symmetry_equiv_pos_as_xyz
  1  'x, y, z'
loop_
 _atom_site_type_symbol
 _atom_site_label
 _atom_site_symmetry_multiplicity
 _atom_site_fract_x
 _atom_site_fract_y
 _atom_site_fract_z
 _atom_site_occupancy
  Y  Y0  1  0.062280  0.436054  0.438934  1
  Y  Y1  1  0.436054  0.062280  0.062733  1
  Y  Y2  1  0.436054  0.062280  0.438934  1
  Y  Y3  1  0.062280  0.436054  0.062733  1
  Y  Y4  1  0.438254  0.438254  0.061746  1
  Y  Y5  1  0.061002  0.061002  0.438998  1
  Y  Y6  1  0.185496  0.813089  0.814334  1
  Y  Y7  1  0.813089  0.185496  0.187081  1
  Y  Y8  1  0.813089  0.185496  0.814334  1
  Y  Y9  1  0.185496  0.813089  0.187081  1
  Y  Y10  1  0.813274  0.813274  0.186726  1
  Y  Y11  1  0.185512  0.185512  0.814488  1
  Th  Th12  1  0.598735  0.598735  0.598408  1
  Th  Th13  1  0.598735  0.598735  0.204121  1
  Th  Th14  1  0.601152  0.199550  0.599649  1
  Th  Th15  1  0.199550  0.601152  0.599649  1
  Mg  Mg16  1  0.829665  0.517095  0.826620  1
  Mg  Mg17  1  0.517095  0.829665  0.826620  1
  Hg  Hg18  1  0.833446  0.833446  0.840140  1
  Hg  Hg19  1  0.833446  0.833446  0.492968  1
  Ir  Ir20  1  0.393077  0.393077  0.395032  1
  Ir  Ir21  1  0.393077  0.393077  0.818813  1
  Ir  Ir22  1  0.392520  0.817621  0.394929  1
  Ir  Ir23  1  0.817621  0.392520  0.394929  1
