# generated using pymatgen
data_TmLu7Re3B24Rh
_symmetry_space_group_name_H-M   'P 1'
_cell_length_a   3.61920200
_cell_length_b   9.05895325
_cell_length_c   11.41915594
_cell_angle_alpha   90.14417213
_cell_angle_beta   90.00000000
_cell_angle_gamma   90.00000000
_symmetry_Int_Tables_number   1
_chemical_formula_structural   TmLu7Re3B24Rh
_chemical_formula_sum   'Tm1 Lu7 Re3 B24 Rh1'
_cell_volume   374.38933639
_cell_formula_units_Z   1
loop_
 _symmetry_equiv_pos_site_id
 _symmetry_equiv_pos_as_xyz
  1  'x, y, z'
loop_
 _atom_site_type_symbol
 _atom_site_label
 _atom_site_symmetry_multiplicity
 _atom_site_fract_x
 _atom_site_fract_y
 _atom_site_fract_z
 _atom_site_occupancy
  Tm  Tm0  1  0.000000  0.317626  0.415561  1
  Lu  Lu1  1  0.000000  0.678990  0.591482  1
  Lu  Lu2  1  0.000000  0.826416  0.080979  1
  Lu  Lu3  1  0.000000  0.177737  0.912792  1
  Lu  Lu4  1  0.000000  0.943852  0.370558  1
  Lu  Lu5  1  0.000000  0.055633  0.628958  1
  Lu  Lu6  1  0.000000  0.441262  0.128188  1
  Lu  Lu7  1  0.000000  0.556524  0.871882  1
  Re  Re8  1  0.000000  0.362234  0.678272  1
  Re  Re9  1  0.000000  0.138210  0.179831  1
  Re  Re10  1  0.000000  0.861242  0.820801  1
  B  B11  1  0.500000  0.554368  0.434258  1
  B  B12  1  0.500000  0.447006  0.566050  1
  B  B13  1  0.500000  0.053029  0.065866  1
  B  B14  1  0.500000  0.947060  0.933496  1
  B  B15  1  0.500000  0.750334  0.420964  1
  B  B16  1  0.500000  0.249094  0.580640  1
  B  B17  1  0.500000  0.250412  0.080251  1
  B  B18  1  0.500000  0.750227  0.919711  1
  B  B19  1  0.500000  0.792259  0.264258  1
  B  B20  1  0.500000  0.207232  0.735137  1
  B  B21  1  0.500000  0.293000  0.235547  1
  B  B22  1  0.500000  0.707084  0.765171  1
  B  B23  1  0.500000  0.631612  0.182879  1
  B  B24  1  0.500000  0.369790  0.815508  1
  B  B25  1  0.500000  0.130289  0.315790  1
  B  B26  1  0.500000  0.868868  0.684316  1
  B  B27  1  0.500000  0.981253  0.212062  1
  B  B28  1  0.500000  0.018605  0.787176  1
  B  B29  1  0.500000  0.482501  0.287583  1
  B  B30  1  0.500000  0.519480  0.712586  1
  B  B31  1  0.500000  0.602553  0.028904  1
  B  B32  1  0.500000  0.398626  0.972383  1
  B  B33  1  0.500000  0.100053  0.471788  1
  B  B34  1  0.500000  0.896503  0.527812  1
  Rh  Rh35  1  0.000000  0.639037  0.320563  1
