# generated using pymatgen
data_Ga3NiIrPt3
_symmetry_space_group_name_H-M   'P 1'
_cell_length_a   5.37929183
_cell_length_b   5.37929110
_cell_length_c   4.02070300
_cell_angle_alpha   90.00000000
_cell_angle_beta   90.00000000
_cell_angle_gamma   96.44273350
_symmetry_Int_Tables_number   1
_chemical_formula_structural   Ga3NiIrPt3
_chemical_formula_sum   'Ga3 Ni1 Ir1 Pt3'
_cell_volume   115.61140082
_cell_formula_units_Z   1
loop_
 _symmetry_equiv_pos_site_id
 _symmetry_equiv_pos_as_xyz
  1  'x, y, z'
loop_
 _atom_site_type_symbol
 _atom_site_label
 _atom_site_symmetry_multiplicity
 _atom_site_fract_x
 _atom_site_fract_y
 _atom_site_fract_z
 _atom_site_occupancy
  Ga  Ga0  1  0.004553  0.004553  0.000000  1
  Ga  Ga1  1  0.708638  0.290273  0.500000  1
  Ga  Ga2  1  0.290273  0.708638  0.500000  1
  Ni  Ni3  1  0.497038  0.497038  0.000000  1
  Ir  Ir4  1  0.221563  0.221563  0.500000  1
  Pt  Pt5  1  0.497955  0.996617  0.000000  1
  Pt  Pt6  1  0.996617  0.497955  0.000000  1
  Pt  Pt7  1  0.783362  0.783362  0.500000  1
