# generated using pymatgen
data_CeSmNi6(BPt)2
_symmetry_space_group_name_H-M   'P 1'
_cell_length_a   5.10687600
_cell_length_b   5.10659771
_cell_length_c   7.17506800
_cell_angle_alpha   90.00000000
_cell_angle_beta   90.00000000
_cell_angle_gamma   120.00180277
_symmetry_Int_Tables_number   1
_chemical_formula_structural   CeSmNi6(BPt)2
_chemical_formula_sum   'Ce1 Sm1 Ni6 B2 Pt2'
_cell_volume   162.04503243
_cell_formula_units_Z   1
loop_
 _symmetry_equiv_pos_site_id
 _symmetry_equiv_pos_as_xyz
  1  'x, y, z'
loop_
 _atom_site_type_symbol
 _atom_site_label
 _atom_site_symmetry_multiplicity
 _atom_site_fract_x
 _atom_site_fract_y
 _atom_site_fract_z
 _atom_site_occupancy
  Ce  Ce0  1  0.999983  0.000000  0.000000  1
  Sm  Sm1  1  0.999988  0.000000  0.500000  1
  Ni  Ni2  1  0.499978  0.000000  0.304864  1
  Ni  Ni3  1  0.499981  0.500001  0.304905  1
  Ni  Ni4  1  0.999980  0.499999  0.304905  1
  Ni  Ni5  1  0.499978  0.000000  0.695136  1
  Ni  Ni6  1  0.499981  0.500001  0.695095  1
  Ni  Ni7  1  0.999980  0.499999  0.695095  1
  B  B8  1  0.333351  0.666723  0.500000  1
  B  B9  1  0.666627  0.333277  0.500000  1
  Pt  Pt10  1  0.333296  0.666625  0.000000  1
  Pt  Pt11  1  0.666672  0.333375  0.000000  1
