# generated using pymatgen
data_Mg11Al4SnPd8
_symmetry_space_group_name_H-M   'P 1'
_cell_length_a   8.44480227
_cell_length_b   8.45045807
_cell_length_c   8.44480468
_cell_angle_alpha   59.97715448
_cell_angle_beta   59.90531631
_cell_angle_gamma   59.97720659
_symmetry_Int_Tables_number   1
_chemical_formula_structural   Mg11Al4SnPd8
_chemical_formula_sum   'Mg11 Al4 Sn1 Pd8'
_cell_volume   425.67970814
_cell_formula_units_Z   1
loop_
 _symmetry_equiv_pos_site_id
 _symmetry_equiv_pos_as_xyz
  1  'x, y, z'
loop_
 _atom_site_type_symbol
 _atom_site_label
 _atom_site_symmetry_multiplicity
 _atom_site_fract_x
 _atom_site_fract_y
 _atom_site_fract_z
 _atom_site_occupancy
  Mg  Mg0  1  0.193199  0.197214  0.804846  1
  Mg  Mg1  1  0.193201  0.804739  0.804846  1
  Mg  Mg2  1  0.056458  0.443543  0.056458  1
  Mg  Mg3  1  0.804846  0.197214  0.193200  1
  Mg  Mg4  1  0.056398  0.443365  0.444147  1
  Mg  Mg5  1  0.444028  0.055972  0.444027  1
  Mg  Mg6  1  0.444147  0.443365  0.056398  1
  Mg  Mg7  1  0.804846  0.804739  0.193201  1
  Mg  Mg8  1  0.444148  0.056088  0.056398  1
  Mg  Mg9  1  0.804416  0.195586  0.804415  1
  Mg  Mg10  1  0.056399  0.056088  0.444148  1
  Al  Al11  1  0.623688  0.627252  0.623688  1
  Al  Al12  1  0.124259  0.621757  0.632227  1
  Al  Al13  1  0.632227  0.621757  0.124259  1
  Al  Al14  1  0.623688  0.125373  0.623688  1
  Sn  Sn15  1  0.192994  0.807006  0.192995  1
  Pd  Pd16  1  0.838057  0.483171  0.838057  1
  Pd  Pd17  1  0.838057  0.840715  0.838057  1
  Pd  Pd18  1  0.484970  0.839433  0.836164  1
  Pd  Pd19  1  0.412639  0.765143  0.412639  1
  Pd  Pd20  1  0.836163  0.839433  0.484971  1
  Pd  Pd21  1  0.767024  0.410734  0.411510  1
  Pd  Pd22  1  0.412638  0.409579  0.412638  1
  Pd  Pd23  1  0.411510  0.410733  0.767024  1
