# generated using pymatgen
data_Gd10Al(ZnRu2)3
_symmetry_space_group_name_H-M   'P 1'
_cell_length_a   8.44648589
_cell_length_b   8.44648588
_cell_length_c   8.47199500
_cell_angle_alpha   109.53240805
_cell_angle_beta   109.53240802
_cell_angle_gamma   109.40996403
_symmetry_Int_Tables_number   1
_chemical_formula_structural   Gd10Al(ZnRu2)3
_chemical_formula_sum   'Gd10 Al1 Zn3 Ru6'
_cell_volume   464.92983146
_cell_formula_units_Z   1
loop_
 _symmetry_equiv_pos_site_id
 _symmetry_equiv_pos_as_xyz
  1  'x, y, z'
loop_
 _atom_site_type_symbol
 _atom_site_label
 _atom_site_symmetry_multiplicity
 _atom_site_fract_x
 _atom_site_fract_y
 _atom_site_fract_z
 _atom_site_occupancy
  Gd  Gd0  1  0.783267  0.783744  0.783547  1
  Gd  Gd1  1  0.315914  0.564603  0.747661  1
  Gd  Gd2  1  0.749980  0.315238  0.567807  1
  Gd  Gd3  1  0.565258  0.750020  0.317827  1
  Gd  Gd4  1  0.716256  0.499523  0.999803  1
  Gd  Gd5  1  0.000477  0.716733  0.500280  1
  Gd  Gd6  1  0.500000  0.000000  0.718518  1
  Gd  Gd7  1  0.248688  0.184086  0.931747  1
  Gd  Gd8  1  0.935397  0.251312  0.183059  1
  Gd  Gd9  1  0.184762  0.934742  0.252569  1
  Al  Al10  1  0.500000  0.000000  0.091292  1
  Zn  Zn11  1  0.412024  0.410994  0.409956  1
  Zn  Zn12  1  0.089006  0.501030  0.998962  1
  Zn  Zn13  1  0.998970  0.087976  0.497932  1
  Ru  Ru14  1  0.871668  0.119640  0.748895  1
  Ru  Ru15  1  0.741877  0.873431  0.119656  1
  Ru  Ru16  1  0.131554  0.758123  0.877779  1
  Ru  Ru17  1  0.247971  0.628332  0.377227  1
  Ru  Ru18  1  0.380360  0.252029  0.629257  1
  Ru  Ru19  1  0.626569  0.368446  0.246225  1
