# generated using pymatgen
data_Zn4GaB3Ir7
_symmetry_space_group_name_H-M   'P 1'
_cell_length_a   2.86763900
_cell_length_b   11.29045700
_cell_length_c   11.91278100
_cell_angle_alpha   90.00000000
_cell_angle_beta   90.00000000
_cell_angle_gamma   90.00000000
_symmetry_Int_Tables_number   1
_chemical_formula_structural   Zn4GaB3Ir7
_chemical_formula_sum   'Zn8 Ga2 B6 Ir14'
_cell_volume   385.69957223
_cell_formula_units_Z   2
loop_
 _symmetry_equiv_pos_site_id
 _symmetry_equiv_pos_as_xyz
  1  'x, y, z'
loop_
 _atom_site_type_symbol
 _atom_site_label
 _atom_site_symmetry_multiplicity
 _atom_site_fract_x
 _atom_site_fract_y
 _atom_site_fract_z
 _atom_site_occupancy
  Zn  Zn0  1  0.500000  0.451934  0.138562  1
  Zn  Zn1  1  0.500000  0.548066  0.861438  1
  Zn  Zn2  1  0.500000  0.048066  0.138562  1
  Zn  Zn3  1  0.500000  0.951934  0.861438  1
  Zn  Zn4  1  0.500000  0.367660  0.345385  1
  Zn  Zn5  1  0.500000  0.632340  0.654615  1
  Zn  Zn6  1  0.500000  0.132340  0.345385  1
  Zn  Zn7  1  0.500000  0.867660  0.654615  1
  Ga  Ga8  1  0.500000  0.750000  0.188212  1
  Ga  Ga9  1  0.500000  0.250000  0.811788  1
  B  B10  1  0.500000  0.750000  0.960037  1
  B  B11  1  0.500000  0.250000  0.039963  1
  B  B12  1  0.500000  0.881421  0.410636  1
  B  B13  1  0.500000  0.118579  0.589364  1
  B  B14  1  0.500000  0.618579  0.410636  1
  B  B15  1  0.500000  0.381421  0.589364  1
  Ir  Ir16  1  0.000000  0.000000  0.500000  1
  Ir  Ir17  1  0.000000  0.500000  0.500000  1
  Ir  Ir18  1  0.000000  0.750000  0.819757  1
  Ir  Ir19  1  0.000000  0.250000  0.180243  1
  Ir  Ir20  1  0.000000  0.750000  0.478072  1
  Ir  Ir21  1  0.000000  0.250000  0.521928  1
  Ir  Ir22  1  0.000000  0.874929  0.037710  1
  Ir  Ir23  1  0.000000  0.125071  0.962290  1
  Ir  Ir24  1  0.000000  0.625071  0.037710  1
  Ir  Ir25  1  0.000000  0.374929  0.962290  1
  Ir  Ir26  1  0.000000  0.913833  0.279012  1
  Ir  Ir27  1  0.000000  0.086167  0.720988  1
  Ir  Ir28  1  0.000000  0.586167  0.279012  1
  Ir  Ir29  1  0.000000  0.413833  0.720988  1
