# generated using pymatgen
data_Tb15Ho(ZnRh)4
_symmetry_space_group_name_H-M   'P 1'
_cell_length_a   9.52157718
_cell_length_b   9.52157685
_cell_length_c   9.52601900
_cell_angle_alpha   59.98456247
_cell_angle_beta   59.98456361
_cell_angle_gamma   59.91275016
_symmetry_Int_Tables_number   1
_chemical_formula_structural   Tb15Ho(ZnRh)4
_chemical_formula_sum   'Tb15 Ho1 Zn4 Rh4'
_cell_volume   610.13478653
_cell_formula_units_Z   1
loop_
 _symmetry_equiv_pos_site_id
 _symmetry_equiv_pos_as_xyz
  1  'x, y, z'
loop_
 _atom_site_type_symbol
 _atom_site_label
 _atom_site_symmetry_multiplicity
 _atom_site_fract_x
 _atom_site_fract_y
 _atom_site_fract_z
 _atom_site_occupancy
  Tb  Tb0  1  0.313475  0.895096  0.895715  1
  Tb  Tb1  1  0.686600  0.313507  0.685601  1
  Tb  Tb2  1  0.313507  0.686600  0.314292  1
  Tb  Tb3  1  0.059190  0.440899  0.440834  1
  Tb  Tb4  1  0.686600  0.313507  0.314292  1
  Tb  Tb5  1  0.440899  0.059190  0.440834  1
  Tb  Tb6  1  0.440899  0.059190  0.059076  1
  Tb  Tb7  1  0.895785  0.895785  0.895952  1
  Tb  Tb8  1  0.059190  0.440899  0.059076  1
  Tb  Tb9  1  0.895096  0.313475  0.895715  1
  Tb  Tb10  1  0.313507  0.686600  0.685601  1
  Tb  Tb11  1  0.895785  0.895785  0.312479  1
  Tb  Tb12  1  0.440956  0.440956  0.059044  1
  Tb  Tb13  1  0.313843  0.313843  0.686157  1
  Tb  Tb14  1  0.685909  0.685909  0.314091  1
  Ho  Ho15  1  0.058942  0.058942  0.441058  1
  Zn  Zn16  1  0.987033  0.671310  0.670828  1
  Zn  Zn17  1  0.671310  0.987033  0.670828  1
  Zn  Zn18  1  0.671243  0.671243  0.986556  1
  Zn  Zn19  1  0.671243  0.671243  0.670956  1
  Rh  Rh20  1  0.106199  0.106199  0.679800  1
  Rh  Rh21  1  0.105928  0.680660  0.106707  1
  Rh  Rh22  1  0.106199  0.106199  0.107802  1
  Rh  Rh23  1  0.680660  0.105928  0.106707  1
