# generated using pymatgen
data_LiTb16Hg3Pd4
_symmetry_space_group_name_H-M   'P 1'
_cell_length_a   9.69656371
_cell_length_b   9.68739043
_cell_length_c   9.69512587
_cell_angle_alpha   60.16787643
_cell_angle_beta   60.29200207
_cell_angle_gamma   60.19160646
_symmetry_Int_Tables_number   1
_chemical_formula_structural   LiTb16Hg3Pd4
_chemical_formula_sum   'Li1 Tb16 Hg3 Pd4'
_cell_volume   647.13081895
_cell_formula_units_Z   1
loop_
 _symmetry_equiv_pos_site_id
 _symmetry_equiv_pos_as_xyz
  1  'x, y, z'
loop_
 _atom_site_type_symbol
 _atom_site_label
 _atom_site_symmetry_multiplicity
 _atom_site_fract_x
 _atom_site_fract_y
 _atom_site_fract_z
 _atom_site_occupancy
  Li  Li0  1  0.566797  0.566440  0.566618  1
  Tb  Tb1  1  0.354026  0.354101  0.353819  1
  Tb  Tb2  1  0.355133  0.355156  0.935760  1
  Tb  Tb3  1  0.354824  0.935902  0.354962  1
  Tb  Tb4  1  0.936015  0.355004  0.355121  1
  Tb  Tb5  1  0.810290  0.192692  0.193173  1
  Tb  Tb6  1  0.188104  0.813471  0.813746  1
  Tb  Tb7  1  0.192672  0.810559  0.192851  1
  Tb  Tb8  1  0.813570  0.188133  0.813700  1
  Tb  Tb9  1  0.193096  0.192784  0.810340  1
  Tb  Tb10  1  0.813664  0.813524  0.188320  1
  Tb  Tb11  1  0.936165  0.565571  0.565313  1
  Tb  Tb12  1  0.563825  0.935948  0.935897  1
  Tb  Tb13  1  0.565406  0.935982  0.565294  1
  Tb  Tb14  1  0.935705  0.564134  0.935827  1
  Tb  Tb15  1  0.565318  0.565463  0.936025  1
  Tb  Tb16  1  0.935834  0.936018  0.563711  1
  Hg  Hg17  1  0.588322  0.588080  0.240712  1
  Hg  Hg18  1  0.588182  0.240801  0.588103  1
  Hg  Hg19  1  0.240675  0.588132  0.588312  1
  Pd  Pd20  1  0.146464  0.146417  0.146611  1
  Pd  Pd21  1  0.144770  0.144618  0.566461  1
  Pd  Pd22  1  0.144824  0.566422  0.144692  1
  Pd  Pd23  1  0.566320  0.144648  0.144632  1
