# generated using pymatgen
data_TlBiPt2O7
_symmetry_space_group_name_H-M   'P 1'
_cell_length_a   7.37342485
_cell_length_b   7.37342575
_cell_length_c   7.37342600
_cell_angle_alpha   120.23321582
_cell_angle_beta   119.91519559
_cell_angle_gamma   89.87174257
_symmetry_Int_Tables_number   1
_chemical_formula_structural   TlBiPt2O7
_chemical_formula_sum   'Tl2 Bi2 Pt4 O14'
_cell_volume   283.13928703
_cell_formula_units_Z   2
loop_
 _symmetry_equiv_pos_site_id
 _symmetry_equiv_pos_as_xyz
  1  'x, y, z'
loop_
 _atom_site_type_symbol
 _atom_site_label
 _atom_site_symmetry_multiplicity
 _atom_site_fract_x
 _atom_site_fract_y
 _atom_site_fract_z
 _atom_site_occupancy
  Tl  Tl0  1  0.500000  0.500000  0.000000  1
  Tl  Tl1  1  0.000000  0.500000  0.500000  1
  Bi  Bi2  1  0.500000  0.500000  0.500000  1
  Bi  Bi3  1  0.500000  0.000000  0.000000  1
  Pt  Pt4  1  0.000000  0.000000  0.500000  1
  Pt  Pt5  1  0.000000  0.500000  0.000000  1
  Pt  Pt6  1  0.000000  0.000000  0.000000  1
  Pt  Pt7  1  0.500000  0.000000  0.500000  1
  O  O8  1  0.333718  0.083732  0.668108  1
  O  O9  1  0.915623  0.083732  0.250014  1
  O  O10  1  0.916762  0.666762  0.250000  1
  O  O11  1  0.915623  0.665609  0.831892  1
  O  O12  1  0.333718  0.665609  0.249986  1
  O  O13  1  0.333767  0.083767  0.250000  1
  O  O14  1  0.666282  0.916268  0.331892  1
  O  O15  1  0.084377  0.916268  0.749986  1
  O  O16  1  0.083238  0.333238  0.750000  1
  O  O17  1  0.084377  0.334391  0.168108  1
  O  O18  1  0.666282  0.334391  0.750014  1
  O  O19  1  0.666233  0.916233  0.750000  1
  O  O20  1  0.634331  0.384331  0.250000  1
  O  O21  1  0.365669  0.615669  0.750000  1
