# generated using pymatgen
data_Tb2ErTm(WO6)2
_symmetry_space_group_name_H-M   'P 1'
_cell_length_a   5.39786900
_cell_length_b   7.69785801
_cell_length_c   11.41012402
_cell_angle_alpha   75.53402771
_cell_angle_beta   90.00000000
_cell_angle_gamma   90.00000000
_symmetry_Int_Tables_number   1
_chemical_formula_structural   Tb2ErTm(WO6)2
_chemical_formula_sum   'Tb4 Er2 Tm2 W4 O24'
_cell_volume   459.08258170
_cell_formula_units_Z   2
loop_
 _symmetry_equiv_pos_site_id
 _symmetry_equiv_pos_as_xyz
  1  'x, y, z'
loop_
 _atom_site_type_symbol
 _atom_site_label
 _atom_site_symmetry_multiplicity
 _atom_site_fract_x
 _atom_site_fract_y
 _atom_site_fract_z
 _atom_site_occupancy
  Tb  Tb0  1  0.742143  0.000301  0.750048  1
  Tb  Tb1  1  0.257857  0.000301  0.250048  1
  Tb  Tb2  1  0.683695  0.499705  0.750169  1
  Tb  Tb3  1  0.316305  0.499705  0.250169  1
  Er  Er4  1  0.183185  0.793730  0.578694  1
  Er  Er5  1  0.816815  0.793730  0.078694  1
  Tm  Tm6  1  0.183238  0.206828  0.920888  1
  Tm  Tm7  1  0.816762  0.206828  0.420888  1
  W  W8  1  0.255942  0.723410  0.886157  1
  W  W9  1  0.744058  0.723410  0.386157  1
  W  W10  1  0.255911  0.276275  0.613761  1
  W  W11  1  0.744089  0.276275  0.113761  1
  O  O12  1  0.048476  0.940930  0.897251  1
  O  O13  1  0.536391  0.843546  0.932538  1
  O  O14  1  0.951524  0.940930  0.397251  1
  O  O15  1  0.456276  0.790462  0.726848  1
  O  O16  1  0.463609  0.843546  0.432538  1
  O  O17  1  0.981624  0.712224  0.771413  1
  O  O18  1  0.543724  0.790462  0.226848  1
  O  O19  1  0.851774  0.634432  0.549389  1
  O  O20  1  0.357598  0.488663  0.886764  1
  O  O21  1  0.018376  0.712224  0.271413  1
  O  O22  1  0.358336  0.510543  0.613127  1
  O  O23  1  0.853063  0.364963  0.950598  1
  O  O24  1  0.148226  0.634432  0.049389  1
  O  O25  1  0.642402  0.488663  0.386764  1
  O  O26  1  0.982328  0.287794  0.729232  1
  O  O27  1  0.641664  0.510543  0.113127  1
  O  O28  1  0.146937  0.364963  0.450598  1
  O  O29  1  0.455384  0.209034  0.773635  1
  O  O30  1  0.017672  0.287794  0.229232  1
  O  O31  1  0.537159  0.156879  0.567013  1
  O  O32  1  0.544616  0.209034  0.273635  1
  O  O33  1  0.047063  0.060281  0.602475  1
  O  O34  1  0.462841  0.156879  0.067013  1
  O  O35  1  0.952937  0.060281  0.102475  1
