# generated using pymatgen
data_MoOs4Ru2W
_symmetry_space_group_name_H-M   'P 1'
_cell_length_a   5.54076400
_cell_length_b   5.55644523
_cell_length_c   4.39243100
_cell_angle_alpha   90.00000000
_cell_angle_beta   90.00000000
_cell_angle_gamma   119.90668720
_symmetry_Int_Tables_number   1
_chemical_formula_structural   MoOs4Ru2W
_chemical_formula_sum   'Mo1 Os4 Ru2 W1'
_cell_volume   117.22219840
_cell_formula_units_Z   1
loop_
 _symmetry_equiv_pos_site_id
 _symmetry_equiv_pos_as_xyz
  1  'x, y, z'
loop_
 _atom_site_type_symbol
 _atom_site_label
 _atom_site_symmetry_multiplicity
 _atom_site_fract_x
 _atom_site_fract_y
 _atom_site_fract_z
 _atom_site_occupancy
  Mo  Mo0  1  0.333696  0.667393  0.750000  1
  Os  Os1  1  0.666285  0.837156  0.250000  1
  Os  Os2  1  0.170871  0.837156  0.250000  1
  Os  Os3  1  0.331901  0.161477  0.750000  1
  Os  Os4  1  0.829575  0.161477  0.750000  1
  Ru  Ru5  1  0.167045  0.334089  0.250000  1
  Ru  Ru6  1  0.833978  0.667956  0.750000  1
  W  W7  1  0.666649  0.333297  0.250000  1
