# generated using pymatgen
data_Tb2Er8Ru3Rh
_symmetry_space_group_name_H-M   'P 1'
_cell_length_a   6.30646504
_cell_length_b   7.26834519
_cell_length_c   8.41384180
_cell_angle_alpha   96.81385076
_cell_angle_beta   111.90352628
_cell_angle_gamma   90.04058983
_symmetry_Int_Tables_number   1
_chemical_formula_structural   Tb2Er8Ru3Rh
_chemical_formula_sum   'Tb2 Er8 Ru3 Rh1'
_cell_volume   354.87885338
_cell_formula_units_Z   1
loop_
 _symmetry_equiv_pos_site_id
 _symmetry_equiv_pos_as_xyz
  1  'x, y, z'
loop_
 _atom_site_type_symbol
 _atom_site_label
 _atom_site_symmetry_multiplicity
 _atom_site_fract_x
 _atom_site_fract_y
 _atom_site_fract_z
 _atom_site_occupancy
  Tb  Tb0  1  0.792568  0.581451  0.813993  1
  Tb  Tb1  1  0.980586  0.915566  0.189854  1
  Er  Er2  1  0.208902  0.415170  0.186730  1
  Er  Er3  1  0.024433  0.086293  0.814454  1
  Er  Er4  1  0.203560  0.682744  0.563733  1
  Er  Er5  1  0.642427  0.815272  0.432717  1
  Er  Er6  1  0.792376  0.314581  0.434234  1
  Er  Er7  1  0.356759  0.186969  0.564427  1
  Er  Er8  1  0.419351  0.749218  0.000689  1
  Er  Er9  1  0.579277  0.251962  0.001410  1
  Ru  Ru10  1  0.823967  0.575985  0.220324  1
  Ru  Ru11  1  0.397137  0.076073  0.220834  1
  Ru  Ru12  1  0.178569  0.423508  0.779287  1
  Rh  Rh13  1  0.600087  0.925207  0.777315  1
