# generated using pymatgen
data_Pa2Nb8Al5
_symmetry_space_group_name_H-M   'P 1'
_cell_length_a   10.00915000
_cell_length_b   10.00915000
_cell_length_c   5.48178200
_cell_angle_alpha   90.00000000
_cell_angle_beta   90.00000000
_cell_angle_gamma   90.00000000
_symmetry_Int_Tables_number   1
_chemical_formula_structural   Pa2Nb8Al5
_chemical_formula_sum   'Pa4 Nb16 Al10'
_cell_volume   549.18182505
_cell_formula_units_Z   2
loop_
 _symmetry_equiv_pos_site_id
 _symmetry_equiv_pos_as_xyz
  1  'x, y, z'
loop_
 _atom_site_type_symbol
 _atom_site_label
 _atom_site_symmetry_multiplicity
 _atom_site_fract_x
 _atom_site_fract_y
 _atom_site_fract_z
 _atom_site_occupancy
  Pa  Pa0  1  0.395711  0.395711  0.000000  1
  Pa  Pa1  1  0.895711  0.104289  0.500000  1
  Pa  Pa2  1  0.104289  0.895711  0.500000  1
  Pa  Pa3  1  0.604289  0.604289  0.000000  1
  Nb  Nb4  1  0.133790  0.462716  0.000000  1
  Nb  Nb5  1  0.962716  0.366210  0.500000  1
  Nb  Nb6  1  0.037284  0.633790  0.500000  1
  Nb  Nb7  1  0.866210  0.537284  0.000000  1
  Nb  Nb8  1  0.366210  0.962716  0.500000  1
  Nb  Nb9  1  0.633790  0.037284  0.500000  1
  Nb  Nb10  1  0.462716  0.133790  0.000000  1
  Nb  Nb11  1  0.537284  0.866210  0.000000  1
  Nb  Nb12  1  0.183472  0.183472  0.250202  1
  Nb  Nb13  1  0.683472  0.316528  0.750202  1
  Nb  Nb14  1  0.316528  0.683472  0.750202  1
  Nb  Nb15  1  0.816528  0.816528  0.250202  1
  Nb  Nb16  1  0.316528  0.683472  0.249798  1
  Nb  Nb17  1  0.683472  0.316528  0.249798  1
  Nb  Nb18  1  0.183472  0.183472  0.749798  1
  Nb  Nb19  1  0.816528  0.816528  0.749798  1
  Al  Al20  1  0.000000  0.000000  0.000000  1
  Al  Al21  1  0.500000  0.500000  0.500000  1
  Al  Al22  1  0.268879  0.936077  0.000000  1
  Al  Al23  1  0.436077  0.231121  0.500000  1
  Al  Al24  1  0.563923  0.768879  0.500000  1
  Al  Al25  1  0.731121  0.063923  0.000000  1
  Al  Al26  1  0.231121  0.436077  0.500000  1
  Al  Al27  1  0.768879  0.563923  0.500000  1
  Al  Al28  1  0.936077  0.268879  0.000000  1
  Al  Al29  1  0.063923  0.731121  0.000000  1
