# generated using pymatgen
data_Na3Lu(Si2O5)3
_symmetry_space_group_name_H-M   'P 1'
_cell_length_a   10.63972800
_cell_length_b   11.65404272
_cell_length_c   11.65404200
_cell_angle_alpha   101.14565961
_cell_angle_beta   90.00000000
_cell_angle_gamma   90.00000000
_symmetry_Int_Tables_number   1
_chemical_formula_structural   Na3Lu(Si2O5)3
_chemical_formula_sum   'Na12 Lu4 Si24 O60'
_cell_volume   1417.79753906
_cell_formula_units_Z   4
loop_
 _symmetry_equiv_pos_site_id
 _symmetry_equiv_pos_as_xyz
  1  'x, y, z'
loop_
 _atom_site_type_symbol
 _atom_site_label
 _atom_site_symmetry_multiplicity
 _atom_site_fract_x
 _atom_site_fract_y
 _atom_site_fract_z
 _atom_site_occupancy
  Na  Na0  1  0.248891  0.072760  0.927240  1
  Na  Na1  1  0.000000  0.760431  0.760431  1
  Na  Na2  1  0.250000  0.026477  0.473523  1
  Na  Na3  1  0.750000  0.973523  0.526477  1
  Na  Na4  1  0.251109  0.572760  0.427240  1
  Na  Na5  1  0.250000  0.526477  0.973523  1
  Na  Na6  1  0.500000  0.260431  0.260431  1
  Na  Na7  1  0.750000  0.473523  0.026477  1
  Na  Na8  1  0.000000  0.239569  0.239569  1
  Na  Na9  1  0.748891  0.427240  0.572760  1
  Na  Na10  1  0.751109  0.927240  0.072760  1
  Na  Na11  1  0.500000  0.739569  0.739569  1
  Lu  Lu12  1  0.750000  0.160528  0.339472  1
  Lu  Lu13  1  0.250000  0.339472  0.160528  1
  Lu  Lu14  1  0.750000  0.660528  0.839472  1
  Lu  Lu15  1  0.250000  0.839472  0.660528  1
  Si  Si16  1  0.298217  0.529573  0.690435  1
  Si  Si17  1  0.201783  0.809565  0.970427  1
  Si  Si18  1  0.982140  0.742557  0.471145  1
  Si  Si19  1  0.982140  0.528855  0.257443  1
  Si  Si20  1  0.701783  0.690435  0.529573  1
  Si  Si21  1  0.464837  0.794979  0.418640  1
  Si  Si22  1  0.517860  0.242557  0.971145  1
  Si  Si23  1  0.701783  0.470427  0.309565  1
  Si  Si24  1  0.464837  0.581360  0.205021  1
  Si  Si25  1  0.017860  0.471145  0.742557  1
  Si  Si26  1  0.535163  0.418640  0.794979  1
  Si  Si27  1  0.017860  0.257443  0.528855  1
  Si  Si28  1  0.482140  0.971145  0.242557  1
  Si  Si29  1  0.201783  0.029573  0.190435  1
  Si  Si30  1  0.035163  0.081360  0.705021  1
  Si  Si31  1  0.298217  0.309565  0.470427  1
  Si  Si32  1  0.535163  0.205021  0.581360  1
  Si  Si33  1  0.964837  0.705021  0.081360  1
  Si  Si34  1  0.964837  0.918640  0.294979  1
  Si  Si35  1  0.035163  0.294979  0.918640  1
  Si  Si36  1  0.798217  0.970427  0.809565  1
  Si  Si37  1  0.798217  0.190435  0.029573  1
  Si  Si38  1  0.517860  0.028855  0.757443  1
  Si  Si39  1  0.482140  0.757443  0.028855  1
  O  O40  1  0.420510  0.254402  0.077052  1
  O  O41  1  0.995932  0.610735  0.389265  1
  O  O42  1  0.010693  0.839541  0.389213  1
  O  O43  1  0.316073  0.656037  0.657518  1
  O  O44  1  0.683927  0.657518  0.656037  1
  O  O45  1  0.166603  0.515688  0.763123  1
  O  O46  1  0.657439  0.494508  0.839236  1
  O  O47  1  0.920510  0.577052  0.754402  1
  O  O48  1  0.920510  0.245598  0.422948  1
  O  O49  1  0.816073  0.157518  0.156037  1
  O  O50  1  0.411105  0.500226  0.778077  1
  O  O51  1  0.202531  0.931578  0.068422  1
  O  O52  1  0.579490  0.077052  0.254402  1
  O  O53  1  0.510693  0.660459  0.110787  1
  O  O54  1  0.989307  0.160459  0.610787  1
  O  O55  1  0.489307  0.339541  0.889213  1
  O  O56  1  0.495932  0.889265  0.110735  1
  O  O57  1  0.434241  0.666472  0.333528  1
  O  O58  1  0.157439  0.339236  0.994508  1
  O  O59  1  0.333397  0.736877  0.984312  1
  O  O60  1  0.588895  0.499774  0.221923  1
  O  O61  1  0.588895  0.778077  0.500226  1
  O  O62  1  0.166603  0.236877  0.484312  1
  O  O63  1  0.420510  0.922948  0.745598  1
  O  O64  1  0.157439  0.005492  0.660764  1
  O  O65  1  0.316073  0.342482  0.343963  1
  O  O66  1  0.333397  0.015688  0.263123  1
  O  O67  1  0.183927  0.842482  0.843963  1
  O  O68  1  0.833397  0.763123  0.515688  1
  O  O69  1  0.666603  0.984312  0.736877  1
  O  O70  1  0.504068  0.110735  0.889265  1
  O  O71  1  0.579490  0.745598  0.922948  1
  O  O72  1  0.666603  0.263123  0.015688  1
  O  O73  1  0.088895  0.000226  0.278077  1
  O  O74  1  0.797469  0.068422  0.931578  1
  O  O75  1  0.816073  0.843963  0.842482  1
  O  O76  1  0.489307  0.110787  0.660459  1
  O  O77  1  0.510693  0.889213  0.339541  1
  O  O78  1  0.657439  0.160764  0.505492  1
  O  O79  1  0.934241  0.833528  0.166472  1
  O  O80  1  0.079490  0.754402  0.577052  1
  O  O81  1  0.342561  0.505492  0.160764  1
  O  O82  1  0.088895  0.721923  0.999774  1
  O  O83  1  0.565759  0.333528  0.666472  1
  O  O84  1  0.342561  0.839236  0.494508  1
  O  O85  1  0.989307  0.389213  0.839541  1
  O  O86  1  0.010693  0.610787  0.160459  1
  O  O87  1  0.297469  0.431578  0.568422  1
  O  O88  1  0.065759  0.166472  0.833528  1
  O  O89  1  0.911105  0.999774  0.721923  1
  O  O90  1  0.004068  0.389265  0.610735  1
  O  O91  1  0.411105  0.221923  0.499774  1
  O  O92  1  0.842561  0.660764  0.005492  1
  O  O93  1  0.079490  0.422948  0.245598  1
  O  O94  1  0.833397  0.484312  0.236877  1
  O  O95  1  0.842561  0.994508  0.339236  1
  O  O96  1  0.911105  0.278077  0.000226  1
  O  O97  1  0.683927  0.343963  0.342482  1
  O  O98  1  0.183927  0.156037  0.157518  1
  O  O99  1  0.702531  0.568422  0.431578  1
