# generated using pymatgen
data_Tb3Fe2Co9B4
_symmetry_space_group_name_H-M   'P 1'
_cell_length_a   5.06243600
_cell_length_b   5.06830430
_cell_length_c   9.72461200
_cell_angle_alpha   89.99990461
_cell_angle_beta   90.00017969
_cell_angle_gamma   119.96170627
_symmetry_Int_Tables_number   1
_chemical_formula_structural   Tb3Fe2Co9B4
_chemical_formula_sum   'Tb3 Fe2 Co9 B4'
_cell_volume   216.16859260
_cell_formula_units_Z   1
loop_
 _symmetry_equiv_pos_site_id
 _symmetry_equiv_pos_as_xyz
  1  'x, y, z'
loop_
 _atom_site_type_symbol
 _atom_site_label
 _atom_site_symmetry_multiplicity
 _atom_site_fract_x
 _atom_site_fract_y
 _atom_site_fract_z
 _atom_site_occupancy
  Tb  Tb0  1  0.999986  0.000000  0.000028  1
  Tb  Tb1  1  0.999995  0.000000  0.342111  1
  Tb  Tb2  1  0.000000  0.000000  0.657911  1
  Fe  Fe3  1  0.333254  0.666533  0.999996  1
  Fe  Fe4  1  0.666721  0.333467  0.999996  1
  Co  Co5  1  0.499998  0.000000  0.499985  1
  Co  Co6  1  0.499997  0.500001  0.499995  1
  Co  Co7  1  0.999997  0.499999  0.499995  1
  Co  Co8  1  0.499992  0.000000  0.202783  1
  Co  Co9  1  0.499993  0.500000  0.202797  1
  Co  Co10  1  0.999992  0.500000  0.202797  1
  Co  Co11  1  0.499999  0.000000  0.797278  1
  Co  Co12  1  0.499998  0.500001  0.797169  1
  Co  Co13  1  0.999997  0.499999  0.797169  1
  B  B14  1  0.333312  0.666636  0.349954  1
  B  B15  1  0.666675  0.333364  0.349954  1
  B  B16  1  0.666756  0.333516  0.650044  1
  B  B17  1  0.333239  0.666484  0.650044  1
