# generated using pymatgen
data_Sr2CaNdAs7Ir8
_symmetry_space_group_name_H-M   'P 1'
_cell_length_a   4.12904800
_cell_length_b   13.30471819
_cell_length_c   13.77918753
_cell_angle_alpha   81.55739727
_cell_angle_beta   90.00000000
_cell_angle_gamma   90.00000000
_symmetry_Int_Tables_number   1
_chemical_formula_structural   Sr2CaNdAs7Ir8
_chemical_formula_sum   'Sr4 Ca2 Nd2 As14 Ir16'
_cell_volume   748.76800350
_cell_formula_units_Z   2
loop_
 _symmetry_equiv_pos_site_id
 _symmetry_equiv_pos_as_xyz
  1  'x, y, z'
loop_
 _atom_site_type_symbol
 _atom_site_label
 _atom_site_symmetry_multiplicity
 _atom_site_fract_x
 _atom_site_fract_y
 _atom_site_fract_z
 _atom_site_occupancy
  Sr  Sr0  1  0.250000  0.103482  0.792262  1
  Sr  Sr1  1  0.750000  0.896518  0.207738  1
  Sr  Sr2  1  0.250000  0.285378  0.104061  1
  Sr  Sr3  1  0.750000  0.714622  0.895939  1
  Ca  Ca4  1  0.250000  0.212229  0.436432  1
  Ca  Ca5  1  0.750000  0.787771  0.563568  1
  Nd  Nd6  1  0.250000  0.515220  0.291923  1
  Nd  Nd7  1  0.750000  0.484780  0.708077  1
  As  As8  1  0.250000  0.057452  0.101381  1
  As  As9  1  0.750000  0.942548  0.898619  1
  As  As10  1  0.250000  0.312630  0.686418  1
  As  As11  1  0.750000  0.687370  0.313582  1
  As  As12  1  0.250000  0.609800  0.563687  1
  As  As13  1  0.750000  0.390200  0.436313  1
  As  As14  1  0.250000  0.845180  0.718879  1
  As  As15  1  0.750000  0.154820  0.281121  1
  As  As16  1  0.750000  0.256025  0.916133  1
  As  As17  1  0.250000  0.743975  0.083867  1
  As  As18  1  0.750000  0.094807  0.584976  1
  As  As19  1  0.250000  0.905193  0.415024  1
  As  As20  1  0.750000  0.469476  0.127544  1
  As  As21  1  0.250000  0.530524  0.872456  1
  Ir  Ir22  1  0.250000  0.984336  0.572384  1
  Ir  Ir23  1  0.750000  0.015664  0.427616  1
  Ir  Ir24  1  0.250000  0.661427  0.727477  1
  Ir  Ir25  1  0.750000  0.338573  0.272523  1
  Ir  Ir26  1  0.250000  0.551784  0.050294  1
  Ir  Ir27  1  0.750000  0.448216  0.949706  1
  Ir  Ir28  1  0.250000  0.058226  0.281655  1
  Ir  Ir29  1  0.750000  0.941774  0.718345  1
  Ir  Ir30  1  0.250000  0.426169  0.526967  1
  Ir  Ir31  1  0.750000  0.573831  0.473033  1
  Ir  Ir32  1  0.250000  0.920273  0.998731  1
  Ir  Ir33  1  0.750000  0.079727  0.001269  1
  Ir  Ir34  1  0.250000  0.722321  0.401297  1
  Ir  Ir35  1  0.750000  0.277679  0.598703  1
  Ir  Ir36  1  0.250000  0.346673  0.857425  1
  Ir  Ir37  1  0.750000  0.653327  0.142575  1
