# generated using pymatgen
data_Th4PdPt11
_symmetry_space_group_name_H-M   'P 1'
_cell_length_a   5.93981162
_cell_length_b   5.93981125
_cell_length_c   9.99370700
_cell_angle_alpha   90.00000000
_cell_angle_beta   90.00000000
_cell_angle_gamma   120.12649463
_symmetry_Int_Tables_number   1
_chemical_formula_structural   Th4PdPt11
_chemical_formula_sum   'Th4 Pd1 Pt11'
_cell_volume   304.96329900
_cell_formula_units_Z   1
loop_
 _symmetry_equiv_pos_site_id
 _symmetry_equiv_pos_as_xyz
  1  'x, y, z'
loop_
 _atom_site_type_symbol
 _atom_site_label
 _atom_site_symmetry_multiplicity
 _atom_site_fract_x
 _atom_site_fract_y
 _atom_site_fract_z
 _atom_site_occupancy
  Th  Th0  1  0.999803  0.000197  0.499875  1
  Th  Th1  1  0.999803  0.000197  0.000125  1
  Th  Th2  1  0.333293  0.666707  0.250000  1
  Th  Th3  1  0.666953  0.333047  0.750000  1
  Pd  Pd4  1  0.173840  0.826160  0.750000  1
  Pt  Pt5  1  0.499903  0.500097  0.500578  1
  Pt  Pt6  1  0.499735  0.000124  0.500228  1
  Pt  Pt7  1  0.999876  0.500265  0.500228  1
  Pt  Pt8  1  0.499903  0.500097  0.999422  1
  Pt  Pt9  1  0.499735  0.000124  0.999772  1
  Pt  Pt10  1  0.999876  0.500265  0.999772  1
  Pt  Pt11  1  0.826582  0.652769  0.250000  1
  Pt  Pt12  1  0.347231  0.173418  0.250000  1
  Pt  Pt13  1  0.826688  0.173312  0.250000  1
  Pt  Pt14  1  0.173784  0.347004  0.750000  1
  Pt  Pt15  1  0.652996  0.826216  0.750000  1
