# generated using pymatgen
data_EuAg(AuO2)4
_symmetry_space_group_name_H-M   'P 1'
_cell_length_a   6.76525574
_cell_length_b   6.76525627
_cell_length_c   6.76525600
_cell_angle_alpha   124.57090356
_cell_angle_beta   124.57090662
_cell_angle_gamma   82.24997983
_symmetry_Int_Tables_number   1
_chemical_formula_structural   EuAg(AuO2)4
_chemical_formula_sum   'Eu1 Ag1 Au4 O8'
_cell_volume   201.78919689
_cell_formula_units_Z   1
loop_
 _symmetry_equiv_pos_site_id
 _symmetry_equiv_pos_as_xyz
  1  'x, y, z'
loop_
 _atom_site_type_symbol
 _atom_site_label
 _atom_site_symmetry_multiplicity
 _atom_site_fract_x
 _atom_site_fract_y
 _atom_site_fract_z
 _atom_site_occupancy
  Eu  Eu0  1  0.750000  0.250000  0.500000  1
  Ag  Ag1  1  0.000000  0.000000  0.000000  1
  Au  Au2  1  0.874126  0.617372  0.241795  1
  Au  Au3  1  0.375575  0.632332  0.758205  1
  Au  Au4  1  0.367668  0.125874  0.743245  1
  Au  Au5  1  0.382628  0.624425  0.256755  1
  O  O6  1  0.399207  0.838907  0.140607  1
  O  O7  1  0.698299  0.258598  0.859393  1
  O  O8  1  0.375594  0.423095  0.391288  1
  O  O9  1  0.031807  0.984306  0.608712  1
  O  O10  1  0.015694  0.624406  0.047502  1
  O  O11  1  0.576905  0.968193  0.952498  1
  O  O12  1  0.161093  0.301701  0.560301  1
  O  O13  1  0.741402  0.600793  0.439699  1
