# generated using pymatgen
data_Ho7Lu3Si5As
_symmetry_space_group_name_H-M   'P 1'
_cell_length_a   8.35970810
_cell_length_b   8.37159745
_cell_length_c   6.23576916
_cell_angle_alpha   89.97477232
_cell_angle_beta   90.01755482
_cell_angle_gamma   119.95691553
_symmetry_Int_Tables_number   1
_chemical_formula_structural   Ho7Lu3Si5As
_chemical_formula_sum   'Ho7 Lu3 Si5 As1'
_cell_volume   378.10154476
_cell_formula_units_Z   1
loop_
 _symmetry_equiv_pos_site_id
 _symmetry_equiv_pos_as_xyz
  1  'x, y, z'
loop_
 _atom_site_type_symbol
 _atom_site_label
 _atom_site_symmetry_multiplicity
 _atom_site_fract_x
 _atom_site_fract_y
 _atom_site_fract_z
 _atom_site_occupancy
  Ho  Ho0  1  0.996196  0.752614  0.749177  1
  Ho  Ho1  1  0.000222  0.244739  0.250609  1
  Ho  Ho2  1  0.755700  0.755090  0.250743  1
  Ho  Ho3  1  0.756942  0.000106  0.749398  1
  Ho  Ho4  1  0.243592  0.247187  0.749397  1
  Ho  Ho5  1  0.244494  0.000172  0.250526  1
  Ho  Ho6  1  0.332991  0.664180  0.001041  1
  Lu  Lu7  1  0.333040  0.663763  0.498475  1
  Lu  Lu8  1  0.669460  0.336600  0.001613  1
  Lu  Lu9  1  0.669098  0.336057  0.498556  1
  Si  Si10  1  0.395676  0.392494  0.252355  1
  Si  Si11  1  0.999782  0.605748  0.252543  1
  Si  Si12  1  0.997727  0.393537  0.747653  1
  Si  Si13  1  0.605740  0.604323  0.747615  1
  Si  Si14  1  0.607447  0.001757  0.251940  1
  As  As15  1  0.391894  0.001633  0.748358  1
