# generated using pymatgen
data_Tm3LuAl18(NiRh2)2
_symmetry_space_group_name_H-M   'P 1'
_cell_length_a   7.49962617
_cell_length_b   7.49879314
_cell_length_c   9.34956000
_cell_angle_alpha   90.00000000
_cell_angle_beta   90.00000000
_cell_angle_gamma   119.89602537
_symmetry_Int_Tables_number   1
_chemical_formula_structural   Tm3LuAl18(NiRh2)2
_chemical_formula_sum   'Tm3 Lu1 Al18 Ni2 Rh4'
_cell_volume   455.83415081
_cell_formula_units_Z   1
loop_
 _symmetry_equiv_pos_site_id
 _symmetry_equiv_pos_as_xyz
  1  'x, y, z'
loop_
 _atom_site_type_symbol
 _atom_site_label
 _atom_site_symmetry_multiplicity
 _atom_site_fract_x
 _atom_site_fract_y
 _atom_site_fract_z
 _atom_site_occupancy
  Tm  Tm0  1  0.005275  0.332071  0.750000  1
  Tm  Tm1  1  0.667901  0.994647  0.250000  1
  Tm  Tm2  1  0.331983  0.005251  0.750000  1
  Lu  Lu3  1  0.994733  0.667812  0.250000  1
  Al  Al4  1  0.120094  0.119807  0.250000  1
  Al  Al5  1  0.879751  0.879701  0.750000  1
  Al  Al6  1  0.999218  0.331742  0.074927  1
  Al  Al7  1  0.000849  0.668650  0.925363  1
  Al  Al8  1  0.000849  0.668650  0.574637  1
  Al  Al9  1  0.330956  0.998824  0.425064  1
  Al  Al10  1  0.999218  0.331742  0.425073  1
  Al  Al11  1  0.668649  0.000832  0.574984  1
  Al  Al12  1  0.668649  0.000832  0.925016  1
  Al  Al13  1  0.330956  0.998824  0.074936  1
  Al  Al14  1  0.330113  0.330093  0.551736  1
  Al  Al15  1  0.670267  0.669937  0.448218  1
  Al  Al16  1  0.670267  0.669937  0.051782  1
  Al  Al17  1  0.330113  0.330093  0.948264  1
  Al  Al18  1  0.337944  0.547430  0.250000  1
  Al  Al19  1  0.661674  0.452669  0.750000  1
  Al  Al20  1  0.547798  0.338476  0.250000  1
  Al  Al21  1  0.452686  0.661661  0.750000  1
  Ni  Ni22  1  0.999966  0.999934  0.000178  1
  Ni  Ni23  1  0.999966  0.999934  0.499822  1
  Rh  Rh24  1  0.672385  0.327976  0.000336  1
  Rh  Rh25  1  0.327679  0.672249  0.000298  1
  Rh  Rh26  1  0.327679  0.672249  0.499702  1
  Rh  Rh27  1  0.672385  0.327976  0.499664  1
