# generated using pymatgen
data_Sr20Cd3PdAu8
_symmetry_space_group_name_H-M   'P 1'
_cell_length_a   8.50169055
_cell_length_b   8.48298535
_cell_length_c   15.77339523
_cell_angle_alpha   89.92600859
_cell_angle_beta   90.00427347
_cell_angle_gamma   90.10471123
_symmetry_Int_Tables_number   1
_chemical_formula_structural   Sr20Cd3PdAu8
_chemical_formula_sum   'Sr20 Cd3 Pd1 Au8'
_cell_volume   1137.56993949
_cell_formula_units_Z   1
loop_
 _symmetry_equiv_pos_site_id
 _symmetry_equiv_pos_as_xyz
  1  'x, y, z'
loop_
 _atom_site_type_symbol
 _atom_site_label
 _atom_site_symmetry_multiplicity
 _atom_site_fract_x
 _atom_site_fract_y
 _atom_site_fract_z
 _atom_site_occupancy
  Sr  Sr0  1  0.000499  0.999747  0.756320  1
  Sr  Sr1  1  0.500891  0.497567  0.250918  1
  Sr  Sr2  1  0.997196  0.001036  0.243982  1
  Sr  Sr3  1  0.499958  0.500612  0.748603  1
  Sr  Sr4  1  0.174992  0.660311  0.108497  1
  Sr  Sr5  1  0.668372  0.167207  0.611564  1
  Sr  Sr6  1  0.820663  0.335142  0.110236  1
  Sr  Sr7  1  0.332188  0.833468  0.610925  1
  Sr  Sr8  1  0.344676  0.174535  0.109791  1
  Sr  Sr9  1  0.832688  0.668404  0.610564  1
  Sr  Sr10  1  0.660654  0.829915  0.109520  1
  Sr  Sr11  1  0.167100  0.331748  0.610619  1
  Sr  Sr12  1  0.340232  0.824697  0.893387  1
  Sr  Sr13  1  0.828674  0.327003  0.385296  1
  Sr  Sr14  1  0.660575  0.175673  0.892710  1
  Sr  Sr15  1  0.166334  0.667478  0.387263  1
  Sr  Sr16  1  0.175898  0.339267  0.893914  1
  Sr  Sr17  1  0.667823  0.838500  0.385747  1
  Sr  Sr18  1  0.824022  0.660095  0.894046  1
  Sr  Sr19  1  0.336618  0.166128  0.386081  1
  Cd  Cd20  1  0.000698  0.000018  0.499653  1
  Cd  Cd21  1  0.001190  0.999935  0.000301  1
  Cd  Cd22  1  0.499908  0.500782  0.500007  1
  Pd  Pd23  1  0.625660  0.126524  0.247833  1
  Au  Au24  1  0.128292  0.628060  0.751990  1
  Au  Au25  1  0.871678  0.371930  0.752002  1
  Au  Au26  1  0.373963  0.874527  0.247967  1
  Au  Au27  1  0.371054  0.128987  0.751994  1
  Au  Au28  1  0.870445  0.628444  0.248040  1
  Au  Au29  1  0.128661  0.370679  0.248041  1
  Au  Au30  1  0.629067  0.871017  0.752018  1
  Au  Au31  1  0.499330  0.500566  0.000170  1
