# generated using pymatgen
data_Li4Ac3YbGe8
_symmetry_space_group_name_H-M   'P 1'
_cell_length_a   4.12531400
_cell_length_b   8.09847791
_cell_length_c   11.02961449
_cell_angle_alpha   89.88654806
_cell_angle_beta   90.00000000
_cell_angle_gamma   90.00000000
_symmetry_Int_Tables_number   1
_chemical_formula_structural   Li4Ac3YbGe8
_chemical_formula_sum   'Li4 Ac3 Yb1 Ge8'
_cell_volume   368.48506833
_cell_formula_units_Z   1
loop_
 _symmetry_equiv_pos_site_id
 _symmetry_equiv_pos_as_xyz
  1  'x, y, z'
loop_
 _atom_site_type_symbol
 _atom_site_label
 _atom_site_symmetry_multiplicity
 _atom_site_fract_x
 _atom_site_fract_y
 _atom_site_fract_z
 _atom_site_occupancy
  Li  Li0  1  0.250000  0.489886  0.387217  1
  Li  Li1  1  0.750000  0.509192  0.608385  1
  Li  Li2  1  0.250000  0.990447  0.107747  1
  Li  Li3  1  0.750000  0.010531  0.894653  1
  Ac  Ac4  1  0.250000  0.137904  0.635227  1
  Ac  Ac5  1  0.750000  0.864394  0.363934  1
  Ac  Ac6  1  0.250000  0.633163  0.868361  1
  Yb  Yb7  1  0.750000  0.370010  0.132949  1
  Ge  Ge8  1  0.750000  0.332508  0.822446  1
  Ge  Ge9  1  0.250000  0.651084  0.177770  1
  Ge  Ge10  1  0.750000  0.836004  0.680903  1
  Ge  Ge11  1  0.250000  0.169301  0.313038  1
  Ge  Ge12  1  0.750000  0.281870  0.426728  1
  Ge  Ge13  1  0.250000  0.718660  0.568282  1
  Ge  Ge14  1  0.750000  0.775837  0.069638  1
  Ge  Ge15  1  0.250000  0.229209  0.942722  1
