# generated using pymatgen
data_SrCaTi4O10
_symmetry_space_group_name_H-M   'P 1'
_cell_length_a   3.68328700
_cell_length_b   5.11969700
_cell_length_c   11.71089900
_cell_angle_alpha   90.00000000
_cell_angle_beta   90.00000000
_cell_angle_gamma   90.00000000
_symmetry_Int_Tables_number   1
_chemical_formula_structural   SrCaTi4O10
_chemical_formula_sum   'Sr1 Ca1 Ti4 O10'
_cell_volume   220.83609269
_cell_formula_units_Z   1
loop_
 _symmetry_equiv_pos_site_id
 _symmetry_equiv_pos_as_xyz
  1  'x, y, z'
loop_
 _atom_site_type_symbol
 _atom_site_label
 _atom_site_symmetry_multiplicity
 _atom_site_fract_x
 _atom_site_fract_y
 _atom_site_fract_z
 _atom_site_occupancy
  Sr  Sr0  1  0.500000  0.119523  0.000000  1
  Ca  Ca1  1  0.000000  0.868260  0.500000  1
  Ti  Ti2  1  0.000000  0.597918  0.846022  1
  Ti  Ti3  1  0.500000  0.400225  0.649328  1
  Ti  Ti4  1  0.500000  0.400225  0.350672  1
  Ti  Ti5  1  0.000000  0.597918  0.153978  1
  O  O6  1  0.500000  0.555475  0.500000  1
  O  O7  1  0.000000  0.464626  0.000000  1
  O  O8  1  0.500000  0.469868  0.822949  1
  O  O9  1  0.000000  0.528511  0.672755  1
  O  O10  1  0.500000  0.469868  0.177051  1
  O  O11  1  0.000000  0.528511  0.327245  1
  O  O12  1  0.000000  0.929120  0.129257  1
  O  O13  1  0.500000  0.070417  0.380547  1
  O  O14  1  0.500000  0.070417  0.619453  1
  O  O15  1  0.000000  0.929120  0.870743  1
