# generated using pymatgen
data_YbLu(Ga2Ag)2
_symmetry_space_group_name_H-M   'P 1'
_cell_length_a   4.33426200
_cell_length_b   6.93654778
_cell_length_c   10.30547357
_cell_angle_alpha   90.94064450
_cell_angle_beta   90.00000000
_cell_angle_gamma   90.00000000
_symmetry_Int_Tables_number   1
_chemical_formula_structural   YbLu(Ga2Ag)2
_chemical_formula_sum   'Yb2 Lu2 Ga8 Ag4'
_cell_volume   309.79040756
_cell_formula_units_Z   2
loop_
 _symmetry_equiv_pos_site_id
 _symmetry_equiv_pos_as_xyz
  1  'x, y, z'
loop_
 _atom_site_type_symbol
 _atom_site_label
 _atom_site_symmetry_multiplicity
 _atom_site_fract_x
 _atom_site_fract_y
 _atom_site_fract_z
 _atom_site_occupancy
  Yb  Yb0  1  0.750000  0.724335  0.327437  1
  Yb  Yb1  1  0.250000  0.275665  0.672563  1
  Lu  Lu2  1  0.250000  0.776289  0.828610  1
  Lu  Lu3  1  0.750000  0.223711  0.171390  1
  Ga  Ga4  1  0.250000  0.703576  0.535826  1
  Ga  Ga5  1  0.750000  0.296424  0.464174  1
  Ga  Ga6  1  0.750000  0.798066  0.034919  1
  Ga  Ga7  1  0.250000  0.201934  0.965081  1
  Ga  Ga8  1  0.250000  0.929766  0.151558  1
  Ga  Ga9  1  0.750000  0.070234  0.848442  1
  Ga  Ga10  1  0.750000  0.573010  0.652883  1
  Ga  Ga11  1  0.250000  0.426990  0.347117  1
  Ag  Ag12  1  0.250000  0.542389  0.098835  1
  Ag  Ag13  1  0.750000  0.457611  0.901165  1
  Ag  Ag14  1  0.750000  0.959170  0.598901  1
  Ag  Ag15  1  0.250000  0.040830  0.401099  1
