# generated using pymatgen
data_Tb15Ho4ThSn16
_symmetry_space_group_name_H-M   'P 1'
_cell_length_a   8.07144529
_cell_length_b   8.20917015
_cell_length_c   15.52516607
_cell_angle_alpha   90.02800675
_cell_angle_beta   89.72278011
_cell_angle_gamma   89.89266760
_symmetry_Int_Tables_number   1
_chemical_formula_structural   Tb15Ho4ThSn16
_chemical_formula_sum   'Tb15 Ho4 Th1 Sn16'
_cell_volume   1028.68147738
_cell_formula_units_Z   1
loop_
 _symmetry_equiv_pos_site_id
 _symmetry_equiv_pos_as_xyz
  1  'x, y, z'
loop_
 _atom_site_type_symbol
 _atom_site_label
 _atom_site_symmetry_multiplicity
 _atom_site_fract_x
 _atom_site_fract_y
 _atom_site_fract_z
 _atom_site_occupancy
  Tb  Tb0  1  0.366013  0.835814  0.877493  1
  Tb  Tb1  1  0.868046  0.663861  0.621170  1
  Tb  Tb2  1  0.631651  0.162276  0.377747  1
  Tb  Tb3  1  0.134075  0.337153  0.122760  1
  Tb  Tb4  1  0.633961  0.162624  0.122885  1
  Tb  Tb5  1  0.132342  0.338304  0.378330  1
  Tb  Tb6  1  0.368824  0.837973  0.621953  1
  Tb  Tb7  1  0.866414  0.661948  0.877882  1
  Tb  Tb8  1  0.521507  0.321472  0.902732  1
  Tb  Tb9  1  0.023354  0.179192  0.598852  1
  Tb  Tb10  1  0.478986  0.678801  0.401947  1
  Tb  Tb11  1  0.980649  0.820980  0.097998  1
  Tb  Tb12  1  0.480774  0.678271  0.097614  1
  Tb  Tb13  1  0.979079  0.821206  0.402083  1
  Tb  Tb14  1  0.520453  0.322904  0.596625  1
  Ho  Ho15  1  0.197825  0.500952  0.749261  1
  Ho  Ho16  1  0.698036  0.997190  0.748906  1
  Ho  Ho17  1  0.801712  0.497723  0.250748  1
  Ho  Ho18  1  0.301866  0.002078  0.250096  1
  Th  Th19  1  0.015919  0.179749  0.903530  1
  Sn  Sn20  1  0.294669  0.035328  0.042671  1
  Sn  Sn21  1  0.791089  0.463401  0.457696  1
  Sn  Sn22  1  0.709714  0.966233  0.542025  1
  Sn  Sn23  1  0.207509  0.535682  0.957716  1
  Sn  Sn24  1  0.702670  0.959548  0.959202  1
  Sn  Sn25  1  0.208315  0.538215  0.541795  1
  Sn  Sn26  1  0.291805  0.036470  0.457821  1
  Sn  Sn27  1  0.794096  0.461672  0.041997  1
  Sn  Sn28  1  0.564348  0.619549  0.749570  1
  Sn  Sn29  1  0.064720  0.879545  0.750722  1
  Sn  Sn30  1  0.435303  0.381458  0.250230  1
  Sn  Sn31  1  0.935817  0.119161  0.250651  1
  Sn  Sn32  1  0.331445  0.148087  0.749863  1
  Sn  Sn33  1  0.826300  0.355040  0.747941  1
  Sn  Sn34  1  0.670537  0.851724  0.249576  1
  Sn  Sn35  1  0.170177  0.648421  0.249916  1
