# generated using pymatgen
data_Zn4Cd12Cu7Pd
_symmetry_space_group_name_H-M   'P 1'
_cell_length_a   8.35837807
_cell_length_b   8.33893900
_cell_length_c   8.33893900
_cell_angle_alpha   59.99999605
_cell_angle_beta   60.07689978
_cell_angle_gamma   60.07690045
_symmetry_Int_Tables_number   1
_chemical_formula_structural   Zn4Cd12Cu7Pd
_chemical_formula_sum   'Zn4 Cd12 Cu7 Pd1'
_cell_volume   411.46454423
_cell_formula_units_Z   1
loop_
 _symmetry_equiv_pos_site_id
 _symmetry_equiv_pos_as_xyz
  1  'x, y, z'
loop_
 _atom_site_type_symbol
 _atom_site_label
 _atom_site_symmetry_multiplicity
 _atom_site_fract_x
 _atom_site_fract_y
 _atom_site_fract_z
 _atom_site_occupancy
  Zn  Zn0  1  0.123972  0.625343  0.625343  1
  Zn  Zn1  1  0.623124  0.123937  0.626469  1
  Zn  Zn2  1  0.623124  0.626469  0.123937  1
  Zn  Zn3  1  0.623124  0.626469  0.626469  1
  Cd  Cd4  1  0.808764  0.809518  0.190859  1
  Cd  Cd5  1  0.191361  0.191026  0.808806  1
  Cd  Cd6  1  0.808764  0.190859  0.809518  1
  Cd  Cd7  1  0.191361  0.808806  0.191026  1
  Cd  Cd8  1  0.191361  0.808806  0.808806  1
  Cd  Cd9  1  0.808764  0.190859  0.190859  1
  Cd  Cd10  1  0.441618  0.441620  0.058381  1
  Cd  Cd11  1  0.061431  0.054634  0.441967  1
  Cd  Cd12  1  0.441618  0.058381  0.441620  1
  Cd  Cd13  1  0.061431  0.441967  0.054634  1
  Cd  Cd14  1  0.061431  0.441967  0.441967  1
  Cd  Cd15  1  0.441618  0.058381  0.058381  1
  Cu  Cu16  1  0.414884  0.745291  0.419912  1
  Cu  Cu17  1  0.414884  0.419912  0.745291  1
  Cu  Cu18  1  0.414884  0.419912  0.419912  1
  Cu  Cu19  1  0.507762  0.830747  0.830747  1
  Cu  Cu20  1  0.831185  0.507607  0.830605  1
  Cu  Cu21  1  0.831185  0.830605  0.507607  1
  Cu  Cu22  1  0.831185  0.830605  0.830605  1
  Pd  Pd23  1  0.751161  0.416279  0.416279  1
