# generated using pymatgen
data_Zr5BiPb2Au
_symmetry_space_group_name_H-M   'P 1'
_cell_length_a   8.91121470
_cell_length_b   8.91983183
_cell_length_c   5.99752000
_cell_angle_alpha   90.00000000
_cell_angle_beta   90.00000000
_cell_angle_gamma   120.03198754
_symmetry_Int_Tables_number   1
_chemical_formula_structural   Zr5BiPb2Au
_chemical_formula_sum   'Zr10 Bi2 Pb4 Au2'
_cell_volume   412.72030422
_cell_formula_units_Z   2
loop_
 _symmetry_equiv_pos_site_id
 _symmetry_equiv_pos_as_xyz
  1  'x, y, z'
loop_
 _atom_site_type_symbol
 _atom_site_label
 _atom_site_symmetry_multiplicity
 _atom_site_fract_x
 _atom_site_fract_y
 _atom_site_fract_z
 _atom_site_occupancy
  Zr  Zr0  1  0.666977  0.333808  0.001544  1
  Zr  Zr1  1  0.333023  0.666831  0.001544  1
  Zr  Zr2  1  0.333023  0.666831  0.498456  1
  Zr  Zr3  1  0.666977  0.333808  0.498456  1
  Zr  Zr4  1  0.728822  0.727289  0.750000  1
  Zr  Zr5  1  0.271178  0.998468  0.750000  1
  Zr  Zr6  1  0.000000  0.271851  0.750000  1
  Zr  Zr7  1  0.273864  0.274888  0.250000  1
  Zr  Zr8  1  0.726136  0.001024  0.250000  1
  Zr  Zr9  1  0.000000  0.725311  0.250000  1
  Bi  Bi10  1  0.384015  0.383943  0.750000  1
  Bi  Bi11  1  0.615985  0.999927  0.750000  1
  Pb  Pb12  1  0.000000  0.615634  0.750000  1
  Pb  Pb13  1  0.618659  0.618803  0.250000  1
  Pb  Pb14  1  0.381341  0.000144  0.250000  1
  Pb  Pb15  1  0.000000  0.382631  0.250000  1
  Au  Au16  1  0.000000  0.999403  0.002816  1
  Au  Au17  1  0.000000  0.999403  0.497184  1
