# generated using pymatgen
data_Tm8Si12IrPt3
_symmetry_space_group_name_H-M   'P 1'
_cell_length_a   8.12998500
_cell_length_b   8.12998428
_cell_length_c   7.81679900
_cell_angle_alpha   90.00000000
_cell_angle_beta   90.00000000
_cell_angle_gamma   119.99999886
_symmetry_Int_Tables_number   1
_chemical_formula_structural   Tm8Si12IrPt3
_chemical_formula_sum   'Tm8 Si12 Ir1 Pt3'
_cell_volume   447.44435318
_cell_formula_units_Z   1
loop_
 _symmetry_equiv_pos_site_id
 _symmetry_equiv_pos_as_xyz
  1  'x, y, z'
loop_
 _atom_site_type_symbol
 _atom_site_label
 _atom_site_symmetry_multiplicity
 _atom_site_fract_x
 _atom_site_fract_y
 _atom_site_fract_z
 _atom_site_occupancy
  Tm  Tm0  1  0.000000  0.000000  0.250770  1
  Tm  Tm1  1  0.000000  0.000000  0.750090  1
  Tm  Tm2  1  0.488144  0.511856  0.251956  1
  Tm  Tm3  1  0.488144  0.976288  0.251956  1
  Tm  Tm4  1  0.023712  0.511856  0.251956  1
  Tm  Tm5  1  0.509663  0.490337  0.747772  1
  Tm  Tm6  1  0.980672  0.490337  0.747772  1
  Tm  Tm7  1  0.509663  0.019328  0.747772  1
  Si  Si8  1  0.835770  0.164230  0.497892  1
  Si  Si9  1  0.835770  0.671540  0.497892  1
  Si  Si10  1  0.328460  0.164230  0.497892  1
  Si  Si11  1  0.835023  0.164977  0.001475  1
  Si  Si12  1  0.835023  0.670047  0.001475  1
  Si  Si13  1  0.329953  0.164977  0.001475  1
  Si  Si14  1  0.165088  0.834912  0.999385  1
  Si  Si15  1  0.669825  0.834912  0.999385  1
  Si  Si16  1  0.165088  0.330175  0.999385  1
  Si  Si17  1  0.167035  0.832965  0.502160  1
  Si  Si18  1  0.665933  0.832965  0.502160  1
  Si  Si19  1  0.167035  0.334067  0.502160  1
  Ir  Ir20  1  0.333333  0.666667  0.537192  1
  Pt  Pt21  1  0.666667  0.333333  0.465923  1
  Pt  Pt22  1  0.666667  0.333333  0.034895  1
  Pt  Pt23  1  0.333333  0.666667  0.959216  1
