# generated using pymatgen
data_ErCrCo4As3
_symmetry_space_group_name_H-M   'P 1'
_cell_length_a   3.76348600
_cell_length_b   10.72877200
_cell_length_c   12.27016500
_cell_angle_alpha   90.00000000
_cell_angle_beta   90.00000000
_cell_angle_gamma   90.00000000
_symmetry_Int_Tables_number   1
_chemical_formula_structural   ErCrCo4As3
_chemical_formula_sum   'Er4 Cr4 Co16 As12'
_cell_volume   495.43960840
_cell_formula_units_Z   4
loop_
 _symmetry_equiv_pos_site_id
 _symmetry_equiv_pos_as_xyz
  1  'x, y, z'
loop_
 _atom_site_type_symbol
 _atom_site_label
 _atom_site_symmetry_multiplicity
 _atom_site_fract_x
 _atom_site_fract_y
 _atom_site_fract_z
 _atom_site_occupancy
  Er  Er0  1  0.250000  0.580709  0.705952  1
  Er  Er1  1  0.250000  0.919291  0.205952  1
  Er  Er2  1  0.750000  0.419291  0.294048  1
  Er  Er3  1  0.750000  0.080709  0.794048  1
  Cr  Cr4  1  0.250000  0.706039  0.990925  1
  Cr  Cr5  1  0.250000  0.793961  0.490925  1
  Cr  Cr6  1  0.750000  0.293961  0.009075  1
  Cr  Cr7  1  0.750000  0.206039  0.509075  1
  Co  Co8  1  0.250000  0.405689  0.488618  1
  Co  Co9  1  0.250000  0.094311  0.988618  1
  Co  Co10  1  0.750000  0.594311  0.511382  1
  Co  Co11  1  0.750000  0.905689  0.011382  1
  Co  Co12  1  0.250000  0.217161  0.175461  1
  Co  Co13  1  0.250000  0.282839  0.675461  1
  Co  Co14  1  0.750000  0.782839  0.824539  1
  Co  Co15  1  0.750000  0.717161  0.324539  1
  Co  Co16  1  0.250000  0.883899  0.698710  1
  Co  Co17  1  0.250000  0.616101  0.198710  1
  Co  Co18  1  0.750000  0.116101  0.301290  1
  Co  Co19  1  0.750000  0.383899  0.801290  1
  Co  Co20  1  0.250000  0.464964  0.931716  1
  Co  Co21  1  0.250000  0.035036  0.431716  1
  Co  Co22  1  0.750000  0.535036  0.068284  1
  Co  Co23  1  0.750000  0.964964  0.568284  1
  As  As24  1  0.250000  0.417716  0.114523  1
  As  As25  1  0.250000  0.082284  0.614523  1
  As  As26  1  0.750000  0.582284  0.885477  1
  As  As27  1  0.750000  0.917716  0.385477  1
  As  As28  1  0.250000  0.266700  0.865939  1
  As  As29  1  0.250000  0.233300  0.365939  1
  As  As30  1  0.750000  0.733300  0.134061  1
  As  As31  1  0.750000  0.766700  0.634061  1
  As  As32  1  0.250000  0.595234  0.389370  1
  As  As33  1  0.250000  0.904766  0.889370  1
  As  As34  1  0.750000  0.404766  0.610630  1
  As  As35  1  0.750000  0.095234  0.110630  1
