# generated using pymatgen
data_Ta4ZnB4Ru10W
_symmetry_space_group_name_H-M   'P 1'
_cell_length_a   9.36933300
_cell_length_b   9.36933300
_cell_length_c   3.00488100
_cell_angle_alpha   90.00000000
_cell_angle_beta   90.00000000
_cell_angle_gamma   90.00000000
_symmetry_Int_Tables_number   1
_chemical_formula_structural   Ta4ZnB4Ru10W
_chemical_formula_sum   'Ta4 Zn1 B4 Ru10 W1'
_cell_volume   263.78167826
_cell_formula_units_Z   1
loop_
 _symmetry_equiv_pos_site_id
 _symmetry_equiv_pos_as_xyz
  1  'x, y, z'
loop_
 _atom_site_type_symbol
 _atom_site_label
 _atom_site_symmetry_multiplicity
 _atom_site_fract_x
 _atom_site_fract_y
 _atom_site_fract_z
 _atom_site_occupancy
  Ta  Ta0  1  0.825972  0.680283  0.000000  1
  Ta  Ta1  1  0.174028  0.319717  0.000000  1
  Ta  Ta2  1  0.319717  0.825972  0.000000  1
  Ta  Ta3  1  0.680283  0.174028  0.000000  1
  Zn  Zn4  1  0.000000  0.000000  0.000000  1
  B  B5  1  0.630681  0.884873  0.000000  1
  B  B6  1  0.369319  0.115127  0.000000  1
  B  B7  1  0.115127  0.630681  0.000000  1
  B  B8  1  0.884873  0.369319  0.000000  1
  Ru  Ru9  1  0.570297  0.717419  0.500000  1
  Ru  Ru10  1  0.429703  0.282581  0.500000  1
  Ru  Ru11  1  0.071120  0.784390  0.500000  1
  Ru  Ru12  1  0.928880  0.215610  0.500000  1
  Ru  Ru13  1  0.282581  0.570297  0.500000  1
  Ru  Ru14  1  0.717419  0.429703  0.500000  1
  Ru  Ru15  1  0.215610  0.071120  0.500000  1
  Ru  Ru16  1  0.784390  0.928880  0.500000  1
  Ru  Ru17  1  0.500000  0.000000  0.500000  1
  Ru  Ru18  1  0.000000  0.500000  0.500000  1
  W  W19  1  0.500000  0.500000  0.000000  1
