# generated using pymatgen
data_Er10Tm10Ir5Pt7
_symmetry_space_group_name_H-M   'P 1'
_cell_length_a   10.92700493
_cell_length_b   10.92538444
_cell_length_c   6.30428501
_cell_angle_alpha   90.02530256
_cell_angle_beta   90.03424346
_cell_angle_gamma   90.22558131
_symmetry_Int_Tables_number   1
_chemical_formula_structural   Er10Tm10Ir5Pt7
_chemical_formula_sum   'Er10 Tm10 Ir5 Pt7'
_cell_volume   752.61040728
_cell_formula_units_Z   1
loop_
 _symmetry_equiv_pos_site_id
 _symmetry_equiv_pos_as_xyz
  1  'x, y, z'
loop_
 _atom_site_type_symbol
 _atom_site_label
 _atom_site_symmetry_multiplicity
 _atom_site_fract_x
 _atom_site_fract_y
 _atom_site_fract_z
 _atom_site_occupancy
  Er  Er0  1  0.294895  0.086273  0.373788  1
  Er  Er1  1  0.295078  0.908515  0.874341  1
  Er  Er2  1  0.704513  0.086738  0.873638  1
  Er  Er3  1  0.704479  0.912270  0.373075  1
  Er  Er4  1  0.583546  0.792634  0.872243  1
  Er  Er5  1  0.587294  0.205351  0.374784  1
  Er  Er6  1  0.410863  0.792465  0.378211  1
  Er  Er7  1  0.412450  0.203882  0.874523  1
  Er  Er8  1  0.206903  0.416641  0.627675  1
  Er  Er9  1  0.207143  0.589087  0.121642  1
  Tm  Tm10  1  0.795453  0.413107  0.124771  1
  Tm  Tm11  1  0.796812  0.587317  0.625116  1
  Tm  Tm12  1  0.913950  0.704295  0.125740  1
  Tm  Tm13  1  0.913462  0.296277  0.625943  1
  Tm  Tm14  1  0.090870  0.704263  0.625177  1
  Tm  Tm15  1  0.087127  0.296111  0.126524  1
  Tm  Tm16  1  0.999378  0.999929  0.500687  1
  Tm  Tm17  1  0.000034  0.000532  0.999642  1
  Tm  Tm18  1  0.498199  0.500559  0.999648  1
  Tm  Tm19  1  0.499617  0.502105  0.500649  1
  Ir  Ir20  1  0.346987  0.652641  0.749822  1
  Ir  Ir21  1  0.499975  0.999981  0.121217  1
  Ir  Ir22  1  0.499793  0.000070  0.619840  1
  Ir  Ir23  1  0.999418  0.500208  0.880186  1
  Ir  Ir24  1  0.999557  0.500030  0.378804  1
  Pt  Pt25  1  0.847035  0.154076  0.250297  1
  Pt  Pt26  1  0.845887  0.846252  0.751196  1
  Pt  Pt27  1  0.152613  0.154835  0.749676  1
  Pt  Pt28  1  0.151910  0.847267  0.250557  1
  Pt  Pt29  1  0.653644  0.347437  0.750377  1
  Pt  Pt30  1  0.655265  0.653354  0.249891  1
  Pt  Pt31  1  0.345851  0.345500  0.250319  1
