# generated using pymatgen
data_Mg2Sc3P12Ir4Ru15
_symmetry_space_group_name_H-M   'P 1'
_cell_length_a   12.42821596
_cell_length_b   12.42952161
_cell_length_c   3.95026300
_cell_angle_alpha   90.00000000
_cell_angle_beta   90.00000000
_cell_angle_gamma   119.95139211
_symmetry_Int_Tables_number   1
_chemical_formula_structural   Mg2Sc3P12Ir4Ru15
_chemical_formula_sum   'Mg2 Sc3 P12 Ir4 Ru15'
_cell_volume   528.72805960
_cell_formula_units_Z   1
loop_
 _symmetry_equiv_pos_site_id
 _symmetry_equiv_pos_as_xyz
  1  'x, y, z'
loop_
 _atom_site_type_symbol
 _atom_site_label
 _atom_site_symmetry_multiplicity
 _atom_site_fract_x
 _atom_site_fract_y
 _atom_site_fract_z
 _atom_site_occupancy
  Mg  Mg0  1  0.817327  0.002145  0.500000  1
  Mg  Mg1  1  0.000358  0.816270  0.500000  1
  Sc  Sc2  1  0.332893  0.665822  0.000000  1
  Sc  Sc3  1  0.666035  0.332679  0.000000  1
  Sc  Sc4  1  0.184877  0.184783  0.500000  1
  P  P5  1  0.180826  0.000100  0.000000  1
  P  P6  1  0.006870  0.183903  0.000000  1
  P  P7  1  0.813466  0.817358  0.000000  1
  P  P8  1  0.171856  0.479080  0.500000  1
  P  P9  1  0.521415  0.693736  0.500000  1
  P  P10  1  0.305735  0.828104  0.500000  1
  P  P11  1  0.689828  0.520168  0.500000  1
  P  P12  1  0.831489  0.310592  0.500000  1
  P  P13  1  0.481535  0.169543  0.500000  1
  P  P14  1  0.624593  0.996003  0.000000  1
  P  P15  1  0.004175  0.628607  0.000000  1
  P  P16  1  0.368129  0.372682  0.000000  1
  Ir  Ir17  1  0.815440  0.627913  0.000000  1
  Ir  Ir18  1  0.814091  0.181234  0.000000  1
  Ir  Ir19  1  0.370780  0.186945  0.000000  1
  Ir  Ir20  1  0.997475  0.997177  0.000000  1
  Ru  Ru21  1  0.449040  0.008031  0.000000  1
  Ru  Ru22  1  0.995085  0.442322  0.000000  1
  Ru  Ru23  1  0.555229  0.549848  0.000000  1
  Ru  Ru24  1  0.366617  0.493016  0.500000  1
  Ru  Ru25  1  0.506663  0.874411  0.500000  1
  Ru  Ru26  1  0.126743  0.634472  0.500000  1
  Ru  Ru27  1  0.869351  0.506954  0.500000  1
  Ru  Ru28  1  0.639931  0.131637  0.500000  1
  Ru  Ru29  1  0.493488  0.361730  0.500000  1
  Ru  Ru30  1  0.184201  0.376918  0.000000  1
  Ru  Ru31  1  0.621089  0.806809  0.000000  1
  Ru  Ru32  1  0.190287  0.816212  0.000000  1
  Ru  Ru33  1  0.281282  0.003260  0.500000  1
  Ru  Ru34  1  0.999898  0.279058  0.500000  1
  Ru  Ru35  1  0.721904  0.720480  0.500000  1
