# generated using pymatgen
data_Lu4MnOsC4
_symmetry_space_group_name_H-M   'P 1'
_cell_length_a   4.94124900
_cell_length_b   6.32284382
_cell_length_c   9.51840659
_cell_angle_alpha   90.60755375
_cell_angle_beta   90.00000000
_cell_angle_gamma   90.00000000
_symmetry_Int_Tables_number   1
_chemical_formula_structural   Lu4MnOsC4
_chemical_formula_sum   'Lu8 Mn2 Os2 C8'
_cell_volume   297.36443763
_cell_formula_units_Z   2
loop_
 _symmetry_equiv_pos_site_id
 _symmetry_equiv_pos_as_xyz
  1  'x, y, z'
loop_
 _atom_site_type_symbol
 _atom_site_label
 _atom_site_symmetry_multiplicity
 _atom_site_fract_x
 _atom_site_fract_y
 _atom_site_fract_z
 _atom_site_occupancy
  Lu  Lu0  1  0.250000  0.679161  0.558096  1
  Lu  Lu1  1  0.750000  0.320839  0.441904  1
  Lu  Lu2  1  0.750000  0.823323  0.053757  1
  Lu  Lu3  1  0.250000  0.176677  0.946243  1
  Lu  Lu4  1  0.250000  0.527551  0.217430  1
  Lu  Lu5  1  0.750000  0.472449  0.782570  1
  Lu  Lu6  1  0.750000  0.972244  0.715203  1
  Lu  Lu7  1  0.250000  0.027756  0.284797  1
  Mn  Mn8  1  0.250000  0.723672  0.864868  1
  Mn  Mn9  1  0.750000  0.276328  0.135132  1
  Os  Os10  1  0.750000  0.779318  0.364575  1
  Os  Os11  1  0.250000  0.220682  0.635425  1
  C  C12  1  0.250000  0.463443  0.766018  1
  C  C13  1  0.750000  0.536557  0.233982  1
  C  C14  1  0.750000  0.050646  0.254453  1
  C  C15  1  0.250000  0.949354  0.745547  1
  C  C16  1  0.250000  0.817050  0.044752  1
  C  C17  1  0.750000  0.182950  0.955248  1
  C  C18  1  0.750000  0.672952  0.555984  1
  C  C19  1  0.250000  0.327048  0.444016  1
