# generated using pymatgen
data_Hf5Mg3(Si4Ru3)4
_symmetry_space_group_name_H-M   'P 1'
_cell_length_a   9.91119810
_cell_length_b   9.89320001
_cell_length_c   13.42788005
_cell_angle_alpha   53.68008694
_cell_angle_beta   53.54677786
_cell_angle_gamma   31.03523742
_symmetry_Int_Tables_number   1
_chemical_formula_structural   Hf5Mg3(Si4Ru3)4
_chemical_formula_sum   'Hf5 Mg3 Si16 Ru12'
_cell_volume   534.90570155
_cell_formula_units_Z   1
loop_
 _symmetry_equiv_pos_site_id
 _symmetry_equiv_pos_as_xyz
  1  'x, y, z'
loop_
 _atom_site_type_symbol
 _atom_site_label
 _atom_site_symmetry_multiplicity
 _atom_site_fract_x
 _atom_site_fract_y
 _atom_site_fract_z
 _atom_site_occupancy
  Hf  Hf0  1  0.558540  0.296821  0.145229  1
  Hf  Hf1  1  0.039491  0.294788  0.635043  1
  Hf  Hf2  1  0.707057  0.959795  0.864004  1
  Hf  Hf3  1  0.960719  0.703306  0.365612  1
  Hf  Hf4  1  0.295420  0.038869  0.135124  1
  Mg  Mg5  1  0.305258  0.558749  0.640874  1
  Mg  Mg6  1  0.439937  0.697842  0.857872  1
  Mg  Mg7  1  0.693689  0.441157  0.360633  1
  Si  Si8  1  0.874124  0.127423  0.249195  1
  Si  Si9  1  0.128138  0.872378  0.750784  1
  Si  Si10  1  0.382797  0.618976  0.250832  1
  Si  Si11  1  0.622682  0.376944  0.750367  1
  Si  Si12  1  0.969540  0.258264  0.893618  1
  Si  Si13  1  0.749672  0.022160  0.608590  1
  Si  Si14  1  0.021422  0.750759  0.109698  1
  Si  Si15  1  0.247650  0.982077  0.388547  1
  Si  Si16  1  0.578067  0.078902  0.065368  1
  Si  Si17  1  0.913284  0.423745  0.434189  1
  Si  Si18  1  0.423406  0.919818  0.930418  1
  Si  Si19  1  0.082834  0.578533  0.565390  1
  Si  Si20  1  0.384231  0.145607  0.395551  1
  Si  Si21  1  0.856636  0.607268  0.107651  1
  Si  Si22  1  0.612644  0.854177  0.606192  1
  Si  Si23  1  0.145158  0.390653  0.893055  1
  Ru  Ru24  1  0.650967  0.825985  0.283175  1
  Ru  Ru25  1  0.176240  0.351023  0.216066  1
  Ru  Ru26  1  0.759683  0.484316  0.067531  1
  Ru  Ru27  1  0.824295  0.653912  0.782346  1
  Ru  Ru28  1  0.908556  0.129237  0.587656  1
  Ru  Ru29  1  0.859477  0.101243  0.916476  1
  Ru  Ru30  1  0.091748  0.869653  0.411480  1
  Ru  Ru31  1  0.146639  0.894412  0.086474  1
  Ru  Ru32  1  0.240948  0.514083  0.932304  1
  Ru  Ru33  1  0.489408  0.757020  0.570262  1
  Ru  Ru34  1  0.512178  0.241686  0.427810  1
  Ru  Ru35  1  0.347469  0.178417  0.714586  1
