# generated using pymatgen
data_La2B2Pt3Rh3Au2
_symmetry_space_group_name_H-M   'P 1'
_cell_length_a   5.53684888
_cell_length_b   5.56238956
_cell_length_c   7.67036600
_cell_angle_alpha   90.00000000
_cell_angle_beta   90.00000000
_cell_angle_gamma   119.66839964
_symmetry_Int_Tables_number   1
_chemical_formula_structural   La2B2Pt3Rh3Au2
_chemical_formula_sum   'La2 B2 Pt3 Rh3 Au2'
_cell_volume   205.26375839
_cell_formula_units_Z   1
loop_
 _symmetry_equiv_pos_site_id
 _symmetry_equiv_pos_as_xyz
  1  'x, y, z'
loop_
 _atom_site_type_symbol
 _atom_site_label
 _atom_site_symmetry_multiplicity
 _atom_site_fract_x
 _atom_site_fract_y
 _atom_site_fract_z
 _atom_site_occupancy
  La  La0  1  0.000000  0.000000  0.496644  1
  La  La1  1  0.000000  0.000000  0.004578  1
  B  B2  1  0.334291  0.672643  0.002141  1
  B  B3  1  0.665709  0.327357  0.002141  1
  Pt  Pt4  1  0.000000  0.500000  0.805512  1
  Pt  Pt5  1  0.500000  0.500000  0.196956  1
  Pt  Pt6  1  0.500000  0.500000  0.803814  1
  Rh  Rh7  1  0.500000  0.000000  0.190844  1
  Rh  Rh8  1  0.500000  0.000000  0.810155  1
  Rh  Rh9  1  0.000000  0.500000  0.190378  1
  Au  Au10  1  0.332925  0.674075  0.498419  1
  Au  Au11  1  0.667075  0.325925  0.498419  1
