# generated using pymatgen
data_Pr12Sn3HgI12
_symmetry_space_group_name_H-M   'P 1'
_cell_length_a   11.15189729
_cell_length_b   11.15189705
_cell_length_c   11.15189716
_cell_angle_alpha   109.59265053
_cell_angle_beta   109.59264745
_cell_angle_gamma   109.59265426
_symmetry_Int_Tables_number   1
_chemical_formula_structural   Pr12Sn3HgI12
_chemical_formula_sum   'Pr12 Sn3 Hg1 I12'
_cell_volume   1062.81185288
_cell_formula_units_Z   1
loop_
 _symmetry_equiv_pos_site_id
 _symmetry_equiv_pos_as_xyz
  1  'x, y, z'
loop_
 _atom_site_type_symbol
 _atom_site_label
 _atom_site_symmetry_multiplicity
 _atom_site_fract_x
 _atom_site_fract_y
 _atom_site_fract_z
 _atom_site_occupancy
  Pr  Pr0  1  0.478475  0.487289  0.240232  1
  Pr  Pr1  1  0.750000  0.239623  0.260377  1
  Pr  Pr2  1  0.750000  0.009510  0.490490  1
  Pr  Pr3  1  0.240232  0.478475  0.487289  1
  Pr  Pr4  1  0.260377  0.750000  0.239623  1
  Pr  Pr5  1  0.021525  0.259768  0.012711  1
  Pr  Pr6  1  0.012711  0.021525  0.259768  1
  Pr  Pr7  1  0.490490  0.750000  0.009510  1
  Pr  Pr8  1  0.487289  0.240232  0.478475  1
  Pr  Pr9  1  0.009510  0.490490  0.750000  1
  Pr  Pr10  1  0.259768  0.012711  0.021525  1
  Pr  Pr11  1  0.239623  0.260377  0.750000  1
  Sn  Sn12  1  0.499739  0.000261  0.250000  1
  Sn  Sn13  1  0.000261  0.250000  0.499739  1
  Sn  Sn14  1  0.250000  0.499739  0.000261  1
  Hg  Hg15  1  0.250000  0.250000  0.250000  1
  I  I16  1  0.250000  0.755311  0.744689  1
  I  I17  1  0.511307  0.505953  0.755798  1
  I  I18  1  0.988693  0.744202  0.994047  1
  I  I19  1  0.744689  0.250000  0.755311  1
  I  I20  1  0.994047  0.988693  0.744202  1
  I  I21  1  0.250000  0.993853  0.506147  1
  I  I22  1  0.755798  0.511307  0.505953  1
  I  I23  1  0.506147  0.250000  0.993853  1
  I  I24  1  0.755311  0.744689  0.250000  1
  I  I25  1  0.744202  0.994047  0.988693  1
  I  I26  1  0.993853  0.506147  0.250000  1
  I  I27  1  0.505953  0.755798  0.511307  1
