# generated using pymatgen
data_HoEr3LuInAu4
_symmetry_space_group_name_H-M   'P 1'
_cell_length_a   8.01059522
_cell_length_b   8.00942222
_cell_length_c   3.72765600
_cell_angle_alpha   90.00000000
_cell_angle_beta   90.00000000
_cell_angle_gamma   89.97316186
_symmetry_Int_Tables_number   1
_chemical_formula_structural   HoEr3LuInAu4
_chemical_formula_sum   'Ho1 Er3 Lu1 In1 Au4'
_cell_volume   239.16727492
_cell_formula_units_Z   1
loop_
 _symmetry_equiv_pos_site_id
 _symmetry_equiv_pos_as_xyz
  1  'x, y, z'
loop_
 _atom_site_type_symbol
 _atom_site_label
 _atom_site_symmetry_multiplicity
 _atom_site_fract_x
 _atom_site_fract_y
 _atom_site_fract_z
 _atom_site_occupancy
  Ho  Ho0  1  0.686656  0.143422  0.500000  1
  Er  Er1  1  0.313211  0.856494  0.500000  1
  Er  Er2  1  0.143462  0.313486  0.500000  1
  Er  Er3  1  0.856847  0.686367  0.500000  1
  Lu  Lu4  1  0.499848  0.500154  0.000000  1
  In  In5  1  0.000464  0.999987  0.000000  1
  Au  Au6  1  0.146643  0.619624  0.000000  1
  Au  Au7  1  0.853728  0.381220  0.000000  1
  Au  Au8  1  0.619463  0.852753  0.000000  1
  Au  Au9  1  0.379677  0.146494  0.000000  1
