# generated using pymatgen
data_Nd2Cu3PdO8
_symmetry_space_group_name_H-M   'P 1'
_cell_length_a   6.43979041
_cell_length_b   6.47016977
_cell_length_c   6.35694270
_cell_angle_alpha   125.12008313
_cell_angle_beta   125.60266613
_cell_angle_gamma   80.52037418
_symmetry_Int_Tables_number   1
_chemical_formula_structural   Nd2Cu3PdO8
_chemical_formula_sum   'Nd2 Cu3 Pd1 O8'
_cell_volume   170.28618019
_cell_formula_units_Z   1
loop_
 _symmetry_equiv_pos_site_id
 _symmetry_equiv_pos_as_xyz
  1  'x, y, z'
loop_
 _atom_site_type_symbol
 _atom_site_label
 _atom_site_symmetry_multiplicity
 _atom_site_fract_x
 _atom_site_fract_y
 _atom_site_fract_z
 _atom_site_occupancy
  Nd  Nd0  1  0.003828  0.995227  0.997058  1
  Nd  Nd1  1  0.746172  0.254773  0.502942  1
  Cu  Cu2  1  0.375000  0.125000  0.750000  1
  Cu  Cu3  1  0.375000  0.625000  0.250000  1
  Cu  Cu4  1  0.375000  0.625000  0.750000  1
  Pd  Pd5  1  0.875000  0.625000  0.250000  1
  O  O6  1  0.165977  0.599774  0.867958  1
  O  O7  1  0.725983  0.288602  0.125614  1
  O  O8  1  0.584023  0.650226  0.632042  1
  O  O9  1  0.024017  0.961398  0.374386  1
  O  O10  1  0.350827  0.983403  0.930375  1
  O  O11  1  0.069573  0.405110  0.068517  1
  O  O12  1  0.680427  0.844890  0.431483  1
  O  O13  1  0.399173  0.266597  0.569625  1
