# generated using pymatgen
data_Ho2ErNiSn3Ir2
_symmetry_space_group_name_H-M   'P 1'
_cell_length_a   7.49841319
_cell_length_b   7.50130502
_cell_length_c   3.80108100
_cell_angle_alpha   90.00000000
_cell_angle_beta   90.00000000
_cell_angle_gamma   120.01276372
_symmetry_Int_Tables_number   1
_chemical_formula_structural   Ho2ErNiSn3Ir2
_chemical_formula_sum   'Ho2 Er1 Ni1 Sn3 Ir2'
_cell_volume   185.13480690
_cell_formula_units_Z   1
loop_
 _symmetry_equiv_pos_site_id
 _symmetry_equiv_pos_as_xyz
  1  'x, y, z'
loop_
 _atom_site_type_symbol
 _atom_site_label
 _atom_site_symmetry_multiplicity
 _atom_site_fract_x
 _atom_site_fract_y
 _atom_site_fract_z
 _atom_site_occupancy
  Ho  Ho0  1  0.406763  0.406785  0.500000  1
  Ho  Ho1  1  0.593237  0.000022  0.500000  1
  Er  Er2  1  0.000000  0.593238  0.500000  1
  Ni  Ni3  1  0.000000  0.999900  0.500000  1
  Sn  Sn4  1  0.744960  0.744786  0.000000  1
  Sn  Sn5  1  0.255040  0.999826  0.000000  1
  Sn  Sn6  1  0.000000  0.255304  0.000000  1
  Ir  Ir7  1  0.666991  0.333565  0.000000  1
  Ir  Ir8  1  0.333009  0.666575  0.000000  1
