# generated using pymatgen
data_TaTi3(SnRh5)2
_symmetry_space_group_name_H-M   'P 1'
_cell_length_a   4.04734200
_cell_length_b   5.54283672
_cell_length_c   10.97102337
_cell_angle_alpha   90.16099643
_cell_angle_beta   90.00000000
_cell_angle_gamma   90.00000000
_symmetry_Int_Tables_number   1
_chemical_formula_structural   TaTi3(SnRh5)2
_chemical_formula_sum   'Ta1 Ti3 Sn2 Rh10'
_cell_volume   246.12028802
_cell_formula_units_Z   1
loop_
 _symmetry_equiv_pos_site_id
 _symmetry_equiv_pos_as_xyz
  1  'x, y, z'
loop_
 _atom_site_type_symbol
 _atom_site_label
 _atom_site_symmetry_multiplicity
 _atom_site_fract_x
 _atom_site_fract_y
 _atom_site_fract_z
 _atom_site_occupancy
  Ta  Ta0  1  0.500000  0.321279  0.142636  1
  Ti  Ti1  1  0.500000  0.676437  0.852786  1
  Ti  Ti2  1  0.500000  0.826256  0.359727  1
  Ti  Ti3  1  0.500000  0.175488  0.644109  1
  Sn  Sn4  1  0.000000  0.994386  0.997406  1
  Sn  Sn5  1  0.000000  0.499778  0.500625  1
  Rh  Rh6  1  0.000000  0.999495  0.499850  1
  Rh  Rh7  1  0.000000  0.498542  0.000307  1
  Rh  Rh8  1  0.000000  0.059116  0.247727  1
  Rh  Rh9  1  0.000000  0.941572  0.751310  1
  Rh  Rh10  1  0.000000  0.559269  0.252159  1
  Rh  Rh11  1  0.000000  0.441575  0.748359  1
  Rh  Rh12  1  0.500000  0.286581  0.382531  1
  Rh  Rh13  1  0.500000  0.713906  0.618613  1
  Rh  Rh14  1  0.500000  0.791727  0.119645  1
  Rh  Rh15  1  0.500000  0.214595  0.882210  1
