# generated using pymatgen
data_Y5V3(Co4P3)4
_symmetry_space_group_name_H-M   'P 1'
_cell_length_a   12.06020100
_cell_length_b   12.06020123
_cell_length_c   3.67272000
_cell_angle_alpha   90.00000000
_cell_angle_beta   90.00000000
_cell_angle_gamma   119.99999661
_symmetry_Int_Tables_number   1
_chemical_formula_structural   Y5V3(Co4P3)4
_chemical_formula_sum   'Y5 V3 Co16 P12'
_cell_volume   462.62336890
_cell_formula_units_Z   1
loop_
 _symmetry_equiv_pos_site_id
 _symmetry_equiv_pos_as_xyz
  1  'x, y, z'
loop_
 _atom_site_type_symbol
 _atom_site_label
 _atom_site_symmetry_multiplicity
 _atom_site_fract_x
 _atom_site_fract_y
 _atom_site_fract_z
 _atom_site_occupancy
  Y  Y0  1  0.666667  0.333333  0.000000  1
  Y  Y1  1  0.333333  0.666667  0.000000  1
  Y  Y2  1  0.186387  0.186387  0.500000  1
  Y  Y3  1  0.813613  0.000000  0.500000  1
  Y  Y4  1  0.000000  0.813613  0.500000  1
  V  V5  1  0.557011  0.557011  0.000000  1
  V  V6  1  0.442989  0.000000  0.000000  1
  V  V7  1  0.000000  0.442989  0.000000  1
  Co  Co8  1  0.823136  0.199997  0.000000  1
  Co  Co9  1  0.800003  0.623139  0.000000  1
  Co  Co10  1  0.376861  0.176864  0.000000  1
  Co  Co11  1  0.199997  0.823136  0.000000  1
  Co  Co12  1  0.623139  0.800003  0.000000  1
  Co  Co13  1  0.176864  0.376861  0.000000  1
  Co  Co14  1  0.644388  0.125791  0.500000  1
  Co  Co15  1  0.874209  0.518597  0.500000  1
  Co  Co16  1  0.481403  0.355612  0.500000  1
  Co  Co17  1  0.125791  0.644388  0.500000  1
  Co  Co18  1  0.518597  0.874209  0.500000  1
  Co  Co19  1  0.355612  0.481403  0.500000  1
  Co  Co20  1  0.717872  0.717872  0.500000  1
  Co  Co21  1  0.282128  0.000000  0.500000  1
  Co  Co22  1  0.000000  0.282128  0.500000  1
  Co  Co23  1  0.000000  0.000000  0.000000  1
  P  P24  1  0.363688  0.363688  0.000000  1
  P  P25  1  0.636312  0.000000  0.000000  1
  P  P26  1  0.000000  0.636312  0.000000  1
  P  P27  1  0.835868  0.315922  0.500000  1
  P  P28  1  0.684078  0.519946  0.500000  1
  P  P29  1  0.480054  0.164132  0.500000  1
  P  P30  1  0.315922  0.835868  0.500000  1
  P  P31  1  0.519946  0.684078  0.500000  1
  P  P32  1  0.164132  0.480054  0.500000  1
  P  P33  1  0.820264  0.820264  0.000000  1
  P  P34  1  0.179736  0.000000  0.000000  1
  P  P35  1  0.000000  0.179736  0.000000  1
