# generated using pymatgen
data_TbAlNi2BIr
_symmetry_space_group_name_H-M   'P 1'
_cell_length_a   5.31433703
_cell_length_b   5.31433580
_cell_length_c   6.95099300
_cell_angle_alpha   90.00000000
_cell_angle_beta   90.00000000
_cell_angle_gamma   122.17379173
_symmetry_Int_Tables_number   1
_chemical_formula_structural   TbAlNi2BIr
_chemical_formula_sum   'Tb2 Al2 Ni4 B2 Ir2'
_cell_volume   166.16497525
_cell_formula_units_Z   2
loop_
 _symmetry_equiv_pos_site_id
 _symmetry_equiv_pos_as_xyz
  1  'x, y, z'
loop_
 _atom_site_type_symbol
 _atom_site_label
 _atom_site_symmetry_multiplicity
 _atom_site_fract_x
 _atom_site_fract_y
 _atom_site_fract_z
 _atom_site_occupancy
  Tb  Tb0  1  0.000000  0.000000  0.500000  1
  Tb  Tb1  1  0.000000  0.000000  0.000000  1
  Al  Al2  1  0.324480  0.675520  0.000000  1
  Al  Al3  1  0.675520  0.324480  0.000000  1
  Ni  Ni4  1  0.500000  0.000000  0.294079  1
  Ni  Ni5  1  0.000000  0.500000  0.294079  1
  Ni  Ni6  1  0.500000  0.000000  0.705921  1
  Ni  Ni7  1  0.000000  0.500000  0.705921  1
  B  B8  1  0.672504  0.327496  0.500000  1
  B  B9  1  0.327496  0.672504  0.500000  1
  Ir  Ir10  1  0.500000  0.500000  0.287644  1
  Ir  Ir11  1  0.500000  0.500000  0.712356  1
