# generated using pymatgen
data_Rb8HfZr5BeI20
_symmetry_space_group_name_H-M   'P 1'
_cell_length_a   12.88123857
_cell_length_b   12.88371432
_cell_length_c   12.88371324
_cell_angle_alpha   59.98729190
_cell_angle_beta   60.00635685
_cell_angle_gamma   60.00635915
_symmetry_Int_Tables_number   1
_chemical_formula_structural   Rb8HfZr5BeI20
_chemical_formula_sum   'Rb8 Hf1 Zr5 Be1 I20'
_cell_volume   1511.90587984
_cell_formula_units_Z   1
loop_
 _symmetry_equiv_pos_site_id
 _symmetry_equiv_pos_as_xyz
  1  'x, y, z'
loop_
 _atom_site_type_symbol
 _atom_site_label
 _atom_site_symmetry_multiplicity
 _atom_site_fract_x
 _atom_site_fract_y
 _atom_site_fract_z
 _atom_site_occupancy
  Rb  Rb0  1  0.361232  0.361633  0.361633  1
  Rb  Rb1  1  0.638452  0.638452  0.638452  1
  Rb  Rb2  1  0.361548  0.361548  0.915356  1
  Rb  Rb3  1  0.361548  0.915356  0.361548  1
  Rb  Rb4  1  0.638367  0.638768  0.084499  1
  Rb  Rb5  1  0.638367  0.084499  0.638768  1
  Rb  Rb6  1  0.915501  0.361633  0.361633  1
  Rb  Rb7  1  0.084644  0.638452  0.638452  1
  Hf  Hf8  1  0.866737  0.133263  0.133263  1
  Zr  Zr9  1  0.134026  0.865974  0.865974  1
  Zr  Zr10  1  0.134305  0.865695  0.133996  1
  Zr  Zr11  1  0.866004  0.133996  0.865695  1
  Zr  Zr12  1  0.134305  0.133996  0.865695  1
  Zr  Zr13  1  0.866004  0.865695  0.133996  1
  Be  Be14  1  0.999622  0.000378  0.000378  1
  I  I15  1  0.319102  0.000073  0.000073  1
  I  I16  1  0.680752  0.000073  0.000073  1
  I  I17  1  0.999927  0.319248  0.680898  1
  I  I18  1  0.999927  0.680898  0.319248  1
  I  I19  1  0.998043  0.317749  0.001957  1
  I  I20  1  0.682251  0.001957  0.317749  1
  I  I21  1  0.999960  0.680823  0.000040  1
  I  I22  1  0.319177  0.000040  0.680823  1
  I  I23  1  0.998043  0.001957  0.317749  1
  I  I24  1  0.999960  0.000040  0.680823  1
  I  I25  1  0.682251  0.317749  0.001957  1
  I  I26  1  0.319177  0.680823  0.000040  1
  I  I27  1  0.690934  0.309066  0.309066  1
  I  I28  1  0.310520  0.689480  0.689480  1
  I  I29  1  0.310285  0.689715  0.310657  1
  I  I30  1  0.689343  0.310657  0.689715  1
  I  I31  1  0.310285  0.310657  0.689715  1
  I  I32  1  0.689343  0.689715  0.310657  1
  I  I33  1  0.250029  0.249971  0.249971  1
  I  I34  1  0.750029  0.749971  0.749971  1
