# generated using pymatgen
data_Nd5AlZnRu3
_symmetry_space_group_name_H-M   'P 1'
_cell_length_a   8.58613194
_cell_length_b   8.58613298
_cell_length_c   8.51870756
_cell_angle_alpha   109.49741389
_cell_angle_beta   109.47347519
_cell_angle_gamma   109.76140699
_symmetry_Int_Tables_number   1
_chemical_formula_structural   Nd5AlZnRu3
_chemical_formula_sum   'Nd10 Al2 Zn2 Ru6'
_cell_volume   481.53163079
_cell_formula_units_Z   2
loop_
 _symmetry_equiv_pos_site_id
 _symmetry_equiv_pos_as_xyz
  1  'x, y, z'
loop_
 _atom_site_type_symbol
 _atom_site_label
 _atom_site_symmetry_multiplicity
 _atom_site_fract_x
 _atom_site_fract_y
 _atom_site_fract_z
 _atom_site_occupancy
  Nd  Nd0  1  0.251924  0.684768  0.437731  1
  Nd  Nd1  1  0.747037  0.814194  0.062270  1
  Nd  Nd2  1  0.435009  0.251085  0.685659  1
  Nd  Nd3  1  0.684071  0.434072  0.250000  1
  Nd  Nd4  1  0.065425  0.749349  0.814341  1
  Nd  Nd5  1  0.814217  0.064217  0.750000  1
  Nd  Nd6  1  0.218860  0.219335  0.218462  1
  Nd  Nd7  1  0.500874  0.000398  0.281538  1
  Nd  Nd8  1  0.282855  0.499979  0.999451  1
  Nd  Nd9  1  0.000527  0.283404  0.500550  1
  Al  Al10  1  0.910804  0.501255  0.001984  1
  Al  Al11  1  0.999270  0.908820  0.498017  1
  Zn  Zn12  1  0.499427  0.000852  0.912182  1
  Zn  Zn13  1  0.588670  0.587244  0.587818  1
  Ru  Ru14  1  0.242961  0.120508  0.867619  1
  Ru  Ru15  1  0.752889  0.375340  0.632380  1
  Ru  Ru16  1  0.879620  0.258228  0.124234  1
  Ru  Ru17  1  0.118994  0.868994  0.250001  1
  Ru  Ru18  1  0.633991  0.755385  0.375765  1
  Ru  Ru19  1  0.372575  0.622575  0.750000  1
