# generated using pymatgen
data_Ac8Er11Si16Ag
_symmetry_space_group_name_H-M   'P 1'
_cell_length_a   7.61820200
_cell_length_b   7.97963581
_cell_length_c   15.16152400
_cell_angle_alpha   90.00000000
_cell_angle_beta   90.00000000
_cell_angle_gamma   90.06289900
_symmetry_Int_Tables_number   1
_chemical_formula_structural   Ac8Er11Si16Ag
_chemical_formula_sum   'Ac8 Er11 Si16 Ag1'
_cell_volume   921.67572782
_cell_formula_units_Z   1
loop_
 _symmetry_equiv_pos_site_id
 _symmetry_equiv_pos_as_xyz
  1  'x, y, z'
loop_
 _atom_site_type_symbol
 _atom_site_label
 _atom_site_symmetry_multiplicity
 _atom_site_fract_x
 _atom_site_fract_y
 _atom_site_fract_z
 _atom_site_occupancy
  Ac  Ac0  1  0.016626  0.173392  0.401794  1
  Ac  Ac1  1  0.515402  0.331411  0.401482  1
  Ac  Ac2  1  0.485126  0.685634  0.897656  1
  Ac  Ac3  1  0.485126  0.685634  0.602344  1
  Ac  Ac4  1  0.969884  0.826602  0.603733  1
  Ac  Ac5  1  0.969884  0.826602  0.896267  1
  Ac  Ac6  1  0.515402  0.331411  0.098518  1
  Ac  Ac7  1  0.016626  0.173392  0.098206  1
  Er  Er8  1  0.335788  0.171811  0.625940  1
  Er  Er9  1  0.680069  0.822390  0.373910  1
  Er  Er10  1  0.178409  0.674841  0.376486  1
  Er  Er11  1  0.819930  0.310130  0.874124  1
  Er  Er12  1  0.819930  0.310130  0.625876  1
  Er  Er13  1  0.847746  0.497459  0.250000  1
  Er  Er14  1  0.345909  0.002564  0.250000  1
  Er  Er15  1  0.335788  0.171811  0.874060  1
  Er  Er16  1  0.178409  0.674841  0.123514  1
  Er  Er17  1  0.680069  0.822390  0.126090  1
  Er  Er18  1  0.150505  0.494527  0.750000  1
  Si  Si19  1  0.267861  0.889285  0.750000  1
  Si  Si20  1  0.474942  0.631891  0.250000  1
  Si  Si21  1  0.043582  0.124852  0.750000  1
  Si  Si22  1  0.526036  0.390184  0.750000  1
  Si  Si23  1  0.144597  0.467822  0.542687  1
  Si  Si24  1  0.977366  0.866653  0.250000  1
  Si  Si25  1  0.714010  0.120498  0.250000  1
  Si  Si26  1  0.857556  0.533698  0.036159  1
  Si  Si27  1  0.357990  0.966420  0.040320  1
  Si  Si28  1  0.144597  0.467822  0.957313  1
  Si  Si29  1  0.644910  0.039868  0.529393  1
  Si  Si30  1  0.357990  0.966420  0.459680  1
  Si  Si31  1  0.857556  0.533698  0.463841  1
  Si  Si32  1  0.781396  0.587597  0.750000  1
  Si  Si33  1  0.213984  0.382621  0.250000  1
  Si  Si34  1  0.644910  0.039868  0.970607  1
  Ag  Ag35  1  0.644088  0.003834  0.750000  1
