# generated using pymatgen
data_Yb2HoLu3(Si3Ru)8
_symmetry_space_group_name_H-M   'P 1'
_cell_length_a   10.12243248
_cell_length_b   10.12243094
_cell_length_c   8.08082275
_cell_angle_alpha   89.97132563
_cell_angle_beta   90.02867448
_cell_angle_gamma   132.82690851
_symmetry_Int_Tables_number   1
_chemical_formula_structural   Yb2HoLu3(Si3Ru)8
_chemical_formula_sum   'Yb2 Ho1 Lu3 Si24 Ru8'
_cell_volume   607.25690660
_cell_formula_units_Z   1
loop_
 _symmetry_equiv_pos_site_id
 _symmetry_equiv_pos_as_xyz
  1  'x, y, z'
loop_
 _atom_site_type_symbol
 _atom_site_label
 _atom_site_symmetry_multiplicity
 _atom_site_fract_x
 _atom_site_fract_y
 _atom_site_fract_z
 _atom_site_occupancy
  Yb  Yb0  1  0.500006  0.500045  0.499712  1
  Yb  Yb1  1  0.000045  0.000006  0.000288  1
  Ho  Ho2  1  0.001203  0.501203  0.750000  1
  Lu  Lu3  1  0.501897  0.001897  0.750000  1
  Lu  Lu4  1  0.998573  0.498573  0.250000  1
  Lu  Lu5  1  0.498813  0.998813  0.250000  1
  Si  Si6  1  0.795891  0.203637  0.499596  1
  Si  Si7  1  0.296919  0.704655  0.000311  1
  Si  Si8  1  0.204655  0.796919  0.499689  1
  Si  Si9  1  0.703637  0.295891  0.000404  1
  Si  Si10  1  0.332205  0.333383  0.832467  1
  Si  Si11  1  0.666994  0.667076  0.167154  1
  Si  Si12  1  0.167076  0.166994  0.332846  1
  Si  Si13  1  0.833383  0.832205  0.667533  1
  Si  Si14  1  0.124118  0.890881  0.730985  1
  Si  Si15  1  0.109080  0.876606  0.270452  1
  Si  Si16  1  0.610342  0.378012  0.229068  1
  Si  Si17  1  0.621890  0.388705  0.769213  1
  Si  Si18  1  0.878012  0.110342  0.270932  1
  Si  Si19  1  0.888705  0.121890  0.730787  1
  Si  Si20  1  0.390881  0.624118  0.769015  1
  Si  Si21  1  0.376606  0.609080  0.229548  1
  Si  Si22  1  0.346406  0.113839  0.507030  1
  Si  Si23  1  0.885168  0.651932  0.492289  1
  Si  Si24  1  0.386544  0.154038  0.005010  1
  Si  Si25  1  0.847528  0.614548  0.993910  1
  Si  Si26  1  0.654038  0.886544  0.494990  1
  Si  Si27  1  0.114548  0.347528  0.506090  1
  Si  Si28  1  0.613839  0.846406  0.992970  1
  Si  Si29  1  0.151932  0.385168  0.007711  1
  Ru  Ru30  1  0.670509  0.326734  0.498106  1
  Ru  Ru31  1  0.173439  0.829492  0.001872  1
  Ru  Ru32  1  0.329492  0.673439  0.498128  1
  Ru  Ru33  1  0.826734  0.170509  0.001894  1
  Ru  Ru34  1  0.125974  0.126486  0.626902  1
  Ru  Ru35  1  0.873231  0.873198  0.373757  1
  Ru  Ru36  1  0.373198  0.373231  0.126243  1
  Ru  Ru37  1  0.626486  0.625974  0.873098  1
