# generated using pymatgen
data_La9YbGa6
_symmetry_space_group_name_H-M   'P 1'
_cell_length_a   7.99309700
_cell_length_b   7.99309700
_cell_length_c   14.89664800
_cell_angle_alpha   90.00000000
_cell_angle_beta   90.00000000
_cell_angle_gamma   90.00000000
_symmetry_Int_Tables_number   1
_chemical_formula_structural   La9YbGa6
_chemical_formula_sum   'La18 Yb2 Ga12'
_cell_volume   951.74087687
_cell_formula_units_Z   2
loop_
 _symmetry_equiv_pos_site_id
 _symmetry_equiv_pos_as_xyz
  1  'x, y, z'
loop_
 _atom_site_type_symbol
 _atom_site_label
 _atom_site_symmetry_multiplicity
 _atom_site_fract_x
 _atom_site_fract_y
 _atom_site_fract_z
 _atom_site_occupancy
  La  La0  1  0.334624  0.315769  0.102602  1
  La  La1  1  0.834624  0.815769  0.897398  1
  La  La2  1  0.838145  0.182374  0.396423  1
  La  La3  1  0.165376  0.184231  0.897398  1
  La  La4  1  0.665376  0.684231  0.102602  1
  La  La5  1  0.000000  0.500000  0.712706  1
  La  La6  1  0.817626  0.838145  0.603577  1
  La  La7  1  0.317626  0.338145  0.396423  1
  La  La8  1  0.184231  0.834624  0.102602  1
  La  La9  1  0.182374  0.161855  0.603577  1
  La  La10  1  0.815769  0.165376  0.102602  1
  La  La11  1  0.338145  0.682374  0.603577  1
  La  La12  1  0.500000  0.000000  0.287294  1
  La  La13  1  0.684231  0.334624  0.897398  1
  La  La14  1  0.661855  0.317626  0.603577  1
  La  La15  1  0.315769  0.665376  0.897398  1
  La  La16  1  0.161855  0.817626  0.396423  1
  La  La17  1  0.682374  0.661855  0.396423  1
  Yb  Yb18  1  0.500000  0.000000  0.770269  1
  Yb  Yb19  1  0.000000  0.500000  0.229731  1
  Ga  Ga20  1  0.617805  0.382388  0.247881  1
  Ga  Ga21  1  0.882195  0.117612  0.752119  1
  Ga  Ga22  1  0.500000  0.000000  0.497638  1
  Ga  Ga23  1  0.882388  0.882195  0.247881  1
  Ga  Ga24  1  0.000000  0.500000  0.008555  1
  Ga  Ga25  1  0.117805  0.882388  0.752119  1
  Ga  Ga26  1  0.382388  0.382195  0.752119  1
  Ga  Ga27  1  0.117612  0.117805  0.247881  1
  Ga  Ga28  1  0.382195  0.617612  0.247881  1
  Ga  Ga29  1  0.617612  0.617805  0.752119  1
  Ga  Ga30  1  0.500000  0.000000  0.991445  1
  Ga  Ga31  1  0.000000  0.500000  0.502362  1
