# generated using pymatgen
data_LaNd2Ir5Rh4
_symmetry_space_group_name_H-M   'P 1'
_cell_length_a   5.37881803
_cell_length_b   5.38242708
_cell_length_c   17.69980101
_cell_angle_alpha   89.99999845
_cell_angle_beta   90.05129507
_cell_angle_gamma   120.02219000
_symmetry_Int_Tables_number   1
_chemical_formula_structural   LaNd2Ir5Rh4
_chemical_formula_sum   'La2 Nd4 Ir10 Rh8'
_cell_volume   443.67671625
_cell_formula_units_Z   2
loop_
 _symmetry_equiv_pos_site_id
 _symmetry_equiv_pos_as_xyz
  1  'x, y, z'
loop_
 _atom_site_type_symbol
 _atom_site_label
 _atom_site_symmetry_multiplicity
 _atom_site_fract_x
 _atom_site_fract_y
 _atom_site_fract_z
 _atom_site_occupancy
  La  La0  1  0.333378  0.666690  0.750049  1
  La  La1  1  0.666690  0.333344  0.249645  1
  Nd  Nd2  1  0.333157  0.666579  0.541826  1
  Nd  Nd3  1  0.666679  0.333339  0.041517  1
  Nd  Nd4  1  0.665590  0.332795  0.457795  1
  Nd  Nd5  1  0.333521  0.666761  0.958302  1
  Ir  Ir6  1  0.167007  0.333596  0.127746  1
  Ir  Ir7  1  0.833043  0.665933  0.627039  1
  Ir  Ir8  1  0.665732  0.832865  0.127248  1
  Ir  Ir9  1  0.167007  0.833411  0.127746  1
  Ir  Ir10  1  0.833043  0.167110  0.627039  1
  Ir  Ir11  1  0.333945  0.166972  0.627158  1
  Ir  Ir12  1  0.832863  0.666064  0.872670  1
  Ir  Ir13  1  0.832863  0.166799  0.872670  1
  Ir  Ir14  1  0.334228  0.167114  0.872718  1
  Ir  Ir15  1  0.668467  0.834233  0.372724  1
  Rh  Rh16  1  0.168452  0.834003  0.373216  1
  Rh  Rh17  1  0.168452  0.334450  0.373216  1
  Rh  Rh18  1  0.997763  0.998881  0.250017  1
  Rh  Rh19  1  0.000105  0.000052  0.749821  1
  Rh  Rh20  1  0.334463  0.667231  0.250233  1
  Rh  Rh21  1  0.666688  0.333344  0.749794  1
  Rh  Rh22  1  0.000331  0.000166  0.999816  1
  Rh  Rh23  1  0.996533  0.998266  0.499994  1
