# generated using pymatgen
data_Gd3Au(SO4)6
_symmetry_space_group_name_H-M   'P 1'
_cell_length_a   9.06249683
_cell_length_b   9.06249686
_cell_length_c   9.67076900
_cell_angle_alpha   117.94028011
_cell_angle_beta   62.05971981
_cell_angle_gamma   120.00000284
_symmetry_Int_Tables_number   1
_chemical_formula_structural   Gd3Au(SO4)6
_chemical_formula_sum   'Gd3 Au1 S6 O24'
_cell_volume   578.47292776
_cell_formula_units_Z   1
loop_
 _symmetry_equiv_pos_site_id
 _symmetry_equiv_pos_as_xyz
  1  'x, y, z'
loop_
 _atom_site_type_symbol
 _atom_site_label
 _atom_site_symmetry_multiplicity
 _atom_site_fract_x
 _atom_site_fract_y
 _atom_site_fract_z
 _atom_site_occupancy
  Gd  Gd0  1  0.646835  0.353166  0.059499  1
  Gd  Gd1  1  0.853265  0.146736  0.440206  1
  Gd  Gd2  1  0.139978  0.860023  0.580067  1
  Au  Au3  1  0.345066  0.654935  0.964804  1
  S  S4  1  0.241930  0.025057  0.244926  1
  S  S5  1  0.974942  0.461799  0.244926  1
  S  S6  1  0.538201  0.758069  0.244926  1
  S  S7  1  0.464550  0.270353  0.754953  1
  S  S8  1  0.050849  0.535450  0.754953  1
  S  S9  1  0.729647  0.949151  0.754953  1
  O  O10  1  0.148005  0.465007  0.108328  1
  O  O11  1  0.534992  0.791325  0.108328  1
  O  O12  1  0.208675  0.851994  0.108328  1
  O  O13  1  0.427754  0.151663  0.199551  1
  O  O14  1  0.848337  0.475641  0.199551  1
  O  O15  1  0.524359  0.572246  0.199551  1
  O  O16  1  0.115413  0.100365  0.270834  1
  O  O17  1  0.899634  0.285881  0.270834  1
  O  O18  1  0.714119  0.884587  0.270834  1
  O  O19  1  0.205335  0.995917  0.398028  1
  O  O20  1  0.004084  0.607446  0.398028  1
  O  O21  1  0.392554  0.794665  0.398028  1
  O  O22  1  0.610655  0.230174  0.601418  1
  O  O23  1  0.018102  0.389345  0.601418  1
  O  O24  1  0.769825  0.981897  0.601418  1
  O  O25  1  0.289380  0.138383  0.728881  1
  O  O26  1  0.120121  0.710620  0.728881  1
  O  O27  1  0.861619  0.879879  0.728881  1
  O  O28  1  0.486579  0.456519  0.787185  1
  O  O29  1  0.182755  0.513421  0.787185  1
  O  O30  1  0.543480  0.817243  0.787185  1
  O  O31  1  0.748167  0.120819  0.891038  1
  O  O32  1  0.481612  0.251833  0.891038  1
  O  O33  1  0.879181  0.518389  0.891038  1
