# generated using pymatgen
data_MgAgBi3Ru3O14
_symmetry_space_group_name_H-M   'P 1'
_cell_length_a   7.37251018
_cell_length_b   7.37250951
_cell_length_c   7.25823115
_cell_angle_alpha   59.47778329
_cell_angle_beta   59.47778990
_cell_angle_gamma   60.00000328
_symmetry_Int_Tables_number   1
_chemical_formula_structural   MgAgBi3Ru3O14
_chemical_formula_sum   'Mg1 Ag1 Bi3 Ru3 O14'
_cell_volume   276.74071044
_cell_formula_units_Z   1
loop_
 _symmetry_equiv_pos_site_id
 _symmetry_equiv_pos_as_xyz
  1  'x, y, z'
loop_
 _atom_site_type_symbol
 _atom_site_label
 _atom_site_symmetry_multiplicity
 _atom_site_fract_x
 _atom_site_fract_y
 _atom_site_fract_z
 _atom_site_occupancy
  Mg  Mg0  1  0.625000  0.625000  0.125000  1
  Ag  Ag1  1  0.125000  0.125000  0.625000  1
  Bi  Bi2  1  0.125000  0.625000  0.125000  1
  Bi  Bi3  1  0.625000  0.125000  0.125000  1
  Bi  Bi4  1  0.125000  0.125000  0.125000  1
  Ru  Ru5  1  0.625000  0.125000  0.625000  1
  Ru  Ru6  1  0.125000  0.625000  0.625000  1
  Ru  Ru7  1  0.625000  0.625000  0.625000  1
  O  O8  1  0.241754  0.241754  0.274739  1
  O  O9  1  0.008246  0.008246  0.975261  1
  O  O10  1  0.554396  0.938300  0.569004  1
  O  O11  1  0.274394  0.716571  0.292464  1
  O  O12  1  0.533429  0.533429  0.957536  1
  O  O13  1  0.938300  0.554396  0.569004  1
  O  O14  1  0.533429  0.975606  0.957536  1
  O  O15  1  0.938300  0.938300  0.569004  1
  O  O16  1  0.975606  0.533429  0.957536  1
  O  O17  1  0.716571  0.274394  0.292464  1
  O  O18  1  0.311700  0.695604  0.680996  1
  O  O19  1  0.695604  0.311700  0.680996  1
  O  O20  1  0.311700  0.311700  0.680996  1
  O  O21  1  0.716571  0.716571  0.292464  1
