# generated using pymatgen
data_Dy12Tm8(Bi3Sb)3
_symmetry_space_group_name_H-M   'P 1'
_cell_length_a   8.17911678
_cell_length_b   9.41647600
_cell_length_c   11.97224317
_cell_angle_alpha   90.00000000
_cell_angle_beta   90.03453703
_cell_angle_gamma   90.00000000
_symmetry_Int_Tables_number   1
_chemical_formula_structural   Dy12Tm8(Bi3Sb)3
_chemical_formula_sum   'Dy12 Tm8 Bi9 Sb3'
_cell_volume   922.08352609
_cell_formula_units_Z   1
loop_
 _symmetry_equiv_pos_site_id
 _symmetry_equiv_pos_as_xyz
  1  'x, y, z'
loop_
 _atom_site_type_symbol
 _atom_site_label
 _atom_site_symmetry_multiplicity
 _atom_site_fract_x
 _atom_site_fract_y
 _atom_site_fract_z
 _atom_site_occupancy
  Dy  Dy0  1  0.352550  0.750000  0.213188  1
  Dy  Dy1  1  0.852889  0.750000  0.286331  1
  Dy  Dy2  1  0.647354  0.250000  0.786579  1
  Dy  Dy3  1  0.148308  0.250000  0.716622  1
  Dy  Dy4  1  0.475888  0.250000  0.488056  1
  Dy  Dy5  1  0.973054  0.250000  0.011825  1
  Dy  Dy6  1  0.528292  0.750000  0.512579  1
  Dy  Dy7  1  0.027445  0.750000  0.988002  1
  Dy  Dy8  1  0.317930  0.250000  0.216159  1
  Dy  Dy9  1  0.811383  0.250000  0.278980  1
  Dy  Dy10  1  0.683389  0.750000  0.782196  1
  Dy  Dy11  1  0.183916  0.750000  0.717839  1
  Tm  Tm12  1  0.688858  0.563381  0.057347  1
  Tm  Tm13  1  0.190181  0.933192  0.442587  1
  Tm  Tm14  1  0.311318  0.062956  0.942830  1
  Tm  Tm15  1  0.808561  0.439466  0.558944  1
  Tm  Tm16  1  0.311318  0.437044  0.942830  1
  Tm  Tm17  1  0.808561  0.060534  0.558944  1
  Tm  Tm18  1  0.688858  0.936619  0.057347  1
  Tm  Tm19  1  0.190181  0.566808  0.442587  1
  Bi  Bi20  1  0.092036  0.250000  0.456570  1
  Bi  Bi21  1  0.565496  0.995098  0.325553  1
  Bi  Bi22  1  0.065863  0.504108  0.174404  1
  Bi  Bi23  1  0.433911  0.495508  0.674626  1
  Bi  Bi24  1  0.933995  0.004028  0.825795  1
  Bi  Bi25  1  0.433911  0.004492  0.674626  1
  Bi  Bi26  1  0.933995  0.495972  0.825795  1
  Bi  Bi27  1  0.565496  0.504902  0.325553  1
  Bi  Bi28  1  0.065863  0.995892  0.174404  1
  Sb  Sb29  1  0.407706  0.750000  0.958019  1
  Sb  Sb30  1  0.908411  0.750000  0.541631  1
  Sb  Sb31  1  0.593084  0.250000  0.041251  1
