# generated using pymatgen
data_DyY16(ErIr4)3
_symmetry_space_group_name_H-M   'P 1'
_cell_length_a   10.92413500
_cell_length_b   10.92413500
_cell_length_c   6.37991500
_cell_angle_alpha   90.00000000
_cell_angle_beta   90.00000000
_cell_angle_gamma   90.00000000
_symmetry_Int_Tables_number   1
_chemical_formula_structural   DyY16(ErIr4)3
_chemical_formula_sum   'Dy1 Y16 Er3 Ir12'
_cell_volume   761.35816506
_cell_formula_units_Z   1
loop_
 _symmetry_equiv_pos_site_id
 _symmetry_equiv_pos_as_xyz
  1  'x, y, z'
loop_
 _atom_site_type_symbol
 _atom_site_label
 _atom_site_symmetry_multiplicity
 _atom_site_fract_x
 _atom_site_fract_y
 _atom_site_fract_z
 _atom_site_occupancy
  Dy  Dy0  1  0.000000  0.000000  0.500000  1
  Y  Y1  1  0.291300  0.087932  0.377664  1
  Y  Y2  1  0.291020  0.912161  0.877801  1
  Y  Y3  1  0.708980  0.087839  0.877801  1
  Y  Y4  1  0.708700  0.912068  0.377664  1
  Y  Y5  1  0.587805  0.790821  0.877751  1
  Y  Y6  1  0.587728  0.209176  0.377812  1
  Y  Y7  1  0.412272  0.790824  0.377812  1
  Y  Y8  1  0.412195  0.209179  0.877751  1
  Y  Y9  1  0.209176  0.412272  0.622188  1
  Y  Y10  1  0.209179  0.587805  0.122249  1
  Y  Y11  1  0.790821  0.412195  0.122249  1
  Y  Y12  1  0.790824  0.587728  0.622188  1
  Y  Y13  1  0.912161  0.708980  0.122199  1
  Y  Y14  1  0.912068  0.291300  0.622336  1
  Y  Y15  1  0.087932  0.708700  0.622336  1
  Y  Y16  1  0.087839  0.291020  0.122199  1
  Er  Er17  1  0.000000  0.000000  0.000000  1
  Er  Er18  1  0.500000  0.500000  0.000000  1
  Er  Er19  1  0.500000  0.500000  0.500000  1
  Ir  Ir20  1  0.847809  0.152190  0.249045  1
  Ir  Ir21  1  0.847810  0.847809  0.750955  1
  Ir  Ir22  1  0.152190  0.152191  0.750955  1
  Ir  Ir23  1  0.152191  0.847810  0.249045  1
  Ir  Ir24  1  0.651496  0.348528  0.749964  1
  Ir  Ir25  1  0.651472  0.651496  0.250036  1
  Ir  Ir26  1  0.348528  0.348504  0.250036  1
  Ir  Ir27  1  0.348504  0.651472  0.749964  1
  Ir  Ir28  1  0.500000  0.000000  0.123071  1
  Ir  Ir29  1  0.500000  0.000000  0.623123  1
  Ir  Ir30  1  0.000000  0.500000  0.876929  1
  Ir  Ir31  1  0.000000  0.500000  0.376877  1
