# generated using pymatgen
data_Y2B4Os3Rh
_symmetry_space_group_name_H-M   'P 1'
_cell_length_a   6.73265648
_cell_length_b   5.97063583
_cell_length_c   5.57156044
_cell_angle_alpha   71.27158042
_cell_angle_beta   57.12548683
_cell_angle_gamma   51.66710886
_symmetry_Int_Tables_number   1
_chemical_formula_structural   Y2B4Os3Rh
_chemical_formula_sum   'Y2 B4 Os3 Rh1'
_cell_volume   147.50915085
_cell_formula_units_Z   1
loop_
 _symmetry_equiv_pos_site_id
 _symmetry_equiv_pos_as_xyz
  1  'x, y, z'
loop_
 _atom_site_type_symbol
 _atom_site_label
 _atom_site_symmetry_multiplicity
 _atom_site_fract_x
 _atom_site_fract_y
 _atom_site_fract_z
 _atom_site_occupancy
  Y  Y0  1  0.999867  0.999867  0.000133  1
  Y  Y1  1  0.246625  0.246625  0.253375  1
  B  B2  1  0.683268  0.314497  0.683898  1
  B  B3  1  0.314497  0.683268  0.318337  1
  B  B4  1  0.941472  0.566445  0.943742  1
  B  B5  1  0.566445  0.941472  0.548341  1
  Os  Os6  1  0.636578  0.636578  0.363422  1
  Os  Os7  1  0.362329  0.362329  0.637671  1
  Os  Os8  1  0.885598  0.885598  0.614402  1
  Rh  Rh9  1  0.613321  0.613321  0.886679  1
