# generated using pymatgen
data_Eu2DyEr3(SbO7)2
_symmetry_space_group_name_H-M   'P 1'
_cell_length_a   6.48697457
_cell_length_b   6.48209617
_cell_length_c   7.55867100
_cell_angle_alpha   90.00000000
_cell_angle_beta   90.00000000
_cell_angle_gamma   108.72864445
_symmetry_Int_Tables_number   1
_chemical_formula_structural   Eu2DyEr3(SbO7)2
_chemical_formula_sum   'Eu2 Dy1 Er3 Sb2 O14'
_cell_volume   301.00655798
_cell_formula_units_Z   1
loop_
 _symmetry_equiv_pos_site_id
 _symmetry_equiv_pos_as_xyz
  1  'x, y, z'
loop_
 _atom_site_type_symbol
 _atom_site_label
 _atom_site_symmetry_multiplicity
 _atom_site_fract_x
 _atom_site_fract_y
 _atom_site_fract_z
 _atom_site_occupancy
  Eu  Eu0  1  0.499721  0.499566  0.499587  1
  Eu  Eu1  1  0.499721  0.499566  0.000413  1
  Dy  Dy2  1  0.531587  0.000297  0.750000  1
  Er  Er3  1  0.000744  0.531113  0.250000  1
  Er  Er4  1  0.468655  0.999241  0.250000  1
  Er  Er5  1  0.999165  0.469032  0.750000  1
  Sb  Sb6  1  0.000008  0.000110  0.499494  1
  Sb  Sb7  1  0.000008  0.000110  0.000506  1
  O  O8  1  0.679514  0.933309  0.468177  1
  O  O9  1  0.934482  0.679315  0.530551  1
  O  O10  1  0.679514  0.933309  0.031823  1
  O  O11  1  0.934482  0.679315  0.969449  1
  O  O12  1  0.320927  0.067398  0.528677  1
  O  O13  1  0.065364  0.321003  0.469383  1
  O  O14  1  0.320927  0.067398  0.971323  1
  O  O15  1  0.065364  0.321003  0.030617  1
  O  O16  1  0.930407  0.071302  0.750000  1
  O  O17  1  0.070725  0.928281  0.250000  1
  O  O18  1  0.363252  0.632119  0.750000  1
  O  O19  1  0.635571  0.364689  0.250000  1
  O  O20  1  0.641756  0.361234  0.750000  1
  O  O21  1  0.358108  0.641291  0.250000  1
