# generated using pymatgen
data_Ce(BeAs)3
_symmetry_space_group_name_H-M   'P 1'
_cell_length_a   3.81597400
_cell_length_b   10.95032800
_cell_length_c   11.88177800
_cell_angle_alpha   90.00000000
_cell_angle_beta   90.00000000
_cell_angle_gamma   90.00000000
_symmetry_Int_Tables_number   1
_chemical_formula_structural   Ce(BeAs)3
_chemical_formula_sum   'Ce4 Be12 As12'
_cell_volume   496.49395905
_cell_formula_units_Z   4
loop_
 _symmetry_equiv_pos_site_id
 _symmetry_equiv_pos_as_xyz
  1  'x, y, z'
loop_
 _atom_site_type_symbol
 _atom_site_label
 _atom_site_symmetry_multiplicity
 _atom_site_fract_x
 _atom_site_fract_y
 _atom_site_fract_z
 _atom_site_occupancy
  Ce  Ce0  1  0.750000  0.942869  0.336143  1
  Ce  Ce1  1  0.250000  0.442869  0.163857  1
  Ce  Ce2  1  0.750000  0.557131  0.836143  1
  Ce  Ce3  1  0.250000  0.057131  0.663857  1
  Be  Be4  1  0.750000  0.240898  0.454359  1
  Be  Be5  1  0.250000  0.740898  0.045641  1
  Be  Be6  1  0.750000  0.259102  0.954359  1
  Be  Be7  1  0.250000  0.759102  0.545641  1
  Be  Be8  1  0.750000  0.645393  0.287432  1
  Be  Be9  1  0.250000  0.145393  0.212568  1
  Be  Be10  1  0.750000  0.854607  0.787432  1
  Be  Be11  1  0.250000  0.354607  0.712568  1
  Be  Be12  1  0.750000  0.038566  0.064083  1
  Be  Be13  1  0.250000  0.538566  0.435917  1
  Be  Be14  1  0.750000  0.461434  0.564083  1
  Be  Be15  1  0.250000  0.961434  0.935917  1
  As  As16  1  0.750000  0.438675  0.370624  1
  As  As17  1  0.250000  0.938675  0.129376  1
  As  As18  1  0.750000  0.061325  0.870624  1
  As  As19  1  0.250000  0.561325  0.629376  1
  As  As20  1  0.750000  0.228992  0.145457  1
  As  As21  1  0.250000  0.728992  0.354543  1
  As  As22  1  0.750000  0.271008  0.645457  1
  As  As23  1  0.250000  0.771008  0.854543  1
  As  As24  1  0.750000  0.638754  0.092397  1
  As  As25  1  0.250000  0.138754  0.407603  1
  As  As26  1  0.750000  0.861246  0.592397  1
  As  As27  1  0.250000  0.361246  0.907603  1
