# generated using pymatgen
data_La2DyRh2
_symmetry_space_group_name_H-M   'P 1'
_cell_length_a   7.61442205
_cell_length_b   7.61442149
_cell_length_c   7.61442221
_cell_angle_alpha   70.92230448
_cell_angle_beta   70.92230972
_cell_angle_gamma   70.92229771
_symmetry_Int_Tables_number   1
_chemical_formula_structural   La2DyRh2
_chemical_formula_sum   'La6 Dy3 Rh6'
_cell_volume   382.16509260
_cell_formula_units_Z   3
loop_
 _symmetry_equiv_pos_site_id
 _symmetry_equiv_pos_as_xyz
  1  'x, y, z'
loop_
 _atom_site_type_symbol
 _atom_site_label
 _atom_site_symmetry_multiplicity
 _atom_site_fract_x
 _atom_site_fract_y
 _atom_site_fract_z
 _atom_site_occupancy
  La  La0  1  0.160746  0.389578  0.670421  1
  La  La1  1  0.670421  0.160746  0.389578  1
  La  La2  1  0.389578  0.670421  0.160746  1
  La  La3  1  0.839254  0.610422  0.329579  1
  La  La4  1  0.329579  0.839254  0.610422  1
  La  La5  1  0.610422  0.329579  0.839254  1
  Dy  Dy6  1  0.000000  0.000000  0.000000  1
  Dy  Dy7  1  0.801912  0.801912  0.801912  1
  Dy  Dy8  1  0.198088  0.198088  0.198088  1
  Rh  Rh9  1  0.958435  0.160679  0.592475  1
  Rh  Rh10  1  0.592475  0.958435  0.160679  1
  Rh  Rh11  1  0.160679  0.592475  0.958435  1
  Rh  Rh12  1  0.041565  0.839321  0.407525  1
  Rh  Rh13  1  0.407525  0.041565  0.839321  1
  Rh  Rh14  1  0.839321  0.407525  0.041565  1
