# generated using pymatgen
data_Ca4CdAgPb2
_symmetry_space_group_name_H-M   'P 1'
_cell_length_a   5.45700902
_cell_length_b   7.65683700
_cell_length_c   16.37947304
_cell_angle_alpha   89.99983716
_cell_angle_beta   90.00067056
_cell_angle_gamma   89.99796387
_symmetry_Int_Tables_number   1
_chemical_formula_structural   Ca4CdAgPb2
_chemical_formula_sum   'Ca12 Cd3 Ag3 Pb6'
_cell_volume   684.39054144
_cell_formula_units_Z   3
loop_
 _symmetry_equiv_pos_site_id
 _symmetry_equiv_pos_as_xyz
  1  'x, y, z'
loop_
 _atom_site_type_symbol
 _atom_site_label
 _atom_site_symmetry_multiplicity
 _atom_site_fract_x
 _atom_site_fract_y
 _atom_site_fract_z
 _atom_site_occupancy
  Ca  Ca0  1  0.499987  0.253157  0.997045  1
  Ca  Ca1  1  0.500008  0.746845  0.997045  1
  Ca  Ca2  1  0.000009  0.250778  0.166665  1
  Ca  Ca3  1  0.999986  0.749221  0.166667  1
  Ca  Ca4  1  0.499986  0.253156  0.336290  1
  Ca  Ca5  1  0.500007  0.746843  0.336292  1
  Ca  Ca6  1  0.999959  0.253547  0.503254  1
  Ca  Ca7  1  0.000043  0.746452  0.503254  1
  Ca  Ca8  1  0.500036  0.250188  0.666667  1
  Ca  Ca9  1  0.499985  0.749810  0.666667  1
  Ca  Ca10  1  0.999961  0.253543  0.830080  1
  Ca  Ca11  1  0.000041  0.746462  0.830082  1
  Cd  Cd12  1  0.000008  0.000000  0.997527  1
  Cd  Cd13  1  0.499993  0.500000  0.166669  1
  Cd  Cd14  1  0.999992  0.000000  0.335812  1
  Ag  Ag15  1  0.500006  0.500000  0.501242  1
  Ag  Ag16  1  0.000015  0.000000  0.666661  1
  Ag  Ag17  1  0.499999  0.500000  0.832090  1
  Pb  Pb18  1  0.999978  0.500001  0.999639  1
  Pb  Pb19  1  0.499999  0.000000  0.166667  1
  Pb  Pb20  1  0.999997  0.500000  0.333682  1
  Pb  Pb21  1  0.500002  0.999999  0.499472  1
  Pb  Pb22  1  0.000005  0.500001  0.666669  1
  Pb  Pb23  1  0.499997  0.000000  0.833861  1
