# generated using pymatgen
data_ScNb4Zn(B2Ru5)2
_symmetry_space_group_name_H-M   'P 1'
_cell_length_a   9.39069935
_cell_length_b   9.39312738
_cell_length_c   3.04256700
_cell_angle_alpha   90.00000000
_cell_angle_beta   90.00000000
_cell_angle_gamma   90.11048694
_symmetry_Int_Tables_number   1
_chemical_formula_structural   ScNb4Zn(B2Ru5)2
_chemical_formula_sum   'Sc1 Nb4 Zn1 B4 Ru10'
_cell_volume   268.37835802
_cell_formula_units_Z   1
loop_
 _symmetry_equiv_pos_site_id
 _symmetry_equiv_pos_as_xyz
  1  'x, y, z'
loop_
 _atom_site_type_symbol
 _atom_site_label
 _atom_site_symmetry_multiplicity
 _atom_site_fract_x
 _atom_site_fract_y
 _atom_site_fract_z
 _atom_site_occupancy
  Sc  Sc0  1  0.821221  0.672876  0.000000  1
  Nb  Nb1  1  0.177524  0.326325  0.000000  1
  Nb  Nb2  1  0.326311  0.821268  0.000000  1
  Nb  Nb3  1  0.674961  0.177442  0.000000  1
  Nb  Nb4  1  0.998712  0.997612  0.000000  1
  Zn  Zn5  1  0.503031  0.501152  0.000000  1
  B  B6  1  0.617766  0.870363  0.000000  1
  B  B7  1  0.382511  0.130742  0.000000  1
  B  B8  1  0.129508  0.617091  0.000000  1
  B  B9  1  0.871824  0.382708  0.000000  1
  Ru  Ru10  1  0.561060  0.718750  0.500000  1
  Ru  Ru11  1  0.429164  0.286743  0.500000  1
  Ru  Ru12  1  0.079737  0.782320  0.500000  1
  Ru  Ru13  1  0.928875  0.217742  0.500000  1
  Ru  Ru14  1  0.285935  0.567679  0.500000  1
  Ru  Ru15  1  0.714116  0.421590  0.500000  1
  Ru  Ru16  1  0.217669  0.075556  0.500000  1
  Ru  Ru17  1  0.778348  0.933159  0.500000  1
  Ru  Ru18  1  0.498290  0.002059  0.500000  1
  Ru  Ru19  1  0.003439  0.496826  0.500000  1
