# generated using pymatgen
data_Y2Sc2MnB12Ir
_symmetry_space_group_name_H-M   'P 1'
_cell_length_a   3.51597600
_cell_length_b   8.95630536
_cell_length_c   11.34276601
_cell_angle_alpha   90.01356004
_cell_angle_beta   90.00000000
_cell_angle_gamma   90.00000000
_symmetry_Int_Tables_number   1
_chemical_formula_structural   Y2Sc2MnB12Ir
_chemical_formula_sum   'Y4 Sc4 Mn2 B24 Ir2'
_cell_volume   357.18544653
_cell_formula_units_Z   2
loop_
 _symmetry_equiv_pos_site_id
 _symmetry_equiv_pos_as_xyz
  1  'x, y, z'
loop_
 _atom_site_type_symbol
 _atom_site_label
 _atom_site_symmetry_multiplicity
 _atom_site_fract_x
 _atom_site_fract_y
 _atom_site_fract_z
 _atom_site_occupancy
  Y  Y0  1  0.500000  0.315380  0.410487  1
  Y  Y1  1  0.500000  0.684620  0.589513  1
  Y  Y2  1  0.500000  0.174789  0.917358  1
  Y  Y3  1  0.500000  0.825211  0.082642  1
  Sc  Sc4  1  0.500000  0.439257  0.125032  1
  Sc  Sc5  1  0.500000  0.560743  0.874968  1
  Sc  Sc6  1  0.500000  0.050252  0.628691  1
  Sc  Sc7  1  0.500000  0.949748  0.371309  1
  Mn  Mn8  1  0.500000  0.140811  0.182602  1
  Mn  Mn9  1  0.500000  0.859189  0.817398  1
  B  B10  1  0.000000  0.099563  0.473101  1
  B  B11  1  0.000000  0.900437  0.526899  1
  B  B12  1  0.000000  0.400034  0.972964  1
  B  B13  1  0.000000  0.599966  0.027036  1
  B  B14  1  0.000000  0.128815  0.314830  1
  B  B15  1  0.000000  0.871185  0.685170  1
  B  B16  1  0.000000  0.371244  0.818865  1
  B  B17  1  0.000000  0.628756  0.181135  1
  B  B18  1  0.000000  0.055245  0.068916  1
  B  B19  1  0.000000  0.944755  0.931084  1
  B  B20  1  0.000000  0.445262  0.566731  1
  B  B21  1  0.000000  0.554738  0.433269  1
  B  B22  1  0.000000  0.480300  0.284496  1
  B  B23  1  0.000000  0.519700  0.715504  1
  B  B24  1  0.000000  0.015815  0.786582  1
  B  B25  1  0.000000  0.984185  0.213418  1
  B  B26  1  0.000000  0.250203  0.082548  1
  B  B27  1  0.000000  0.749797  0.917452  1
  B  B28  1  0.000000  0.244930  0.580387  1
  B  B29  1  0.000000  0.755070  0.419613  1
  B  B30  1  0.000000  0.291518  0.233165  1
  B  B31  1  0.000000  0.708482  0.766835  1
  B  B32  1  0.000000  0.205399  0.735390  1
  B  B33  1  0.000000  0.794601  0.264610  1
  Ir  Ir34  1  0.500000  0.360301  0.680883  1
  Ir  Ir35  1  0.500000  0.639699  0.319117  1
