# generated using pymatgen
data_Nd10Sn3Bi3Cl2
_symmetry_space_group_name_H-M   'P 1'
_cell_length_a   9.53339579
_cell_length_b   9.59430491
_cell_length_c   6.69366600
_cell_angle_alpha   90.00000000
_cell_angle_beta   90.00000000
_cell_angle_gamma   120.48587685
_symmetry_Int_Tables_number   1
_chemical_formula_structural   Nd10Sn3Bi3Cl2
_chemical_formula_sum   'Nd10 Sn3 Bi3 Cl2'
_cell_volume   527.60464135
_cell_formula_units_Z   1
loop_
 _symmetry_equiv_pos_site_id
 _symmetry_equiv_pos_as_xyz
  1  'x, y, z'
loop_
 _atom_site_type_symbol
 _atom_site_label
 _atom_site_symmetry_multiplicity
 _atom_site_fract_x
 _atom_site_fract_y
 _atom_site_fract_z
 _atom_site_occupancy
  Nd  Nd0  1  0.740635  0.741506  0.250000  1
  Nd  Nd1  1  0.329054  0.666404  0.498820  1
  Nd  Nd2  1  0.258332  0.262869  0.750000  1
  Nd  Nd3  1  0.994908  0.263837  0.250000  1
  Nd  Nd4  1  0.671994  0.333535  0.499089  1
  Nd  Nd5  1  0.262607  0.995579  0.250000  1
  Nd  Nd6  1  0.740530  0.004229  0.750000  1
  Nd  Nd7  1  0.329054  0.666404  0.001180  1
  Nd  Nd8  1  0.671994  0.333535  0.000911  1
  Nd  Nd9  1  0.999797  0.732185  0.750000  1
  Sn  Sn10  1  0.998789  0.613136  0.250000  1
  Sn  Sn11  1  0.612370  0.998335  0.250000  1
  Sn  Sn12  1  0.000416  0.387447  0.750000  1
  Bi  Bi13  1  0.385608  0.385216  0.250000  1
  Bi  Bi14  1  0.613415  0.614487  0.750000  1
  Bi  Bi15  1  0.386742  0.001353  0.750000  1
  Cl  Cl16  1  0.001877  0.999971  0.999334  1
  Cl  Cl17  1  0.001877  0.999971  0.500666  1
