# generated using pymatgen
data_Sc6Sn5Ru12W
_symmetry_space_group_name_H-M   'P 1'
_cell_length_a   4.51513700
_cell_length_b   6.42502700
_cell_length_c   13.61155800
_cell_angle_alpha   90.00000000
_cell_angle_beta   90.00044303
_cell_angle_gamma   90.00000000
_symmetry_Int_Tables_number   1
_chemical_formula_structural   Sc6Sn5Ru12W
_chemical_formula_sum   'Sc6 Sn5 Ru12 W1'
_cell_volume   394.86962517
_cell_formula_units_Z   1
loop_
 _symmetry_equiv_pos_site_id
 _symmetry_equiv_pos_as_xyz
  1  'x, y, z'
loop_
 _atom_site_type_symbol
 _atom_site_label
 _atom_site_symmetry_multiplicity
 _atom_site_fract_x
 _atom_site_fract_y
 _atom_site_fract_z
 _atom_site_occupancy
  Sc  Sc0  1  0.000000  0.000000  0.000000  1
  Sc  Sc1  1  0.499919  0.500001  0.169884  1
  Sc  Sc2  1  0.999900  0.000000  0.332404  1
  Sc  Sc3  1  0.500001  0.500001  0.500000  1
  Sc  Sc4  1  0.000100  0.000000  0.667595  1
  Sc  Sc5  1  0.500080  0.500001  0.830117  1
  Sn  Sn6  1  0.499941  0.000000  0.166107  1
  Sn  Sn7  1  0.999906  0.500001  0.333749  1
  Sn  Sn8  1  0.500001  0.000000  0.500000  1
  Sn  Sn9  1  0.000090  0.500001  0.666250  1
  Sn  Sn10  1  0.500058  0.000000  0.833894  1
  Ru  Ru11  1  0.500001  0.264085  0.000000  1
  Ru  Ru12  1  0.500001  0.735915  0.000000  1
  Ru  Ru13  1  0.999945  0.258733  0.157792  1
  Ru  Ru14  1  0.999945  0.741267  0.157792  1
  Ru  Ru15  1  0.499869  0.249374  0.331702  1
  Ru  Ru16  1  0.499869  0.750625  0.331702  1
  Ru  Ru17  1  0.000000  0.247973  0.500000  1
  Ru  Ru18  1  0.000000  0.752030  0.500000  1
  Ru  Ru19  1  0.500130  0.249374  0.668297  1
  Ru  Ru20  1  0.500130  0.750625  0.668297  1
  Ru  Ru21  1  0.000055  0.258733  0.842208  1
  Ru  Ru22  1  0.000055  0.741267  0.842208  1
  W  W23  1  0.000000  0.500001  0.000000  1
