# generated using pymatgen
data_Lu4Ti2Sn5
_symmetry_space_group_name_H-M   'P 1'
_cell_length_a   11.02117340
_cell_length_b   11.02117285
_cell_length_c   11.02117245
_cell_angle_alpha   148.50094825
_cell_angle_beta   131.14478980
_cell_angle_gamma   59.29533502
_symmetry_Int_Tables_number   1
_chemical_formula_structural   Lu4Ti2Sn5
_chemical_formula_sum   'Lu8 Ti4 Sn10'
_cell_volume   522.38138532
_cell_formula_units_Z   2
loop_
 _symmetry_equiv_pos_site_id
 _symmetry_equiv_pos_as_xyz
  1  'x, y, z'
loop_
 _atom_site_type_symbol
 _atom_site_label
 _atom_site_symmetry_multiplicity
 _atom_site_fract_x
 _atom_site_fract_y
 _atom_site_fract_z
 _atom_site_occupancy
  Lu  Lu0  1  0.669670  0.441652  0.228018  1
  Lu  Lu1  1  0.330330  0.558348  0.771982  1
  Lu  Lu2  1  0.213634  0.941652  0.271982  1
  Lu  Lu3  1  0.786366  0.058348  0.728018  1
  Lu  Lu4  1  0.252595  0.146198  0.106397  1
  Lu  Lu5  1  0.747405  0.853802  0.893603  1
  Lu  Lu6  1  0.039800  0.646198  0.393603  1
  Lu  Lu7  1  0.960200  0.353802  0.606397  1
  Ti  Ti8  1  0.301138  0.551138  0.250000  1
  Ti  Ti9  1  0.698862  0.448862  0.750000  1
  Ti  Ti10  1  0.698862  0.948862  0.250000  1
  Ti  Ti11  1  0.301138  0.051138  0.750000  1
  Sn  Sn12  1  0.584398  0.288808  0.295591  1
  Sn  Sn13  1  0.415602  0.711192  0.704409  1
  Sn  Sn14  1  0.993218  0.788808  0.204409  1
  Sn  Sn15  1  0.006782  0.211192  0.795591  1
  Sn  Sn16  1  0.000000  0.250000  0.250000  1
  Sn  Sn17  1  0.000000  0.750000  0.750000  1
  Sn  Sn18  1  0.485719  0.084215  0.401502  1
  Sn  Sn19  1  0.514281  0.915785  0.598498  1
  Sn  Sn20  1  0.682712  0.584215  0.098498  1
  Sn  Sn21  1  0.317288  0.415785  0.901502  1
