# generated using pymatgen
data_Ca5YNp2O12
_symmetry_space_group_name_H-M   'P 1'
_cell_length_a   6.79701864
_cell_length_b   6.75955264
_cell_length_c   6.80836390
_cell_angle_alpha   91.91921831
_cell_angle_beta   91.50046933
_cell_angle_gamma   91.51764942
_symmetry_Int_Tables_number   1
_chemical_formula_structural   Ca5YNp2O12
_chemical_formula_sum   'Ca5 Y1 Np2 O12'
_cell_volume   312.40905805
_cell_formula_units_Z   1
loop_
 _symmetry_equiv_pos_site_id
 _symmetry_equiv_pos_as_xyz
  1  'x, y, z'
loop_
 _atom_site_type_symbol
 _atom_site_label
 _atom_site_symmetry_multiplicity
 _atom_site_fract_x
 _atom_site_fract_y
 _atom_site_fract_z
 _atom_site_occupancy
  Ca  Ca0  1  0.752280  0.940487  0.442156  1
  Ca  Ca1  1  0.557999  0.250403  0.061197  1
  Ca  Ca2  1  0.248519  0.057631  0.555437  1
  Ca  Ca3  1  0.060413  0.559772  0.249391  1
  Ca  Ca4  1  0.440564  0.748369  0.941421  1
  Y  Y5  1  0.938171  0.438936  0.750132  1
  Np  Np6  1  0.998857  0.999190  0.998767  1
  Np  Np7  1  0.498901  0.500030  0.500550  1
  O  O8  1  0.288406  0.061201  0.929475  1
  O  O9  1  0.062507  0.925369  0.292892  1
  O  O10  1  0.922996  0.304644  0.056033  1
  O  O11  1  0.709449  0.937592  0.071089  1
  O  O12  1  0.936016  0.088597  0.702086  1
  O  O13  1  0.072691  0.692854  0.926699  1
  O  O14  1  0.199015  0.412208  0.548212  1
  O  O15  1  0.413548  0.541713  0.207165  1
  O  O16  1  0.459903  0.792892  0.588272  1
  O  O17  1  0.597298  0.457397  0.795372  1
  O  O18  1  0.802254  0.583979  0.469929  1
  O  O19  1  0.540213  0.206738  0.413726  1
