# generated using pymatgen
data_Tm3(Sn2Rh)2
_symmetry_space_group_name_H-M   'P 1'
_cell_length_a   7.47569300
_cell_length_b   7.47569371
_cell_length_c   4.17832600
_cell_angle_alpha   90.00000000
_cell_angle_beta   90.00000000
_cell_angle_gamma   120.00001014
_symmetry_Int_Tables_number   1
_chemical_formula_structural   Tm3(Sn2Rh)2
_chemical_formula_sum   'Tm3 Sn4 Rh2'
_cell_volume   202.22547587
_cell_formula_units_Z   1
loop_
 _symmetry_equiv_pos_site_id
 _symmetry_equiv_pos_as_xyz
  1  'x, y, z'
loop_
 _atom_site_type_symbol
 _atom_site_label
 _atom_site_symmetry_multiplicity
 _atom_site_fract_x
 _atom_site_fract_y
 _atom_site_fract_z
 _atom_site_occupancy
  Tm  Tm0  1  0.975350  0.392603  0.500000  1
  Tm  Tm1  1  0.607397  0.582748  0.500000  1
  Tm  Tm2  1  0.417252  0.024650  0.500000  1
  Sn  Sn3  1  0.980763  0.742075  0.000000  1
  Sn  Sn4  1  0.257925  0.238688  0.000000  1
  Sn  Sn5  1  0.761312  0.019237  0.000000  1
  Sn  Sn6  1  0.333333  0.666667  0.000000  1
  Rh  Rh7  1  0.666667  0.333333  0.000000  1
  Rh  Rh8  1  0.000000  0.000000  0.500000  1
