# generated using pymatgen
data_KGa3S5
_symmetry_space_group_name_H-M   'P 1'
_cell_length_a   12.84553000
_cell_length_b   7.22226830
_cell_length_c   10.47936028
_cell_angle_alpha   76.32147453
_cell_angle_beta   90.00000000
_cell_angle_gamma   90.00000000
_symmetry_Int_Tables_number   1
_chemical_formula_structural   KGa3S5
_chemical_formula_sum   'K4 Ga12 S20'
_cell_volume   944.63672983
_cell_formula_units_Z   4
loop_
 _symmetry_equiv_pos_site_id
 _symmetry_equiv_pos_as_xyz
  1  'x, y, z'
loop_
 _atom_site_type_symbol
 _atom_site_label
 _atom_site_symmetry_multiplicity
 _atom_site_fract_x
 _atom_site_fract_y
 _atom_site_fract_z
 _atom_site_occupancy
  K  K0  1  0.617469  0.832465  0.395677  1
  K  K1  1  0.117469  0.167535  0.104323  1
  K  K2  1  0.382531  0.167535  0.604323  1
  K  K3  1  0.882531  0.832465  0.895677  1
  Ga  Ga4  1  0.920441  0.799240  0.400238  1
  Ga  Ga5  1  0.579559  0.799240  0.900238  1
  Ga  Ga6  1  0.420441  0.200760  0.099762  1
  Ga  Ga7  1  0.396878  0.559394  0.804650  1
  Ga  Ga8  1  0.103122  0.559394  0.304650  1
  Ga  Ga9  1  0.336317  0.710234  0.124008  1
  Ga  Ga10  1  0.603122  0.440606  0.195350  1
  Ga  Ga11  1  0.079559  0.200760  0.599762  1
  Ga  Ga12  1  0.663683  0.289766  0.875992  1
  Ga  Ga13  1  0.896878  0.440606  0.695350  1
  Ga  Ga14  1  0.163683  0.710234  0.624008  1
  Ga  Ga15  1  0.836317  0.289766  0.375992  1
  S  S16  1  0.829399  0.720402  0.588030  1
  S  S17  1  0.102956  0.811407  0.409137  1
  S  S18  1  0.670601  0.720402  0.088030  1
  S  S19  1  0.397044  0.811407  0.909137  1
  S  S20  1  0.329399  0.279598  0.911970  1
  S  S21  1  0.663628  0.344056  0.403048  1
  S  S22  1  0.579251  0.572158  0.768549  1
  S  S23  1  0.602956  0.188593  0.090863  1
  S  S24  1  0.897044  0.188593  0.590863  1
  S  S25  1  0.632664  0.068808  0.757634  1
  S  S26  1  0.367336  0.931192  0.242366  1
  S  S27  1  0.170601  0.279598  0.411970  1
  S  S28  1  0.079251  0.427842  0.731451  1
  S  S29  1  0.920749  0.572158  0.268549  1
  S  S30  1  0.867336  0.068808  0.257634  1
  S  S31  1  0.132664  0.931192  0.742366  1
  S  S32  1  0.836372  0.344056  0.903048  1
  S  S33  1  0.336372  0.655944  0.596952  1
  S  S34  1  0.420749  0.427842  0.231451  1
  S  S35  1  0.163628  0.655944  0.096952  1
