# generated using pymatgen
data_Y5Lu5(SiSb)4
_symmetry_space_group_name_H-M   'P 1'
_cell_length_a   8.32866597
_cell_length_b   8.56087523
_cell_length_c   7.78096789
_cell_angle_alpha   90.13300049
_cell_angle_beta   90.14377020
_cell_angle_gamma   125.31295306
_symmetry_Int_Tables_number   1
_chemical_formula_structural   Y5Lu5(SiSb)4
_chemical_formula_sum   'Y5 Lu5 Si4 Sb4'
_cell_volume   452.70477556
_cell_formula_units_Z   1
loop_
 _symmetry_equiv_pos_site_id
 _symmetry_equiv_pos_as_xyz
  1  'x, y, z'
loop_
 _atom_site_type_symbol
 _atom_site_label
 _atom_site_symmetry_multiplicity
 _atom_site_fract_x
 _atom_site_fract_y
 _atom_site_fract_z
 _atom_site_occupancy
  Y  Y0  1  0.805816  0.546677  0.168879  1
  Y  Y1  1  0.535018  0.782890  0.164181  1
  Y  Y2  1  0.195641  0.453977  0.830862  1
  Y  Y3  1  0.695042  0.953415  0.668525  1
  Y  Y4  1  0.304001  0.044836  0.332265  1
  Lu  Lu5  1  0.035135  0.277460  0.337283  1
  Lu  Lu6  1  0.963412  0.720194  0.662493  1
  Lu  Lu7  1  0.464530  0.220924  0.837241  1
  Lu  Lu8  1  0.000623  0.001007  0.999390  1
  Lu  Lu9  1  0.499926  0.499033  0.500624  1
  Si  Si10  1  0.366294  0.365255  0.133220  1
  Si  Si11  1  0.633917  0.632500  0.865943  1
  Si  Si12  1  0.132925  0.131922  0.631872  1
  Si  Si13  1  0.869213  0.867750  0.369246  1
  Sb  Sb14  1  0.786271  0.198755  0.012036  1
  Sb  Sb15  1  0.215774  0.806851  0.983500  1
  Sb  Sb16  1  0.717701  0.304949  0.514483  1
  Sb  Sb17  1  0.278758  0.691603  0.487957  1
