# generated using pymatgen
data_Tb16MgTl(InNi2)2
_symmetry_space_group_name_H-M   'P 1'
_cell_length_a   9.64635126
_cell_length_b   9.63092364
_cell_length_c   9.63092398
_cell_angle_alpha   60.01555087
_cell_angle_beta   60.17771588
_cell_angle_gamma   60.17771498
_symmetry_Int_Tables_number   1
_chemical_formula_structural   Tb16MgTl(InNi2)2
_chemical_formula_sum   'Tb16 Mg1 Tl1 In2 Ni4'
_cell_volume   634.44888140
_cell_formula_units_Z   1
loop_
 _symmetry_equiv_pos_site_id
 _symmetry_equiv_pos_as_xyz
  1  'x, y, z'
loop_
 _atom_site_type_symbol
 _atom_site_label
 _atom_site_symmetry_multiplicity
 _atom_site_fract_x
 _atom_site_fract_y
 _atom_site_fract_z
 _atom_site_occupancy
  Tb  Tb0  1  0.188724  0.814291  0.814291  1
  Tb  Tb1  1  0.813509  0.186652  0.186652  1
  Tb  Tb2  1  0.813780  0.186973  0.813569  1
  Tb  Tb3  1  0.186135  0.813724  0.186583  1
  Tb  Tb4  1  0.813780  0.813569  0.186973  1
  Tb  Tb5  1  0.186135  0.186583  0.813724  1
  Tb  Tb6  1  0.060271  0.439676  0.439676  1
  Tb  Tb7  1  0.434467  0.063732  0.063732  1
  Tb  Tb8  1  0.436756  0.064008  0.437579  1
  Tb  Tb9  1  0.061683  0.438605  0.060849  1
  Tb  Tb10  1  0.436756  0.437579  0.064008  1
  Tb  Tb11  1  0.061683  0.060849  0.438605  1
  Tb  Tb12  1  0.595210  0.595574  0.595574  1
  Tb  Tb13  1  0.597354  0.595788  0.208679  1
  Tb  Tb14  1  0.597354  0.208679  0.595788  1
  Tb  Tb15  1  0.204309  0.598070  0.598070  1
  Mg  Mg16  1  0.520651  0.826126  0.826126  1
  Tl  Tl17  1  0.832680  0.834165  0.834165  1
  In  In18  1  0.830858  0.831426  0.504191  1
  In  In19  1  0.830858  0.504191  0.831426  1
  Ni  Ni20  1  0.392659  0.392454  0.392454  1
  Ni  Ni21  1  0.390522  0.392311  0.823402  1
  Ni  Ni22  1  0.390522  0.823402  0.392311  1
  Ni  Ni23  1  0.823344  0.391572  0.391572  1
