# generated using pymatgen
data_Ce5Y11(CdOs)4
_symmetry_space_group_name_H-M   'P 1'
_cell_length_a   9.58084174
_cell_length_b   9.68548643
_cell_length_c   9.68548747
_cell_angle_alpha   59.82685287
_cell_angle_beta   60.35676889
_cell_angle_gamma   60.35676949
_symmetry_Int_Tables_number   1
_chemical_formula_structural   Ce5Y11(CdOs)4
_chemical_formula_sum   'Ce5 Y11 Cd4 Os4'
_cell_volume   638.07991780
_cell_formula_units_Z   1
loop_
 _symmetry_equiv_pos_site_id
 _symmetry_equiv_pos_as_xyz
  1  'x, y, z'
loop_
 _atom_site_type_symbol
 _atom_site_label
 _atom_site_symmetry_multiplicity
 _atom_site_fract_x
 _atom_site_fract_y
 _atom_site_fract_z
 _atom_site_occupancy
  Ce  Ce0  1  0.813381  0.186619  0.186619  1
  Ce  Ce1  1  0.346873  0.343903  0.962351  1
  Ce  Ce2  1  0.346873  0.962351  0.343903  1
  Ce  Ce3  1  0.958821  0.350242  0.350242  1
  Ce  Ce4  1  0.340696  0.350242  0.350242  1
  Y  Y5  1  0.559777  0.558047  0.940531  1
  Y  Y6  1  0.941645  0.558047  0.940531  1
  Y  Y7  1  0.564383  0.935617  0.935617  1
  Y  Y8  1  0.941645  0.940531  0.558047  1
  Y  Y9  1  0.559777  0.940531  0.558047  1
  Y  Y10  1  0.936371  0.563629  0.563629  1
  Y  Y11  1  0.193049  0.187662  0.808056  1
  Y  Y12  1  0.811232  0.187662  0.808056  1
  Y  Y13  1  0.189540  0.810460  0.810459  1
  Y  Y14  1  0.811232  0.808057  0.187662  1
  Y  Y15  1  0.193048  0.808056  0.187661  1
  Cd  Cd16  1  0.580266  0.583441  0.256026  1
  Cd  Cd17  1  0.580266  0.256026  0.583441  1
  Cd  Cd18  1  0.257816  0.580728  0.580728  1
  Cd  Cd19  1  0.580726  0.580728  0.580728  1
  Os  Os20  1  0.146193  0.141491  0.566122  1
  Os  Os21  1  0.146193  0.566122  0.141491  1
  Os  Os22  1  0.579006  0.149903  0.149903  1
  Os  Os23  1  0.121189  0.149903  0.149903  1
