# generated using pymatgen
data_Er5AlSnBi
_symmetry_space_group_name_H-M   'P 1'
_cell_length_a   8.90201150
_cell_length_b   8.84515420
_cell_length_c   6.49562000
_cell_angle_alpha   90.00000000
_cell_angle_beta   90.00000000
_cell_angle_gamma   119.78894409
_symmetry_Int_Tables_number   1
_chemical_formula_structural   Er5AlSnBi
_chemical_formula_sum   'Er10 Al2 Sn2 Bi2'
_cell_volume   443.87890894
_cell_formula_units_Z   2
loop_
 _symmetry_equiv_pos_site_id
 _symmetry_equiv_pos_as_xyz
  1  'x, y, z'
loop_
 _atom_site_type_symbol
 _atom_site_label
 _atom_site_symmetry_multiplicity
 _atom_site_fract_x
 _atom_site_fract_y
 _atom_site_fract_z
 _atom_site_occupancy
  Er  Er0  1  0.993954  0.755293  0.750000  1
  Er  Er1  1  0.993954  0.238661  0.250000  1
  Er  Er2  1  0.771583  0.762765  0.250000  1
  Er  Er3  1  0.771583  0.008818  0.750000  1
  Er  Er4  1  0.228542  0.244407  0.750000  1
  Er  Er5  1  0.228542  0.984135  0.250000  1
  Er  Er6  1  0.319490  0.659746  0.500000  1
  Er  Er7  1  0.687109  0.343554  0.000000  1
  Er  Er8  1  0.687109  0.343554  0.500000  1
  Er  Er9  1  0.319490  0.659746  0.000000  1
  Al  Al10  1  0.001636  0.599295  0.250000  1
  Al  Al11  1  0.001636  0.402341  0.750000  1
  Sn  Sn12  1  0.603649  0.607190  0.750000  1
  Sn  Sn13  1  0.603649  0.996459  0.250000  1
  Bi  Bi14  1  0.394037  0.006321  0.750000  1
  Bi  Bi15  1  0.394037  0.387716  0.250000  1
