# generated using pymatgen
data_DyEr(In2Cl5)2
_symmetry_space_group_name_H-M   'P 1'
_cell_length_a   8.27840520
_cell_length_b   8.58955200
_cell_length_c   13.08375930
_cell_angle_alpha   90.00000000
_cell_angle_beta   90.02478051
_cell_angle_gamma   90.00000000
_symmetry_Int_Tables_number   1
_chemical_formula_structural   DyEr(In2Cl5)2
_chemical_formula_sum   'Dy2 Er2 In8 Cl20'
_cell_volume   930.35714682
_cell_formula_units_Z   2
loop_
 _symmetry_equiv_pos_site_id
 _symmetry_equiv_pos_as_xyz
  1  'x, y, z'
loop_
 _atom_site_type_symbol
 _atom_site_label
 _atom_site_symmetry_multiplicity
 _atom_site_fract_x
 _atom_site_fract_y
 _atom_site_fract_z
 _atom_site_occupancy
  Dy  Dy0  1  0.927793  0.750000  0.503944  1
  Dy  Dy1  1  0.072207  0.250000  0.496056  1
  Er  Er2  1  0.428810  0.250000  0.996478  1
  Er  Er3  1  0.571190  0.750000  0.003522  1
  In  In4  1  0.947343  0.004326  0.826946  1
  In  In5  1  0.052657  0.995674  0.173054  1
  In  In6  1  0.447481  0.996409  0.672048  1
  In  In7  1  0.052657  0.504326  0.173054  1
  In  In8  1  0.552519  0.003591  0.327952  1
  In  In9  1  0.947343  0.495674  0.826946  1
  In  In10  1  0.552519  0.496409  0.327952  1
  In  In11  1  0.447481  0.503591  0.672048  1
  Cl  Cl12  1  0.104200  0.750000  0.676437  1
  Cl  Cl13  1  0.895800  0.250000  0.323563  1
  Cl  Cl14  1  0.602157  0.250000  0.824512  1
  Cl  Cl15  1  0.397843  0.750000  0.175488  1
  Cl  Cl16  1  0.840929  0.044277  0.569809  1
  Cl  Cl17  1  0.159071  0.955723  0.430191  1
  Cl  Cl18  1  0.342411  0.955996  0.931142  1
  Cl  Cl19  1  0.159071  0.544277  0.430191  1
  Cl  Cl20  1  0.657589  0.044004  0.068858  1
  Cl  Cl21  1  0.840929  0.455723  0.569809  1
  Cl  Cl22  1  0.657589  0.455996  0.068858  1
  Cl  Cl23  1  0.342411  0.544004  0.931142  1
  Cl  Cl24  1  0.597050  0.750000  0.510503  1
  Cl  Cl25  1  0.402950  0.250000  0.489497  1
  Cl  Cl26  1  0.100330  0.250000  0.988930  1
  Cl  Cl27  1  0.899670  0.750000  0.011070  1
  Cl  Cl28  1  0.654266  0.750000  0.805961  1
  Cl  Cl29  1  0.345734  0.250000  0.194039  1
  Cl  Cl30  1  0.155044  0.250000  0.694997  1
  Cl  Cl31  1  0.844956  0.750000  0.305003  1
