# generated using pymatgen
data_TbLu2Sn3IrPdPt
_symmetry_space_group_name_H-M   'P 1'
_cell_length_a   7.60250000
_cell_length_b   7.57802002
_cell_length_c   3.82066000
_cell_angle_alpha   90.00000000
_cell_angle_beta   90.00000000
_cell_angle_gamma   119.89353682
_symmetry_Int_Tables_number   1
_chemical_formula_structural   TbLu2Sn3IrPdPt
_chemical_formula_sum   'Tb1 Lu2 Sn3 Ir1 Pd1 Pt1'
_cell_volume   190.82976254
_cell_formula_units_Z   1
loop_
 _symmetry_equiv_pos_site_id
 _symmetry_equiv_pos_as_xyz
  1  'x, y, z'
loop_
 _atom_site_type_symbol
 _atom_site_label
 _atom_site_symmetry_multiplicity
 _atom_site_fract_x
 _atom_site_fract_y
 _atom_site_fract_z
 _atom_site_occupancy
  Tb  Tb0  1  0.996660  0.397427  0.500000  1
  Lu  Lu1  1  0.605325  0.600456  0.500000  1
  Lu  Lu2  1  0.399016  0.004323  0.500000  1
  Sn  Sn3  1  0.003718  0.739747  0.000000  1
  Sn  Sn4  1  0.260801  0.263003  0.000000  1
  Sn  Sn5  1  0.735298  0.994863  0.000000  1
  Ir  Ir6  1  0.000002  0.997331  0.500000  1
  Pd  Pd7  1  0.338016  0.670590  0.000000  1
  Pt  Pt8  1  0.661162  0.332262  0.000000  1
