# generated using pymatgen
data_CaHo5(Si3Ru)8
_symmetry_space_group_name_H-M   'P 1'
_cell_length_a   10.13017918
_cell_length_b   10.13017919
_cell_length_c   8.13347285
_cell_angle_alpha   89.91227817
_cell_angle_beta   90.08771881
_cell_angle_gamma   132.64707342
_symmetry_Int_Tables_number   1
_chemical_formula_structural   CaHo5(Si3Ru)8
_chemical_formula_sum   'Ca1 Ho5 Si24 Ru8'
_cell_volume   613.92651958
_cell_formula_units_Z   1
loop_
 _symmetry_equiv_pos_site_id
 _symmetry_equiv_pos_as_xyz
  1  'x, y, z'
loop_
 _atom_site_type_symbol
 _atom_site_label
 _atom_site_symmetry_multiplicity
 _atom_site_fract_x
 _atom_site_fract_y
 _atom_site_fract_z
 _atom_site_occupancy
  Ca  Ca0  1  0.501725  0.001725  0.750000  1
  Ho  Ho1  1  0.500224  0.500385  0.500527  1
  Ho  Ho2  1  0.000385  0.000224  0.999473  1
  Ho  Ho3  1  0.998818  0.498818  0.250000  1
  Ho  Ho4  1  0.497019  0.997019  0.250000  1
  Ho  Ho5  1  0.002728  0.502728  0.750000  1
  Si  Si6  1  0.794054  0.204542  0.499999  1
  Si  Si7  1  0.295048  0.705943  0.999049  1
  Si  Si8  1  0.205943  0.795048  0.500951  1
  Si  Si9  1  0.704542  0.294054  0.000001  1
  Si  Si10  1  0.332493  0.333958  0.832852  1
  Si  Si11  1  0.666501  0.668937  0.167097  1
  Si  Si12  1  0.168937  0.166501  0.332903  1
  Si  Si13  1  0.833958  0.832493  0.667148  1
  Si  Si14  1  0.119714  0.885383  0.728151  1
  Si  Si15  1  0.111656  0.877986  0.272400  1
  Si  Si16  1  0.611420  0.378178  0.228426  1
  Si  Si17  1  0.624626  0.390822  0.771690  1
  Si  Si18  1  0.878178  0.111420  0.271574  1
  Si  Si19  1  0.890822  0.124626  0.728310  1
  Si  Si20  1  0.385383  0.619714  0.771849  1
  Si  Si21  1  0.377986  0.611656  0.227600  1
  Si  Si22  1  0.344942  0.111420  0.501835  1
  Si  Si23  1  0.888594  0.655478  0.495338  1
  Si  Si24  1  0.388038  0.154296  0.007163  1
  Si  Si25  1  0.844108  0.611668  0.995270  1
  Si  Si26  1  0.654296  0.888038  0.492837  1
  Si  Si27  1  0.111668  0.344108  0.504730  1
  Si  Si28  1  0.611420  0.844942  0.998165  1
  Si  Si29  1  0.155478  0.388594  0.004662  1
  Ru  Ru30  1  0.670962  0.331649  0.498966  1
  Ru  Ru31  1  0.167001  0.828503  0.002094  1
  Ru  Ru32  1  0.328503  0.667001  0.497906  1
  Ru  Ru33  1  0.831649  0.170962  0.001034  1
  Ru  Ru34  1  0.127242  0.126660  0.627068  1
  Ru  Ru35  1  0.873417  0.873860  0.373188  1
  Ru  Ru36  1  0.373860  0.373417  0.126812  1
  Ru  Ru37  1  0.626660  0.627242  0.872932  1
