# generated using pymatgen
data_Nd7(TmIn4)5
_symmetry_space_group_name_H-M   'P 1'
_cell_length_a   6.65496838
_cell_length_b   10.49452945
_cell_length_c   12.36158876
_cell_angle_alpha   90.19848800
_cell_angle_beta   90.11037588
_cell_angle_gamma   90.10634686
_symmetry_Int_Tables_number   1
_chemical_formula_structural   Nd7(TmIn4)5
_chemical_formula_sum   'Nd7 Tm5 In20'
_cell_volume   863.33449431
_cell_formula_units_Z   1
loop_
 _symmetry_equiv_pos_site_id
 _symmetry_equiv_pos_as_xyz
  1  'x, y, z'
loop_
 _atom_site_type_symbol
 _atom_site_label
 _atom_site_symmetry_multiplicity
 _atom_site_fract_x
 _atom_site_fract_y
 _atom_site_fract_z
 _atom_site_occupancy
  Nd  Nd0  1  0.887060  0.488562  0.144023  1
  Nd  Nd1  1  0.613528  0.012140  0.645224  1
  Nd  Nd2  1  0.112112  0.988575  0.854372  1
  Nd  Nd3  1  0.387619  0.511746  0.357290  1
  Nd  Nd4  1  0.111659  0.511086  0.855809  1
  Nd  Nd5  1  0.388168  0.988602  0.356602  1
  Nd  Nd6  1  0.886358  0.010101  0.144439  1
  Tm  Tm7  1  0.351849  0.749173  0.059088  1
  Tm  Tm8  1  0.150814  0.752877  0.559501  1
  Tm  Tm9  1  0.648326  0.248389  0.940399  1
  Tm  Tm10  1  0.852248  0.250971  0.441583  1
  Tm  Tm11  1  0.611604  0.487651  0.642539  1
  In  In12  1  0.614253  0.747016  0.510493  1
  In  In13  1  0.886782  0.748609  0.003925  1
  In  In14  1  0.390633  0.251984  0.495025  1
  In  In15  1  0.111578  0.249414  0.994917  1
  In  In16  1  0.653619  0.749062  0.244733  1
  In  In17  1  0.843843  0.745954  0.741520  1
  In  In18  1  0.346868  0.252951  0.755184  1
  In  In19  1  0.153332  0.250042  0.256307  1
  In  In20  1  0.109775  0.749867  0.283052  1
  In  In21  1  0.389946  0.749091  0.782765  1
  In  In22  1  0.885901  0.255390  0.715488  1
  In  In23  1  0.610285  0.250031  0.217106  1
  In  In24  1  0.871677  0.544511  0.406355  1
  In  In25  1  0.627623  0.953808  0.905462  1
  In  In26  1  0.128622  0.048382  0.594846  1
  In  In27  1  0.373321  0.454501  0.094508  1
  In  In28  1  0.131732  0.457882  0.595897  1
  In  In29  1  0.371531  0.044686  0.094880  1
  In  In30  1  0.871460  0.954659  0.406054  1
  In  In31  1  0.625874  0.542285  0.900615  1
