# generated using pymatgen
data_Ca7As12Pd17
_symmetry_space_group_name_H-M   'P 1'
_cell_length_a   12.86944990
_cell_length_b   12.86945011
_cell_length_c   13.94747293
_cell_angle_alpha   68.79044342
_cell_angle_beta   68.79044340
_cell_angle_gamma   18.46806726
_symmetry_Int_Tables_number   1
_chemical_formula_structural   Ca7As12Pd17
_chemical_formula_sum   'Ca7 As12 Pd17'
_cell_volume   680.83286094
_cell_formula_units_Z   1
loop_
 _symmetry_equiv_pos_site_id
 _symmetry_equiv_pos_as_xyz
  1  'x, y, z'
loop_
 _atom_site_type_symbol
 _atom_site_label
 _atom_site_symmetry_multiplicity
 _atom_site_fract_x
 _atom_site_fract_y
 _atom_site_fract_z
 _atom_site_occupancy
  Ca  Ca0  1  0.500000  0.500000  0.500000  1
  Ca  Ca1  1  0.368398  0.368398  0.998213  1
  Ca  Ca2  1  0.631602  0.631602  0.001787  1
  Ca  Ca3  1  0.232893  0.232893  0.313527  1
  Ca  Ca4  1  0.767107  0.767107  0.686473  1
  Ca  Ca5  1  0.420632  0.420632  0.257978  1
  Ca  Ca6  1  0.579368  0.579368  0.742022  1
  As  As7  1  0.061148  0.061148  0.925377  1
  As  As8  1  0.938852  0.938852  0.074623  1
  As  As9  1  0.886360  0.886360  0.826793  1
  As  As10  1  0.113640  0.113640  0.173207  1
  As  As11  1  0.189394  0.189394  0.620059  1
  As  As12  1  0.810606  0.810606  0.379941  1
  As  As13  1  0.367747  0.367747  0.578062  1
  As  As14  1  0.632253  0.632253  0.421938  1
  As  As15  1  0.011697  0.011697  0.669516  1
  As  As16  1  0.988303  0.988303  0.330484  1
  As  As17  1  0.233390  0.233390  0.882522  1
  As  As18  1  0.766610  0.766610  0.117478  1
  Pd  Pd19  1  0.839200  0.839200  0.191823  1
  Pd  Pd20  1  0.160800  0.160800  0.808177  1
  Pd  Pd21  1  0.026254  0.026254  0.126277  1
  Pd  Pd22  1  0.973746  0.973746  0.873723  1
  Pd  Pd23  1  0.887002  0.887002  0.456267  1
  Pd  Pd24  1  0.112998  0.112998  0.543733  1
  Pd  Pd25  1  0.500000  0.500000  0.000000  1
  Pd  Pd26  1  0.548457  0.548457  0.260337  1
  Pd  Pd27  1  0.451543  0.451543  0.739663  1
  Pd  Pd28  1  0.293711  0.293711  0.493098  1
  Pd  Pd29  1  0.706289  0.706289  0.506902  1
  Pd  Pd30  1  0.665352  0.665352  0.224362  1
  Pd  Pd31  1  0.334648  0.334648  0.775638  1
  Pd  Pd32  1  0.909502  0.909502  0.636949  1
  Pd  Pd33  1  0.090498  0.090498  0.363051  1
  Pd  Pd34  1  0.221806  0.221806  0.073521  1
  Pd  Pd35  1  0.778194  0.778194  0.926479  1
