# generated using pymatgen
data_Rb12Li8Si4As7P5
_symmetry_space_group_name_H-M   'P 1'
_cell_length_a   10.03160743
_cell_length_b   10.02322575
_cell_length_c   15.75853248
_cell_angle_alpha   89.94745308
_cell_angle_beta   90.02737896
_cell_angle_gamma   142.85765333
_symmetry_Int_Tables_number   1
_chemical_formula_structural   Rb12Li8Si4As7P5
_chemical_formula_sum   'Rb12 Li8 Si4 As7 P5'
_cell_volume   956.71980280
_cell_formula_units_Z   1
loop_
 _symmetry_equiv_pos_site_id
 _symmetry_equiv_pos_as_xyz
  1  'x, y, z'
loop_
 _atom_site_type_symbol
 _atom_site_label
 _atom_site_symmetry_multiplicity
 _atom_site_fract_x
 _atom_site_fract_y
 _atom_site_fract_z
 _atom_site_occupancy
  Rb  Rb0  1  0.106119  0.441532  0.667457  1
  Rb  Rb1  1  0.720702  0.721048  0.676778  1
  Rb  Rb2  1  0.220572  0.220506  0.821398  1
  Rb  Rb3  1  0.780471  0.779253  0.178647  1
  Rb  Rb4  1  0.941592  0.606311  0.832183  1
  Rb  Rb5  1  0.558049  0.892706  0.334694  1
  Rb  Rb6  1  0.393126  0.058422  0.167950  1
  Rb  Rb7  1  0.057916  0.393187  0.169180  1
  Rb  Rb8  1  0.894919  0.556221  0.333275  1
  Rb  Rb9  1  0.442011  0.106143  0.666175  1
  Rb  Rb10  1  0.606250  0.941831  0.832194  1
  Rb  Rb11  1  0.278858  0.282297  0.322672  1
  Li  Li12  1  0.920983  0.078882  0.000365  1
  Li  Li13  1  0.578920  0.421855  0.499345  1
  Li  Li14  1  0.078991  0.921099  0.000021  1
  Li  Li15  1  0.414991  0.575257  0.499179  1
  Li  Li16  1  0.752516  0.247303  0.000371  1
  Li  Li17  1  0.753381  0.254192  0.499129  1
  Li  Li18  1  0.247444  0.752294  0.000310  1
  Li  Li19  1  0.250353  0.743310  0.499260  1
  Si  Si20  1  0.083264  0.917481  0.499070  1
  Si  Si21  1  0.416327  0.583271  0.000421  1
  Si  Si22  1  0.920398  0.091032  0.498418  1
  Si  Si23  1  0.583458  0.416324  0.000190  1
  As  As24  1  0.879667  0.564557  0.086550  1
  As  As25  1  0.435043  0.120370  0.913614  1
  As  As26  1  0.620228  0.935064  0.585222  1
  As  As27  1  0.935057  0.620494  0.585055  1
  As  As28  1  0.120606  0.435173  0.913794  1
  As  As29  1  0.564393  0.879000  0.087369  1
  As  As30  1  0.379185  0.064952  0.412683  1
  P  P31  1  0.199167  0.199914  0.574159  1
  P  P32  1  0.698274  0.698587  0.925246  1
  P  P33  1  0.301381  0.301203  0.075366  1
  P  P34  1  0.062708  0.373784  0.418053  1
  P  P35  1  0.802687  0.805144  0.424207  1
