# generated using pymatgen
data_NdBi3(MoO4)6
_symmetry_space_group_name_H-M   'P 1'
_cell_length_a   7.62733175
_cell_length_b   7.62733135
_cell_length_c   10.94399947
_cell_angle_alpha   90.12884612
_cell_angle_beta   89.87115253
_cell_angle_gamma   89.93140896
_symmetry_Int_Tables_number   1
_chemical_formula_structural   NdBi3(MoO4)6
_chemical_formula_sum   'Nd1 Bi3 Mo6 O24'
_cell_volume   636.67647525
_cell_formula_units_Z   1
loop_
 _symmetry_equiv_pos_site_id
 _symmetry_equiv_pos_as_xyz
  1  'x, y, z'
loop_
 _atom_site_type_symbol
 _atom_site_label
 _atom_site_symmetry_multiplicity
 _atom_site_fract_x
 _atom_site_fract_y
 _atom_site_fract_z
 _atom_site_occupancy
  Nd  Nd0  1  0.311541  0.188459  0.737032  1
  Bi  Bi1  1  0.192404  0.691949  0.261394  1
  Bi  Bi2  1  0.808051  0.307596  0.261394  1
  Bi  Bi3  1  0.694231  0.805769  0.740025  1
  Mo  Mo4  1  0.207156  0.708246  0.645697  1
  Mo  Mo5  1  0.791754  0.292844  0.645697  1
  Mo  Mo6  1  0.706831  0.793169  0.352793  1
  Mo  Mo7  1  0.292790  0.207210  0.354728  1
  Mo  Mo8  1  0.999593  0.999679  0.000931  1
  Mo  Mo9  1  0.500321  0.500407  0.000931  1
  O  O10  1  0.196140  0.698673  0.483508  1
  O  O11  1  0.801327  0.303860  0.483508  1
  O  O12  1  0.694844  0.805156  0.514929  1
  O  O13  1  0.304545  0.195455  0.517030  1
  O  O14  1  0.627279  0.131112  0.691516  1
  O  O15  1  0.368888  0.872721  0.691516  1
  O  O16  1  0.129230  0.370770  0.310964  1
  O  O17  1  0.870411  0.629589  0.307690  1
  O  O18  1  0.773769  0.001120  0.292827  1
  O  O19  1  0.226295  0.998669  0.295509  1
  O  O20  1  0.501331  0.273705  0.295509  1
  O  O21  1  0.498880  0.726231  0.292827  1
  O  O22  1  0.999813  0.224491  0.702263  1
  O  O23  1  0.997630  0.772411  0.706434  1
  O  O24  1  0.727589  0.502370  0.706434  1
  O  O25  1  0.275509  0.500187  0.702263  1
  O  O26  1  0.811934  0.952338  0.907238  1
  O  O27  1  0.183597  0.045933  0.905347  1
  O  O28  1  0.454067  0.316403  0.905347  1
  O  O29  1  0.547662  0.688066  0.907238  1
  O  O30  1  0.955608  0.187826  0.095264  1
  O  O31  1  0.050101  0.813298  0.094474  1
  O  O32  1  0.686702  0.449899  0.094474  1
  O  O33  1  0.312174  0.544392  0.095264  1
