# generated using pymatgen
data_Tb8CdHg3Au8
_symmetry_space_group_name_H-M   'P 1'
_cell_length_a   7.96741700
_cell_length_b   7.96741700
_cell_length_c   7.52107200
_cell_angle_alpha   90.00000000
_cell_angle_beta   90.00000000
_cell_angle_gamma   90.00000000
_symmetry_Int_Tables_number   1
_chemical_formula_structural   Tb8CdHg3Au8
_chemical_formula_sum   'Tb8 Cd1 Hg3 Au8'
_cell_volume   477.43564734
_cell_formula_units_Z   1
loop_
 _symmetry_equiv_pos_site_id
 _symmetry_equiv_pos_as_xyz
  1  'x, y, z'
loop_
 _atom_site_type_symbol
 _atom_site_label
 _atom_site_symmetry_multiplicity
 _atom_site_fract_x
 _atom_site_fract_y
 _atom_site_fract_z
 _atom_site_occupancy
  Tb  Tb0  1  0.834007  0.160753  0.500119  1
  Tb  Tb1  1  0.165993  0.839247  0.500119  1
  Tb  Tb2  1  0.339247  0.334007  0.999881  1
  Tb  Tb3  1  0.660753  0.665993  0.999881  1
  Tb  Tb4  1  0.675982  0.683830  0.500187  1
  Tb  Tb5  1  0.324018  0.316170  0.500187  1
  Tb  Tb6  1  0.183830  0.824018  0.999813  1
  Tb  Tb7  1  0.816170  0.175982  0.999813  1
  Cd  Cd8  1  0.000000  0.500000  0.250000  1
  Hg  Hg9  1  0.500000  0.000000  0.250000  1
  Hg  Hg10  1  0.000000  0.500000  0.750000  1
  Hg  Hg11  1  0.500000  0.000000  0.750000  1
  Au  Au12  1  0.632646  0.376514  0.266894  1
  Au  Au13  1  0.367354  0.623486  0.266894  1
  Au  Au14  1  0.126100  0.129007  0.767029  1
  Au  Au15  1  0.873900  0.870993  0.767029  1
  Au  Au16  1  0.370993  0.626100  0.732971  1
  Au  Au17  1  0.629007  0.373900  0.732971  1
  Au  Au18  1  0.876514  0.867354  0.233106  1
  Au  Au19  1  0.123486  0.132646  0.233106  1
