# generated using pymatgen
data_Nd3CdPt3Pb2
_symmetry_space_group_name_H-M   'P 1'
_cell_length_a   7.86960954
_cell_length_b   7.86960796
_cell_length_c   4.03899100
_cell_angle_alpha   90.00000000
_cell_angle_beta   90.00000000
_cell_angle_gamma   119.92157667
_symmetry_Int_Tables_number   1
_chemical_formula_structural   Nd3CdPt3Pb2
_chemical_formula_sum   'Nd3 Cd1 Pt3 Pb2'
_cell_volume   216.79659490
_cell_formula_units_Z   1
loop_
 _symmetry_equiv_pos_site_id
 _symmetry_equiv_pos_as_xyz
  1  'x, y, z'
loop_
 _atom_site_type_symbol
 _atom_site_label
 _atom_site_symmetry_multiplicity
 _atom_site_fract_x
 _atom_site_fract_y
 _atom_site_fract_z
 _atom_site_occupancy
  Nd  Nd0  1  0.993340  0.594004  0.500000  1
  Nd  Nd1  1  0.594004  0.993340  0.500000  1
  Nd  Nd2  1  0.414225  0.414225  0.500000  1
  Cd  Cd3  1  0.740608  0.740608  0.000000  1
  Pt  Pt4  1  0.995720  0.995720  0.500000  1
  Pt  Pt5  1  0.667801  0.340043  0.000000  1
  Pt  Pt6  1  0.340043  0.667801  0.000000  1
  Pb  Pb7  1  0.998623  0.255633  0.000000  1
  Pb  Pb8  1  0.255633  0.998623  0.000000  1
