# generated using pymatgen
data_Sm(BeP)3
_symmetry_space_group_name_H-M   'P 1'
_cell_length_a   3.68201200
_cell_length_b   10.45266400
_cell_length_c   11.34425700
_cell_angle_alpha   90.00000000
_cell_angle_beta   90.00000000
_cell_angle_gamma   90.00000000
_symmetry_Int_Tables_number   1
_chemical_formula_structural   Sm(BeP)3
_chemical_formula_sum   'Sm4 Be12 P12'
_cell_volume   436.60453919
_cell_formula_units_Z   4
loop_
 _symmetry_equiv_pos_site_id
 _symmetry_equiv_pos_as_xyz
  1  'x, y, z'
loop_
 _atom_site_type_symbol
 _atom_site_label
 _atom_site_symmetry_multiplicity
 _atom_site_fract_x
 _atom_site_fract_y
 _atom_site_fract_z
 _atom_site_occupancy
  Sm  Sm0  1  0.750000  0.942626  0.339015  1
  Sm  Sm1  1  0.250000  0.442626  0.160985  1
  Sm  Sm2  1  0.750000  0.557374  0.839015  1
  Sm  Sm3  1  0.250000  0.057374  0.660985  1
  Be  Be4  1  0.750000  0.241962  0.453552  1
  Be  Be5  1  0.250000  0.741962  0.046448  1
  Be  Be6  1  0.750000  0.258038  0.953552  1
  Be  Be7  1  0.250000  0.758038  0.546448  1
  Be  Be8  1  0.750000  0.646060  0.287512  1
  Be  Be9  1  0.250000  0.146060  0.212488  1
  Be  Be10  1  0.750000  0.853940  0.787512  1
  Be  Be11  1  0.250000  0.353940  0.712488  1
  Be  Be12  1  0.750000  0.039097  0.065027  1
  Be  Be13  1  0.250000  0.539097  0.434973  1
  Be  Be14  1  0.750000  0.460903  0.565027  1
  Be  Be15  1  0.250000  0.960903  0.934973  1
  P  P16  1  0.750000  0.440416  0.371029  1
  P  P17  1  0.250000  0.940416  0.128971  1
  P  P18  1  0.750000  0.059584  0.871029  1
  P  P19  1  0.250000  0.559584  0.628971  1
  P  P20  1  0.750000  0.228520  0.144307  1
  P  P21  1  0.250000  0.728520  0.355693  1
  P  P22  1  0.750000  0.271480  0.644307  1
  P  P23  1  0.250000  0.771480  0.855693  1
  P  P24  1  0.750000  0.639717  0.093435  1
  P  P25  1  0.250000  0.139717  0.406565  1
  P  P26  1  0.750000  0.860283  0.593435  1
  P  P27  1  0.250000  0.360283  0.906565  1
