# generated using pymatgen
data_Li3Nd2Eu6Si12Pd
_symmetry_space_group_name_H-M   'P 1'
_cell_length_a   8.46896300
_cell_length_b   8.46896353
_cell_length_c   8.62750800
_cell_angle_alpha   90.00000000
_cell_angle_beta   90.00000000
_cell_angle_gamma   119.99999403
_symmetry_Int_Tables_number   1
_chemical_formula_structural   Li3Nd2Eu6Si12Pd
_chemical_formula_sum   'Li3 Nd2 Eu6 Si12 Pd1'
_cell_volume   535.89107794
_cell_formula_units_Z   1
loop_
 _symmetry_equiv_pos_site_id
 _symmetry_equiv_pos_as_xyz
  1  'x, y, z'
loop_
 _atom_site_type_symbol
 _atom_site_label
 _atom_site_symmetry_multiplicity
 _atom_site_fract_x
 _atom_site_fract_y
 _atom_site_fract_z
 _atom_site_occupancy
  Li  Li0  1  0.666667  0.333333  0.999358  1
  Li  Li1  1  0.333333  0.666667  0.001336  1
  Li  Li2  1  0.333333  0.666667  0.499279  1
  Nd  Nd3  1  0.000000  0.000000  0.749890  1
  Nd  Nd4  1  0.000000  0.000000  0.250105  1
  Eu  Eu5  1  0.500956  0.499044  0.748191  1
  Eu  Eu6  1  0.501351  0.498649  0.251762  1
  Eu  Eu7  1  0.998088  0.499044  0.748191  1
  Eu  Eu8  1  0.997297  0.498649  0.251762  1
  Eu  Eu9  1  0.500956  0.001912  0.748191  1
  Eu  Eu10  1  0.501351  0.002703  0.251762  1
  Si  Si11  1  0.837762  0.162238  0.000034  1
  Si  Si12  1  0.162484  0.837516  0.999897  1
  Si  Si13  1  0.324477  0.162238  0.000034  1
  Si  Si14  1  0.161360  0.838640  0.499985  1
  Si  Si15  1  0.675032  0.837516  0.999897  1
  Si  Si16  1  0.835251  0.164749  0.500084  1
  Si  Si17  1  0.837762  0.675523  0.000034  1
  Si  Si18  1  0.677279  0.838640  0.499985  1
  Si  Si19  1  0.162484  0.324968  0.999897  1
  Si  Si20  1  0.329498  0.164749  0.500084  1
  Si  Si21  1  0.161360  0.322721  0.499985  1
  Si  Si22  1  0.835251  0.670502  0.500084  1
  Pd  Pd23  1  0.666667  0.333333  0.500170  1
