# generated using pymatgen
data_Lu2HfGa5
_symmetry_space_group_name_H-M   'P 1'
_cell_length_a   5.83991100
_cell_length_b   9.33042600
_cell_length_c   11.28547400
_cell_angle_alpha   90.00000000
_cell_angle_beta   90.00000000
_cell_angle_gamma   90.00000000
_symmetry_Int_Tables_number   1
_chemical_formula_structural   Lu2HfGa5
_chemical_formula_sum   'Lu8 Hf4 Ga20'
_cell_volume   614.93258384
_cell_formula_units_Z   4
loop_
 _symmetry_equiv_pos_site_id
 _symmetry_equiv_pos_as_xyz
  1  'x, y, z'
loop_
 _atom_site_type_symbol
 _atom_site_label
 _atom_site_symmetry_multiplicity
 _atom_site_fract_x
 _atom_site_fract_y
 _atom_site_fract_z
 _atom_site_occupancy
  Lu  Lu0  1  0.886024  0.500571  0.353043  1
  Lu  Lu1  1  0.613976  0.999429  0.853043  1
  Lu  Lu2  1  0.113976  0.000571  0.646957  1
  Lu  Lu3  1  0.386024  0.499429  0.146957  1
  Lu  Lu4  1  0.113976  0.499429  0.646957  1
  Lu  Lu5  1  0.386024  0.000571  0.146957  1
  Lu  Lu6  1  0.886024  0.999429  0.353043  1
  Lu  Lu7  1  0.613976  0.500571  0.853043  1
  Hf  Hf8  1  0.857397  0.750000  0.071652  1
  Hf  Hf9  1  0.642603  0.750000  0.571652  1
  Hf  Hf10  1  0.142603  0.250000  0.928348  1
  Hf  Hf11  1  0.357397  0.250000  0.428348  1
  Ga  Ga12  1  0.875217  0.052710  0.091074  1
  Ga  Ga13  1  0.624783  0.447290  0.591074  1
  Ga  Ga14  1  0.124783  0.552710  0.908926  1
  Ga  Ga15  1  0.375217  0.947290  0.408926  1
  Ga  Ga16  1  0.124783  0.947290  0.908926  1
  Ga  Ga17  1  0.375217  0.552710  0.408926  1
  Ga  Ga18  1  0.875217  0.447290  0.091074  1
  Ga  Ga19  1  0.624783  0.052710  0.591074  1
  Ga  Ga20  1  0.151947  0.750000  0.256576  1
  Ga  Ga21  1  0.348053  0.750000  0.756576  1
  Ga  Ga22  1  0.848053  0.250000  0.743424  1
  Ga  Ga23  1  0.651947  0.250000  0.243424  1
  Ga  Ga24  1  0.396419  0.750000  0.998602  1
  Ga  Ga25  1  0.103581  0.750000  0.498602  1
  Ga  Ga26  1  0.603581  0.250000  0.001398  1
  Ga  Ga27  1  0.896419  0.250000  0.501398  1
  Ga  Ga28  1  0.613797  0.750000  0.293547  1
  Ga  Ga29  1  0.886203  0.750000  0.793547  1
  Ga  Ga30  1  0.386203  0.250000  0.706453  1
  Ga  Ga31  1  0.113797  0.250000  0.206453  1
