# generated using pymatgen
data_Yb3ErSb6Rh7
_symmetry_space_group_name_H-M   'P 1'
_cell_length_a   7.57264770
_cell_length_b   7.61518963
_cell_length_c   7.57264895
_cell_angle_alpha   109.58506319
_cell_angle_beta   109.35714748
_cell_angle_gamma   109.58505637
_symmetry_Int_Tables_number   1
_chemical_formula_structural   Yb3ErSb6Rh7
_chemical_formula_sum   'Yb3 Er1 Sb6 Rh7'
_cell_volume   335.69300893
_cell_formula_units_Z   1
loop_
 _symmetry_equiv_pos_site_id
 _symmetry_equiv_pos_as_xyz
  1  'x, y, z'
loop_
 _atom_site_type_symbol
 _atom_site_label
 _atom_site_symmetry_multiplicity
 _atom_site_fract_x
 _atom_site_fract_y
 _atom_site_fract_z
 _atom_site_occupancy
  Yb  Yb0  1  0.500000  0.000000  0.000000  1
  Yb  Yb1  1  0.000000  0.000000  0.500000  1
  Yb  Yb2  1  0.500000  0.500000  0.500000  1
  Er  Er3  1  0.000000  0.500000  0.000000  1
  Sb  Sb4  1  0.319071  0.003706  0.319071  1
  Sb  Sb5  1  0.000000  0.684635  0.680929  1
  Sb  Sb6  1  0.680929  0.684635  0.000000  1
  Sb  Sb7  1  0.680929  0.996294  0.680929  1
  Sb  Sb8  1  0.000000  0.315365  0.319071  1
  Sb  Sb9  1  0.319071  0.315365  0.000000  1
  Rh  Rh10  1  0.247953  0.500000  0.752047  1
  Rh  Rh11  1  0.504094  0.252047  0.752047  1
  Rh  Rh12  1  0.752047  0.252047  0.504094  1
  Rh  Rh13  1  0.495906  0.747953  0.247953  1
  Rh  Rh14  1  0.000000  0.000000  0.000000  1
  Rh  Rh15  1  0.247953  0.747953  0.495906  1
  Rh  Rh16  1  0.752047  0.500000  0.247953  1
