# generated using pymatgen
data_Tb3Ho5(CdIr)2
_symmetry_space_group_name_H-M   'P 1'
_cell_length_a   9.63163697
_cell_length_b   9.63163666
_cell_length_c   9.63163700
_cell_angle_alpha   59.99999541
_cell_angle_beta   59.99999647
_cell_angle_gamma   59.99999659
_symmetry_Int_Tables_number   1
_chemical_formula_structural   Tb3Ho5(CdIr)2
_chemical_formula_sum   'Tb6 Ho10 Cd4 Ir4'
_cell_volume   631.80821302
_cell_formula_units_Z   2
loop_
 _symmetry_equiv_pos_site_id
 _symmetry_equiv_pos_as_xyz
  1  'x, y, z'
loop_
 _atom_site_type_symbol
 _atom_site_label
 _atom_site_symmetry_multiplicity
 _atom_site_fract_x
 _atom_site_fract_y
 _atom_site_fract_z
 _atom_site_occupancy
  Tb  Tb0  1  0.187975  0.812025  0.812025  1
  Tb  Tb1  1  0.812025  0.187975  0.187975  1
  Tb  Tb2  1  0.812025  0.187975  0.812025  1
  Tb  Tb3  1  0.187975  0.812025  0.187975  1
  Tb  Tb4  1  0.812025  0.812025  0.187975  1
  Tb  Tb5  1  0.187975  0.187975  0.812025  1
  Ho  Ho6  1  0.599064  0.599064  0.599064  1
  Ho  Ho7  1  0.599064  0.599064  0.202810  1
  Ho  Ho8  1  0.599064  0.202810  0.599064  1
  Ho  Ho9  1  0.202810  0.599064  0.599064  1
  Ho  Ho10  1  0.060923  0.439077  0.439077  1
  Ho  Ho11  1  0.439077  0.060923  0.060923  1
  Ho  Ho12  1  0.439077  0.060923  0.439077  1
  Ho  Ho13  1  0.060923  0.439077  0.060923  1
  Ho  Ho14  1  0.439077  0.439077  0.060923  1
  Ho  Ho15  1  0.060923  0.060923  0.439077  1
  Cd  Cd16  1  0.830945  0.830945  0.830945  1
  Cd  Cd17  1  0.830945  0.830945  0.507165  1
  Cd  Cd18  1  0.830945  0.507165  0.830945  1
  Cd  Cd19  1  0.507165  0.830945  0.830945  1
  Ir  Ir20  1  0.391791  0.391791  0.391791  1
  Ir  Ir21  1  0.391791  0.391791  0.824627  1
  Ir  Ir22  1  0.391791  0.824627  0.391791  1
  Ir  Ir23  1  0.824627  0.391791  0.391791  1
