# generated using pymatgen
data_Tb3Dy13(HgPt)4
_symmetry_space_group_name_H-M   'P 1'
_cell_length_a   9.67312973
_cell_length_b   9.67210789
_cell_length_c   9.67210800
_cell_angle_alpha   59.99999961
_cell_angle_beta   60.00349401
_cell_angle_gamma   60.00349348
_symmetry_Int_Tables_number   1
_chemical_formula_structural   Tb3Dy13(HgPt)4
_chemical_formula_sum   'Tb3 Dy13 Hg4 Pt4'
_cell_volume   639.90752143
_cell_formula_units_Z   1
loop_
 _symmetry_equiv_pos_site_id
 _symmetry_equiv_pos_as_xyz
  1  'x, y, z'
loop_
 _atom_site_type_symbol
 _atom_site_label
 _atom_site_symmetry_multiplicity
 _atom_site_fract_x
 _atom_site_fract_y
 _atom_site_fract_z
 _atom_site_occupancy
  Tb  Tb0  1  0.354312  0.354317  0.354317  1
  Tb  Tb1  1  0.354312  0.354317  0.937056  1
  Tb  Tb2  1  0.354312  0.937056  0.354317  1
  Dy  Dy3  1  0.937297  0.354235  0.354235  1
  Dy  Dy4  1  0.810220  0.189824  0.189824  1
  Dy  Dy5  1  0.189798  0.810233  0.810233  1
  Dy  Dy6  1  0.189798  0.810233  0.189736  1
  Dy  Dy7  1  0.810220  0.189824  0.810132  1
  Dy  Dy8  1  0.189798  0.189736  0.810233  1
  Dy  Dy9  1  0.810220  0.810132  0.189824  1
  Dy  Dy10  1  0.935470  0.564495  0.564495  1
  Dy  Dy11  1  0.564527  0.935464  0.935464  1
  Dy  Dy12  1  0.564527  0.935464  0.564544  1
  Dy  Dy13  1  0.935470  0.564494  0.935540  1
  Dy  Dy14  1  0.564527  0.564544  0.935464  1
  Dy  Dy15  1  0.935470  0.935540  0.564494  1
  Hg  Hg16  1  0.587014  0.586823  0.586823  1
  Hg  Hg17  1  0.587014  0.586823  0.239338  1
  Hg  Hg18  1  0.587014  0.239338  0.586823  1
  Hg  Hg19  1  0.239322  0.586892  0.586892  1
  Pt  Pt20  1  0.143310  0.143768  0.143768  1
  Pt  Pt21  1  0.143310  0.143768  0.569154  1
  Pt  Pt22  1  0.143310  0.569154  0.143768  1
  Pt  Pt23  1  0.569429  0.143524  0.143524  1
