# generated using pymatgen
data_Tb3CeHfIr3
_symmetry_space_group_name_H-M   'P 1'
_cell_length_a   10.88480400
_cell_length_b   10.98743000
_cell_length_c   6.23322700
_cell_angle_alpha   90.00000000
_cell_angle_beta   90.00000000
_cell_angle_gamma   90.00000000
_symmetry_Int_Tables_number   1
_chemical_formula_structural   Tb3CeHfIr3
_chemical_formula_sum   'Tb12 Ce4 Hf4 Ir12'
_cell_volume   745.46915351
_cell_formula_units_Z   4
loop_
 _symmetry_equiv_pos_site_id
 _symmetry_equiv_pos_as_xyz
  1  'x, y, z'
loop_
 _atom_site_type_symbol
 _atom_site_label
 _atom_site_symmetry_multiplicity
 _atom_site_fract_x
 _atom_site_fract_y
 _atom_site_fract_z
 _atom_site_occupancy
  Tb  Tb0  1  0.586570  0.782505  0.875310  1
  Tb  Tb1  1  0.586570  0.217495  0.375310  1
  Tb  Tb2  1  0.413430  0.782505  0.375310  1
  Tb  Tb3  1  0.413430  0.217495  0.875310  1
  Tb  Tb4  1  0.209551  0.415569  0.625283  1
  Tb  Tb5  1  0.209551  0.584431  0.125283  1
  Tb  Tb6  1  0.790449  0.415569  0.125283  1
  Tb  Tb7  1  0.790449  0.584431  0.625283  1
  Tb  Tb8  1  0.914549  0.712762  0.122341  1
  Tb  Tb9  1  0.914549  0.287238  0.622341  1
  Tb  Tb10  1  0.085451  0.712762  0.622341  1
  Tb  Tb11  1  0.085451  0.287238  0.122341  1
  Ce  Ce12  1  0.292030  0.087420  0.376552  1
  Ce  Ce13  1  0.292030  0.912580  0.876552  1
  Ce  Ce14  1  0.707970  0.087420  0.876552  1
  Ce  Ce15  1  0.707970  0.912580  0.376552  1
  Hf  Hf16  1  0.000000  0.000000  0.497584  1
  Hf  Hf17  1  0.000000  0.000000  0.997584  1
  Hf  Hf18  1  0.500000  0.500000  0.006417  1
  Hf  Hf19  1  0.500000  0.500000  0.506417  1
  Ir  Ir20  1  0.854601  0.139869  0.244339  1
  Ir  Ir21  1  0.854601  0.860131  0.744339  1
  Ir  Ir22  1  0.145399  0.139869  0.744339  1
  Ir  Ir23  1  0.145399  0.860131  0.244339  1
  Ir  Ir24  1  0.642260  0.358575  0.755109  1
  Ir  Ir25  1  0.642260  0.641425  0.255109  1
  Ir  Ir26  1  0.357740  0.358575  0.255109  1
  Ir  Ir27  1  0.357740  0.641425  0.755109  1
  Ir  Ir28  1  0.500000  0.000000  0.115533  1
  Ir  Ir29  1  0.500000  0.000000  0.615533  1
  Ir  Ir30  1  0.000000  0.500000  0.882598  1
  Ir  Ir31  1  0.000000  0.500000  0.382598  1
