# generated using pymatgen
data_ErLu2Sc2Pb3
_symmetry_space_group_name_H-M   'P 1'
_cell_length_a   8.79394487
_cell_length_b   8.80070293
_cell_length_c   6.30918800
_cell_angle_alpha   90.00000000
_cell_angle_beta   90.00000000
_cell_angle_gamma   120.02543350
_symmetry_Int_Tables_number   1
_chemical_formula_structural   ErLu2Sc2Pb3
_chemical_formula_sum   'Er2 Lu4 Sc4 Pb6'
_cell_volume   422.75995226
_cell_formula_units_Z   2
loop_
 _symmetry_equiv_pos_site_id
 _symmetry_equiv_pos_as_xyz
  1  'x, y, z'
loop_
 _atom_site_type_symbol
 _atom_site_label
 _atom_site_symmetry_multiplicity
 _atom_site_fract_x
 _atom_site_fract_y
 _atom_site_fract_z
 _atom_site_occupancy
  Er  Er0  1  0.236548  0.999791  0.250000  1
  Er  Er1  1  0.236548  0.236757  0.750000  1
  Lu  Lu2  1  0.999693  0.763104  0.750000  1
  Lu  Lu3  1  0.999693  0.236589  0.250000  1
  Lu  Lu4  1  0.763515  0.763670  0.250000  1
  Lu  Lu5  1  0.763515  0.999845  0.750000  1
  Sc  Sc6  1  0.333420  0.666711  0.000000  1
  Sc  Sc7  1  0.666738  0.333368  0.500000  1
  Sc  Sc8  1  0.666738  0.333368  0.000000  1
  Sc  Sc9  1  0.333420  0.666711  0.500000  1
  Pb  Pb10  1  0.602666  0.000022  0.250000  1
  Pb  Pb11  1  0.602666  0.602643  0.750000  1
  Pb  Pb12  1  0.999482  0.397978  0.750000  1
  Pb  Pb13  1  0.999482  0.601505  0.250000  1
  Pb  Pb14  1  0.397939  0.398378  0.250000  1
  Pb  Pb15  1  0.397939  0.999560  0.750000  1
