# generated using pymatgen
data_Nd2Nb3As7Rh9
_symmetry_space_group_name_H-M   'P 1'
_cell_length_a   4.03427300
_cell_length_b   10.00307098
_cell_length_c   10.01234779
_cell_angle_alpha   120.04732839
_cell_angle_beta   89.99873545
_cell_angle_gamma   90.00203698
_symmetry_Int_Tables_number   1
_chemical_formula_structural   Nd2Nb3As7Rh9
_chemical_formula_sum   'Nd2 Nb3 As7 Rh9'
_cell_volume   349.75012233
_cell_formula_units_Z   1
loop_
 _symmetry_equiv_pos_site_id
 _symmetry_equiv_pos_as_xyz
  1  'x, y, z'
loop_
 _atom_site_type_symbol
 _atom_site_label
 _atom_site_symmetry_multiplicity
 _atom_site_fract_x
 _atom_site_fract_y
 _atom_site_fract_z
 _atom_site_occupancy
  Nd  Nd0  1  0.261857  0.666561  0.333365  1
  Nd  Nd1  1  0.761964  0.333405  0.666690  1
  Nb  Nb2  1  0.761974  0.096905  0.878077  1
  Nb  Nb3  1  0.761928  0.122316  0.219029  1
  Nb  Nb4  1  0.761906  0.781326  0.903321  1
  As  As5  1  0.262025  0.999809  0.999982  1
  As  As6  1  0.761818  0.881895  0.591177  1
  As  As7  1  0.761599  0.408727  0.290713  1
  As  As8  1  0.761788  0.709094  0.118046  1
  As  As9  1  0.262058  0.115372  0.413480  1
  As  As10  1  0.261955  0.586374  0.701635  1
  As  As11  1  0.262002  0.298193  0.884598  1
  Rh  Rh12  1  0.261934  0.881053  0.159353  1
  Rh  Rh13  1  0.261919  0.840759  0.721919  1
  Rh  Rh14  1  0.261783  0.278214  0.118638  1
  Rh  Rh15  1  0.761959  0.614318  0.563834  1
  Rh  Rh16  1  0.762018  0.436359  0.050586  1
  Rh  Rh17  1  0.761884  0.949389  0.385940  1
  Rh  Rh18  1  0.261790  0.368734  0.435374  1
  Rh  Rh19  1  0.262011  0.564474  0.933399  1
  Rh  Rh20  1  0.261828  0.066723  0.630839  1
