# generated using pymatgen
data_Dy9Sc(Ga2Bi)2
_symmetry_space_group_name_H-M   'P 1'
_cell_length_a   8.71646563
_cell_length_b   8.71652152
_cell_length_c   8.71647591
_cell_angle_alpha   125.25093513
_cell_angle_beta   125.25039075
_cell_angle_gamma   81.12296151
_symmetry_Int_Tables_number   1
_chemical_formula_structural   Dy9Sc(Ga2Bi)2
_chemical_formula_sum   'Dy9 Sc1 Ga4 Bi2'
_cell_volume   425.48396373
_cell_formula_units_Z   1
loop_
 _symmetry_equiv_pos_site_id
 _symmetry_equiv_pos_as_xyz
  1  'x, y, z'
loop_
 _atom_site_type_symbol
 _atom_site_label
 _atom_site_symmetry_multiplicity
 _atom_site_fract_x
 _atom_site_fract_y
 _atom_site_fract_z
 _atom_site_occupancy
  Dy  Dy0  1  0.000000  0.000000  0.000000  1
  Dy  Dy1  1  0.295339  0.792526  0.805927  1
  Dy  Dy2  1  0.792525  0.986600  0.497186  1
  Dy  Dy3  1  0.489415  0.295341  0.502815  1
  Dy  Dy4  1  0.207475  0.013400  0.502814  1
  Dy  Dy5  1  0.510585  0.704659  0.497185  1
  Dy  Dy6  1  0.013400  0.510585  0.805926  1
  Dy  Dy7  1  0.704661  0.207474  0.194073  1
  Dy  Dy8  1  0.986600  0.489415  0.194074  1
  Sc  Sc9  1  0.500000  0.500000  0.000000  1
  Ga  Ga10  1  0.353099  0.848707  0.201808  1
  Ga  Ga11  1  0.848706  0.646900  0.495606  1
  Ga  Ga12  1  0.151294  0.353100  0.504394  1
  Ga  Ga13  1  0.646901  0.151293  0.798192  1
  Bi  Bi14  1  0.747754  0.747754  0.000000  1
  Bi  Bi15  1  0.252246  0.252246  0.000000  1
