# generated using pymatgen
data_Dy5Y3Tc2(B12Ru)2
_symmetry_space_group_name_H-M   'P 1'
_cell_length_a   3.67987500
_cell_length_b   9.15829834
_cell_length_c   11.54982314
_cell_angle_alpha   89.84979961
_cell_angle_beta   90.00000000
_cell_angle_gamma   90.00000000
_symmetry_Int_Tables_number   1
_chemical_formula_structural   Dy5Y3Tc2(B12Ru)2
_chemical_formula_sum   'Dy5 Y3 Tc2 B24 Ru2'
_cell_volume   389.24379246
_cell_formula_units_Z   1
loop_
 _symmetry_equiv_pos_site_id
 _symmetry_equiv_pos_as_xyz
  1  'x, y, z'
loop_
 _atom_site_type_symbol
 _atom_site_label
 _atom_site_symmetry_multiplicity
 _atom_site_fract_x
 _atom_site_fract_y
 _atom_site_fract_z
 _atom_site_occupancy
  Dy  Dy0  1  0.000000  0.178438  0.912637  1
  Dy  Dy1  1  0.000000  0.942109  0.370372  1
  Dy  Dy2  1  0.000000  0.057856  0.629643  1
  Dy  Dy3  1  0.000000  0.442954  0.130189  1
  Dy  Dy4  1  0.000000  0.557015  0.869812  1
  Y  Y5  1  0.000000  0.325170  0.415644  1
  Y  Y6  1  0.000000  0.674829  0.584357  1
  Y  Y7  1  0.000000  0.821407  0.087354  1
  Tc  Tc8  1  0.000000  0.638531  0.320229  1
  Tc  Tc9  1  0.000000  0.361426  0.679832  1
  B  B10  1  0.500000  0.553287  0.432871  1
  B  B11  1  0.500000  0.446717  0.567128  1
  B  B12  1  0.500000  0.054069  0.067052  1
  B  B13  1  0.500000  0.946160  0.932842  1
  B  B14  1  0.500000  0.748363  0.418718  1
  B  B15  1  0.500000  0.251634  0.581298  1
  B  B16  1  0.500000  0.248300  0.081192  1
  B  B17  1  0.500000  0.751689  0.918687  1
  B  B18  1  0.500000  0.791250  0.265367  1
  B  B19  1  0.500000  0.208738  0.734733  1
  B  B20  1  0.500000  0.290305  0.234101  1
  B  B21  1  0.500000  0.709694  0.765886  1
  B  B22  1  0.500000  0.631347  0.185362  1
  B  B23  1  0.500000  0.368532  0.814715  1
  B  B24  1  0.500000  0.131039  0.313786  1
  B  B25  1  0.500000  0.868986  0.686222  1
  B  B26  1  0.500000  0.983528  0.211805  1
  B  B27  1  0.500000  0.016591  0.788248  1
  B  B28  1  0.500000  0.483045  0.287671  1
  B  B29  1  0.500000  0.516938  0.712330  1
  B  B30  1  0.500000  0.603739  0.028594  1
  B  B31  1  0.500000  0.396171  0.971381  1
  B  B32  1  0.500000  0.103822  0.471074  1
  B  B33  1  0.500000  0.896180  0.528925  1
  Ru  Ru34  1  0.000000  0.137750  0.178302  1
  Ru  Ru35  1  0.000000  0.862390  0.821642  1
