# generated using pymatgen
data_Cs6V2Se7S
_symmetry_space_group_name_H-M   'P 1'
_cell_length_a   10.23193100
_cell_length_b   10.22208400
_cell_length_c   12.09376900
_cell_angle_alpha   90.00000000
_cell_angle_beta   90.00000000
_cell_angle_gamma   90.00000000
_symmetry_Int_Tables_number   1
_chemical_formula_structural   Cs6V2Se7S
_chemical_formula_sum   'Cs12 V4 Se14 S2'
_cell_volume   1264.90735316
_cell_formula_units_Z   2
loop_
 _symmetry_equiv_pos_site_id
 _symmetry_equiv_pos_as_xyz
  1  'x, y, z'
loop_
 _atom_site_type_symbol
 _atom_site_label
 _atom_site_symmetry_multiplicity
 _atom_site_fract_x
 _atom_site_fract_y
 _atom_site_fract_z
 _atom_site_occupancy
  Cs  Cs0  1  0.544765  0.208815  0.045276  1
  Cs  Cs1  1  0.044765  0.291185  0.454724  1
  Cs  Cs2  1  0.455421  0.791661  0.542429  1
  Cs  Cs3  1  0.955421  0.708339  0.957571  1
  Cs  Cs4  1  0.455421  0.791661  0.957571  1
  Cs  Cs5  1  0.955421  0.708339  0.542429  1
  Cs  Cs6  1  0.544765  0.208815  0.454724  1
  Cs  Cs7  1  0.044765  0.291185  0.045276  1
  Cs  Cs8  1  0.648998  0.411483  0.750000  1
  Cs  Cs9  1  0.148998  0.088517  0.750000  1
  Cs  Cs10  1  0.350632  0.586502  0.250000  1
  Cs  Cs11  1  0.850632  0.913498  0.250000  1
  V  V12  1  0.722499  0.982543  0.750000  1
  V  V13  1  0.222499  0.517457  0.750000  1
  V  V14  1  0.277723  0.022648  0.250000  1
  V  V15  1  0.777723  0.477352  0.250000  1
  Se  Se16  1  0.830359  0.048118  0.593316  1
  Se  Se17  1  0.330359  0.451882  0.906684  1
  Se  Se18  1  0.169781  0.953971  0.093646  1
  Se  Se19  1  0.669781  0.546029  0.406354  1
  Se  Se20  1  0.169781  0.953971  0.406354  1
  Se  Se21  1  0.669781  0.546029  0.093646  1
  Se  Se22  1  0.830359  0.048118  0.906684  1
  Se  Se23  1  0.330359  0.451882  0.593316  1
  Se  Se24  1  0.514062  0.067504  0.750000  1
  Se  Se25  1  0.014062  0.432496  0.750000  1
  Se  Se26  1  0.485766  0.934205  0.250000  1
  Se  Se27  1  0.985766  0.565795  0.250000  1
  Se  Se28  1  0.710561  0.758261  0.750000  1
  Se  Se29  1  0.210561  0.741739  0.750000  1
  S  S30  1  0.289107  0.233370  0.250000  1
  S  S31  1  0.789107  0.266630  0.250000  1
