# generated using pymatgen
data_ErTmNb6(Co4P3)4
_symmetry_space_group_name_H-M   'P 1'
_cell_length_a   11.98552600
_cell_length_b   11.98552601
_cell_length_c   3.64759900
_cell_angle_alpha   90.00000000
_cell_angle_beta   90.00000000
_cell_angle_gamma   119.99999998
_symmetry_Int_Tables_number   1
_chemical_formula_structural   ErTmNb6(Co4P3)4
_chemical_formula_sum   'Er1 Tm1 Nb6 Co16 P12'
_cell_volume   453.78686050
_cell_formula_units_Z   1
loop_
 _symmetry_equiv_pos_site_id
 _symmetry_equiv_pos_as_xyz
  1  'x, y, z'
loop_
 _atom_site_type_symbol
 _atom_site_label
 _atom_site_symmetry_multiplicity
 _atom_site_fract_x
 _atom_site_fract_y
 _atom_site_fract_z
 _atom_site_occupancy
  Er  Er0  1  0.333333  0.666667  0.000000  1
  Tm  Tm1  1  0.666667  0.333333  0.000000  1
  Nb  Nb2  1  0.821049  0.999983  0.500000  1
  Nb  Nb3  1  0.000017  0.821065  0.500000  1
  Nb  Nb4  1  0.178935  0.178951  0.500000  1
  Nb  Nb5  1  0.445099  0.000047  0.000000  1
  Nb  Nb6  1  0.999953  0.445052  0.000000  1
  Nb  Nb7  1  0.554948  0.554901  0.000000  1
  Co  Co8  1  0.272361  0.999986  0.500000  1
  Co  Co9  1  0.000014  0.272376  0.500000  1
  Co  Co10  1  0.727624  0.727639  0.500000  1
  Co  Co11  1  0.633628  0.810374  0.000000  1
  Co  Co12  1  0.189626  0.823255  0.000000  1
  Co  Co13  1  0.176745  0.366372  0.000000  1
  Co  Co14  1  0.366432  0.176771  0.000000  1
  Co  Co15  1  0.810340  0.633568  0.000000  1
  Co  Co16  1  0.823229  0.189660  0.000000  1
  Co  Co17  1  0.520355  0.874209  0.500000  1
  Co  Co18  1  0.125791  0.646145  0.500000  1
  Co  Co19  1  0.353855  0.479645  0.500000  1
  Co  Co20  1  0.479859  0.353868  0.500000  1
  Co  Co21  1  0.874009  0.520141  0.500000  1
  Co  Co22  1  0.646132  0.125991  0.500000  1
  Co  Co23  1  0.000000  0.000000  0.000000  1
  P  P24  1  0.172972  0.999999  0.000000  1
  P  P25  1  0.000001  0.172973  0.000000  1
  P  P26  1  0.827027  0.827028  0.000000  1
  P  P27  1  0.522641  0.690551  0.500000  1
  P  P28  1  0.309449  0.832089  0.500000  1
  P  P29  1  0.167911  0.477359  0.500000  1
  P  P30  1  0.477654  0.168152  0.500000  1
  P  P31  1  0.690497  0.522346  0.500000  1
  P  P32  1  0.831848  0.309503  0.500000  1
  P  P33  1  0.648125  0.999970  0.000000  1
  P  P34  1  0.000030  0.648155  0.000000  1
  P  P35  1  0.351845  0.351875  0.000000  1
