# generated using pymatgen
data_Th5In2SiBi
_symmetry_space_group_name_H-M   'P 1'
_cell_length_a   9.61318400
_cell_length_b   9.61535646
_cell_length_c   6.54638400
_cell_angle_alpha   90.00000000
_cell_angle_beta   90.00000000
_cell_angle_gamma   120.00747103
_symmetry_Int_Tables_number   1
_chemical_formula_structural   Th5In2SiBi
_chemical_formula_sum   'Th10 In4 Si2 Bi2'
_cell_volume   524.00092374
_cell_formula_units_Z   2
loop_
 _symmetry_equiv_pos_site_id
 _symmetry_equiv_pos_as_xyz
  1  'x, y, z'
loop_
 _atom_site_type_symbol
 _atom_site_label
 _atom_site_symmetry_multiplicity
 _atom_site_fract_x
 _atom_site_fract_y
 _atom_site_fract_z
 _atom_site_occupancy
  Th  Th0  1  0.668917  0.335791  0.001058  1
  Th  Th1  1  0.331083  0.666876  0.001058  1
  Th  Th2  1  0.331083  0.666876  0.498942  1
  Th  Th3  1  0.668917  0.335791  0.498942  1
  Th  Th4  1  0.745191  0.743256  0.750000  1
  Th  Th5  1  0.254809  0.998066  0.750000  1
  Th  Th6  1  0.000000  0.256410  0.750000  1
  Th  Th7  1  0.255595  0.254263  0.250000  1
  Th  Th8  1  0.744405  0.998667  0.250000  1
  Th  Th9  1  0.000000  0.744758  0.250000  1
  In  In10  1  0.000000  0.608520  0.750000  1
  In  In11  1  0.612968  0.612846  0.250000  1
  In  In12  1  0.387032  0.999878  0.250000  1
  In  In13  1  0.000000  0.388712  0.250000  1
  Si  Si14  1  0.000000  0.000081  0.000460  1
  Si  Si15  1  0.000000  0.000081  0.499540  1
  Bi  Bi16  1  0.389350  0.389240  0.750000  1
  Bi  Bi17  1  0.610650  0.999890  0.750000  1
