# generated using pymatgen
data_TaNb3(SiRh)4
_symmetry_space_group_name_H-M   'P 1'
_cell_length_a   3.77786600
_cell_length_b   6.44493796
_cell_length_c   7.36642011
_cell_angle_alpha   90.06271484
_cell_angle_beta   90.00000000
_cell_angle_gamma   90.00000000
_symmetry_Int_Tables_number   1
_chemical_formula_structural   TaNb3(SiRh)4
_chemical_formula_sum   'Ta1 Nb3 Si4 Rh4'
_cell_volume   179.35831435
_cell_formula_units_Z   1
loop_
 _symmetry_equiv_pos_site_id
 _symmetry_equiv_pos_as_xyz
  1  'x, y, z'
loop_
 _atom_site_type_symbol
 _atom_site_label
 _atom_site_symmetry_multiplicity
 _atom_site_fract_x
 _atom_site_fract_y
 _atom_site_fract_z
 _atom_site_occupancy
  Ta  Ta0  1  0.750000  0.973970  0.173609  1
  Nb  Nb1  1  0.250000  0.526269  0.673585  1
  Nb  Nb2  1  0.750000  0.473649  0.326684  1
  Nb  Nb3  1  0.250000  0.025890  0.827181  1
  Si  Si4  1  0.250000  0.267984  0.124170  1
  Si  Si5  1  0.750000  0.731928  0.875166  1
  Si  Si6  1  0.250000  0.767869  0.375921  1
  Si  Si7  1  0.750000  0.231972  0.624893  1
  Rh  Rh8  1  0.750000  0.855268  0.561807  1
  Rh  Rh9  1  0.250000  0.144102  0.435632  1
  Rh  Rh10  1  0.750000  0.354580  0.937956  1
  Rh  Rh11  1  0.250000  0.646519  0.063396  1
