# generated using pymatgen
data_Yb10Cu4AgHg
_symmetry_space_group_name_H-M   'P 1'
_cell_length_a   8.94001462
_cell_length_b   8.94001465
_cell_length_c   8.94001473
_cell_angle_alpha   128.88742151
_cell_angle_beta   128.88742032
_cell_angle_gamma   75.19178989
_symmetry_Int_Tables_number   1
_chemical_formula_structural   Yb10Cu4AgHg
_chemical_formula_sum   'Yb10 Cu4 Ag1 Hg1'
_cell_volume   421.44229689
_cell_formula_units_Z   1
loop_
 _symmetry_equiv_pos_site_id
 _symmetry_equiv_pos_as_xyz
  1  'x, y, z'
loop_
 _atom_site_type_symbol
 _atom_site_label
 _atom_site_symmetry_multiplicity
 _atom_site_fract_x
 _atom_site_fract_y
 _atom_site_fract_z
 _atom_site_occupancy
  Yb  Yb0  1  0.502976  0.502976  0.000000  1
  Yb  Yb1  1  0.997024  0.997024  0.000000  1
  Yb  Yb2  1  0.526495  0.031576  0.835853  1
  Yb  Yb3  1  0.195724  0.690643  0.164147  1
  Yb  Yb4  1  0.031576  0.195724  0.505081  1
  Yb  Yb5  1  0.690643  0.526495  0.494919  1
  Yb  Yb6  1  0.468424  0.973505  0.164147  1
  Yb  Yb7  1  0.809357  0.304276  0.835853  1
  Yb  Yb8  1  0.973505  0.809357  0.505081  1
  Yb  Yb9  1  0.304276  0.468424  0.494919  1
  Cu  Cu10  1  0.117475  0.617475  0.734949  1
  Cu  Cu11  1  0.882525  0.382525  0.265051  1
  Cu  Cu12  1  0.617475  0.882525  0.500000  1
  Cu  Cu13  1  0.382525  0.117475  0.500000  1
  Ag  Ag14  1  0.250000  0.250000  0.000000  1
  Hg  Hg15  1  0.750000  0.750000  0.000000  1
