# generated using pymatgen
data_Y3PaIn2Ir3
_symmetry_space_group_name_H-M   'P 1'
_cell_length_a   7.53389205
_cell_length_b   7.40540330
_cell_length_c   4.17987900
_cell_angle_alpha   90.00000000
_cell_angle_beta   90.00000000
_cell_angle_gamma   119.43742556
_symmetry_Int_Tables_number   1
_chemical_formula_structural   Y3PaIn2Ir3
_chemical_formula_sum   'Y3 Pa1 In2 Ir3'
_cell_volume   203.09377018
_cell_formula_units_Z   1
loop_
 _symmetry_equiv_pos_site_id
 _symmetry_equiv_pos_as_xyz
  1  'x, y, z'
loop_
 _atom_site_type_symbol
 _atom_site_label
 _atom_site_symmetry_multiplicity
 _atom_site_fract_x
 _atom_site_fract_y
 _atom_site_fract_z
 _atom_site_occupancy
  Y  Y0  1  0.000000  0.625747  0.500000  1
  Y  Y1  1  0.433069  0.405379  0.500000  1
  Y  Y2  1  0.566931  0.972309  0.500000  1
  Pa  Pa3  1  0.000000  0.266495  0.000000  1
  In  In4  1  0.258283  0.002803  0.000000  1
  In  In5  1  0.741717  0.744519  0.000000  1
  Ir  Ir6  1  0.315545  0.639311  0.000000  1
  Ir  Ir7  1  0.000000  0.019674  0.500000  1
  Ir  Ir8  1  0.684455  0.323765  0.000000  1
