# generated using pymatgen
data_NdMgTl(P3Pd10)2
_symmetry_space_group_name_H-M   'P 1'
_cell_length_a   8.66902622
_cell_length_b   8.66902614
_cell_length_c   8.66902800
_cell_angle_alpha   60.00000055
_cell_angle_beta   60.00000085
_cell_angle_gamma   59.99999586
_symmetry_Int_Tables_number   1
_chemical_formula_structural   NdMgTl(P3Pd10)2
_chemical_formula_sum   'Nd1 Mg1 Tl1 P6 Pd20'
_cell_volume   460.67646781
_cell_formula_units_Z   1
loop_
 _symmetry_equiv_pos_site_id
 _symmetry_equiv_pos_as_xyz
  1  'x, y, z'
loop_
 _atom_site_type_symbol
 _atom_site_label
 _atom_site_symmetry_multiplicity
 _atom_site_fract_x
 _atom_site_fract_y
 _atom_site_fract_z
 _atom_site_occupancy
  Nd  Nd0  1  0.750000  0.750000  0.750000  1
  Mg  Mg1  1  0.000000  0.000000  0.000000  1
  Tl  Tl2  1  0.250000  0.250000  0.250000  1
  P  P3  1  0.735342  0.264658  0.264658  1
  P  P4  1  0.264658  0.735342  0.735342  1
  P  P5  1  0.264658  0.735342  0.264658  1
  P  P6  1  0.735342  0.264658  0.735342  1
  P  P7  1  0.264658  0.264658  0.735342  1
  P  P8  1  0.735342  0.735342  0.264658  1
  Pd  Pd9  1  0.382430  0.382430  0.382430  1
  Pd  Pd10  1  0.612602  0.612602  0.612602  1
  Pd  Pd11  1  0.382430  0.382430  0.852712  1
  Pd  Pd12  1  0.382430  0.852712  0.382430  1
  Pd  Pd13  1  0.612602  0.612602  0.162193  1
  Pd  Pd14  1  0.612602  0.162193  0.612602  1
  Pd  Pd15  1  0.852712  0.382430  0.382430  1
  Pd  Pd16  1  0.162193  0.612602  0.612602  1
  Pd  Pd17  1  0.344189  0.997776  0.997776  1
  Pd  Pd18  1  0.660259  0.997776  0.997776  1
  Pd  Pd19  1  0.997776  0.344189  0.660259  1
  Pd  Pd20  1  0.997776  0.660259  0.344189  1
  Pd  Pd21  1  0.997776  0.344189  0.997776  1
  Pd  Pd22  1  0.660259  0.997776  0.344189  1
  Pd  Pd23  1  0.997776  0.660259  0.997776  1
  Pd  Pd24  1  0.344189  0.997776  0.660259  1
  Pd  Pd25  1  0.997776  0.997776  0.344189  1
  Pd  Pd26  1  0.997776  0.997776  0.660259  1
  Pd  Pd27  1  0.660259  0.344189  0.997776  1
  Pd  Pd28  1  0.344189  0.660259  0.997776  1
