# generated using pymatgen
data_Ho9Er3(C2I11)2
_symmetry_space_group_name_H-M   'P 1'
_cell_length_a   9.56631491
_cell_length_b   10.83615383
_cell_length_c   15.14973566
_cell_angle_alpha   90.61416057
_cell_angle_beta   104.28442614
_cell_angle_gamma   110.04622553
_symmetry_Int_Tables_number   1
_chemical_formula_structural   Ho9Er3(C2I11)2
_chemical_formula_sum   'Ho9 Er3 C4 I22'
_cell_volume   1421.84243356
_cell_formula_units_Z   1
loop_
 _symmetry_equiv_pos_site_id
 _symmetry_equiv_pos_as_xyz
  1  'x, y, z'
loop_
 _atom_site_type_symbol
 _atom_site_label
 _atom_site_symmetry_multiplicity
 _atom_site_fract_x
 _atom_site_fract_y
 _atom_site_fract_z
 _atom_site_occupancy
  Ho  Ho0  1  0.386449  0.479235  0.119844  1
  Ho  Ho1  1  0.613638  0.520630  0.880294  1
  Ho  Ho2  1  0.427979  0.780391  0.266358  1
  Ho  Ho3  1  0.572073  0.219798  0.733473  1
  Ho  Ho4  1  0.626060  0.583754  0.358634  1
  Ho  Ho5  1  0.373885  0.415971  0.641597  1
  Ho  Ho6  1  0.830836  0.649950  0.201103  1
  Ho  Ho7  1  0.169103  0.350142  0.798768  1
  Ho  Ho8  1  0.629808  0.840962  0.106164  1
  Er  Er9  1  0.369731  0.159640  0.892723  1
  Er  Er10  1  0.859433  0.945157  0.347810  1
  Er  Er11  1  0.140497  0.054800  0.652136  1
  C  C12  1  0.430923  0.344385  0.797400  1
  C  C13  1  0.569099  0.655444  0.202802  1
  C  C14  1  0.314981  0.231426  0.739802  1
  C  C15  1  0.684986  0.768473  0.260245  1
  I  I16  1  0.386994  0.311484  0.272057  1
  I  I17  1  0.613006  0.688395  0.728050  1
  I  I18  1  0.125281  0.557569  0.150316  1
  I  I19  1  0.874775  0.442291  0.849719  1
  I  I20  1  0.626323  0.377452  0.061744  1
  I  I21  1  0.372945  0.621914  0.937953  1
  I  I22  1  0.121100  0.205683  0.482008  1
  I  I23  1  0.878979  0.794325  0.518108  1
  I  I24  1  0.618801  0.033712  0.391102  1
  I  I25  1  0.381240  0.966275  0.608965  1
  I  I26  1  0.124882  0.870427  0.306347  1
  I  I27  1  0.875057  0.129507  0.693725  1
  I  I28  1  0.132541  0.527009  0.653537  1
  I  I29  1  0.867494  0.472993  0.346472  1
  I  I30  1  0.615015  0.366858  0.566643  1
  I  I31  1  0.384985  0.633178  0.433377  1
  I  I32  1  0.142370  0.221046  0.977095  1
  I  I33  1  0.859252  0.778183  0.022582  1
  I  I34  1  0.621782  0.058275  0.896159  1
  I  I35  1  0.376412  0.942139  0.104211  1
  I  I36  1  0.129802  0.894916  0.814067  1
  I  I37  1  0.871482  0.106211  0.186612  1
