# generated using pymatgen
data_RbBa3SbO6
_symmetry_space_group_name_H-M   'P 1'
_cell_length_a   7.44755320
_cell_length_b   7.44755222
_cell_length_c   7.44755214
_cell_angle_alpha   87.96275174
_cell_angle_beta   87.96275804
_cell_angle_gamma   87.96275261
_symmetry_Int_Tables_number   1
_chemical_formula_structural   RbBa3SbO6
_chemical_formula_sum   'Rb2 Ba6 Sb2 O12'
_cell_volume   412.32103200
_cell_formula_units_Z   2
loop_
 _symmetry_equiv_pos_site_id
 _symmetry_equiv_pos_as_xyz
  1  'x, y, z'
loop_
 _atom_site_type_symbol
 _atom_site_label
 _atom_site_symmetry_multiplicity
 _atom_site_fract_x
 _atom_site_fract_y
 _atom_site_fract_z
 _atom_site_occupancy
  Rb  Rb0  1  0.250000  0.250000  0.250000  1
  Rb  Rb1  1  0.750000  0.750000  0.750000  1
  Ba  Ba2  1  0.250000  0.607918  0.892082  1
  Ba  Ba3  1  0.892082  0.250000  0.607918  1
  Ba  Ba4  1  0.607918  0.892082  0.250000  1
  Ba  Ba5  1  0.392082  0.107918  0.750000  1
  Ba  Ba6  1  0.750000  0.392082  0.107918  1
  Ba  Ba7  1  0.107918  0.750000  0.392082  1
  Sb  Sb8  1  0.000000  0.000000  0.000000  1
  Sb  Sb9  1  0.500000  0.500000  0.500000  1
  O  O10  1  0.932274  0.067186  0.261140  1
  O  O11  1  0.261140  0.932274  0.067186  1
  O  O12  1  0.067186  0.261140  0.932274  1
  O  O13  1  0.761140  0.567186  0.432274  1
  O  O14  1  0.432274  0.761140  0.567186  1
  O  O15  1  0.567186  0.432274  0.761140  1
  O  O16  1  0.067726  0.932814  0.738860  1
  O  O17  1  0.738860  0.067726  0.932814  1
  O  O18  1  0.932814  0.738860  0.067726  1
  O  O19  1  0.238860  0.432814  0.567726  1
  O  O20  1  0.567726  0.238860  0.432814  1
  O  O21  1  0.432814  0.567726  0.238860  1
