# generated using pymatgen
data_HoEr2Ga5Pd
_symmetry_space_group_name_H-M   'P 1'
_cell_length_a   6.91361064
_cell_length_b   6.90846955
_cell_length_c   4.29575000
_cell_angle_alpha   90.00000000
_cell_angle_beta   90.00000000
_cell_angle_gamma   119.97541348
_symmetry_Int_Tables_number   1
_chemical_formula_structural   HoEr2Ga5Pd
_chemical_formula_sum   'Ho1 Er2 Ga5 Pd1'
_cell_volume   177.73130856
_cell_formula_units_Z   1
loop_
 _symmetry_equiv_pos_site_id
 _symmetry_equiv_pos_as_xyz
  1  'x, y, z'
loop_
 _atom_site_type_symbol
 _atom_site_label
 _atom_site_symmetry_multiplicity
 _atom_site_fract_x
 _atom_site_fract_y
 _atom_site_fract_z
 _atom_site_occupancy
  Ho  Ho0  1  0.000000  0.584347  0.000000  1
  Er  Er1  1  0.584729  0.999932  0.000000  1
  Er  Er2  1  0.415271  0.415203  0.000000  1
  Ga  Ga3  1  0.242651  0.000145  0.500000  1
  Ga  Ga4  1  0.000000  0.242435  0.500000  1
  Ga  Ga5  1  0.666225  0.333077  0.500000  1
  Ga  Ga6  1  0.333774  0.666850  0.500000  1
  Ga  Ga7  1  0.757349  0.757495  0.500000  1
  Pd  Pd8  1  0.000000  0.000518  0.000000  1
