# generated using pymatgen
data_CaDySi7Ir12
_symmetry_space_group_name_H-M   'P 1'
_cell_length_a   9.76633200
_cell_length_b   9.76633147
_cell_length_c   3.89279000
_cell_angle_alpha   90.00000000
_cell_angle_beta   90.00000000
_cell_angle_gamma   120.00000180
_symmetry_Int_Tables_number   1
_chemical_formula_structural   CaDySi7Ir12
_chemical_formula_sum   'Ca1 Dy1 Si7 Ir12'
_cell_volume   321.55446441
_cell_formula_units_Z   1
loop_
 _symmetry_equiv_pos_site_id
 _symmetry_equiv_pos_as_xyz
  1  'x, y, z'
loop_
 _atom_site_type_symbol
 _atom_site_label
 _atom_site_symmetry_multiplicity
 _atom_site_fract_x
 _atom_site_fract_y
 _atom_site_fract_z
 _atom_site_occupancy
  Ca  Ca0  1  0.666667  0.333333  0.250834  1
  Dy  Dy1  1  0.333333  0.666667  0.749871  1
  Si  Si2  1  0.000000  0.000000  0.499609  1
  Si  Si3  1  0.290014  0.885540  0.248727  1
  Si  Si4  1  0.595526  0.709986  0.248727  1
  Si  Si5  1  0.114460  0.404474  0.248727  1
  Si  Si6  1  0.711361  0.117429  0.751095  1
  Si  Si7  1  0.406067  0.288639  0.751095  1
  Si  Si8  1  0.882571  0.593933  0.751095  1
  Ir  Ir9  1  0.260519  0.116183  0.253975  1
  Ir  Ir10  1  0.855664  0.739481  0.253975  1
  Ir  Ir11  1  0.883817  0.144336  0.253975  1
  Ir  Ir12  1  0.739491  0.885338  0.746148  1
  Ir  Ir13  1  0.145847  0.260509  0.746148  1
  Ir  Ir14  1  0.114662  0.854153  0.746148  1
  Ir  Ir15  1  0.063449  0.619863  0.248828  1
  Ir  Ir16  1  0.556414  0.936551  0.248828  1
  Ir  Ir17  1  0.380137  0.443586  0.248828  1
  Ir  Ir18  1  0.941407  0.383122  0.751122  1
  Ir  Ir19  1  0.441715  0.058593  0.751122  1
  Ir  Ir20  1  0.616878  0.558285  0.751122  1
