# generated using pymatgen
data_Tb2DyErSbRh3O14
_symmetry_space_group_name_H-M   'P 1'
_cell_length_a   7.31158293
_cell_length_b   7.31604321
_cell_length_c   7.31522720
_cell_angle_alpha   59.07618095
_cell_angle_beta   59.12021465
_cell_angle_gamma   59.10299397
_symmetry_Int_Tables_number   1
_chemical_formula_structural   Tb2DyErSbRh3O14
_chemical_formula_sum   'Tb2 Dy1 Er1 Sb1 Rh3 O14'
_cell_volume   271.01605548
_cell_formula_units_Z   1
loop_
 _symmetry_equiv_pos_site_id
 _symmetry_equiv_pos_as_xyz
  1  'x, y, z'
loop_
 _atom_site_type_symbol
 _atom_site_label
 _atom_site_symmetry_multiplicity
 _atom_site_fract_x
 _atom_site_fract_y
 _atom_site_fract_z
 _atom_site_occupancy
  Tb  Tb0  1  0.125000  0.625000  0.125000  1
  Tb  Tb1  1  0.125000  0.125000  0.125000  1
  Dy  Dy2  1  0.125000  0.125000  0.625000  1
  Er  Er3  1  0.625000  0.125000  0.125000  1
  Sb  Sb4  1  0.625000  0.625000  0.625000  1
  Rh  Rh5  1  0.125000  0.625000  0.625000  1
  Rh  Rh6  1  0.625000  0.125000  0.625000  1
  Rh  Rh7  1  0.625000  0.625000  0.125000  1
  O  O8  1  0.289647  0.712189  0.711300  1
  O  O9  1  0.544168  0.963328  0.963408  1
  O  O10  1  0.710697  0.289634  0.712894  1
  O  O11  1  0.286816  0.286541  0.707255  1
  O  O12  1  0.710173  0.713237  0.289594  1
  O  O13  1  0.996677  0.002670  0.000702  1
  O  O14  1  0.286982  0.707710  0.286587  1
  O  O15  1  0.963018  0.542290  0.963413  1
  O  O16  1  0.963184  0.963459  0.542745  1
  O  O17  1  0.539827  0.536763  0.960406  1
  O  O18  1  0.253323  0.247330  0.249298  1
  O  O19  1  0.539303  0.960366  0.537106  1
  O  O20  1  0.705832  0.286672  0.286592  1
  O  O21  1  0.960353  0.537811  0.538700  1
