# generated using pymatgen
data_Ce4B16Mo3W
_symmetry_space_group_name_H-M   'P 1'
_cell_length_a   3.70874000
_cell_length_b   6.06674674
_cell_length_c   11.73443152
_cell_angle_alpha   90.04537303
_cell_angle_beta   90.00000000
_cell_angle_gamma   90.00000000
_symmetry_Int_Tables_number   1
_chemical_formula_structural   Ce4B16Mo3W
_chemical_formula_sum   'Ce4 B16 Mo3 W1'
_cell_volume   264.02446577
_cell_formula_units_Z   1
loop_
 _symmetry_equiv_pos_site_id
 _symmetry_equiv_pos_as_xyz
  1  'x, y, z'
loop_
 _atom_site_type_symbol
 _atom_site_label
 _atom_site_symmetry_multiplicity
 _atom_site_fract_x
 _atom_site_fract_y
 _atom_site_fract_z
 _atom_site_occupancy
  Ce  Ce0  1  0.000000  0.625045  0.349471  1
  Ce  Ce1  1  0.000000  0.374920  0.650821  1
  Ce  Ce2  1  0.000000  0.125145  0.151142  1
  Ce  Ce3  1  0.000000  0.874992  0.848723  1
  B  B4  1  0.500000  0.786317  0.185675  1
  B  B5  1  0.500000  0.213747  0.814767  1
  B  B6  1  0.500000  0.286222  0.314990  1
  B  B7  1  0.500000  0.713845  0.685184  1
  B  B8  1  0.500000  0.864394  0.031721  1
  B  B9  1  0.500000  0.135933  0.967644  1
  B  B10  1  0.500000  0.364258  0.467947  1
  B  B11  1  0.500000  0.635721  0.532124  1
  B  B12  1  0.500000  0.886509  0.453444  1
  B  B13  1  0.500000  0.113509  0.546724  1
  B  B14  1  0.500000  0.386287  0.046332  1
  B  B15  1  0.500000  0.613445  0.953007  1
  B  B16  1  0.500000  0.975100  0.308318  1
  B  B17  1  0.500000  0.024895  0.691904  1
  B  B18  1  0.500000  0.474858  0.192048  1
  B  B19  1  0.500000  0.524860  0.807992  1
  Mo  Mo20  1  0.000000  0.369604  0.914632  1
  Mo  Mo21  1  0.000000  0.130191  0.414989  1
  Mo  Mo22  1  0.000000  0.869744  0.585225  1
  W  W23  1  0.000000  0.630459  0.085177  1
