# generated using pymatgen
data_Dy3MgCd2AgSn2
_symmetry_space_group_name_H-M   'P 1'
_cell_length_a   7.47680110
_cell_length_b   7.44528976
_cell_length_c   4.55266400
_cell_angle_alpha   90.00000000
_cell_angle_beta   90.00000000
_cell_angle_gamma   119.86068503
_symmetry_Int_Tables_number   1
_chemical_formula_structural   Dy3MgCd2AgSn2
_chemical_formula_sum   'Dy3 Mg1 Cd2 Ag1 Sn2'
_cell_volume   219.78681148
_cell_formula_units_Z   1
loop_
 _symmetry_equiv_pos_site_id
 _symmetry_equiv_pos_as_xyz
  1  'x, y, z'
loop_
 _atom_site_type_symbol
 _atom_site_label
 _atom_site_symmetry_multiplicity
 _atom_site_fract_x
 _atom_site_fract_y
 _atom_site_fract_z
 _atom_site_occupancy
  Dy  Dy0  1  0.417438  0.416196  0.500000  1
  Dy  Dy1  1  0.582562  0.998758  0.500000  1
  Dy  Dy2  1  0.000000  0.586271  0.500000  1
  Mg  Mg3  1  0.000000  0.231530  0.000000  1
  Cd  Cd4  1  0.761069  0.762217  0.000000  1
  Cd  Cd5  1  0.238931  0.001148  0.000000  1
  Ag  Ag6  1  0.000000  0.007322  0.500000  1
  Sn  Sn7  1  0.670080  0.333318  0.000000  1
  Sn  Sn8  1  0.329920  0.663240  0.000000  1
