# generated using pymatgen
data_V6PdPt17
_symmetry_space_group_name_H-M   'P 1'
_cell_length_a   5.50570200
_cell_length_b   13.53904002
_cell_length_c   4.83073401
_cell_angle_alpha   89.99447727
_cell_angle_beta   90.00000000
_cell_angle_gamma   89.99997267
_symmetry_Int_Tables_number   1
_chemical_formula_structural   V6PdPt17
_chemical_formula_sum   'V6 Pd1 Pt17'
_cell_volume   360.09218463
_cell_formula_units_Z   1
loop_
 _symmetry_equiv_pos_site_id
 _symmetry_equiv_pos_as_xyz
  1  'x, y, z'
loop_
 _atom_site_type_symbol
 _atom_site_label
 _atom_site_symmetry_multiplicity
 _atom_site_fract_x
 _atom_site_fract_y
 _atom_site_fract_z
 _atom_site_occupancy
  V  V0  1  0.000000  0.335983  0.168572  1
  V  V1  1  0.000000  0.663962  0.168425  1
  V  V2  1  0.500001  0.500114  0.496401  1
  V  V3  1  0.000000  0.999977  0.504860  1
  V  V4  1  0.500001  0.164149  0.828829  1
  V  V5  1  0.500001  0.835826  0.831741  1
  Pd  Pd6  1  0.500002  0.335834  0.167705  1
  Pt  Pt7  1  0.247369  0.000123  0.011501  1
  Pt  Pt8  1  0.752633  0.000123  0.011501  1
  Pt  Pt9  1  0.500000  0.663490  0.167673  1
  Pt  Pt10  1  0.250079  0.168321  0.332545  1
  Pt  Pt11  1  0.749923  0.168321  0.332545  1
  Pt  Pt12  1  0.249838  0.832027  0.331998  1
  Pt  Pt13  1  0.750163  0.832027  0.331998  1
  Pt  Pt14  1  0.000000  0.499501  0.475156  1
  Pt  Pt15  1  0.500001  0.000062  0.524947  1
  Pt  Pt16  1  0.250859  0.332124  0.668025  1
  Pt  Pt17  1  0.749142  0.332124  0.668025  1
  Pt  Pt18  1  0.250321  0.667989  0.667332  1
  Pt  Pt19  1  0.749679  0.667989  0.667332  1
  Pt  Pt20  1  0.000000  0.164276  0.832589  1
  Pt  Pt21  1  0.000000  0.836141  0.832021  1
  Pt  Pt22  1  0.252480  0.499758  0.989141  1
  Pt  Pt23  1  0.747521  0.499758  0.989141  1
