# generated using pymatgen
data_Er8Zr11TiSi16
_symmetry_space_group_name_H-M   'P 1'
_cell_length_a   7.29386410
_cell_length_b   7.29306976
_cell_length_c   13.40778797
_cell_angle_alpha   90.16006020
_cell_angle_beta   89.84384838
_cell_angle_gamma   90.00298186
_symmetry_Int_Tables_number   1
_chemical_formula_structural   Er8Zr11TiSi16
_chemical_formula_sum   'Er8 Zr11 Ti1 Si16'
_cell_volume   713.21728533
_cell_formula_units_Z   1
loop_
 _symmetry_equiv_pos_site_id
 _symmetry_equiv_pos_as_xyz
  1  'x, y, z'
loop_
 _atom_site_type_symbol
 _atom_site_label
 _atom_site_symmetry_multiplicity
 _atom_site_fract_x
 _atom_site_fract_y
 _atom_site_fract_z
 _atom_site_occupancy
  Er  Er0  1  0.344845  0.002872  0.466153  1
  Er  Er1  1  0.497124  0.845568  0.714244  1
  Er  Er2  1  0.503482  0.154546  0.214358  1
  Er  Er3  1  0.846496  0.497747  0.287086  1
  Er  Er4  1  0.153767  0.502805  0.784290  1
  Er  Er5  1  0.655309  0.996091  0.963070  1
  Er  Er6  1  0.003698  0.344953  0.535539  1
  Er  Er7  1  0.997317  0.653946  0.035761  1
  Zr  Zr8  1  0.324739  0.324384  0.999654  1
  Zr  Zr9  1  0.175321  0.825206  0.250959  1
  Zr  Zr10  1  0.827116  0.172970  0.748449  1
  Zr  Zr11  1  0.676382  0.677520  0.501201  1
  Zr  Zr12  1  0.147197  0.003143  0.874700  1
  Zr  Zr13  1  0.496839  0.647224  0.124710  1
  Zr  Zr14  1  0.503265  0.353049  0.625182  1
  Zr  Zr15  1  0.648380  0.497286  0.873659  1
  Zr  Zr16  1  0.351668  0.505052  0.376894  1
  Zr  Zr17  1  0.853032  0.997940  0.374963  1
  Zr  Zr18  1  0.003665  0.147137  0.125081  1
  Ti  Ti19  1  0.990359  0.851863  0.624421  1
  Si  Si20  1  0.202553  0.131316  0.679803  1
  Si  Si21  1  0.359592  0.705401  0.932075  1
  Si  Si22  1  0.639957  0.293826  0.433192  1
  Si  Si23  1  0.706393  0.359160  0.066747  1
  Si  Si24  1  0.287073  0.643057  0.570548  1
  Si  Si25  1  0.794239  0.859039  0.183100  1
  Si  Si26  1  0.141380  0.206739  0.317867  1
  Si  Si27  1  0.861406  0.795503  0.812588  1
  Si  Si28  1  0.297014  0.949097  0.062901  1
  Si  Si29  1  0.550487  0.796970  0.313366  1
  Si  Si30  1  0.449303  0.202987  0.812139  1
  Si  Si31  1  0.799306  0.554253  0.685448  1
  Si  Si32  1  0.203797  0.449811  0.187786  1
  Si  Si33  1  0.708260  0.047557  0.564103  1
  Si  Si34  1  0.949626  0.296465  0.936629  1
  Si  Si35  1  0.049609  0.707521  0.441336  1
