# generated using pymatgen
data_Ho15LuIn4RuRh3
_symmetry_space_group_name_H-M   'P 1'
_cell_length_a   9.59228429
_cell_length_b   9.62427551
_cell_length_c   9.58988700
_cell_angle_alpha   60.11813045
_cell_angle_beta   60.00827035
_cell_angle_gamma   60.10191452
_symmetry_Int_Tables_number   1
_chemical_formula_structural   Ho15LuIn4RuRh3
_chemical_formula_sum   'Ho15 Lu1 In4 Ru1 Rh3'
_cell_volume   627.09887166
_cell_formula_units_Z   1
loop_
 _symmetry_equiv_pos_site_id
 _symmetry_equiv_pos_as_xyz
  1  'x, y, z'
loop_
 _atom_site_type_symbol
 _atom_site_label
 _atom_site_symmetry_multiplicity
 _atom_site_fract_x
 _atom_site_fract_y
 _atom_site_fract_z
 _atom_site_occupancy
  Ho  Ho0  1  0.598611  0.600062  0.204500  1
  Ho  Ho1  1  0.439132  0.056816  0.442371  1
  Ho  Ho2  1  0.440200  0.440764  0.059518  1
  Ho  Ho3  1  0.813224  0.188994  0.811471  1
  Ho  Ho4  1  0.189149  0.814674  0.188238  1
  Ho  Ho5  1  0.439132  0.056816  0.061681  1
  Ho  Ho6  1  0.189149  0.814674  0.807939  1
  Ho  Ho7  1  0.058866  0.439660  0.059322  1
  Ho  Ho8  1  0.809246  0.814256  0.188249  1
  Ho  Ho9  1  0.202650  0.600875  0.598237  1
  Ho  Ho10  1  0.058866  0.439660  0.442152  1
  Ho  Ho11  1  0.061047  0.056565  0.441194  1
  Ho  Ho12  1  0.813224  0.188994  0.186309  1
  Ho  Ho13  1  0.600885  0.200707  0.599204  1
  Ho  Ho14  1  0.598611  0.600062  0.596825  1
  Lu  Lu15  1  0.189510  0.190572  0.809958  1
  In  In16  1  0.832378  0.832532  0.833636  1
  In  In17  1  0.832378  0.832532  0.501456  1
  In  In18  1  0.499883  0.833307  0.833406  1
  In  In19  1  0.832867  0.502210  0.832463  1
  Ru  Ru20  1  0.391022  0.825537  0.391720  1
  Rh  Rh21  1  0.391645  0.389772  0.393244  1
  Rh  Rh22  1  0.826676  0.390186  0.391569  1
  Rh  Rh23  1  0.391645  0.389772  0.825337  1
