# generated using pymatgen
data_Pr11NdGa4(GeRh2)4
_symmetry_space_group_name_H-M   'P 1'
_cell_length_a   5.79108309
_cell_length_b   8.19989313
_cell_length_c   13.53204100
_cell_angle_alpha   90.00000000
_cell_angle_beta   90.00000000
_cell_angle_gamma   89.97986920
_symmetry_Int_Tables_number   1
_chemical_formula_structural   Pr11NdGa4(GeRh2)4
_chemical_formula_sum   'Pr11 Nd1 Ga4 Ge4 Rh8'
_cell_volume   642.58601034
_cell_formula_units_Z   1
loop_
 _symmetry_equiv_pos_site_id
 _symmetry_equiv_pos_as_xyz
  1  'x, y, z'
loop_
 _atom_site_type_symbol
 _atom_site_label
 _atom_site_symmetry_multiplicity
 _atom_site_fract_x
 _atom_site_fract_y
 _atom_site_fract_z
 _atom_site_occupancy
  Pr  Pr0  1  0.639275  0.250505  0.250000  1
  Pr  Pr1  1  0.360725  0.749441  0.750000  1
  Pr  Pr2  1  0.360664  0.750530  0.250000  1
  Pr  Pr3  1  0.150550  0.394820  0.099861  1
  Pr  Pr4  1  0.849378  0.605063  0.900104  1
  Pr  Pr5  1  0.849378  0.605063  0.599896  1
  Pr  Pr6  1  0.849500  0.894873  0.400166  1
  Pr  Pr7  1  0.150550  0.394820  0.400139  1
  Pr  Pr8  1  0.150548  0.105246  0.599926  1
  Pr  Pr9  1  0.150548  0.105246  0.900074  1
  Pr  Pr10  1  0.849500  0.894873  0.099834  1
  Nd  Nd11  1  0.638947  0.249318  0.750000  1
  Ga  Ga12  1  0.638857  0.249997  0.999865  1
  Ga  Ga13  1  0.361208  0.749999  0.999981  1
  Ga  Ga14  1  0.361208  0.749999  0.500019  1
  Ga  Ga15  1  0.638857  0.249997  0.500135  1
  Ge  Ge16  1  0.139821  0.107024  0.250000  1
  Ge  Ge17  1  0.859914  0.893361  0.750000  1
  Ge  Ge18  1  0.860154  0.607056  0.250000  1
  Ge  Ge19  1  0.139869  0.392562  0.750000  1
  Rh  Rh20  1  0.373490  0.030773  0.093834  1
  Rh  Rh21  1  0.626534  0.969528  0.906034  1
  Rh  Rh22  1  0.626534  0.969528  0.593966  1
  Rh  Rh23  1  0.626546  0.530779  0.406187  1
  Rh  Rh24  1  0.373490  0.030773  0.406166  1
  Rh  Rh25  1  0.373705  0.469024  0.593966  1
  Rh  Rh26  1  0.373705  0.469024  0.906034  1
  Rh  Rh27  1  0.626546  0.530779  0.093813  1
