# generated using pymatgen
data_Er2B4Mo2Ru3
_symmetry_space_group_name_H-M   'P 1'
_cell_length_a   3.10284400
_cell_length_b   8.89051103
_cell_length_c   10.17404900
_cell_angle_alpha   89.99666195
_cell_angle_beta   90.00000000
_cell_angle_gamma   90.00000000
_symmetry_Int_Tables_number   1
_chemical_formula_structural   Er2B4Mo2Ru3
_chemical_formula_sum   'Er4 B8 Mo4 Ru6'
_cell_volume   280.65998038
_cell_formula_units_Z   2
loop_
 _symmetry_equiv_pos_site_id
 _symmetry_equiv_pos_as_xyz
  1  'x, y, z'
loop_
 _atom_site_type_symbol
 _atom_site_label
 _atom_site_symmetry_multiplicity
 _atom_site_fract_x
 _atom_site_fract_y
 _atom_site_fract_z
 _atom_site_occupancy
  Er  Er0  1  0.500000  0.838198  0.181466  1
  Er  Er1  1  0.500000  0.161802  0.818534  1
  Er  Er2  1  0.500000  0.661702  0.681551  1
  Er  Er3  1  0.500000  0.338298  0.318449  1
  B  B4  1  0.500000  0.967542  0.585647  1
  B  B5  1  0.500000  0.032458  0.414353  1
  B  B6  1  0.500000  0.853406  0.899582  1
  B  B7  1  0.500000  0.146594  0.100418  1
  B  B8  1  0.500000  0.646565  0.399575  1
  B  B9  1  0.500000  0.353435  0.600425  1
  B  B10  1  0.500000  0.467586  0.914355  1
  B  B11  1  0.500000  0.532414  0.085645  1
  Mo  Mo12  1  0.000000  0.660972  0.953561  1
  Mo  Mo13  1  0.000000  0.339028  0.046439  1
  Mo  Mo14  1  0.000000  0.838988  0.453514  1
  Mo  Mo15  1  0.000000  0.161012  0.546486  1
  Ru  Ru16  1  0.000000  0.000000  0.000000  1
  Ru  Ru17  1  0.000000  0.409664  0.760601  1
  Ru  Ru18  1  0.000000  0.590336  0.239399  1
  Ru  Ru19  1  0.000000  0.500000  0.500000  1
  Ru  Ru20  1  0.000000  0.909680  0.739403  1
  Ru  Ru21  1  0.000000  0.090320  0.260597  1
