# generated using pymatgen
data_Nd6Dy7Y3(CdIr)4
_symmetry_space_group_name_H-M   'P 1'
_cell_length_a   9.75422383
_cell_length_b   9.75264084
_cell_length_c   9.76513896
_cell_angle_alpha   59.96833107
_cell_angle_beta   60.05014165
_cell_angle_gamma   60.07942827
_symmetry_Int_Tables_number   1
_chemical_formula_structural   Nd6Dy7Y3(CdIr)4
_chemical_formula_sum   'Nd6 Dy7 Y3 Cd4 Ir4'
_cell_volume   657.35299474
_cell_formula_units_Z   1
loop_
 _symmetry_equiv_pos_site_id
 _symmetry_equiv_pos_as_xyz
  1  'x, y, z'
loop_
 _atom_site_type_symbol
 _atom_site_label
 _atom_site_symmetry_multiplicity
 _atom_site_fract_x
 _atom_site_fract_y
 _atom_site_fract_z
 _atom_site_occupancy
  Nd  Nd0  1  0.940702  0.559659  0.559083  1
  Nd  Nd1  1  0.559083  0.940556  0.940702  1
  Nd  Nd2  1  0.559495  0.940505  0.559495  1
  Nd  Nd3  1  0.940837  0.559163  0.940837  1
  Nd  Nd4  1  0.558862  0.559493  0.940923  1
  Nd  Nd5  1  0.940923  0.940722  0.558862  1
  Dy  Dy6  1  0.347668  0.347367  0.347828  1
  Dy  Dy7  1  0.348012  0.347497  0.956810  1
  Dy  Dy8  1  0.347828  0.957138  0.347668  1
  Dy  Dy9  1  0.956810  0.347682  0.348012  1
  Dy  Dy10  1  0.811475  0.188542  0.187827  1
  Dy  Dy11  1  0.187827  0.812156  0.811475  1
  Dy  Dy12  1  0.188209  0.811791  0.188209  1
  Y  Y13  1  0.811588  0.188412  0.811588  1
  Y  Y14  1  0.188026  0.188810  0.811244  1
  Y  Y15  1  0.811244  0.811920  0.188026  1
  Cd  Cd16  1  0.579685  0.579539  0.579559  1
  Cd  Cd17  1  0.579734  0.579704  0.260966  1
  Cd  Cd18  1  0.579559  0.261216  0.579685  1
  Cd  Cd19  1  0.260966  0.579595  0.579734  1
  Ir  Ir20  1  0.141256  0.140554  0.142575  1
  Ir  Ir21  1  0.142485  0.140546  0.575152  1
  Ir  Ir22  1  0.142575  0.575615  0.141256  1
  Ir  Ir23  1  0.575152  0.141817  0.142485  1
