# generated using pymatgen
data_La8Pr8Cd4Ir3Pt
_symmetry_space_group_name_H-M   'P 1'
_cell_length_a   10.07471636
_cell_length_b   10.07471597
_cell_length_c   10.10343110
_cell_angle_alpha   60.05354395
_cell_angle_beta   60.05354721
_cell_angle_gamma   60.42888686
_symmetry_Int_Tables_number   1
_chemical_formula_structural   La8Pr8Cd4Ir3Pt
_chemical_formula_sum   'La8 Pr8 Cd4 Ir3 Pt1'
_cell_volume   728.04927717
_cell_formula_units_Z   1
loop_
 _symmetry_equiv_pos_site_id
 _symmetry_equiv_pos_as_xyz
  1  'x, y, z'
loop_
 _atom_site_type_symbol
 _atom_site_label
 _atom_site_symmetry_multiplicity
 _atom_site_fract_x
 _atom_site_fract_y
 _atom_site_fract_z
 _atom_site_occupancy
  La  La0  1  0.345806  0.345806  0.347526  1
  La  La1  1  0.350805  0.350805  0.953218  1
  La  La2  1  0.351899  0.953747  0.350414  1
  La  La3  1  0.953747  0.351899  0.350414  1
  La  La4  1  0.805450  0.190027  0.190209  1
  La  La5  1  0.188638  0.809734  0.809762  1
  La  La6  1  0.190027  0.805450  0.190209  1
  La  La7  1  0.809734  0.188638  0.809762  1
  Pr  Pr8  1  0.191804  0.191804  0.805208  1
  Pr  Pr9  1  0.807670  0.807670  0.190770  1
  Pr  Pr10  1  0.939164  0.562946  0.563204  1
  Pr  Pr11  1  0.562532  0.937612  0.937589  1
  Pr  Pr12  1  0.562946  0.939164  0.563204  1
  Pr  Pr13  1  0.937612  0.562532  0.937589  1
  Pr  Pr14  1  0.562605  0.562605  0.939801  1
  Pr  Pr15  1  0.938086  0.938086  0.562378  1
  Cd  Cd16  1  0.580643  0.580643  0.579462  1
  Cd  Cd17  1  0.580565  0.580565  0.259276  1
  Cd  Cd18  1  0.579663  0.259240  0.580495  1
  Cd  Cd19  1  0.259240  0.579663  0.580495  1
  Ir  Ir20  1  0.140258  0.140258  0.574627  1
  Ir  Ir21  1  0.144572  0.575030  0.140191  1
  Ir  Ir22  1  0.575030  0.144572  0.140191  1
  Pt  Pt23  1  0.141505  0.141505  0.144006  1
