# generated using pymatgen
data_NaPa2InI12
_symmetry_space_group_name_H-M   'P 1'
_cell_length_a   8.05409369
_cell_length_b   8.05409384
_cell_length_c   14.94261500
_cell_angle_alpha   83.92570365
_cell_angle_beta   83.92569639
_cell_angle_gamma   119.82911131
_symmetry_Int_Tables_number   1
_chemical_formula_structural   NaPa2InI12
_chemical_formula_sum   'Na1 Pa2 In1 I12'
_cell_volume   821.93545230
_cell_formula_units_Z   1
loop_
 _symmetry_equiv_pos_site_id
 _symmetry_equiv_pos_as_xyz
  1  'x, y, z'
loop_
 _atom_site_type_symbol
 _atom_site_label
 _atom_site_symmetry_multiplicity
 _atom_site_fract_x
 _atom_site_fract_y
 _atom_site_fract_z
 _atom_site_occupancy
  Na  Na0  1  0.915528  0.084472  0.750000  1
  Pa  Pa1  1  0.418971  0.581029  0.250000  1
  Pa  Pa2  1  0.580973  0.419027  0.750000  1
  In  In3  1  0.084770  0.915230  0.250000  1
  I  I4  1  0.323117  0.462162  0.634217  1
  I  I5  1  0.461759  0.324762  0.134379  1
  I  I6  1  0.235157  0.074205  0.868203  1
  I  I7  1  0.076171  0.236011  0.368122  1
  I  I8  1  0.169122  0.631847  0.131804  1
  I  I9  1  0.630660  0.167243  0.631860  1
  I  I10  1  0.368153  0.830878  0.368196  1
  I  I11  1  0.832757  0.369340  0.868140  1
  I  I12  1  0.763989  0.923829  0.131878  1
  I  I13  1  0.925795  0.764843  0.631797  1
  I  I14  1  0.537838  0.676883  0.865783  1
  I  I15  1  0.675238  0.538241  0.365621  1
