# generated using pymatgen
data_PrHo7Sc12Ga5Si11
_symmetry_space_group_name_H-M   'P 1'
_cell_length_a   7.15661542
_cell_length_b   7.42242934
_cell_length_c   14.19777044
_cell_angle_alpha   90.10037561
_cell_angle_beta   90.15491263
_cell_angle_gamma   90.09945145
_symmetry_Int_Tables_number   1
_chemical_formula_structural   PrHo7Sc12Ga5Si11
_chemical_formula_sum   'Pr1 Ho7 Sc12 Ga5 Si11'
_cell_volume   754.17301693
_cell_formula_units_Z   1
loop_
 _symmetry_equiv_pos_site_id
 _symmetry_equiv_pos_as_xyz
  1  'x, y, z'
loop_
 _atom_site_type_symbol
 _atom_site_label
 _atom_site_symmetry_multiplicity
 _atom_site_fract_x
 _atom_site_fract_y
 _atom_site_fract_z
 _atom_site_occupancy
  Pr  Pr0  1  0.009988  0.172717  0.097877  1
  Ho  Ho1  1  0.012217  0.174849  0.400503  1
  Ho  Ho2  1  0.512591  0.325272  0.402490  1
  Ho  Ho3  1  0.491500  0.676620  0.898299  1
  Ho  Ho4  1  0.488283  0.677951  0.598559  1
  Ho  Ho5  1  0.988547  0.822934  0.598357  1
  Ho  Ho6  1  0.987900  0.827583  0.898122  1
  Ho  Ho7  1  0.511084  0.324993  0.099740  1
  Sc  Sc8  1  0.329378  0.172415  0.625817  1
  Sc  Sc9  1  0.669771  0.823065  0.375557  1
  Sc  Sc10  1  0.664055  0.998884  0.751008  1
  Sc  Sc11  1  0.170906  0.675539  0.375484  1
  Sc  Sc12  1  0.827047  0.326138  0.872832  1
  Sc  Sc13  1  0.829465  0.327124  0.625605  1
  Sc  Sc14  1  0.835859  0.499374  0.252589  1
  Sc  Sc15  1  0.336730  0.999207  0.253263  1
  Sc  Sc16  1  0.332546  0.174833  0.871641  1
  Sc  Sc17  1  0.169929  0.671689  0.127774  1
  Sc  Sc18  1  0.667190  0.826300  0.127811  1
  Sc  Sc19  1  0.163425  0.500926  0.750121  1
  Ga  Ga20  1  0.159844  0.460999  0.538772  1
  Ga  Ga21  1  0.838190  0.544227  0.036956  1
  Ga  Ga22  1  0.343839  0.957045  0.036549  1
  Ga  Ga23  1  0.162187  0.465539  0.958333  1
  Ga  Ga24  1  0.659680  0.038396  0.538821  1
  Si  Si25  1  0.286000  0.872367  0.748828  1
  Si  Si26  1  0.467359  0.615072  0.252162  1
  Si  Si27  1  0.032143  0.116058  0.748691  1
  Si  Si28  1  0.532304  0.386504  0.748281  1
  Si  Si29  1  0.966095  0.880498  0.252726  1
  Si  Si30  1  0.709272  0.126893  0.253492  1
  Si  Si31  1  0.342398  0.963966  0.460953  1
  Si  Si32  1  0.843380  0.535684  0.460884  1
  Si  Si33  1  0.787014  0.628717  0.748465  1
  Si  Si34  1  0.216035  0.373552  0.253121  1
  Si  Si35  1  0.655851  0.036070  0.959517  1
