# generated using pymatgen
data_TiP6PbO18
_symmetry_space_group_name_H-M   'P 1'
_cell_length_a   6.91434200
_cell_length_b   6.91434265
_cell_length_c   10.57361200
_cell_angle_alpha   90.00000000
_cell_angle_beta   90.00000000
_cell_angle_gamma   120.00000644
_symmetry_Int_Tables_number   1
_chemical_formula_structural   TiP6PbO18
_chemical_formula_sum   'Ti1 P6 Pb1 O18'
_cell_volume   437.77980999
_cell_formula_units_Z   1
loop_
 _symmetry_equiv_pos_site_id
 _symmetry_equiv_pos_as_xyz
  1  'x, y, z'
loop_
 _atom_site_type_symbol
 _atom_site_label
 _atom_site_symmetry_multiplicity
 _atom_site_fract_x
 _atom_site_fract_y
 _atom_site_fract_z
 _atom_site_occupancy
  Ti  Ti0  1  0.000000  0.000000  0.000000  1
  P  P1  1  0.732651  0.127520  0.784396  1
  P  P2  1  0.872480  0.267349  0.215604  1
  P  P3  1  0.732651  0.605130  0.215604  1
  P  P4  1  0.872480  0.605130  0.784396  1
  P  P5  1  0.394870  0.267349  0.784396  1
  P  P6  1  0.394870  0.127520  0.215604  1
  Pb  Pb7  1  0.000000  0.000000  0.500000  1
  O  O8  1  0.899731  0.509247  0.188821  1
  O  O9  1  0.899731  0.390484  0.811179  1
  O  O10  1  0.490753  0.100269  0.811179  1
  O  O11  1  0.609516  0.100269  0.188821  1
  O  O12  1  0.750387  0.060116  0.653947  1
  O  O13  1  0.771124  0.006537  0.893628  1
  O  O14  1  0.490753  0.390484  0.188821  1
  O  O15  1  0.750387  0.690272  0.346053  1
  O  O16  1  0.771124  0.764588  0.106372  1
  O  O17  1  0.609516  0.509247  0.811179  1
  O  O18  1  0.939884  0.249613  0.346053  1
  O  O19  1  0.993463  0.228876  0.106372  1
  O  O20  1  0.235412  0.228876  0.893628  1
  O  O21  1  0.309728  0.249613  0.653947  1
  O  O22  1  0.993463  0.764588  0.893628  1
  O  O23  1  0.939884  0.690272  0.653947  1
  O  O24  1  0.235412  0.006537  0.106372  1
  O  O25  1  0.309728  0.060116  0.346053  1
