# generated using pymatgen
data_KGa2PSe6
_symmetry_space_group_name_H-M   'P 1'
_cell_length_a   6.59449474
_cell_length_b   6.71268549
_cell_length_c   6.90164307
_cell_angle_alpha   98.92565899
_cell_angle_beta   104.57834610
_cell_angle_gamma   97.12375839
_symmetry_Int_Tables_number   1
_chemical_formula_structural   KGa2PSe6
_chemical_formula_sum   'K1 Ga2 P1 Se6'
_cell_volume   287.81695445
_cell_formula_units_Z   1
loop_
 _symmetry_equiv_pos_site_id
 _symmetry_equiv_pos_as_xyz
  1  'x, y, z'
loop_
 _atom_site_type_symbol
 _atom_site_label
 _atom_site_symmetry_multiplicity
 _atom_site_fract_x
 _atom_site_fract_y
 _atom_site_fract_z
 _atom_site_occupancy
  K  K0  1  0.988854  0.980615  0.965774  1
  Ga  Ga1  1  0.549617  0.373284  0.798600  1
  Ga  Ga2  1  0.792945  0.520221  0.394947  1
  P  P3  1  0.373913  0.807175  0.531689  1
  Se  Se4  1  0.669313  0.856859  0.429087  1
  Se  Se5  1  0.423736  0.710647  0.834521  1
  Se  Se6  1  0.884489  0.424161  0.723334  1
  Se  Se7  1  0.118112  0.598937  0.276653  1
  Se  Se8  1  0.250345  0.104805  0.561847  1
  Se  Se9  1  0.580988  0.255706  0.115858  1
