# generated using pymatgen
data_Tb4FeOs2Ru5
_symmetry_space_group_name_H-M   'P 1'
_cell_length_a   5.26740671
_cell_length_b   5.16268512
_cell_length_c   8.96845000
_cell_angle_alpha   90.00000000
_cell_angle_beta   90.00000000
_cell_angle_gamma   118.14241933
_symmetry_Int_Tables_number   1
_chemical_formula_structural   Tb4FeOs2Ru5
_chemical_formula_sum   'Tb4 Fe1 Os2 Ru5'
_cell_volume   215.05477748
_cell_formula_units_Z   1
loop_
 _symmetry_equiv_pos_site_id
 _symmetry_equiv_pos_as_xyz
  1  'x, y, z'
loop_
 _atom_site_type_symbol
 _atom_site_label
 _atom_site_symmetry_multiplicity
 _atom_site_fract_x
 _atom_site_fract_y
 _atom_site_fract_z
 _atom_site_occupancy
  Tb  Tb0  1  0.330382  0.666204  0.435480  1
  Tb  Tb1  1  0.667807  0.333000  0.567619  1
  Tb  Tb2  1  0.667807  0.333000  0.932381  1
  Tb  Tb3  1  0.330382  0.666204  0.064520  1
  Fe  Fe4  1  0.163771  0.836968  0.750000  1
  Os  Os5  1  0.836381  0.167068  0.250000  1
  Os  Os6  1  0.832807  0.658029  0.250000  1
  Ru  Ru7  1  0.996048  0.994924  0.501699  1
  Ru  Ru8  1  0.996048  0.994924  0.998301  1
  Ru  Ru9  1  0.349790  0.173908  0.250000  1
  Ru  Ru10  1  0.173210  0.347954  0.750000  1
  Ru  Ru11  1  0.655568  0.827816  0.750000  1
