# generated using pymatgen
data_Zr2Be4Ru5
_symmetry_space_group_name_H-M   'P 1'
_cell_length_a   3.22161800
_cell_length_b   8.68562654
_cell_length_c   10.17198711
_cell_angle_alpha   90.02857275
_cell_angle_beta   90.00000000
_cell_angle_gamma   90.00000000
_symmetry_Int_Tables_number   1
_chemical_formula_structural   Zr2Be4Ru5
_chemical_formula_sum   'Zr4 Be8 Ru10'
_cell_volume   284.63017647
_cell_formula_units_Z   2
loop_
 _symmetry_equiv_pos_site_id
 _symmetry_equiv_pos_as_xyz
  1  'x, y, z'
loop_
 _atom_site_type_symbol
 _atom_site_label
 _atom_site_symmetry_multiplicity
 _atom_site_fract_x
 _atom_site_fract_y
 _atom_site_fract_z
 _atom_site_occupancy
  Zr  Zr0  1  0.500000  0.841241  0.181250  1
  Zr  Zr1  1  0.500000  0.158759  0.818750  1
  Zr  Zr2  1  0.500000  0.658866  0.681258  1
  Zr  Zr3  1  0.500000  0.341134  0.318742  1
  Be  Be4  1  0.500000  0.965724  0.594550  1
  Be  Be5  1  0.500000  0.034276  0.405450  1
  Be  Be6  1  0.500000  0.842460  0.904620  1
  Be  Be7  1  0.500000  0.157540  0.095380  1
  Be  Be8  1  0.500000  0.657432  0.404579  1
  Be  Be9  1  0.500000  0.342568  0.595421  1
  Be  Be10  1  0.500000  0.465696  0.905469  1
  Be  Be11  1  0.500000  0.534304  0.094531  1
  Ru  Ru12  1  0.000000  0.659156  0.954102  1
  Ru  Ru13  1  0.000000  0.340844  0.045898  1
  Ru  Ru14  1  0.000000  0.840764  0.454216  1
  Ru  Ru15  1  0.000000  0.159236  0.545784  1
  Ru  Ru16  1  0.000000  0.000000  0.000000  1
  Ru  Ru17  1  0.000000  0.402315  0.757517  1
  Ru  Ru18  1  0.000000  0.597685  0.242483  1
  Ru  Ru19  1  0.000000  0.500000  0.500000  1
  Ru  Ru20  1  0.000000  0.902343  0.742510  1
  Ru  Ru21  1  0.000000  0.097657  0.257490  1
