# generated using pymatgen
data_Sr7Yb5(ErSn2)8
_symmetry_space_group_name_H-M   'P 1'
_cell_length_a   8.00567942
_cell_length_b   8.52618407
_cell_length_c   16.24440013
_cell_angle_alpha   90.01471121
_cell_angle_beta   89.89383918
_cell_angle_gamma   89.99998761
_symmetry_Int_Tables_number   1
_chemical_formula_structural   Sr7Yb5(ErSn2)8
_chemical_formula_sum   'Sr7 Yb5 Er8 Sn16'
_cell_volume   1108.80664080
_cell_formula_units_Z   1
loop_
 _symmetry_equiv_pos_site_id
 _symmetry_equiv_pos_as_xyz
  1  'x, y, z'
loop_
 _atom_site_type_symbol
 _atom_site_label
 _atom_site_symmetry_multiplicity
 _atom_site_fract_x
 _atom_site_fract_y
 _atom_site_fract_z
 _atom_site_occupancy
  Sr  Sr0  1  0.503572  0.681562  0.594457  1
  Sr  Sr1  1  0.004074  0.819759  0.905458  1
  Sr  Sr2  1  0.496367  0.319596  0.094226  1
  Sr  Sr3  1  0.995204  0.180243  0.407552  1
  Sr  Sr4  1  0.494531  0.319648  0.407023  1
  Sr  Sr5  1  0.996037  0.180554  0.094010  1
  Sr  Sr6  1  0.503910  0.680677  0.904567  1
  Yb  Yb7  1  0.004612  0.812621  0.594846  1
  Yb  Yb8  1  0.834065  0.508507  0.749179  1
  Yb  Yb9  1  0.334323  0.990618  0.748773  1
  Yb  Yb10  1  0.166241  0.492382  0.250520  1
  Yb  Yb11  1  0.666253  0.008415  0.250408  1
  Er  Er12  1  0.673230  0.167001  0.621837  1
  Er  Er13  1  0.171787  0.332084  0.876648  1
  Er  Er14  1  0.328811  0.831776  0.122234  1
  Er  Er15  1  0.829184  0.669910  0.378597  1
  Er  Er16  1  0.327553  0.832334  0.378200  1
  Er  Er17  1  0.828395  0.668087  0.122468  1
  Er  Er18  1  0.672424  0.167327  0.876573  1
  Er  Er19  1  0.171112  0.332376  0.622332  1
  Sn  Sn20  1  0.663960  0.959361  0.461141  1
  Sn  Sn21  1  0.164004  0.540437  0.040374  1
  Sn  Sn22  1  0.336360  0.040893  0.958785  1
  Sn  Sn23  1  0.836182  0.463672  0.542314  1
  Sn  Sn24  1  0.330248  0.036217  0.542396  1
  Sn  Sn25  1  0.835909  0.459037  0.958704  1
  Sn  Sn26  1  0.664198  0.959306  0.040043  1
  Sn  Sn27  1  0.162988  0.544696  0.461196  1
  Sn  Sn28  1  0.468545  0.368320  0.749214  1
  Sn  Sn29  1  0.969839  0.131090  0.748708  1
  Sn  Sn30  1  0.532342  0.632804  0.250343  1
  Sn  Sn31  1  0.031748  0.868245  0.250118  1
  Sn  Sn32  1  0.718467  0.881885  0.747486  1
  Sn  Sn33  1  0.211797  0.617917  0.748249  1
  Sn  Sn34  1  0.285704  0.116652  0.250312  1
  Sn  Sn35  1  0.786025  0.383992  0.250709  1
