# generated using pymatgen
data_TbEr3CdIr
_symmetry_space_group_name_H-M   'P 1'
_cell_length_a   9.57993159
_cell_length_b   9.57378482
_cell_length_c   9.57378497
_cell_angle_alpha   60.04248523
_cell_angle_beta   59.97875760
_cell_angle_gamma   59.97875898
_symmetry_Int_Tables_number   1
_chemical_formula_structural   TbEr3CdIr
_chemical_formula_sum   'Tb4 Er12 Cd4 Ir4'
_cell_volume   620.88960459
_cell_formula_units_Z   4
loop_
 _symmetry_equiv_pos_site_id
 _symmetry_equiv_pos_as_xyz
  1  'x, y, z'
loop_
 _atom_site_type_symbol
 _atom_site_label
 _atom_site_symmetry_multiplicity
 _atom_site_fract_x
 _atom_site_fract_y
 _atom_site_fract_z
 _atom_site_occupancy
  Tb  Tb0  1  0.811888  0.188112  0.811888  1
  Tb  Tb1  1  0.188112  0.811888  0.188112  1
  Tb  Tb2  1  0.811888  0.811888  0.188112  1
  Tb  Tb3  1  0.188112  0.188112  0.811888  1
  Er  Er4  1  0.598742  0.598789  0.598789  1
  Er  Er5  1  0.598789  0.598742  0.203681  1
  Er  Er6  1  0.598789  0.203681  0.598742  1
  Er  Er7  1  0.203681  0.598789  0.598789  1
  Er  Er8  1  0.061271  0.438729  0.438729  1
  Er  Er9  1  0.438729  0.061271  0.061271  1
  Er  Er10  1  0.438993  0.061007  0.438993  1
  Er  Er11  1  0.061007  0.438993  0.061007  1
  Er  Er12  1  0.438993  0.438993  0.061007  1
  Er  Er13  1  0.061007  0.061007  0.438993  1
  Er  Er14  1  0.189100  0.810900  0.810900  1
  Er  Er15  1  0.810900  0.189100  0.189100  1
  Cd  Cd16  1  0.831163  0.830844  0.830844  1
  Cd  Cd17  1  0.830844  0.831163  0.507150  1
  Cd  Cd18  1  0.830844  0.507150  0.831163  1
  Cd  Cd19  1  0.507150  0.830844  0.830844  1
  Ir  Ir20  1  0.392396  0.391361  0.391361  1
  Ir  Ir21  1  0.391361  0.392396  0.824883  1
  Ir  Ir22  1  0.391361  0.824883  0.392396  1
  Ir  Ir23  1  0.824883  0.391361  0.391361  1
