# generated using pymatgen
data_Lu4ThSb3
_symmetry_space_group_name_H-M   'P 1'
_cell_length_a   7.99870600
_cell_length_b   9.19970600
_cell_length_c   11.63904200
_cell_angle_alpha   90.00000000
_cell_angle_beta   90.00000000
_cell_angle_gamma   90.00000000
_symmetry_Int_Tables_number   1
_chemical_formula_structural   Lu4ThSb3
_chemical_formula_sum   'Lu16 Th4 Sb12'
_cell_volume   856.46756013
_cell_formula_units_Z   4
loop_
 _symmetry_equiv_pos_site_id
 _symmetry_equiv_pos_as_xyz
  1  'x, y, z'
loop_
 _atom_site_type_symbol
 _atom_site_label
 _atom_site_symmetry_multiplicity
 _atom_site_fract_x
 _atom_site_fract_y
 _atom_site_fract_z
 _atom_site_occupancy
  Lu  Lu0  1  0.192434  0.560911  0.438944  1
  Lu  Lu1  1  0.692434  0.939089  0.061056  1
  Lu  Lu2  1  0.807566  0.060911  0.561056  1
  Lu  Lu3  1  0.307566  0.439089  0.938944  1
  Lu  Lu4  1  0.807566  0.439089  0.561056  1
  Lu  Lu5  1  0.307566  0.060911  0.938944  1
  Lu  Lu6  1  0.192434  0.939089  0.438944  1
  Lu  Lu7  1  0.692434  0.560911  0.061056  1
  Lu  Lu8  1  0.853218  0.750000  0.281851  1
  Lu  Lu9  1  0.353218  0.750000  0.218149  1
  Lu  Lu10  1  0.146782  0.250000  0.718149  1
  Lu  Lu11  1  0.646782  0.250000  0.781851  1
  Lu  Lu12  1  0.021697  0.750000  0.986102  1
  Lu  Lu13  1  0.521697  0.750000  0.513898  1
  Lu  Lu14  1  0.978303  0.250000  0.013898  1
  Lu  Lu15  1  0.478303  0.250000  0.486102  1
  Th  Th16  1  0.181774  0.750000  0.722611  1
  Th  Th17  1  0.681774  0.750000  0.777389  1
  Th  Th18  1  0.818226  0.250000  0.277389  1
  Th  Th19  1  0.318226  0.250000  0.222611  1
  Sb  Sb20  1  0.932452  0.487429  0.829293  1
  Sb  Sb21  1  0.432452  0.012571  0.670707  1
  Sb  Sb22  1  0.067548  0.987429  0.170707  1
  Sb  Sb23  1  0.567548  0.512571  0.329293  1
  Sb  Sb24  1  0.067548  0.512571  0.170707  1
  Sb  Sb25  1  0.567548  0.987429  0.329293  1
  Sb  Sb26  1  0.932452  0.012571  0.829293  1
  Sb  Sb27  1  0.432452  0.487429  0.670707  1
  Sb  Sb28  1  0.904498  0.750000  0.534079  1
  Sb  Sb29  1  0.404498  0.750000  0.965921  1
  Sb  Sb30  1  0.095502  0.250000  0.465921  1
  Sb  Sb31  1  0.595502  0.250000  0.034079  1
