# generated using pymatgen
data_ErZr(NiP)3
_symmetry_space_group_name_H-M   'P 1'
_cell_length_a   3.71569300
_cell_length_b   10.12850200
_cell_length_c   12.34782800
_cell_angle_alpha   90.00000000
_cell_angle_beta   90.00000000
_cell_angle_gamma   90.00000000
_symmetry_Int_Tables_number   1
_chemical_formula_structural   ErZr(NiP)3
_chemical_formula_sum   'Er4 Zr4 Ni12 P12'
_cell_volume   464.70314725
_cell_formula_units_Z   4
loop_
 _symmetry_equiv_pos_site_id
 _symmetry_equiv_pos_as_xyz
  1  'x, y, z'
loop_
 _atom_site_type_symbol
 _atom_site_label
 _atom_site_symmetry_multiplicity
 _atom_site_fract_x
 _atom_site_fract_y
 _atom_site_fract_z
 _atom_site_occupancy
  Er  Er0  1  0.250000  0.071532  0.208058  1
  Er  Er1  1  0.750000  0.928468  0.791942  1
  Er  Er2  1  0.750000  0.571532  0.291942  1
  Er  Er3  1  0.250000  0.428468  0.708058  1
  Zr  Zr4  1  0.250000  0.160153  0.496900  1
  Zr  Zr5  1  0.750000  0.839847  0.503100  1
  Zr  Zr6  1  0.750000  0.660153  0.003100  1
  Zr  Zr7  1  0.250000  0.339847  0.996900  1
  Ni  Ni8  1  0.250000  0.727355  0.665028  1
  Ni  Ni9  1  0.750000  0.272645  0.334972  1
  Ni  Ni10  1  0.750000  0.227355  0.834972  1
  Ni  Ni11  1  0.250000  0.772645  0.165028  1
  Ni  Ni12  1  0.250000  0.365043  0.218744  1
  Ni  Ni13  1  0.750000  0.634957  0.781256  1
  Ni  Ni14  1  0.750000  0.865043  0.281256  1
  Ni  Ni15  1  0.250000  0.134957  0.718744  1
  Ni  Ni16  1  0.250000  0.595777  0.483239  1
  Ni  Ni17  1  0.750000  0.404223  0.516761  1
  Ni  Ni18  1  0.750000  0.095777  0.016761  1
  Ni  Ni19  1  0.250000  0.904223  0.983239  1
  P  P20  1  0.250000  0.945332  0.624617  1
  P  P21  1  0.750000  0.054668  0.375383  1
  P  P22  1  0.750000  0.445332  0.875383  1
  P  P23  1  0.250000  0.554668  0.124617  1
  P  P24  1  0.250000  0.394428  0.400449  1
  P  P25  1  0.750000  0.605572  0.599551  1
  P  P26  1  0.750000  0.894428  0.099551  1
  P  P27  1  0.250000  0.105572  0.900449  1
  P  P28  1  0.250000  0.768885  0.354718  1
  P  P29  1  0.750000  0.231115  0.645282  1
  P  P30  1  0.750000  0.268885  0.145282  1
  P  P31  1  0.250000  0.731115  0.854718  1
