# generated using pymatgen
data_Hf4Ta4SiGe3
_symmetry_space_group_name_H-M   'P 1'
_cell_length_a   3.63603300
_cell_length_b   7.02978716
_cell_length_c   8.54681034
_cell_angle_alpha   89.65733474
_cell_angle_beta   90.00000000
_cell_angle_gamma   90.00000000
_symmetry_Int_Tables_number   1
_chemical_formula_structural   Hf4Ta4SiGe3
_chemical_formula_sum   'Hf4 Ta4 Si1 Ge3'
_cell_volume   218.45716413
_cell_formula_units_Z   1
loop_
 _symmetry_equiv_pos_site_id
 _symmetry_equiv_pos_as_xyz
  1  'x, y, z'
loop_
 _atom_site_type_symbol
 _atom_site_label
 _atom_site_symmetry_multiplicity
 _atom_site_fract_x
 _atom_site_fract_y
 _atom_site_fract_z
 _atom_site_occupancy
  Hf  Hf0  1  0.250000  0.047588  0.668535  1
  Hf  Hf1  1  0.250000  0.539789  0.835795  1
  Hf  Hf2  1  0.750000  0.454492  0.161574  1
  Hf  Hf3  1  0.750000  0.953427  0.336080  1
  Ta  Ta4  1  0.750000  0.871101  0.940289  1
  Ta  Ta5  1  0.250000  0.631990  0.441689  1
  Ta  Ta6  1  0.750000  0.366932  0.560770  1
  Ta  Ta7  1  0.250000  0.135865  0.055164  1
  Si  Si8  1  0.750000  0.246261  0.856253  1
  Ge  Ge9  1  0.250000  0.251671  0.356034  1
  Ge  Ge10  1  0.250000  0.753314  0.143359  1
  Ge  Ge11  1  0.750000  0.747570  0.644459  1
