# generated using pymatgen
data_Tb11Er(In2Au)4
_symmetry_space_group_name_H-M   'P 1'
_cell_length_a   13.28787431
_cell_length_b   13.28787314
_cell_length_c   3.78879500
_cell_angle_alpha   90.00000000
_cell_angle_beta   90.00000000
_cell_angle_gamma   110.53251937
_symmetry_Int_Tables_number   1
_chemical_formula_structural   Tb11Er(In2Au)4
_chemical_formula_sum   'Tb11 Er1 In8 Au4'
_cell_volume   626.48038595
_cell_formula_units_Z   1
loop_
 _symmetry_equiv_pos_site_id
 _symmetry_equiv_pos_as_xyz
  1  'x, y, z'
loop_
 _atom_site_type_symbol
 _atom_site_label
 _atom_site_symmetry_multiplicity
 _atom_site_fract_x
 _atom_site_fract_y
 _atom_site_fract_z
 _atom_site_occupancy
  Tb  Tb0  1  0.416390  0.071359  0.000000  1
  Tb  Tb1  1  0.583610  0.928641  0.000000  1
  Tb  Tb2  1  0.071359  0.416390  0.000000  1
  Tb  Tb3  1  0.928641  0.583610  0.000000  1
  Tb  Tb4  1  0.161742  0.838258  0.000000  1
  Tb  Tb5  1  0.838258  0.161742  0.000000  1
  Tb  Tb6  1  0.359150  0.640850  0.000000  1
  Tb  Tb7  1  0.640850  0.359150  0.000000  1
  Tb  Tb8  1  0.289658  0.289658  0.000000  1
  Tb  Tb9  1  0.710342  0.710342  0.000000  1
  Tb  Tb10  1  0.000000  0.000000  0.000000  1
  Er  Er11  1  0.500000  0.500000  0.500000  1
  In  In12  1  0.368984  0.851257  0.500000  1
  In  In13  1  0.631016  0.148743  0.500000  1
  In  In14  1  0.851257  0.368984  0.500000  1
  In  In15  1  0.148743  0.631016  0.500000  1
  In  In16  1  0.214169  0.065264  0.500000  1
  In  In17  1  0.785831  0.934736  0.500000  1
  In  In18  1  0.065264  0.214169  0.500000  1
  In  In19  1  0.934736  0.785831  0.500000  1
  Au  Au20  1  0.453688  0.257957  0.500000  1
  Au  Au21  1  0.546312  0.742043  0.500000  1
  Au  Au22  1  0.257957  0.453688  0.500000  1
  Au  Au23  1  0.742043  0.546312  0.500000  1
