# generated using pymatgen
data_Ho5Lu5(Bi3C)2
_symmetry_space_group_name_H-M   'P 1'
_cell_length_a   6.40057800
_cell_length_b   9.08660098
_cell_length_c   9.08375801
_cell_angle_alpha   119.99142048
_cell_angle_beta   90.00002418
_cell_angle_gamma   89.99852164
_symmetry_Int_Tables_number   1
_chemical_formula_structural   Ho5Lu5(Bi3C)2
_chemical_formula_sum   'Ho5 Lu5 Bi6 C2'
_cell_volume   457.56666656
_cell_formula_units_Z   1
loop_
 _symmetry_equiv_pos_site_id
 _symmetry_equiv_pos_as_xyz
  1  'x, y, z'
loop_
 _atom_site_type_symbol
 _atom_site_label
 _atom_site_symmetry_multiplicity
 _atom_site_fract_x
 _atom_site_fract_y
 _atom_site_fract_z
 _atom_site_occupancy
  Ho  Ho0  1  0.499800  0.333251  0.666819  1
  Ho  Ho1  1  0.499802  0.666748  0.333550  1
  Ho  Ho2  1  0.000204  0.666769  0.333548  1
  Ho  Ho3  1  0.000216  0.333227  0.666817  1
  Ho  Ho4  1  0.250000  0.000012  0.789988  1
  Lu  Lu5  1  0.750003  0.202391  0.001058  1
  Lu  Lu6  1  0.750002  0.797547  0.798613  1
  Lu  Lu7  1  0.749990  0.999982  0.203439  1
  Lu  Lu8  1  0.250003  0.798031  0.999690  1
  Lu  Lu9  1  0.249999  0.202043  0.201723  1
  Bi  Bi10  1  0.749992  0.600956  0.999829  1
  Bi  Bi11  1  0.750012  0.399038  0.398879  1
  Bi  Bi12  1  0.749991  0.000006  0.602129  1
  Bi  Bi13  1  0.250007  0.400121  0.001530  1
  Bi  Bi14  1  0.249973  0.599878  0.601398  1
  Bi  Bi15  1  0.250001  0.999997  0.397592  1
  C  C16  1  0.501226  0.000003  0.001702  1
  C  C17  1  0.998780  0.000001  0.001697  1
