# generated using pymatgen
data_Ba2Si(GeN2)4
_symmetry_space_group_name_H-M   'P 1'
_cell_length_a   6.09132700
_cell_length_b   7.25621200
_cell_length_c   9.90438200
_cell_angle_alpha   90.00000000
_cell_angle_beta   90.00000000
_cell_angle_gamma   90.00000000
_symmetry_Int_Tables_number   1
_chemical_formula_structural   Ba2Si(GeN2)4
_chemical_formula_sum   'Ba4 Si2 Ge8 N16'
_cell_volume   437.77328895
_cell_formula_units_Z   2
loop_
 _symmetry_equiv_pos_site_id
 _symmetry_equiv_pos_as_xyz
  1  'x, y, z'
loop_
 _atom_site_type_symbol
 _atom_site_label
 _atom_site_symmetry_multiplicity
 _atom_site_fract_x
 _atom_site_fract_y
 _atom_site_fract_z
 _atom_site_occupancy
  Ba  Ba0  1  0.500000  0.117981  0.131087  1
  Ba  Ba1  1  0.000000  0.882019  0.631087  1
  Ba  Ba2  1  0.500000  0.140381  0.498463  1
  Ba  Ba3  1  0.000000  0.859619  0.998463  1
  Si  Si4  1  0.500000  0.946014  0.823448  1
  Si  Si5  1  0.000000  0.053986  0.323448  1
  Ge  Ge6  1  0.500000  0.604901  0.606383  1
  Ge  Ge7  1  0.000000  0.395099  0.106383  1
  Ge  Ge8  1  0.500000  0.583864  0.037492  1
  Ge  Ge9  1  0.000000  0.416136  0.537492  1
  Ge  Ge10  1  0.751396  0.326864  0.820306  1
  Ge  Ge11  1  0.748604  0.673136  0.320306  1
  Ge  Ge12  1  0.248604  0.326864  0.820306  1
  Ge  Ge13  1  0.251396  0.673136  0.320306  1
  N  N14  1  0.500000  0.576891  0.229981  1
  N  N15  1  0.000000  0.423109  0.729981  1
  N  N16  1  0.500000  0.837194  0.667353  1
  N  N17  1  0.000000  0.162806  0.167353  1
  N  N18  1  0.500000  0.411302  0.729808  1
  N  N19  1  0.000000  0.588698  0.229808  1
  N  N20  1  0.747955  0.559018  0.493347  1
  N  N21  1  0.752045  0.440982  0.993347  1
  N  N22  1  0.252045  0.559018  0.493347  1
  N  N23  1  0.247955  0.440982  0.993347  1
  N  N24  1  0.739547  0.077547  0.832182  1
  N  N25  1  0.760453  0.922453  0.332182  1
  N  N26  1  0.260453  0.077547  0.832182  1
  N  N27  1  0.239547  0.922453  0.332182  1
  N  N28  1  0.000000  0.186116  0.471355  1
  N  N29  1  0.500000  0.813884  0.971355  1
