# generated using pymatgen
data_Dy8Cu3Si12Os
_symmetry_space_group_name_H-M   'P 1'
_cell_length_a   8.05468900
_cell_length_b   8.05469023
_cell_length_c   8.07059200
_cell_angle_alpha   90.00000000
_cell_angle_beta   90.00000000
_cell_angle_gamma   119.99999085
_symmetry_Int_Tables_number   1
_chemical_formula_structural   Dy8Cu3Si12Os
_chemical_formula_sum   'Dy8 Cu3 Si12 Os1'
_cell_volume   453.45446599
_cell_formula_units_Z   1
loop_
 _symmetry_equiv_pos_site_id
 _symmetry_equiv_pos_as_xyz
  1  'x, y, z'
loop_
 _atom_site_type_symbol
 _atom_site_label
 _atom_site_symmetry_multiplicity
 _atom_site_fract_x
 _atom_site_fract_y
 _atom_site_fract_z
 _atom_site_occupancy
  Dy  Dy0  1  0.000000  0.000000  0.248341  1
  Dy  Dy1  1  0.000000  0.000000  0.751474  1
  Dy  Dy2  1  0.997373  0.498686  0.254024  1
  Dy  Dy3  1  0.501314  0.498686  0.254024  1
  Dy  Dy4  1  0.502820  0.005640  0.745953  1
  Dy  Dy5  1  0.501314  0.002627  0.254024  1
  Dy  Dy6  1  0.502820  0.497180  0.745953  1
  Dy  Dy7  1  0.994360  0.497180  0.745953  1
  Cu  Cu8  1  0.333333  0.666667  0.996943  1
  Cu  Cu9  1  0.333333  0.666667  0.502693  1
  Cu  Cu10  1  0.666667  0.333333  0.003272  1
  Si  Si11  1  0.168388  0.336775  0.000058  1
  Si  Si12  1  0.663225  0.831612  0.000058  1
  Si  Si13  1  0.167910  0.335820  0.500613  1
  Si  Si14  1  0.337002  0.168501  0.999872  1
  Si  Si15  1  0.168388  0.831612  0.000058  1
  Si  Si16  1  0.664180  0.832090  0.500613  1
  Si  Si17  1  0.831499  0.662998  0.999872  1
  Si  Si18  1  0.333835  0.166918  0.499145  1
  Si  Si19  1  0.167910  0.832090  0.500613  1
  Si  Si20  1  0.833082  0.666165  0.499145  1
  Si  Si21  1  0.831499  0.168501  0.999872  1
  Si  Si22  1  0.833082  0.166918  0.499145  1
  Os  Os23  1  0.666667  0.333333  0.498280  1
