# generated using pymatgen
data_Dy8YSc(SiB4)4
_symmetry_space_group_name_H-M   'P 1'
_cell_length_a   7.20412600
_cell_length_b   7.20412600
_cell_length_c   8.02835100
_cell_angle_alpha   90.00000000
_cell_angle_beta   90.00000000
_cell_angle_gamma   90.00000000
_symmetry_Int_Tables_number   1
_chemical_formula_structural   Dy8YSc(SiB4)4
_chemical_formula_sum   'Dy8 Y1 Sc1 Si4 B16'
_cell_volume   416.66685217
_cell_formula_units_Z   1
loop_
 _symmetry_equiv_pos_site_id
 _symmetry_equiv_pos_as_xyz
  1  'x, y, z'
loop_
 _atom_site_type_symbol
 _atom_site_label
 _atom_site_symmetry_multiplicity
 _atom_site_fract_x
 _atom_site_fract_y
 _atom_site_fract_z
 _atom_site_occupancy
  Dy  Dy0  1  0.681114  0.179345  0.226049  1
  Dy  Dy1  1  0.318886  0.820655  0.773951  1
  Dy  Dy2  1  0.318886  0.820655  0.226049  1
  Dy  Dy3  1  0.820655  0.681114  0.226049  1
  Dy  Dy4  1  0.820655  0.681114  0.773951  1
  Dy  Dy5  1  0.681114  0.179345  0.773951  1
  Dy  Dy6  1  0.179345  0.318886  0.773951  1
  Dy  Dy7  1  0.179345  0.318886  0.226049  1
  Y  Y8  1  0.500000  0.500000  0.500000  1
  Sc  Sc9  1  0.000000  0.000000  0.500000  1
  Si  Si10  1  0.110055  0.622541  0.500000  1
  Si  Si11  1  0.889945  0.377459  0.500000  1
  Si  Si12  1  0.377459  0.110055  0.500000  1
  Si  Si13  1  0.622541  0.889945  0.500000  1
  B  B14  1  0.172829  0.039067  0.000000  1
  B  B15  1  0.827171  0.960933  0.000000  1
  B  B16  1  0.960933  0.172829  0.000000  1
  B  B17  1  0.327362  0.539214  0.000000  1
  B  B18  1  0.039067  0.827171  0.000000  1
  B  B19  1  0.672638  0.460786  0.000000  1
  B  B20  1  0.539214  0.672638  0.000000  1
  B  B21  1  0.460786  0.327362  0.000000  1
  B  B22  1  0.089613  0.589528  0.000000  1
  B  B23  1  0.910387  0.410472  0.000000  1
  B  B24  1  0.410472  0.089613  0.000000  1
  B  B25  1  0.589528  0.910387  0.000000  1
  B  B26  1  0.000000  0.000000  0.164396  1
  B  B27  1  0.000000  0.000000  0.835604  1
  B  B28  1  0.500000  0.500000  0.836810  1
  B  B29  1  0.500000  0.500000  0.163190  1
