# generated using pymatgen
data_CeTh(Al3Co)3
_symmetry_space_group_name_H-M   'P 1'
_cell_length_a   7.49589687
_cell_length_b   7.50913182
_cell_length_c   9.36578400
_cell_angle_alpha   90.00000000
_cell_angle_beta   90.00000000
_cell_angle_gamma   119.33154865
_symmetry_Int_Tables_number   1
_chemical_formula_structural   CeTh(Al3Co)3
_chemical_formula_sum   'Ce2 Th2 Al18 Co6'
_cell_volume   459.59380954
_cell_formula_units_Z   2
loop_
 _symmetry_equiv_pos_site_id
 _symmetry_equiv_pos_as_xyz
  1  'x, y, z'
loop_
 _atom_site_type_symbol
 _atom_site_label
 _atom_site_symmetry_multiplicity
 _atom_site_fract_x
 _atom_site_fract_y
 _atom_site_fract_z
 _atom_site_occupancy
  Ce  Ce0  1  0.671714  0.994942  0.250000  1
  Ce  Ce1  1  0.328286  0.005058  0.750000  1
  Th  Th2  1  0.994879  0.671715  0.250000  1
  Th  Th3  1  0.005121  0.328285  0.750000  1
  Al  Al4  1  0.000992  0.332945  0.073078  1
  Al  Al5  1  0.999008  0.667055  0.926922  1
  Al  Al6  1  0.999008  0.667055  0.573078  1
  Al  Al7  1  0.337867  0.003269  0.429969  1
  Al  Al8  1  0.000992  0.332945  0.426922  1
  Al  Al9  1  0.662133  0.996731  0.570031  1
  Al  Al10  1  0.662133  0.996731  0.929969  1
  Al  Al11  1  0.337867  0.003269  0.070031  1
  Al  Al12  1  0.335842  0.333848  0.542785  1
  Al  Al13  1  0.664158  0.666152  0.457215  1
  Al  Al14  1  0.664158  0.666152  0.042785  1
  Al  Al15  1  0.335842  0.333848  0.957215  1
  Al  Al16  1  0.128738  0.129652  0.250000  1
  Al  Al17  1  0.871262  0.870348  0.750000  1
  Al  Al18  1  0.344274  0.552656  0.250000  1
  Al  Al19  1  0.655726  0.447344  0.750000  1
  Al  Al20  1  0.549426  0.338321  0.250000  1
  Al  Al21  1  0.450574  0.661679  0.750000  1
  Co  Co22  1  0.673320  0.329401  0.000127  1
  Co  Co23  1  0.326680  0.670599  0.999873  1
  Co  Co24  1  0.326680  0.670599  0.500127  1
  Co  Co25  1  0.673320  0.329401  0.499873  1
  Co  Co26  1  0.000000  0.000000  0.000000  1
  Co  Co27  1  0.000000  0.000000  0.500000  1
