# generated using pymatgen
data_Cs3LuCl6
_symmetry_space_group_name_H-M   'P 1'
_cell_length_a   8.19067704
_cell_length_b   8.19067689
_cell_length_c   8.19067767
_cell_angle_alpha   61.01150844
_cell_angle_beta   61.01150212
_cell_angle_gamma   61.01150693
_symmetry_Int_Tables_number   1
_chemical_formula_structural   Cs3LuCl6
_chemical_formula_sum   'Cs3 Lu1 Cl6'
_cell_volume   397.39978077
_cell_formula_units_Z   1
loop_
 _symmetry_equiv_pos_site_id
 _symmetry_equiv_pos_as_xyz
  1  'x, y, z'
loop_
 _atom_site_type_symbol
 _atom_site_label
 _atom_site_symmetry_multiplicity
 _atom_site_fract_x
 _atom_site_fract_y
 _atom_site_fract_z
 _atom_site_occupancy
  Cs  Cs0  1  0.379744  0.379744  0.379744  1
  Cs  Cs1  1  0.647024  0.647024  0.647024  1
  Cs  Cs2  1  0.876185  0.876185  0.876185  1
  Lu  Lu3  1  0.153917  0.153917  0.153917  1
  Cl  Cl4  1  0.853731  0.364496  0.026566  1
  Cl  Cl5  1  0.460758  0.963562  0.274018  1
  Cl  Cl6  1  0.026567  0.853731  0.364495  1
  Cl  Cl7  1  0.963562  0.274017  0.460759  1
  Cl  Cl8  1  0.364496  0.026567  0.853730  1
  Cl  Cl9  1  0.274018  0.460758  0.963563  1
