# generated using pymatgen
data_TbErSi7Pd12
_symmetry_space_group_name_H-M   'P 1'
_cell_length_a   10.00042400
_cell_length_b   10.00042293
_cell_length_c   3.90954700
_cell_angle_alpha   90.00000000
_cell_angle_beta   90.00000000
_cell_angle_gamma   120.00000353
_symmetry_Int_Tables_number   1
_chemical_formula_structural   TbErSi7Pd12
_chemical_formula_sum   'Tb1 Er1 Si7 Pd12'
_cell_volume   338.60536565
_cell_formula_units_Z   1
loop_
 _symmetry_equiv_pos_site_id
 _symmetry_equiv_pos_as_xyz
  1  'x, y, z'
loop_
 _atom_site_type_symbol
 _atom_site_label
 _atom_site_symmetry_multiplicity
 _atom_site_fract_x
 _atom_site_fract_y
 _atom_site_fract_z
 _atom_site_occupancy
  Tb  Tb0  1  0.666667  0.333333  0.248301  1
  Er  Er1  1  0.000000  0.000000  0.750410  1
  Si  Si2  1  0.333333  0.666667  0.466769  1
  Si  Si3  1  0.741215  0.785082  0.249511  1
  Si  Si4  1  0.043865  0.258785  0.249511  1
  Si  Si5  1  0.214918  0.956135  0.249511  1
  Si  Si6  1  0.925842  0.549400  0.749220  1
  Si  Si7  1  0.623559  0.074158  0.749220  1
  Si  Si8  1  0.450600  0.376441  0.749220  1
  Pd  Pd9  1  0.776709  0.046322  0.248310  1
  Pd  Pd10  1  0.269614  0.223291  0.248310  1
  Pd  Pd11  1  0.953678  0.730386  0.248310  1
  Pd  Pd12  1  0.891321  0.286236  0.750297  1
  Pd  Pd13  1  0.394915  0.108679  0.750297  1
  Pd  Pd14  1  0.713764  0.605085  0.750297  1
  Pd  Pd15  1  0.481797  0.554213  0.249134  1
  Pd  Pd16  1  0.072415  0.518203  0.249134  1
  Pd  Pd17  1  0.445787  0.927585  0.249134  1
  Pd  Pd18  1  0.187988  0.775638  0.748872  1
  Pd  Pd19  1  0.587650  0.812012  0.748872  1
  Pd  Pd20  1  0.224362  0.412350  0.748872  1
