# generated using pymatgen
data_RbMnP2Ir
_symmetry_space_group_name_H-M   'P 1'
_cell_length_a   7.46535026
_cell_length_b   7.46535031
_cell_length_c   7.46534963
_cell_angle_alpha   149.57406405
_cell_angle_beta   149.57406139
_cell_angle_gamma   43.56699172
_symmetry_Int_Tables_number   1
_chemical_formula_structural   RbMnP2Ir
_chemical_formula_sum   'Rb1 Mn1 P2 Ir1'
_cell_volume   106.41151660
_cell_formula_units_Z   1
loop_
 _symmetry_equiv_pos_site_id
 _symmetry_equiv_pos_as_xyz
  1  'x, y, z'
loop_
 _atom_site_type_symbol
 _atom_site_label
 _atom_site_symmetry_multiplicity
 _atom_site_fract_x
 _atom_site_fract_y
 _atom_site_fract_z
 _atom_site_occupancy
  Rb  Rb0  1  0.000000  0.000000  0.000000  1
  Mn  Mn1  1  0.750000  0.250000  0.500000  1
  P  P2  1  0.340120  0.340120  0.000000  1
  P  P3  1  0.659880  0.659880  0.000000  1
  Ir  Ir4  1  0.250000  0.750000  0.500000  1
