# generated using pymatgen
data_Ho5Cd4NiAu
_symmetry_space_group_name_H-M   'P 1'
_cell_length_a   7.94522344
_cell_length_b   18.38536628
_cell_length_c   3.60475200
_cell_angle_alpha   90.00000000
_cell_angle_beta   90.00000000
_cell_angle_gamma   89.89848328
_symmetry_Int_Tables_number   1
_chemical_formula_structural   Ho5Cd4NiAu
_chemical_formula_sum   'Ho10 Cd8 Ni2 Au2'
_cell_volume   526.56636137
_cell_formula_units_Z   2
loop_
 _symmetry_equiv_pos_site_id
 _symmetry_equiv_pos_as_xyz
  1  'x, y, z'
loop_
 _atom_site_type_symbol
 _atom_site_label
 _atom_site_symmetry_multiplicity
 _atom_site_fract_x
 _atom_site_fract_y
 _atom_site_fract_z
 _atom_site_occupancy
  Ho  Ho0  1  0.500000  0.500000  0.000000  1
  Ho  Ho1  1  0.000000  0.000000  0.000000  1
  Ho  Ho2  1  0.772727  0.283826  0.000000  1
  Ho  Ho3  1  0.227273  0.716174  0.000000  1
  Ho  Ho4  1  0.762706  0.776754  0.000000  1
  Ho  Ho5  1  0.237294  0.223246  0.000000  1
  Ho  Ho6  1  0.623680  0.081721  0.000000  1
  Ho  Ho7  1  0.376320  0.918279  0.000000  1
  Ho  Ho8  1  0.881560  0.587702  0.000000  1
  Ho  Ho9  1  0.118440  0.412298  0.000000  1
  Cd  Cd10  1  0.711289  0.931538  0.500000  1
  Cd  Cd11  1  0.288711  0.068462  0.500000  1
  Cd  Cd12  1  0.792656  0.432763  0.500000  1
  Cd  Cd13  1  0.207344  0.567237  0.500000  1
  Cd  Cd14  1  0.567203  0.646610  0.500000  1
  Cd  Cd15  1  0.432797  0.353390  0.500000  1
  Cd  Cd16  1  0.935914  0.150163  0.500000  1
  Cd  Cd17  1  0.064086  0.849837  0.500000  1
  Ni  Ni18  1  0.961597  0.694145  0.500000  1
  Ni  Ni19  1  0.038403  0.305855  0.500000  1
  Au  Au20  1  0.539093  0.198683  0.500000  1
  Au  Au21  1  0.460907  0.801317  0.500000  1
