# generated using pymatgen
data_LuPa2(SnRh)3
_symmetry_space_group_name_H-M   'P 1'
_cell_length_a   7.44183990
_cell_length_b   7.38963197
_cell_length_c   4.00537900
_cell_angle_alpha   90.00000000
_cell_angle_beta   90.00000000
_cell_angle_gamma   119.76820145
_symmetry_Int_Tables_number   1
_chemical_formula_structural   LuPa2(SnRh)3
_chemical_formula_sum   'Lu1 Pa2 Sn3 Rh3'
_cell_volume   191.19963317
_cell_formula_units_Z   1
loop_
 _symmetry_equiv_pos_site_id
 _symmetry_equiv_pos_as_xyz
  1  'x, y, z'
loop_
 _atom_site_type_symbol
 _atom_site_label
 _atom_site_symmetry_multiplicity
 _atom_site_fract_x
 _atom_site_fract_y
 _atom_site_fract_z
 _atom_site_occupancy
  Lu  Lu0  1  0.000000  0.593851  0.500000  1
  Pa  Pa1  1  0.412100  0.410961  0.500000  1
  Pa  Pa2  1  0.587900  0.998861  0.500000  1
  Sn  Sn3  1  0.754107  0.743218  0.000000  1
  Sn  Sn4  1  0.245893  0.989111  0.000000  1
  Sn  Sn5  1  0.000000  0.266407  0.000000  1
  Rh  Rh6  1  0.647859  0.318335  0.000000  1
  Rh  Rh7  1  0.352141  0.670478  0.000000  1
  Rh  Rh8  1  0.000000  0.008778  0.500000  1
