# generated using pymatgen
data_CeSm(Al4Fe)2
_symmetry_space_group_name_H-M   'P 1'
_cell_length_a   4.08279200
_cell_length_b   6.80082200
_cell_length_c   7.59679800
_cell_angle_alpha   90.00000000
_cell_angle_beta   90.00000000
_cell_angle_gamma   90.00000000
_symmetry_Int_Tables_number   1
_chemical_formula_structural   CeSm(Al4Fe)2
_chemical_formula_sum   'Ce1 Sm1 Al8 Fe2'
_cell_volume   210.93528875
_cell_formula_units_Z   1
loop_
 _symmetry_equiv_pos_site_id
 _symmetry_equiv_pos_as_xyz
  1  'x, y, z'
loop_
 _atom_site_type_symbol
 _atom_site_label
 _atom_site_symmetry_multiplicity
 _atom_site_fract_x
 _atom_site_fract_y
 _atom_site_fract_z
 _atom_site_occupancy
  Ce  Ce0  1  0.000000  0.389133  0.250000  1
  Sm  Sm1  1  0.000000  0.618424  0.750000  1
  Al  Al2  1  0.500000  0.302516  0.568674  1
  Al  Al3  1  0.500000  0.697475  0.430571  1
  Al  Al4  1  0.500000  0.302516  0.931326  1
  Al  Al5  1  0.500000  0.697475  0.069429  1
  Al  Al6  1  0.000000  0.000477  0.002342  1
  Al  Al7  1  0.000000  0.000477  0.497658  1
  Al  Al8  1  0.500000  0.042061  0.250000  1
  Al  Al9  1  0.500000  0.960606  0.750000  1
  Fe  Fe10  1  0.000000  0.193247  0.750000  1
  Fe  Fe11  1  0.000000  0.795597  0.250000  1
