# generated using pymatgen
data_Sr4Ir6O19
_symmetry_space_group_name_H-M   'P 1'
_cell_length_a   8.14225662
_cell_length_b   8.14225641
_cell_length_c   8.14225700
_cell_angle_alpha   109.47122460
_cell_angle_beta   109.47122406
_cell_angle_gamma   109.47122126
_symmetry_Int_Tables_number   1
_chemical_formula_structural   Sr4Ir6O19
_chemical_formula_sum   'Sr4 Ir6 O19'
_cell_volume   415.53961506
_cell_formula_units_Z   1
loop_
 _symmetry_equiv_pos_site_id
 _symmetry_equiv_pos_as_xyz
  1  'x, y, z'
loop_
 _atom_site_type_symbol
 _atom_site_label
 _atom_site_symmetry_multiplicity
 _atom_site_fract_x
 _atom_site_fract_y
 _atom_site_fract_z
 _atom_site_occupancy
  Sr  Sr0  1  0.000000  0.000000  0.294652  1
  Sr  Sr1  1  0.705348  0.705348  0.705348  1
  Sr  Sr2  1  0.000000  0.294652  0.000000  1
  Sr  Sr3  1  0.294652  0.000000  0.000000  1
  Ir  Ir4  1  0.500000  0.660064  0.160064  1
  Ir  Ir5  1  0.339936  0.839936  0.500000  1
  Ir  Ir6  1  0.839936  0.500000  0.339936  1
  Ir  Ir7  1  0.500000  0.339936  0.839936  1
  Ir  Ir8  1  0.160064  0.500000  0.660064  1
  Ir  Ir9  1  0.660064  0.160064  0.500000  1
  O  O10  1  0.000000  0.000000  0.000000  1
  O  O11  1  0.660254  0.952154  0.295185  1
  O  O12  1  0.365068  0.704815  0.656968  1
  O  O13  1  0.708100  0.343032  0.047846  1
  O  O14  1  0.656968  0.365068  0.704815  1
  O  O15  1  0.047846  0.708100  0.343032  1
  O  O16  1  0.295185  0.660254  0.952154  1
  O  O17  1  0.343032  0.047846  0.708100  1
  O  O18  1  0.952154  0.295185  0.660254  1
  O  O19  1  0.704815  0.656968  0.365068  1
  O  O20  1  0.339746  0.634932  0.291900  1
  O  O21  1  0.634932  0.291900  0.339746  1
  O  O22  1  0.291900  0.339746  0.634932  1
  O  O23  1  0.641880  0.641880  0.000000  1
  O  O24  1  0.641880  0.000000  0.641880  1
  O  O25  1  0.000000  0.358120  0.358120  1
  O  O26  1  0.358120  0.000000  0.358120  1
  O  O27  1  0.000000  0.641880  0.641880  1
  O  O28  1  0.358120  0.358120  0.000000  1
