# generated using pymatgen
data_Rb6NaMg(V2Br9)2
_symmetry_space_group_name_H-M   'P 1'
_cell_length_a   13.30208600
_cell_length_b   13.30208612
_cell_length_c   6.46736400
_cell_angle_alpha   90.00000000
_cell_angle_beta   90.00000000
_cell_angle_gamma   119.99999140
_symmetry_Int_Tables_number   1
_chemical_formula_structural   Rb6NaMg(V2Br9)2
_chemical_formula_sum   'Rb6 Na1 Mg1 V4 Br18'
_cell_volume   991.05436943
_cell_formula_units_Z   1
loop_
 _symmetry_equiv_pos_site_id
 _symmetry_equiv_pos_as_xyz
  1  'x, y, z'
loop_
 _atom_site_type_symbol
 _atom_site_label
 _atom_site_symmetry_multiplicity
 _atom_site_fract_x
 _atom_site_fract_y
 _atom_site_fract_z
 _atom_site_occupancy
  Rb  Rb0  1  0.000192  0.311563  0.753239  1
  Rb  Rb1  1  0.311563  0.311372  0.246761  1
  Rb  Rb2  1  0.688437  0.688628  0.753239  1
  Rb  Rb3  1  0.999808  0.688437  0.246761  1
  Rb  Rb4  1  0.311372  0.999808  0.753239  1
  Rb  Rb5  1  0.688628  0.000192  0.246761  1
  Na  Na6  1  0.000000  0.000000  0.500000  1
  Mg  Mg7  1  0.000000  0.000000  0.000000  1
  V  V8  1  0.333333  0.666667  0.527998  1
  V  V9  1  0.666667  0.333333  0.472002  1
  V  V10  1  0.666667  0.333333  0.972088  1
  V  V11  1  0.333333  0.666667  0.027912  1
  Br  Br12  1  0.822402  0.487860  0.721210  1
  Br  Br13  1  0.335313  0.512563  0.778332  1
  Br  Br14  1  0.177250  0.664687  0.778332  1
  Br  Br15  1  0.822750  0.335313  0.221668  1
  Br  Br16  1  0.177598  0.512140  0.278790  1
  Br  Br17  1  0.170459  0.999617  0.231143  1
  Br  Br18  1  0.334543  0.822402  0.278790  1
  Br  Br19  1  0.487437  0.822750  0.778332  1
  Br  Br20  1  0.665457  0.177598  0.721210  1
  Br  Br21  1  0.664687  0.487437  0.221668  1
  Br  Br22  1  0.000383  0.170841  0.231143  1
  Br  Br23  1  0.170841  0.170459  0.768857  1
  Br  Br24  1  0.829541  0.000383  0.768857  1
  Br  Br25  1  0.999617  0.829159  0.768857  1
  Br  Br26  1  0.829159  0.829541  0.231143  1
  Br  Br27  1  0.512563  0.177250  0.221668  1
  Br  Br28  1  0.487860  0.665457  0.278790  1
  Br  Br29  1  0.512140  0.334543  0.721210  1
