# generated using pymatgen
data_ErLu3(Rh2O7)2
_symmetry_space_group_name_H-M   'P 1'
_cell_length_a   7.14506902
_cell_length_b   7.15576880
_cell_length_c   7.14506800
_cell_angle_alpha   60.04944617
_cell_angle_beta   59.99999546
_cell_angle_gamma   60.04945301
_symmetry_Int_Tables_number   1
_chemical_formula_structural   ErLu3(Rh2O7)2
_chemical_formula_sum   'Er1 Lu3 Rh4 O14'
_cell_volume   258.51055675
_cell_formula_units_Z   1
loop_
 _symmetry_equiv_pos_site_id
 _symmetry_equiv_pos_as_xyz
  1  'x, y, z'
loop_
 _atom_site_type_symbol
 _atom_site_label
 _atom_site_symmetry_multiplicity
 _atom_site_fract_x
 _atom_site_fract_y
 _atom_site_fract_z
 _atom_site_occupancy
  Er  Er0  1  0.125000  0.625000  0.125000  1
  Lu  Lu1  1  0.125000  0.125000  0.125000  1
  Lu  Lu2  1  0.625000  0.125000  0.125000  1
  Lu  Lu3  1  0.125000  0.125000  0.625000  1
  Rh  Rh4  1  0.625000  0.625000  0.625000  1
  Rh  Rh5  1  0.625000  0.625000  0.125000  1
  Rh  Rh6  1  0.125000  0.625000  0.625000  1
  Rh  Rh7  1  0.625000  0.125000  0.625000  1
  O  O8  1  0.251224  0.246327  0.251224  1
  O  O9  1  0.284744  0.718179  0.284744  1
  O  O10  1  0.964582  0.964615  0.535402  1
  O  O11  1  0.535402  0.964615  0.535402  1
  O  O12  1  0.712332  0.718179  0.284744  1
  O  O13  1  0.965256  0.531821  0.537668  1
  O  O14  1  0.714598  0.285385  0.714598  1
  O  O15  1  0.285418  0.285385  0.714598  1
  O  O16  1  0.714598  0.285385  0.285418  1
  O  O17  1  0.284744  0.718179  0.712332  1
  O  O18  1  0.965256  0.531821  0.965256  1
  O  O19  1  0.537668  0.531821  0.965256  1
  O  O20  1  0.998776  0.003673  0.998776  1
  O  O21  1  0.535402  0.964615  0.964582  1
