# generated using pymatgen
data_Ho4CoOs5Ru2
_symmetry_space_group_name_H-M   'P 1'
_cell_length_a   5.25588615
_cell_length_b   5.21378544
_cell_length_c   8.89894900
_cell_angle_alpha   90.00000000
_cell_angle_beta   90.00000000
_cell_angle_gamma   119.73138465
_symmetry_Int_Tables_number   1
_chemical_formula_structural   Ho4CoOs5Ru2
_chemical_formula_sum   'Ho4 Co1 Os5 Ru2'
_cell_volume   211.75692750
_cell_formula_units_Z   1
loop_
 _symmetry_equiv_pos_site_id
 _symmetry_equiv_pos_as_xyz
  1  'x, y, z'
loop_
 _atom_site_type_symbol
 _atom_site_label
 _atom_site_symmetry_multiplicity
 _atom_site_fract_x
 _atom_site_fract_y
 _atom_site_fract_z
 _atom_site_occupancy
  Ho  Ho0  1  0.665281  0.332857  0.563777  1
  Ho  Ho1  1  0.332283  0.666285  0.431646  1
  Ho  Ho2  1  0.332283  0.666285  0.068354  1
  Ho  Ho3  1  0.665281  0.332857  0.936223  1
  Co  Co4  1  0.342414  0.170988  0.250000  1
  Os  Os5  1  0.169674  0.341357  0.750000  1
  Os  Os6  1  0.170551  0.828622  0.750000  1
  Os  Os7  1  0.659329  0.829769  0.750000  1
  Os  Os8  1  0.832845  0.657969  0.250000  1
  Os  Os9  1  0.832962  0.174314  0.250000  1
  Ru  Ru10  1  0.998548  0.999349  0.497026  1
  Ru  Ru11  1  0.998548  0.999349  0.002974  1
