# generated using pymatgen
data_Ba2PPt8
_symmetry_space_group_name_H-M   'P 1'
_cell_length_a   9.56403609
_cell_length_b   9.56403417
_cell_length_c   4.29624700
_cell_angle_alpha   90.00000000
_cell_angle_beta   90.00000000
_cell_angle_gamma   146.00759951
_symmetry_Int_Tables_number   1
_chemical_formula_structural   Ba2PPt8
_chemical_formula_sum   'Ba2 P1 Pt8'
_cell_volume   219.70897896
_cell_formula_units_Z   1
loop_
 _symmetry_equiv_pos_site_id
 _symmetry_equiv_pos_as_xyz
  1  'x, y, z'
loop_
 _atom_site_type_symbol
 _atom_site_label
 _atom_site_symmetry_multiplicity
 _atom_site_fract_x
 _atom_site_fract_y
 _atom_site_fract_z
 _atom_site_occupancy
  Ba  Ba0  1  0.616498  0.374239  0.500000  1
  Ba  Ba1  1  0.374239  0.616498  0.500000  1
  P  P2  1  0.211246  0.211246  0.000000  1
  Pt  Pt3  1  0.111071  0.891912  0.000000  1
  Pt  Pt4  1  0.891912  0.111071  0.000000  1
  Pt  Pt5  1  0.493761  0.992175  0.000000  1
  Pt  Pt6  1  0.992175  0.493761  0.000000  1
  Pt  Pt7  1  0.194912  0.791824  0.500000  1
  Pt  Pt8  1  0.791824  0.194912  0.500000  1
  Pt  Pt9  1  0.010741  0.010741  0.500000  1
  Pt  Pt10  1  0.625222  0.625222  0.000000  1
