# generated using pymatgen
data_Zr13MnAl9Rh7
_symmetry_space_group_name_H-M   'P 1'
_cell_length_a   9.16449052
_cell_length_b   9.16449056
_cell_length_c   9.16449108
_cell_angle_alpha   59.74937665
_cell_angle_beta   59.74937612
_cell_angle_gamma   59.74938112
_symmetry_Int_Tables_number   1
_chemical_formula_structural   Zr13MnAl9Rh7
_chemical_formula_sum   'Zr13 Mn1 Al9 Rh7'
_cell_volume   541.16702747
_cell_formula_units_Z   1
loop_
 _symmetry_equiv_pos_site_id
 _symmetry_equiv_pos_as_xyz
  1  'x, y, z'
loop_
 _atom_site_type_symbol
 _atom_site_label
 _atom_site_symmetry_multiplicity
 _atom_site_fract_x
 _atom_site_fract_y
 _atom_site_fract_z
 _atom_site_occupancy
  Zr  Zr0  1  0.203104  0.203104  0.796379  1
  Zr  Zr1  1  0.796379  0.203104  0.203104  1
  Zr  Zr2  1  0.203104  0.796379  0.203104  1
  Zr  Zr3  1  0.807882  0.807882  0.173003  1
  Zr  Zr4  1  0.173003  0.807882  0.807882  1
  Zr  Zr5  1  0.807882  0.173003  0.807882  1
  Zr  Zr6  1  0.378539  0.378539  0.378539  1
  Zr  Zr7  1  0.379541  0.865672  0.379541  1
  Zr  Zr8  1  0.865672  0.379541  0.379541  1
  Zr  Zr9  1  0.379541  0.379541  0.865672  1
  Zr  Zr10  1  0.840128  0.483355  0.840128  1
  Zr  Zr11  1  0.483355  0.840128  0.840128  1
  Zr  Zr12  1  0.840128  0.840128  0.483355  1
  Mn  Mn13  1  0.003784  0.003784  0.003784  1
  Al  Al14  1  0.156188  0.156188  0.156188  1
  Al  Al15  1  0.160830  0.521848  0.160830  1
  Al  Al16  1  0.521848  0.160830  0.160830  1
  Al  Al17  1  0.160830  0.160830  0.521848  1
  Al  Al18  1  0.617388  0.617388  0.617388  1
  Al  Al19  1  0.620088  0.146861  0.620088  1
  Al  Al20  1  0.146861  0.620088  0.620088  1
  Al  Al21  1  0.620088  0.620088  0.146861  1
  Al  Al22  1  0.827063  0.827063  0.827063  1
  Rh  Rh23  1  0.005885  0.005885  0.499815  1
  Rh  Rh24  1  0.499815  0.005885  0.005885  1
  Rh  Rh25  1  0.005885  0.499815  0.005885  1
  Rh  Rh26  1  0.493980  0.493980  0.007003  1
  Rh  Rh27  1  0.007003  0.493980  0.493980  1
  Rh  Rh28  1  0.493980  0.007003  0.493980  1
  Rh  Rh29  1  0.500229  0.500229  0.500229  1
