# generated using pymatgen
data_Pa2Co3ReP4
_symmetry_space_group_name_H-M   'P 1'
_cell_length_a   4.01325300
_cell_length_b   4.01325300
_cell_length_c   9.06540200
_cell_angle_alpha   90.00000000
_cell_angle_beta   90.00000000
_cell_angle_gamma   90.00000000
_symmetry_Int_Tables_number   1
_chemical_formula_structural   Pa2Co3ReP4
_chemical_formula_sum   'Pa2 Co3 Re1 P4'
_cell_volume   146.00917445
_cell_formula_units_Z   1
loop_
 _symmetry_equiv_pos_site_id
 _symmetry_equiv_pos_as_xyz
  1  'x, y, z'
loop_
 _atom_site_type_symbol
 _atom_site_label
 _atom_site_symmetry_multiplicity
 _atom_site_fract_x
 _atom_site_fract_y
 _atom_site_fract_z
 _atom_site_occupancy
  Pa  Pa0  1  0.500000  0.000000  0.241982  1
  Pa  Pa1  1  0.000000  0.500000  0.758018  1
  Co  Co2  1  0.000000  0.500000  0.110111  1
  Co  Co3  1  0.500000  0.000000  0.889889  1
  Co  Co4  1  0.500000  0.500000  0.500000  1
  Re  Re5  1  0.000000  0.000000  0.500000  1
  P  P6  1  0.000000  0.500000  0.359319  1
  P  P7  1  0.500000  0.500000  0.000000  1
  P  P8  1  0.500000  0.000000  0.640681  1
  P  P9  1  0.000000  0.000000  0.000000  1
