# generated using pymatgen
data_Dy8Er2Ru3Rh
_symmetry_space_group_name_H-M   'P 1'
_cell_length_a   6.33649768
_cell_length_b   7.28558452
_cell_length_c   8.46496683
_cell_angle_alpha   96.73856023
_cell_angle_beta   111.86800446
_cell_angle_gamma   90.05172021
_symmetry_Int_Tables_number   1
_chemical_formula_structural   Dy8Er2Ru3Rh
_chemical_formula_sum   'Dy8 Er2 Ru3 Rh1'
_cell_volume   359.73926128
_cell_formula_units_Z   1
loop_
 _symmetry_equiv_pos_site_id
 _symmetry_equiv_pos_as_xyz
  1  'x, y, z'
loop_
 _atom_site_type_symbol
 _atom_site_label
 _atom_site_symmetry_multiplicity
 _atom_site_fract_x
 _atom_site_fract_y
 _atom_site_fract_z
 _atom_site_occupancy
  Dy  Dy0  1  0.793300  0.582177  0.815193  1
  Dy  Dy1  1  0.980124  0.915016  0.188561  1
  Dy  Dy2  1  0.207979  0.415269  0.185850  1
  Dy  Dy3  1  0.024395  0.086151  0.815143  1
  Dy  Dy4  1  0.204290  0.683451  0.564403  1
  Dy  Dy5  1  0.642505  0.814764  0.432003  1
  Dy  Dy6  1  0.792188  0.314540  0.434113  1
  Dy  Dy7  1  0.356843  0.186985  0.564433  1
  Er  Er8  1  0.420193  0.749213  0.000751  1
  Er  Er9  1  0.579630  0.252084  0.001446  1
  Ru  Ru10  1  0.823101  0.576666  0.219006  1
  Ru  Ru11  1  0.396336  0.075223  0.220239  1
  Ru  Ru12  1  0.178485  0.424405  0.780100  1
  Rh  Rh13  1  0.600631  0.924057  0.778760  1
