# generated using pymatgen
data_Er3(CoSn2)2
_symmetry_space_group_name_H-M   'P 1'
_cell_length_a   7.38226900
_cell_length_b   7.38226919
_cell_length_c   4.09271200
_cell_angle_alpha   90.00000000
_cell_angle_beta   90.00000000
_cell_angle_gamma   120.00000243
_symmetry_Int_Tables_number   1
_chemical_formula_structural   Er3(CoSn2)2
_chemical_formula_sum   'Er3 Co2 Sn4'
_cell_volume   193.16193604
_cell_formula_units_Z   1
loop_
 _symmetry_equiv_pos_site_id
 _symmetry_equiv_pos_as_xyz
  1  'x, y, z'
loop_
 _atom_site_type_symbol
 _atom_site_label
 _atom_site_symmetry_multiplicity
 _atom_site_fract_x
 _atom_site_fract_y
 _atom_site_fract_z
 _atom_site_occupancy
  Er  Er0  1  0.692717  0.942266  0.500000  1
  Er  Er1  1  0.249548  0.307283  0.500000  1
  Er  Er2  1  0.057734  0.750452  0.500000  1
  Co  Co3  1  0.666667  0.333333  0.500000  1
  Co  Co4  1  0.000000  0.000000  0.000000  1
  Sn  Sn5  1  0.901213  0.309800  0.000000  1
  Sn  Sn6  1  0.408588  0.098787  0.000000  1
  Sn  Sn7  1  0.690200  0.591412  0.000000  1
  Sn  Sn8  1  0.333333  0.666667  0.000000  1
