# generated using pymatgen
data_Y8TaTi11Si16
_symmetry_space_group_name_H-M   'P 1'
_cell_length_a   7.05801765
_cell_length_b   7.05801861
_cell_length_c   12.99097904
_cell_angle_alpha   89.99247615
_cell_angle_beta   90.00752468
_cell_angle_gamma   90.05938390
_symmetry_Int_Tables_number   1
_chemical_formula_structural   Y8TaTi11Si16
_chemical_formula_sum   'Y8 Ta1 Ti11 Si16'
_cell_volume   647.15331567
_cell_formula_units_Z   1
loop_
 _symmetry_equiv_pos_site_id
 _symmetry_equiv_pos_as_xyz
  1  'x, y, z'
loop_
 _atom_site_type_symbol
 _atom_site_label
 _atom_site_symmetry_multiplicity
 _atom_site_fract_x
 _atom_site_fract_y
 _atom_site_fract_z
 _atom_site_occupancy
  Y  Y0  1  0.339889  0.002633  0.466773  1
  Y  Y1  1  0.497369  0.839588  0.716716  1
  Y  Y2  1  0.502203  0.159477  0.216418  1
  Y  Y3  1  0.839588  0.497369  0.283284  1
  Y  Y4  1  0.159477  0.502203  0.783582  1
  Y  Y5  1  0.659466  0.997900  0.966760  1
  Y  Y6  1  0.002633  0.339889  0.533227  1
  Y  Y7  1  0.997900  0.659466  0.033240  1
  Ta  Ta8  1  0.326958  0.326958  0.000000  1
  Ti  Ti9  1  0.173515  0.826821  0.250086  1
  Ti  Ti10  1  0.826821  0.173515  0.749914  1
  Ti  Ti11  1  0.672683  0.672683  0.500000  1
  Ti  Ti12  1  0.154030  0.009391  0.876783  1
  Ti  Ti13  1  0.491196  0.651760  0.125531  1
  Ti  Ti14  1  0.508550  0.348066  0.626272  1
  Ti  Ti15  1  0.651760  0.491196  0.874469  1
  Ti  Ti16  1  0.348066  0.508550  0.373728  1
  Ti  Ti17  1  0.847148  0.991788  0.376365  1
  Ti  Ti18  1  0.009391  0.154030  0.123217  1
  Ti  Ti19  1  0.991788  0.847148  0.623635  1
  Si  Si20  1  0.202089  0.129480  0.684719  1
  Si  Si21  1  0.370405  0.702314  0.934749  1
  Si  Si22  1  0.629364  0.297912  0.435010  1
  Si  Si23  1  0.702314  0.370405  0.065251  1
  Si  Si24  1  0.297912  0.629364  0.564990  1
  Si  Si25  1  0.797694  0.870415  0.184920  1
  Si  Si26  1  0.129480  0.202089  0.315281  1
  Si  Si27  1  0.870415  0.797694  0.815080  1
  Si  Si28  1  0.291040  0.952876  0.064998  1
  Si  Si29  1  0.546655  0.791157  0.314851  1
  Si  Si30  1  0.454035  0.208279  0.813820  1
  Si  Si31  1  0.791157  0.546655  0.685149  1
  Si  Si32  1  0.208279  0.454035  0.186180  1
  Si  Si33  1  0.709187  0.046667  0.564717  1
  Si  Si34  1  0.952876  0.291040  0.935002  1
  Si  Si35  1  0.046667  0.709187  0.435283  1
