# generated using pymatgen
data_Ac2Nd3Pt4
_symmetry_space_group_name_H-M   'P 1'
_cell_length_a   8.26158100
_cell_length_b   8.04382600
_cell_length_c   15.02512700
_cell_angle_alpha   90.00000000
_cell_angle_beta   90.00000000
_cell_angle_gamma   90.00000000
_symmetry_Int_Tables_number   1
_chemical_formula_structural   Ac2Nd3Pt4
_chemical_formula_sum   'Ac8 Nd12 Pt16'
_cell_volume   998.49060848
_cell_formula_units_Z   4
loop_
 _symmetry_equiv_pos_site_id
 _symmetry_equiv_pos_as_xyz
  1  'x, y, z'
loop_
 _atom_site_type_symbol
 _atom_site_label
 _atom_site_symmetry_multiplicity
 _atom_site_fract_x
 _atom_site_fract_y
 _atom_site_fract_z
 _atom_site_occupancy
  Ac  Ac0  1  0.472881  0.180464  0.602449  1
  Ac  Ac1  1  0.972881  0.319536  0.897551  1
  Ac  Ac2  1  0.527119  0.819536  0.102449  1
  Ac  Ac3  1  0.027119  0.680464  0.397551  1
  Ac  Ac4  1  0.527119  0.819536  0.397551  1
  Ac  Ac5  1  0.027119  0.680464  0.102449  1
  Ac  Ac6  1  0.472881  0.180464  0.897551  1
  Ac  Ac7  1  0.972881  0.319536  0.602449  1
  Nd  Nd8  1  0.326210  0.662600  0.621192  1
  Nd  Nd9  1  0.826210  0.837400  0.878808  1
  Nd  Nd10  1  0.673790  0.337400  0.121192  1
  Nd  Nd11  1  0.173790  0.162600  0.378808  1
  Nd  Nd12  1  0.673790  0.337400  0.378808  1
  Nd  Nd13  1  0.173790  0.162600  0.121192  1
  Nd  Nd14  1  0.326210  0.662600  0.878808  1
  Nd  Nd15  1  0.826210  0.837400  0.621192  1
  Nd  Nd16  1  0.660300  0.505495  0.750000  1
  Nd  Nd17  1  0.160300  0.994505  0.750000  1
  Nd  Nd18  1  0.339700  0.494505  0.250000  1
  Nd  Nd19  1  0.839700  0.005495  0.250000  1
  Pt  Pt20  1  0.839022  0.037055  0.451987  1
  Pt  Pt21  1  0.339022  0.462945  0.048013  1
  Pt  Pt22  1  0.160978  0.962945  0.951987  1
  Pt  Pt23  1  0.660978  0.537055  0.548013  1
  Pt  Pt24  1  0.160978  0.962945  0.548013  1
  Pt  Pt25  1  0.660978  0.537055  0.951987  1
  Pt  Pt26  1  0.839022  0.037055  0.048013  1
  Pt  Pt27  1  0.339022  0.462945  0.451987  1
  Pt  Pt28  1  0.275183  0.364917  0.750000  1
  Pt  Pt29  1  0.775183  0.135083  0.750000  1
  Pt  Pt30  1  0.724817  0.635083  0.250000  1
  Pt  Pt31  1  0.224817  0.864917  0.250000  1
  Pt  Pt32  1  0.529093  0.873460  0.750000  1
  Pt  Pt33  1  0.029093  0.626540  0.750000  1
  Pt  Pt34  1  0.470907  0.126540  0.250000  1
  Pt  Pt35  1  0.970907  0.373460  0.250000  1
