# generated using pymatgen
data_LiCr4GaSe8
_symmetry_space_group_name_H-M   'P 1'
_cell_length_a   7.51757618
_cell_length_b   7.51757666
_cell_length_c   7.51757700
_cell_angle_alpha   60.00000290
_cell_angle_beta   60.00000080
_cell_angle_gamma   60.00000517
_symmetry_Int_Tables_number   1
_chemical_formula_structural   LiCr4GaSe8
_chemical_formula_sum   'Li1 Cr4 Ga1 Se8'
_cell_volume   300.41292895
_cell_formula_units_Z   1
loop_
 _symmetry_equiv_pos_site_id
 _symmetry_equiv_pos_as_xyz
  1  'x, y, z'
loop_
 _atom_site_type_symbol
 _atom_site_label
 _atom_site_symmetry_multiplicity
 _atom_site_fract_x
 _atom_site_fract_y
 _atom_site_fract_z
 _atom_site_occupancy
  Li  Li0  1  0.000000  0.000000  0.000000  1
  Cr  Cr1  1  0.370625  0.370625  0.370625  1
  Cr  Cr2  1  0.370625  0.370625  0.888124  1
  Cr  Cr3  1  0.370625  0.888124  0.370625  1
  Cr  Cr4  1  0.888124  0.370625  0.370625  1
  Ga  Ga5  1  0.750000  0.750000  0.750000  1
  Se  Se6  1  0.136270  0.136270  0.136270  1
  Se  Se7  1  0.136270  0.136270  0.591190  1
  Se  Se8  1  0.136270  0.591190  0.136270  1
  Se  Se9  1  0.591190  0.136270  0.136270  1
  Se  Se10  1  0.614561  0.614561  0.614561  1
  Se  Se11  1  0.614561  0.614561  0.156317  1
  Se  Se12  1  0.614561  0.156317  0.614561  1
  Se  Se13  1  0.156317  0.614561  0.614561  1
