# generated using pymatgen
data_TbHo15(HgRh)4
_symmetry_space_group_name_H-M   'P 1'
_cell_length_a   9.55807631
_cell_length_b   9.55807627
_cell_length_c   9.56364000
_cell_angle_alpha   59.98073559
_cell_angle_beta   59.98073573
_cell_angle_gamma   59.95159463
_symmetry_Int_Tables_number   1
_chemical_formula_structural   TbHo15(HgRh)4
_chemical_formula_sum   'Tb1 Ho15 Hg4 Rh4'
_cell_volume   617.39577540
_cell_formula_units_Z   1
loop_
 _symmetry_equiv_pos_site_id
 _symmetry_equiv_pos_as_xyz
  1  'x, y, z'
loop_
 _atom_site_type_symbol
 _atom_site_label
 _atom_site_symmetry_multiplicity
 _atom_site_fract_x
 _atom_site_fract_y
 _atom_site_fract_z
 _atom_site_occupancy
  Tb  Tb0  1  0.936464  0.936464  0.563536  1
  Ho  Ho1  1  0.563273  0.563273  0.936727  1
  Ho  Ho2  1  0.689146  0.689146  0.310854  1
  Ho  Ho3  1  0.147925  0.554654  0.148710  1
  Ho  Ho4  1  0.689308  0.311778  0.688696  1
  Ho  Ho5  1  0.148644  0.148644  0.149383  1
  Ho  Ho6  1  0.554654  0.147925  0.148710  1
  Ho  Ho7  1  0.689308  0.311778  0.310218  1
  Ho  Ho8  1  0.148644  0.148644  0.553328  1
  Ho  Ho9  1  0.311778  0.689308  0.310218  1
  Ho  Ho10  1  0.311778  0.689308  0.688696  1
  Ho  Ho11  1  0.936948  0.562292  0.563695  1
  Ho  Ho12  1  0.936948  0.562292  0.937065  1
  Ho  Ho13  1  0.562292  0.936948  0.563695  1
  Ho  Ho14  1  0.562292  0.936948  0.937065  1
  Ho  Ho15  1  0.310945  0.310945  0.689055  1
  Hg  Hg16  1  0.915158  0.915158  0.253807  1
  Hg  Hg17  1  0.255360  0.914941  0.914849  1
  Hg  Hg18  1  0.915158  0.915158  0.915877  1
  Hg  Hg19  1  0.914941  0.255360  0.914849  1
  Rh  Rh20  1  0.356678  0.356678  0.928946  1
  Rh  Rh21  1  0.356811  0.928865  0.357161  1
  Rh  Rh22  1  0.928865  0.356811  0.357161  1
  Rh  Rh23  1  0.356678  0.356678  0.357696  1
