# generated using pymatgen
data_GdTm(ThH5)6
_symmetry_space_group_name_H-M   'P 1'
_cell_length_a   7.82607086
_cell_length_b   7.82641630
_cell_length_c   7.78522587
_cell_angle_alpha   109.42095431
_cell_angle_beta   109.40621307
_cell_angle_gamma   109.64574597
_symmetry_Int_Tables_number   1
_chemical_formula_structural   GdTm(ThH5)6
_chemical_formula_sum   'Gd1 Tm1 Th6 H30'
_cell_volume   366.80586956
_cell_formula_units_Z   1
loop_
 _symmetry_equiv_pos_site_id
 _symmetry_equiv_pos_as_xyz
  1  'x, y, z'
loop_
 _atom_site_type_symbol
 _atom_site_label
 _atom_site_symmetry_multiplicity
 _atom_site_fract_x
 _atom_site_fract_y
 _atom_site_fract_z
 _atom_site_occupancy
  Gd  Gd0  1  0.915603  0.916577  0.916918  1
  Tm  Tm1  1  0.498957  0.999465  0.085594  1
  Th  Th2  1  0.992857  0.079069  0.494145  1
  Th  Th3  1  0.085788  0.506050  0.001363  1
  Th  Th4  1  0.999383  0.584344  0.504698  1
  Th  Th5  1  0.583548  0.503075  0.999049  1
  Th  Th6  1  0.503752  0.998814  0.588102  1
  Th  Th7  1  0.417531  0.410732  0.412322  1
  H  H8  1  0.649630  0.964362  0.368324  1
  H  H9  1  0.217194  0.316311  0.845460  1
  H  H10  1  0.186527  0.402942  0.533907  1
  H  H11  1  0.098153  0.283078  0.127057  1
  H  H12  1  0.286403  0.122809  0.094233  1
  H  H13  1  0.126533  0.094786  0.279273  1
  H  H14  1  0.472084  0.154651  0.876768  1
  H  H15  1  0.719099  0.350488  0.813346  1
  H  H16  1  0.627758  0.379174  0.250681  1
  H  H17  1  0.250875  0.624501  0.376794  1
  H  H18  1  0.748232  0.872263  0.126435  1
  H  H19  1  0.124832  0.746991  0.873521  1
  H  H20  1  0.373742  0.247322  0.623566  1
  H  H21  1  0.875754  0.129674  0.748827  1
  H  H22  1  0.780513  0.592865  0.629038  1
  H  H23  1  0.318635  0.849875  0.220587  1
  H  H24  1  0.374832  0.661240  0.968321  1
  H  H25  1  0.963688  0.368683  0.651017  1
  H  H26  1  0.536769  0.184556  0.404165  1
  H  H27  1  0.405758  0.537377  0.186774  1
  H  H28  1  0.837561  0.215387  0.310002  1
  H  H29  1  0.905633  0.689061  0.034101  1
  H  H30  1  0.812481  0.717293  0.348688  1
  H  H31  1  0.152044  0.869096  0.465423  1
  H  H32  1  0.684636  0.029253  0.907306  1
  H  H33  1  0.347893  0.818250  0.725666  1
  H  H34  1  0.871959  0.470538  0.153856  1
  H  H35  1  0.629381  0.778907  0.592369  1
  H  H36  1  0.594605  0.625767  0.777485  1
  H  H37  1  0.029377  0.904372  0.684816  1
