# generated using pymatgen
data_YEr7Mg2(SiB4)4
_symmetry_space_group_name_H-M   'P 1'
_cell_length_a   7.13451302
_cell_length_b   7.13451302
_cell_length_c   7.77597801
_cell_angle_alpha   89.99697981
_cell_angle_beta   90.00302019
_cell_angle_gamma   89.99264384
_symmetry_Int_Tables_number   1
_chemical_formula_structural   YEr7Mg2(SiB4)4
_chemical_formula_sum   'Y1 Er7 Mg2 Si4 B16'
_cell_volume   395.80719820
_cell_formula_units_Z   1
loop_
 _symmetry_equiv_pos_site_id
 _symmetry_equiv_pos_as_xyz
  1  'x, y, z'
loop_
 _atom_site_type_symbol
 _atom_site_label
 _atom_site_symmetry_multiplicity
 _atom_site_fract_x
 _atom_site_fract_y
 _atom_site_fract_z
 _atom_site_occupancy
  Y  Y0  1  0.182479  0.317521  0.234120  1
  Er  Er1  1  0.682552  0.182469  0.232530  1
  Er  Er2  1  0.317540  0.817477  0.767558  1
  Er  Er3  1  0.317531  0.817448  0.232530  1
  Er  Er4  1  0.817405  0.682595  0.232477  1
  Er  Er5  1  0.817419  0.682581  0.767567  1
  Er  Er6  1  0.682523  0.182460  0.767558  1
  Er  Er7  1  0.182496  0.317504  0.767493  1
  Mg  Mg8  1  0.999826  0.999727  0.500227  1
  Mg  Mg9  1  0.500273  0.500174  0.500227  1
  Si  Si10  1  0.115251  0.616143  0.500564  1
  Si  Si11  1  0.883857  0.384749  0.500564  1
  Si  Si12  1  0.384982  0.115018  0.500742  1
  Si  Si13  1  0.615723  0.884277  0.500082  1
  B  B14  1  0.173983  0.039230  0.999725  1
  B  B15  1  0.825788  0.960276  0.999873  1
  B  B16  1  0.959986  0.173865  0.999609  1
  B  B17  1  0.326135  0.540014  0.999609  1
  B  B18  1  0.039519  0.825832  0.999821  1
  B  B19  1  0.674168  0.460481  0.999821  1
  B  B20  1  0.539724  0.674212  0.999873  1
  B  B21  1  0.460770  0.326017  0.999725  1
  B  B22  1  0.088754  0.589067  0.999466  1
  B  B23  1  0.910933  0.411246  0.999466  1
  B  B24  1  0.411287  0.088713  0.999789  1
  B  B25  1  0.588868  0.911132  0.999907  1
  B  B26  1  0.999661  0.999391  0.163852  1
  B  B27  1  0.999941  0.999983  0.835687  1
  B  B28  1  0.500017  0.500059  0.835687  1
  B  B29  1  0.500609  0.500339  0.163852  1
