# generated using pymatgen
data_Lu6P12Rh17W
_symmetry_space_group_name_H-M   'P 1'
_cell_length_a   3.90563700
_cell_length_b   11.14406600
_cell_length_c   12.71692400
_cell_angle_alpha   90.00000000
_cell_angle_beta   90.00000000
_cell_angle_gamma   90.00000000
_symmetry_Int_Tables_number   1
_chemical_formula_structural   Lu6P12Rh17W
_chemical_formula_sum   'Lu6 P12 Rh17 W1'
_cell_volume   553.50000318
_cell_formula_units_Z   1
loop_
 _symmetry_equiv_pos_site_id
 _symmetry_equiv_pos_as_xyz
  1  'x, y, z'
loop_
 _atom_site_type_symbol
 _atom_site_label
 _atom_site_symmetry_multiplicity
 _atom_site_fract_x
 _atom_site_fract_y
 _atom_site_fract_z
 _atom_site_occupancy
  Lu  Lu0  1  0.000000  0.500000  0.521342  1
  Lu  Lu1  1  0.500000  0.000000  0.476445  1
  Lu  Lu2  1  0.500000  0.813093  0.206612  1
  Lu  Lu3  1  0.500000  0.186907  0.206612  1
  Lu  Lu4  1  0.000000  0.681854  0.796323  1
  Lu  Lu5  1  0.000000  0.318146  0.796323  1
  P  P6  1  0.500000  0.500000  0.872719  1
  P  P7  1  0.000000  0.000000  0.124629  1
  P  P8  1  0.500000  0.500000  0.349616  1
  P  P9  1  0.000000  0.000000  0.647539  1
  P  P10  1  0.500000  0.316109  0.619705  1
  P  P11  1  0.500000  0.683891  0.619705  1
  P  P12  1  0.000000  0.184848  0.381273  1
  P  P13  1  0.000000  0.815152  0.381273  1
  P  P14  1  0.500000  0.848808  0.890031  1
  P  P15  1  0.500000  0.151192  0.890031  1
  P  P16  1  0.000000  0.654069  0.111023  1
  P  P17  1  0.000000  0.345931  0.111023  1
  Rh  Rh18  1  0.000000  0.000000  0.832362  1
  Rh  Rh19  1  0.500000  0.500000  0.696581  1
  Rh  Rh20  1  0.000000  0.000000  0.301164  1
  Rh  Rh21  1  0.000000  0.500000  0.988164  1
  Rh  Rh22  1  0.500000  0.000000  0.023248  1
  Rh  Rh23  1  0.500000  0.332556  0.983173  1
  Rh  Rh24  1  0.500000  0.667444  0.983173  1
  Rh  Rh25  1  0.000000  0.167612  0.013358  1
  Rh  Rh26  1  0.000000  0.832388  0.013358  1
  Rh  Rh27  1  0.500000  0.294527  0.433428  1
  Rh  Rh28  1  0.500000  0.705473  0.433428  1
  Rh  Rh29  1  0.000000  0.200139  0.568401  1
  Rh  Rh30  1  0.000000  0.799861  0.568401  1
  Rh  Rh31  1  0.500000  0.872464  0.710016  1
  Rh  Rh32  1  0.500000  0.127536  0.710016  1
  Rh  Rh33  1  0.000000  0.626083  0.290807  1
  Rh  Rh34  1  0.000000  0.373917  0.290807  1
  W  W35  1  0.500000  0.500000  0.157892  1
