# generated using pymatgen
data_Dy4Sc16(Bi3Sb)3
_symmetry_space_group_name_H-M   'P 1'
_cell_length_a   7.82949151
_cell_length_b   9.02590000
_cell_length_c   11.51213874
_cell_angle_alpha   90.00000000
_cell_angle_beta   90.04128524
_cell_angle_gamma   90.00000000
_symmetry_Int_Tables_number   1
_chemical_formula_structural   Dy4Sc16(Bi3Sb)3
_chemical_formula_sum   'Dy4 Sc16 Bi9 Sb3'
_cell_volume   813.54199744
_cell_formula_units_Z   1
loop_
 _symmetry_equiv_pos_site_id
 _symmetry_equiv_pos_as_xyz
  1  'x, y, z'
loop_
 _atom_site_type_symbol
 _atom_site_label
 _atom_site_symmetry_multiplicity
 _atom_site_fract_x
 _atom_site_fract_y
 _atom_site_fract_z
 _atom_site_occupancy
  Dy  Dy0  1  0.319220  0.250000  0.216685  1
  Dy  Dy1  1  0.814608  0.250000  0.279345  1
  Dy  Dy2  1  0.681877  0.750000  0.781796  1
  Dy  Dy3  1  0.181997  0.750000  0.718188  1
  Sc  Sc4  1  0.348907  0.750000  0.217579  1
  Sc  Sc5  1  0.849124  0.750000  0.282269  1
  Sc  Sc6  1  0.651192  0.250000  0.782224  1
  Sc  Sc7  1  0.151954  0.250000  0.720892  1
  Sc  Sc8  1  0.689074  0.565465  0.060963  1
  Sc  Sc9  1  0.190078  0.930999  0.438675  1
  Sc  Sc10  1  0.310913  0.065290  0.939094  1
  Sc  Sc11  1  0.808154  0.436680  0.562000  1
  Sc  Sc12  1  0.310913  0.434710  0.939094  1
  Sc  Sc13  1  0.808154  0.063320  0.562000  1
  Sc  Sc14  1  0.689074  0.934535  0.060963  1
  Sc  Sc15  1  0.190078  0.569001  0.438675  1
  Sc  Sc16  1  0.482368  0.250000  0.488785  1
  Sc  Sc17  1  0.978602  0.250000  0.011361  1
  Sc  Sc18  1  0.522025  0.750000  0.511662  1
  Sc  Sc19  1  0.021643  0.750000  0.988573  1
  Bi  Bi20  1  0.097716  0.250000  0.466633  1
  Bi  Bi21  1  0.563700  0.989687  0.328493  1
  Bi  Bi22  1  0.063920  0.510081  0.171493  1
  Bi  Bi23  1  0.435876  0.489737  0.671636  1
  Bi  Bi24  1  0.936020  0.009979  0.828562  1
  Bi  Bi25  1  0.435876  0.010263  0.671636  1
  Bi  Bi26  1  0.936020  0.490021  0.828562  1
  Bi  Bi27  1  0.563700  0.510313  0.328493  1
  Bi  Bi28  1  0.063920  0.989919  0.171493  1
  Sb  Sb29  1  0.402897  0.750000  0.967451  1
  Sb  Sb30  1  0.902885  0.750000  0.532530  1
  Sb  Sb31  1  0.597514  0.250000  0.032195  1
