# generated using pymatgen
data_Y3Lu5B24(OsW)2
_symmetry_space_group_name_H-M   'P 1'
_cell_length_a   3.59269000
_cell_length_b   9.15803443
_cell_length_c   11.55608613
_cell_angle_alpha   89.84684446
_cell_angle_beta   90.00000000
_cell_angle_gamma   90.00000000
_symmetry_Int_Tables_number   1
_chemical_formula_structural   Y3Lu5B24(OsW)2
_chemical_formula_sum   'Y3 Lu5 B24 Os2 W2'
_cell_volume   380.21674146
_cell_formula_units_Z   1
loop_
 _symmetry_equiv_pos_site_id
 _symmetry_equiv_pos_as_xyz
  1  'x, y, z'
loop_
 _atom_site_type_symbol
 _atom_site_label
 _atom_site_symmetry_multiplicity
 _atom_site_fract_x
 _atom_site_fract_y
 _atom_site_fract_z
 _atom_site_occupancy
  Y  Y0  1  0.000000  0.320764  0.413826  1
  Y  Y1  1  0.000000  0.679117  0.586377  1
  Y  Y2  1  0.000000  0.821053  0.086104  1
  Lu  Lu3  1  0.000000  0.179166  0.913652  1
  Lu  Lu4  1  0.000000  0.945293  0.371449  1
  Lu  Lu5  1  0.000000  0.054925  0.628664  1
  Lu  Lu6  1  0.000000  0.441997  0.127208  1
  Lu  Lu7  1  0.000000  0.557411  0.872566  1
  B  B8  1  0.500000  0.551200  0.434436  1
  B  B9  1  0.500000  0.448436  0.565934  1
  B  B10  1  0.500000  0.054609  0.065924  1
  B  B11  1  0.500000  0.947116  0.933027  1
  B  B12  1  0.500000  0.753587  0.420986  1
  B  B13  1  0.500000  0.246500  0.579379  1
  B  B14  1  0.500000  0.249623  0.080348  1
  B  B15  1  0.500000  0.750455  0.918194  1
  B  B16  1  0.500000  0.796636  0.263303  1
  B  B17  1  0.500000  0.202990  0.737991  1
  B  B18  1  0.500000  0.290490  0.232757  1
  B  B19  1  0.500000  0.709593  0.766852  1
  B  B20  1  0.500000  0.630813  0.180771  1
  B  B21  1  0.500000  0.367840  0.820068  1
  B  B22  1  0.500000  0.129820  0.313387  1
  B  B23  1  0.500000  0.870701  0.686608  1
  B  B24  1  0.500000  0.983677  0.211760  1
  B  B25  1  0.500000  0.017637  0.788584  1
  B  B26  1  0.500000  0.477123  0.284937  1
  B  B27  1  0.500000  0.522451  0.715116  1
  B  B28  1  0.500000  0.600775  0.027012  1
  B  B29  1  0.500000  0.397614  0.972578  1
  B  B30  1  0.500000  0.100264  0.471329  1
  B  B31  1  0.500000  0.899919  0.528802  1
  Os  Os32  1  0.000000  0.138439  0.177502  1
  Os  Os33  1  0.000000  0.862508  0.821933  1
  W  W34  1  0.000000  0.639342  0.319019  1
  W  W35  1  0.000000  0.360117  0.681615  1
