# generated using pymatgen
data_Nd5Bi2Ru
_symmetry_space_group_name_H-M   'P 1'
_cell_length_a   8.34381700
_cell_length_b   9.19041700
_cell_length_c   12.89351500
_cell_angle_alpha   90.00000000
_cell_angle_beta   90.00000000
_cell_angle_gamma   90.00000000
_symmetry_Int_Tables_number   1
_chemical_formula_structural   Nd5Bi2Ru
_chemical_formula_sum   'Nd20 Bi8 Ru4'
_cell_volume   988.71544278
_cell_formula_units_Z   4
loop_
 _symmetry_equiv_pos_site_id
 _symmetry_equiv_pos_as_xyz
  1  'x, y, z'
loop_
 _atom_site_type_symbol
 _atom_site_label
 _atom_site_symmetry_multiplicity
 _atom_site_fract_x
 _atom_site_fract_y
 _atom_site_fract_z
 _atom_site_occupancy
  Nd  Nd0  1  0.844457  0.750000  0.793528  1
  Nd  Nd1  1  0.155543  0.250000  0.206472  1
  Nd  Nd2  1  0.344457  0.250000  0.706472  1
  Nd  Nd3  1  0.655543  0.750000  0.293528  1
  Nd  Nd4  1  0.374917  0.750000  0.692849  1
  Nd  Nd5  1  0.625083  0.250000  0.307151  1
  Nd  Nd6  1  0.874917  0.250000  0.807151  1
  Nd  Nd7  1  0.125083  0.750000  0.192849  1
  Nd  Nd8  1  0.943769  0.750000  0.503431  1
  Nd  Nd9  1  0.056231  0.250000  0.496569  1
  Nd  Nd10  1  0.443769  0.250000  0.996569  1
  Nd  Nd11  1  0.556231  0.750000  0.003431  1
  Nd  Nd12  1  0.676807  0.039279  0.565822  1
  Nd  Nd13  1  0.323193  0.960721  0.434178  1
  Nd  Nd14  1  0.176807  0.960721  0.934178  1
  Nd  Nd15  1  0.323193  0.539279  0.434178  1
  Nd  Nd16  1  0.823193  0.039279  0.065822  1
  Nd  Nd17  1  0.676807  0.460721  0.565822  1
  Nd  Nd18  1  0.823193  0.460721  0.065822  1
  Nd  Nd19  1  0.176807  0.539279  0.934178  1
  Bi  Bi20  1  0.570154  0.493569  0.827362  1
  Bi  Bi21  1  0.429846  0.506431  0.172638  1
  Bi  Bi22  1  0.070154  0.506431  0.672638  1
  Bi  Bi23  1  0.429846  0.993569  0.172638  1
  Bi  Bi24  1  0.929846  0.493569  0.327362  1
  Bi  Bi25  1  0.570154  0.006431  0.827362  1
  Bi  Bi26  1  0.929846  0.006431  0.327362  1
  Bi  Bi27  1  0.070154  0.993569  0.672638  1
  Ru  Ru28  1  0.576962  0.750000  0.510000  1
  Ru  Ru29  1  0.423038  0.250000  0.490000  1
  Ru  Ru30  1  0.076962  0.250000  0.990000  1
  Ru  Ru31  1  0.923038  0.750000  0.010000  1
