# generated using pymatgen
data_Y19Th(Ir3Os)3
_symmetry_space_group_name_H-M   'P 1'
_cell_length_a   10.93704193
_cell_length_b   10.91532856
_cell_length_c   6.44299250
_cell_angle_alpha   90.07372516
_cell_angle_beta   89.77734197
_cell_angle_gamma   89.97350604
_symmetry_Int_Tables_number   1
_chemical_formula_structural   Y19Th(Ir3Os)3
_chemical_formula_sum   'Y19 Th1 Ir9 Os3'
_cell_volume   769.16697580
_cell_formula_units_Z   1
loop_
 _symmetry_equiv_pos_site_id
 _symmetry_equiv_pos_as_xyz
  1  'x, y, z'
loop_
 _atom_site_type_symbol
 _atom_site_label
 _atom_site_symmetry_multiplicity
 _atom_site_fract_x
 _atom_site_fract_y
 _atom_site_fract_z
 _atom_site_occupancy
  Y  Y0  1  0.293406  0.911856  0.877684  1
  Y  Y1  1  0.705295  0.085651  0.881385  1
  Y  Y2  1  0.705927  0.912371  0.378967  1
  Y  Y3  1  0.586003  0.794488  0.880047  1
  Y  Y4  1  0.592800  0.208027  0.379000  1
  Y  Y5  1  0.415253  0.789019  0.378182  1
  Y  Y6  1  0.415179  0.207922  0.878506  1
  Y  Y7  1  0.207683  0.413844  0.622936  1
  Y  Y8  1  0.205601  0.586926  0.118749  1
  Y  Y9  1  0.793156  0.413983  0.117730  1
  Y  Y10  1  0.791817  0.587396  0.623381  1
  Y  Y11  1  0.912542  0.707476  0.119748  1
  Y  Y12  1  0.912814  0.292136  0.621085  1
  Y  Y13  1  0.086574  0.707682  0.623367  1
  Y  Y14  1  0.085421  0.293677  0.116381  1
  Y  Y15  1  0.995967  0.998508  0.499402  1
  Y  Y16  1  0.000369  0.000143  0.999152  1
  Y  Y17  1  0.499538  0.500205  0.001344  1
  Y  Y18  1  0.501534  0.498915  0.501906  1
  Th  Th19  1  0.295545  0.087029  0.381083  1
  Ir  Ir20  1  0.848506  0.154210  0.247651  1
  Ir  Ir21  1  0.846858  0.847117  0.751772  1
  Ir  Ir22  1  0.153529  0.151467  0.741041  1
  Ir  Ir23  1  0.154119  0.850108  0.253773  1
  Ir  Ir24  1  0.653795  0.348445  0.750653  1
  Ir  Ir25  1  0.652907  0.651550  0.248517  1
  Ir  Ir26  1  0.346402  0.345971  0.253241  1
  Ir  Ir27  1  0.347625  0.650781  0.750437  1
  Ir  Ir28  1  0.999524  0.500864  0.376231  1
  Os  Os29  1  0.495944  0.001215  0.131140  1
  Os  Os30  1  0.498816  0.000614  0.623164  1
  Os  Os31  1  0.999554  0.500406  0.872347  1
