# generated using pymatgen
data_Tb5Lu3(OsI4)2
_symmetry_space_group_name_H-M   'P 1'
_cell_length_a   11.26908908
_cell_length_b   11.28712455
_cell_length_c   6.16924709
_cell_angle_alpha   90.00320174
_cell_angle_beta   89.98398041
_cell_angle_gamma   90.02752492
_symmetry_Int_Tables_number   1
_chemical_formula_structural   Tb5Lu3(OsI4)2
_chemical_formula_sum   'Tb5 Lu3 Os2 I8'
_cell_volume   784.70103662
_cell_formula_units_Z   1
loop_
 _symmetry_equiv_pos_site_id
 _symmetry_equiv_pos_as_xyz
  1  'x, y, z'
loop_
 _atom_site_type_symbol
 _atom_site_label
 _atom_site_symmetry_multiplicity
 _atom_site_fract_x
 _atom_site_fract_y
 _atom_site_fract_z
 _atom_site_occupancy
  Tb  Tb0  1  0.200061  0.083863  0.500232  1
  Tb  Tb1  1  0.918431  0.799122  0.000013  1
  Tb  Tb2  1  0.917310  0.201208  0.499967  1
  Tb  Tb3  1  0.200402  0.916754  0.999856  1
  Tb  Tb4  1  0.798755  0.919147  0.500073  1
  Lu  Lu5  1  0.808336  0.078245  0.000575  1
  Lu  Lu6  1  0.078710  0.808805  0.500469  1
  Lu  Lu7  1  0.079320  0.191154  0.000424  1
  Os  Os8  1  0.999955  0.999942  0.250361  1
  Os  Os9  1  0.999952  0.999993  0.750147  1
  I  I10  1  0.641900  0.150566  0.497303  1
  I  I11  1  0.854270  0.643793  0.502305  1
  I  I12  1  0.353947  0.152124  0.997596  1
  I  I13  1  0.149725  0.357848  0.497001  1
  I  I14  1  0.643013  0.854337  0.002355  1
  I  I15  1  0.353758  0.848043  0.502008  1
  I  I16  1  0.150085  0.642579  0.997401  1
  I  I17  1  0.852070  0.352477  0.001914  1
