# generated using pymatgen
data_Dy3Y7Cd3Tc
_symmetry_space_group_name_H-M   'P 1'
_cell_length_a   9.58868200
_cell_length_b   9.58868269
_cell_length_c   9.97177500
_cell_angle_alpha   90.00000000
_cell_angle_beta   90.00000000
_cell_angle_gamma   119.99999761
_symmetry_Int_Tables_number   1
_chemical_formula_structural   Dy3Y7Cd3Tc
_chemical_formula_sum   'Dy6 Y14 Cd6 Tc2'
_cell_volume   794.00086565
_cell_formula_units_Z   2
loop_
 _symmetry_equiv_pos_site_id
 _symmetry_equiv_pos_as_xyz
  1  'x, y, z'
loop_
 _atom_site_type_symbol
 _atom_site_label
 _atom_site_symmetry_multiplicity
 _atom_site_fract_x
 _atom_site_fract_y
 _atom_site_fract_z
 _atom_site_occupancy
  Dy  Dy0  1  0.210057  0.789943  0.440750  1
  Dy  Dy1  1  0.210057  0.420115  0.440750  1
  Dy  Dy2  1  0.579885  0.789943  0.440750  1
  Dy  Dy3  1  0.789943  0.210057  0.559250  1
  Dy  Dy4  1  0.789943  0.579885  0.559250  1
  Dy  Dy5  1  0.420115  0.210057  0.559250  1
  Y  Y6  1  0.000000  0.000000  0.500000  1
  Y  Y7  1  0.000000  0.000000  0.000000  1
  Y  Y8  1  0.790043  0.209957  0.940798  1
  Y  Y9  1  0.790043  0.580084  0.940798  1
  Y  Y10  1  0.419916  0.209957  0.940798  1
  Y  Y11  1  0.209957  0.790043  0.059202  1
  Y  Y12  1  0.209957  0.419916  0.059202  1
  Y  Y13  1  0.580084  0.790043  0.059202  1
  Y  Y14  1  0.540067  0.459933  0.250455  1
  Y  Y15  1  0.540067  0.080134  0.250455  1
  Y  Y16  1  0.919866  0.459933  0.250455  1
  Y  Y17  1  0.459933  0.540067  0.749545  1
  Y  Y18  1  0.459933  0.919866  0.749545  1
  Y  Y19  1  0.080134  0.540067  0.749545  1
  Cd  Cd20  1  0.885296  0.114704  0.249714  1
  Cd  Cd21  1  0.885296  0.770593  0.249714  1
  Cd  Cd22  1  0.229407  0.114704  0.249714  1
  Cd  Cd23  1  0.114704  0.885296  0.750286  1
  Cd  Cd24  1  0.114704  0.229407  0.750286  1
  Cd  Cd25  1  0.770593  0.885296  0.750286  1
  Tc  Tc26  1  0.333333  0.666667  0.252803  1
  Tc  Tc27  1  0.666667  0.333333  0.747197  1
