# generated using pymatgen
data_Li2Ho2Ni15
_symmetry_space_group_name_H-M   'P 1'
_cell_length_a   6.24175197
_cell_length_b   6.24175271
_cell_length_c   6.24175315
_cell_angle_alpha   82.95150033
_cell_angle_beta   97.04850230
_cell_angle_gamma   97.04848773
_symmetry_Int_Tables_number   1
_chemical_formula_structural   Li2Ho2Ni15
_chemical_formula_sum   'Li2 Ho2 Ni15'
_cell_volume   238.07886170
_cell_formula_units_Z   1
loop_
 _symmetry_equiv_pos_site_id
 _symmetry_equiv_pos_as_xyz
  1  'x, y, z'
loop_
 _atom_site_type_symbol
 _atom_site_label
 _atom_site_symmetry_multiplicity
 _atom_site_fract_x
 _atom_site_fract_y
 _atom_site_fract_z
 _atom_site_occupancy
  Li  Li0  1  0.906804  0.093195  0.093195  1
  Li  Li1  1  0.093194  0.906805  0.906805  1
  Ho  Ho2  1  0.657179  0.342820  0.342820  1
  Ho  Ho3  1  0.342819  0.657180  0.657180  1
  Ni  Ni4  1  0.500000  0.000000  0.000000  1
  Ni  Ni5  1  0.305439  0.305440  0.000000  1
  Ni  Ni6  1  0.000000  0.500000  0.000000  1
  Ni  Ni7  1  0.694561  0.694561  0.000000  1
  Ni  Ni8  1  0.343727  0.656273  0.159221  1
  Ni  Ni9  1  0.000000  0.694561  0.305438  1
  Ni  Ni10  1  0.305439  0.000000  0.305439  1
  Ni  Ni11  1  0.656272  0.840779  0.343727  1
  Ni  Ni12  1  0.159220  0.343728  0.343728  1
  Ni  Ni13  1  0.000000  0.000000  0.500000  1
  Ni  Ni14  1  0.343727  0.159221  0.656272  1
  Ni  Ni15  1  0.840779  0.656273  0.656273  1
  Ni  Ni16  1  0.000000  0.305440  0.694560  1
  Ni  Ni17  1  0.694561  0.000000  0.694561  1
  Ni  Ni18  1  0.656272  0.343728  0.840780  1
