# generated using pymatgen
data_Y3Fe8Os
_symmetry_space_group_name_H-M   'P 1'
_cell_length_a   5.13483278
_cell_length_b   5.13483254
_cell_length_c   8.74948418
_cell_angle_alpha   72.93619646
_cell_angle_beta   72.93619761
_cell_angle_gamma   60.00001218
_symmetry_Int_Tables_number   1
_chemical_formula_structural   Y3Fe8Os
_chemical_formula_sum   'Y3 Fe8 Os1'
_cell_volume   187.96838377
_cell_formula_units_Z   1
loop_
 _symmetry_equiv_pos_site_id
 _symmetry_equiv_pos_as_xyz
  1  'x, y, z'
loop_
 _atom_site_type_symbol
 _atom_site_label
 _atom_site_symmetry_multiplicity
 _atom_site_fract_x
 _atom_site_fract_y
 _atom_site_fract_z
 _atom_site_occupancy
  Y  Y0  1  0.141858  0.141858  0.574426  1
  Y  Y1  1  0.858142  0.858142  0.425574  1
  Y  Y2  1  0.000000  0.000000  0.000000  1
  Fe  Fe3  1  0.077951  0.581292  0.759464  1
  Fe  Fe4  1  0.581292  0.581292  0.759464  1
  Fe  Fe5  1  0.581292  0.077951  0.759464  1
  Fe  Fe6  1  0.922049  0.418708  0.240536  1
  Fe  Fe7  1  0.418708  0.418708  0.240536  1
  Fe  Fe8  1  0.418708  0.922049  0.240536  1
  Fe  Fe9  1  0.332971  0.332971  0.001086  1
  Fe  Fe10  1  0.667029  0.667029  0.998914  1
  Os  Os11  1  0.500000  0.500000  0.500000  1
