# generated using pymatgen
data_Tm3Lu7Sn5Bi
_symmetry_space_group_name_H-M   'P 1'
_cell_length_a   8.81661072
_cell_length_b   8.82464269
_cell_length_c   6.39092700
_cell_angle_alpha   90.00000000
_cell_angle_beta   90.00000000
_cell_angle_gamma   120.00045286
_symmetry_Int_Tables_number   1
_chemical_formula_structural   Tm3Lu7Sn5Bi
_chemical_formula_sum   'Tm3 Lu7 Sn5 Bi1'
_cell_volume   430.61713052
_cell_formula_units_Z   1
loop_
 _symmetry_equiv_pos_site_id
 _symmetry_equiv_pos_as_xyz
  1  'x, y, z'
loop_
 _atom_site_type_symbol
 _atom_site_label
 _atom_site_symmetry_multiplicity
 _atom_site_fract_x
 _atom_site_fract_y
 _atom_site_fract_z
 _atom_site_occupancy
  Tm  Tm0  1  0.765889  0.765617  0.750000  1
  Tm  Tm1  1  0.235857  0.993005  0.750000  1
  Tm  Tm2  1  0.237039  0.237336  0.250000  1
  Lu  Lu3  1  0.670523  0.332530  0.002013  1
  Lu  Lu4  1  0.332996  0.671057  0.002088  1
  Lu  Lu5  1  0.332996  0.671057  0.497912  1
  Lu  Lu6  1  0.670523  0.332530  0.497987  1
  Lu  Lu7  1  0.992730  0.235617  0.750000  1
  Lu  Lu8  1  0.761580  0.000580  0.250000  1
  Lu  Lu9  1  0.000575  0.760846  0.250000  1
  Sn  Sn10  1  0.603527  0.999796  0.750000  1
  Sn  Sn11  1  0.999597  0.602964  0.750000  1
  Sn  Sn12  1  0.607287  0.607647  0.250000  1
  Sn  Sn13  1  0.395237  0.002311  0.250000  1
  Sn  Sn14  1  0.001960  0.394756  0.250000  1
  Bi  Bi15  1  0.391685  0.392349  0.750000  1
