# generated using pymatgen
data_Tb3ErHfPt3F28
_symmetry_space_group_name_H-M   'P 1'
_cell_length_a   5.60649786
_cell_length_b   8.94962444
_cell_length_c   12.03450234
_cell_angle_alpha   62.43661514
_cell_angle_beta   90.10373568
_cell_angle_gamma   90.03741006
_symmetry_Int_Tables_number   1
_chemical_formula_structural   Tb3ErHfPt3F28
_chemical_formula_sum   'Tb3 Er1 Hf1 Pt3 F28'
_cell_volume   535.30631481
_cell_formula_units_Z   1
loop_
 _symmetry_equiv_pos_site_id
 _symmetry_equiv_pos_as_xyz
  1  'x, y, z'
loop_
 _atom_site_type_symbol
 _atom_site_label
 _atom_site_symmetry_multiplicity
 _atom_site_fract_x
 _atom_site_fract_y
 _atom_site_fract_z
 _atom_site_occupancy
  Tb  Tb0  1  0.740335  0.187026  0.734522  1
  Tb  Tb1  1  0.760382  0.182230  0.237414  1
  Tb  Tb2  1  0.240040  0.813733  0.761967  1
  Er  Er3  1  0.258391  0.812242  0.270011  1
  Hf  Hf4  1  0.755266  0.725550  0.045466  1
  Pt  Pt5  1  0.242089  0.271130  0.957071  1
  Pt  Pt6  1  0.258501  0.273942  0.456222  1
  Pt  Pt7  1  0.741713  0.726478  0.543103  1
  F  F8  1  0.934944  0.703768  0.415294  1
  F  F9  1  0.061901  0.296477  0.582768  1
  F  F10  1  0.439143  0.295899  0.083252  1
  F  F11  1  0.535560  0.710982  0.920168  1
  F  F12  1  0.481862  0.732339  0.150161  1
  F  F13  1  0.529908  0.273896  0.863054  1
  F  F14  1  0.969378  0.272225  0.363792  1
  F  F15  1  0.033883  0.727206  0.633120  1
  F  F16  1  0.969338  0.750697  0.170940  1
  F  F17  1  0.052359  0.252582  0.825991  1
  F  F18  1  0.450907  0.258166  0.324728  1
  F  F19  1  0.555343  0.743385  0.675593  1
  F  F20  1  0.774325  0.473964  0.141398  1
  F  F21  1  0.224974  0.518328  0.856484  1
  F  F22  1  0.265708  0.522035  0.359211  1
  F  F23  1  0.731330  0.479373  0.641633  1
  F  F24  1  0.946089  0.275674  0.044583  1
  F  F25  1  0.047538  0.721447  0.949767  1
  F  F26  1  0.441863  0.717998  0.459347  1
  F  F27  1  0.554658  0.283877  0.541188  1
  F  F28  1  0.743605  0.974129  0.450602  1
  F  F29  1  0.259583  0.026409  0.547819  1
  F  F30  1  0.248395  0.023591  0.052978  1
  F  F31  1  0.758470  0.976285  0.941860  1
  F  F32  1  0.575784  0.967882  0.236728  1
  F  F33  1  0.417173  0.031247  0.763782  1
  F  F34  1  0.082446  0.025612  0.269514  1
  F  F35  1  0.916816  0.972197  0.728468  1
