# generated using pymatgen
data_TbY7(TmRu2)2
_symmetry_space_group_name_H-M   'P 1'
_cell_length_a   6.35379977
_cell_length_b   7.28559791
_cell_length_c   8.48854232
_cell_angle_alpha   96.75558716
_cell_angle_beta   112.06637185
_cell_angle_gamma   89.83523566
_symmetry_Int_Tables_number   1
_chemical_formula_structural   TbY7(TmRu2)2
_chemical_formula_sum   'Tb1 Y7 Tm2 Ru4'
_cell_volume   361.26855860
_cell_formula_units_Z   1
loop_
 _symmetry_equiv_pos_site_id
 _symmetry_equiv_pos_as_xyz
  1  'x, y, z'
loop_
 _atom_site_type_symbol
 _atom_site_label
 _atom_site_symmetry_multiplicity
 _atom_site_fract_x
 _atom_site_fract_y
 _atom_site_fract_z
 _atom_site_occupancy
  Tb  Tb0  1  0.360290  0.685019  0.566971  1
  Y  Y1  1  0.792541  0.083931  0.814665  1
  Y  Y2  1  0.976875  0.415880  0.185148  1
  Y  Y3  1  0.207935  0.916209  0.185495  1
  Y  Y4  1  0.022702  0.583833  0.814967  1
  Y  Y5  1  0.206269  0.185190  0.566711  1
  Y  Y6  1  0.639813  0.314761  0.433400  1
  Y  Y7  1  0.793567  0.814830  0.433141  1
  Tm  Tm8  1  0.422816  0.249665  0.999885  1
  Tm  Tm9  1  0.577317  0.750351  0.000433  1
  Ru  Ru10  1  0.601794  0.426465  0.782438  1
  Ru  Ru11  1  0.819190  0.075013  0.216665  1
  Ru  Ru12  1  0.397588  0.574368  0.217155  1
  Ru  Ru13  1  0.181304  0.924484  0.782926  1
