# generated using pymatgen
data_Np2B6W
_symmetry_space_group_name_H-M   'P 1'
_cell_length_a   3.66105600
_cell_length_b   9.29120900
_cell_length_c   11.32855100
_cell_angle_alpha   90.00000000
_cell_angle_beta   90.00000000
_cell_angle_gamma   90.00000000
_symmetry_Int_Tables_number   1
_chemical_formula_structural   Np2B6W
_chemical_formula_sum   'Np8 B24 W4'
_cell_volume   385.34787240
_cell_formula_units_Z   4
loop_
 _symmetry_equiv_pos_site_id
 _symmetry_equiv_pos_as_xyz
  1  'x, y, z'
loop_
 _atom_site_type_symbol
 _atom_site_label
 _atom_site_symmetry_multiplicity
 _atom_site_fract_x
 _atom_site_fract_y
 _atom_site_fract_z
 _atom_site_occupancy
  Np  Np0  1  0.000000  0.338344  0.407244  1
  Np  Np1  1  0.000000  0.661656  0.592756  1
  Np  Np2  1  0.000000  0.838344  0.092756  1
  Np  Np3  1  0.000000  0.161656  0.907244  1
  Np  Np4  1  0.000000  0.958714  0.399810  1
  Np  Np5  1  0.000000  0.041286  0.600190  1
  Np  Np6  1  0.000000  0.458714  0.100190  1
  Np  Np7  1  0.000000  0.541286  0.899810  1
  B  B8  1  0.500000  0.551396  0.432542  1
  B  B9  1  0.500000  0.448604  0.567458  1
  B  B10  1  0.500000  0.051396  0.067458  1
  B  B11  1  0.500000  0.948604  0.932542  1
  B  B12  1  0.500000  0.744940  0.424367  1
  B  B13  1  0.500000  0.255060  0.575633  1
  B  B14  1  0.500000  0.244940  0.075633  1
  B  B15  1  0.500000  0.755060  0.924367  1
  B  B16  1  0.500000  0.805929  0.273755  1
  B  B17  1  0.500000  0.194071  0.726245  1
  B  B18  1  0.500000  0.305929  0.226245  1
  B  B19  1  0.500000  0.694071  0.773755  1
  B  B20  1  0.500000  0.645842  0.186826  1
  B  B21  1  0.500000  0.354158  0.813174  1
  B  B22  1  0.500000  0.145842  0.313174  1
  B  B23  1  0.500000  0.854158  0.686826  1
  B  B24  1  0.500000  0.987345  0.220777  1
  B  B25  1  0.500000  0.012655  0.779223  1
  B  B26  1  0.500000  0.487345  0.279223  1
  B  B27  1  0.500000  0.512655  0.720777  1
  B  B28  1  0.500000  0.641428  0.039130  1
  B  B29  1  0.500000  0.358572  0.960870  1
  B  B30  1  0.500000  0.141428  0.460870  1
  B  B31  1  0.500000  0.858572  0.539130  1
  W  W32  1  0.000000  0.646633  0.319243  1
  W  W33  1  0.000000  0.353367  0.680757  1
  W  W34  1  0.000000  0.146633  0.180757  1
  W  W35  1  0.000000  0.853367  0.819243  1
