# generated using pymatgen
data_Ho6MnB14Ru
_symmetry_space_group_name_H-M   'P 1'
_cell_length_a   8.01549527
_cell_length_b   8.01549516
_cell_length_c   9.28383100
_cell_angle_alpha   90.00000000
_cell_angle_beta   90.00000000
_cell_angle_gamma   154.98969044
_symmetry_Int_Tables_number   1
_chemical_formula_structural   Ho6MnB14Ru
_chemical_formula_sum   'Ho6 Mn1 B14 Ru1'
_cell_volume   252.17599737
_cell_formula_units_Z   1
loop_
 _symmetry_equiv_pos_site_id
 _symmetry_equiv_pos_as_xyz
  1  'x, y, z'
loop_
 _atom_site_type_symbol
 _atom_site_label
 _atom_site_symmetry_multiplicity
 _atom_site_fract_x
 _atom_site_fract_y
 _atom_site_fract_z
 _atom_site_occupancy
  Ho  Ho0  1  0.894786  0.105214  0.442554  1
  Ho  Ho1  1  0.104658  0.895342  0.563409  1
  Ho  Ho2  1  0.894786  0.105214  0.057446  1
  Ho  Ho3  1  0.104658  0.895342  0.936591  1
  Ho  Ho4  1  0.243722  0.756278  0.250000  1
  Ho  Ho5  1  0.759244  0.240756  0.750000  1
  Mn  Mn6  1  0.946811  0.053189  0.750000  1
  B  B7  1  0.727146  0.272854  0.466380  1
  B  B8  1  0.272390  0.727610  0.533629  1
  B  B9  1  0.727146  0.272854  0.033620  1
  B  B10  1  0.272390  0.727610  0.966371  1
  B  B11  1  0.631655  0.368345  0.150456  1
  B  B12  1  0.369869  0.630131  0.846544  1
  B  B13  1  0.631655  0.368345  0.349544  1
  B  B14  1  0.369869  0.630131  0.653456  1
  B  B15  1  0.520272  0.479728  0.095462  1
  B  B16  1  0.478588  0.521412  0.901876  1
  B  B17  1  0.520272  0.479728  0.404538  1
  B  B18  1  0.478588  0.521412  0.598124  1
  B  B19  1  0.456470  0.543530  0.250000  1
  B  B20  1  0.541106  0.458894  0.750000  1
  Ru  Ru21  1  0.053919  0.946081  0.250000  1
