# generated using pymatgen
data_Nb10Si6BH
_symmetry_space_group_name_H-M   'P 1'
_cell_length_a   7.61876700
_cell_length_b   7.61876659
_cell_length_c   5.31395100
_cell_angle_alpha   90.00000000
_cell_angle_beta   90.00000000
_cell_angle_gamma   120.00000614
_symmetry_Int_Tables_number   1
_chemical_formula_structural   Nb10Si6BH
_chemical_formula_sum   'Nb10 Si6 B1 H1'
_cell_volume   267.12683017
_cell_formula_units_Z   1
loop_
 _symmetry_equiv_pos_site_id
 _symmetry_equiv_pos_as_xyz
  1  'x, y, z'
loop_
 _atom_site_type_symbol
 _atom_site_label
 _atom_site_symmetry_multiplicity
 _atom_site_fract_x
 _atom_site_fract_y
 _atom_site_fract_z
 _atom_site_occupancy
  Nb  Nb0  1  0.666667  0.333333  0.500000  1
  Nb  Nb1  1  0.333333  0.666667  0.500000  1
  Nb  Nb2  1  0.333333  0.666667  0.000000  1
  Nb  Nb3  1  0.666667  0.333333  0.000000  1
  Nb  Nb4  1  0.754839  0.754839  0.251744  1
  Nb  Nb5  1  0.245161  0.000000  0.251744  1
  Nb  Nb6  1  0.000000  0.245161  0.251744  1
  Nb  Nb7  1  0.245161  0.245161  0.748256  1
  Nb  Nb8  1  0.754839  0.000000  0.748256  1
  Nb  Nb9  1  0.000000  0.754839  0.748256  1
  Si  Si10  1  0.398827  0.398827  0.252383  1
  Si  Si11  1  0.601173  0.000000  0.252383  1
  Si  Si12  1  0.000000  0.601173  0.252383  1
  Si  Si13  1  0.601173  0.601173  0.747617  1
  Si  Si14  1  0.398827  0.000000  0.747617  1
  Si  Si15  1  0.000000  0.398827  0.747617  1
  B  B16  1  0.000000  0.000000  0.000000  1
  H  H17  1  0.000000  0.000000  0.500000  1
