# generated using pymatgen
data_Er12Si12Pt3Rh
_symmetry_space_group_name_H-M   'P 1'
_cell_length_a   4.22476100
_cell_length_b   10.59727074
_cell_length_c   12.24345458
_cell_angle_alpha   90.00430709
_cell_angle_beta   90.00000000
_cell_angle_gamma   90.00000000
_symmetry_Int_Tables_number   1
_chemical_formula_structural   Er12Si12Pt3Rh
_chemical_formula_sum   'Er12 Si12 Pt3 Rh1'
_cell_volume   548.15092162
_cell_formula_units_Z   1
loop_
 _symmetry_equiv_pos_site_id
 _symmetry_equiv_pos_as_xyz
  1  'x, y, z'
loop_
 _atom_site_type_symbol
 _atom_site_label
 _atom_site_symmetry_multiplicity
 _atom_site_fract_x
 _atom_site_fract_y
 _atom_site_fract_z
 _atom_site_occupancy
  Er  Er0  1  0.250000  0.877710  0.020005  1
  Er  Er1  1  0.250000  0.621119  0.521325  1
  Er  Er2  1  0.750000  0.121376  0.979335  1
  Er  Er3  1  0.750000  0.378532  0.479969  1
  Er  Er4  1  0.250000  0.919329  0.602748  1
  Er  Er5  1  0.250000  0.580166  0.101905  1
  Er  Er6  1  0.750000  0.080254  0.398332  1
  Er  Er7  1  0.750000  0.419926  0.897831  1
  Er  Er8  1  0.250000  0.657963  0.800128  1
  Er  Er9  1  0.250000  0.840076  0.300996  1
  Er  Er10  1  0.750000  0.339773  0.198696  1
  Er  Er11  1  0.750000  0.159879  0.698484  1
  Si  Si12  1  0.250000  0.016644  0.823797  1
  Si  Si13  1  0.250000  0.484519  0.322879  1
  Si  Si14  1  0.750000  0.984140  0.176711  1
  Si  Si15  1  0.750000  0.512100  0.677628  1
  Si  Si16  1  0.250000  0.248407  0.840539  1
  Si  Si17  1  0.250000  0.254668  0.343785  1
  Si  Si18  1  0.750000  0.754006  0.156655  1
  Si  Si19  1  0.750000  0.744894  0.656476  1
  Si  Si20  1  0.250000  0.197557  0.542770  1
  Si  Si21  1  0.250000  0.305871  0.040510  1
  Si  Si22  1  0.750000  0.807250  0.459139  1
  Si  Si23  1  0.750000  0.693265  0.958569  1
  Pt  Pt24  1  0.250000  0.111206  0.180674  1
  Pt  Pt25  1  0.750000  0.611160  0.320374  1
  Pt  Pt26  1  0.750000  0.889006  0.819869  1
  Rh  Rh27  1  0.250000  0.389200  0.679873  1
