# generated using pymatgen
data_BaSr3Ga4F20
_symmetry_space_group_name_H-M   'P 1'
_cell_length_a   5.15511063
_cell_length_b   5.65437933
_cell_length_c   13.75622925
_cell_angle_alpha   90.53838266
_cell_angle_beta   90.09250357
_cell_angle_gamma   90.02332048
_symmetry_Int_Tables_number   1
_chemical_formula_structural   BaSr3Ga4F20
_chemical_formula_sum   'Ba1 Sr3 Ga4 F20'
_cell_volume   400.96139213
_cell_formula_units_Z   1
loop_
 _symmetry_equiv_pos_site_id
 _symmetry_equiv_pos_as_xyz
  1  'x, y, z'
loop_
 _atom_site_type_symbol
 _atom_site_label
 _atom_site_symmetry_multiplicity
 _atom_site_fract_x
 _atom_site_fract_y
 _atom_site_fract_z
 _atom_site_occupancy
  Ba  Ba0  1  0.758698  0.337807  0.156563  1
  Sr  Sr1  1  0.752542  0.656968  0.656057  1
  Sr  Sr2  1  0.249150  0.847756  0.348746  1
  Sr  Sr3  1  0.241467  0.142372  0.844453  1
  Ga  Ga4  1  0.307382  0.144677  0.592160  1
  Ga  Ga5  1  0.812168  0.369190  0.414724  1
  Ga  Ga6  1  0.692078  0.640102  0.904634  1
  Ga  Ga7  1  0.189806  0.842898  0.088295  1
  F  F8  1  0.955370  0.638567  0.475339  1
  F  F9  1  0.456855  0.877503  0.532693  1
  F  F10  1  0.059427  0.109376  0.024673  1
  F  F11  1  0.538771  0.371463  0.959118  1
  F  F12  1  0.588915  0.558354  0.337042  1
  F  F13  1  0.078536  0.963452  0.669934  1
  F  F14  1  0.384083  0.026735  0.179744  1
  F  F15  1  0.904400  0.451351  0.821000  1
  F  F16  1  0.165651  0.424251  0.641077  1
  F  F17  1  0.672328  0.096390  0.355612  1
  F  F18  1  0.840226  0.913949  0.853475  1
  F  F19  1  0.315051  0.563528  0.141339  1
  F  F20  1  0.543948  0.136184  0.698768  1
  F  F21  1  0.065711  0.392442  0.314037  1
  F  F22  1  0.439376  0.659087  0.803323  1
  F  F23  1  0.927137  0.848670  0.187758  1
  F  F24  1  0.580567  0.349655  0.526762  1
  F  F25  1  0.076866  0.154449  0.477544  1
  F  F26  1  0.455200  0.846519  0.984752  1
  F  F27  1  0.948293  0.636305  0.010378  1
