# generated using pymatgen
data_Gd3Pd(SO4)6
_symmetry_space_group_name_H-M   'P 1'
_cell_length_a   9.06249683
_cell_length_b   9.06249686
_cell_length_c   9.67076900
_cell_angle_alpha   117.94028011
_cell_angle_beta   62.05971981
_cell_angle_gamma   120.00000284
_symmetry_Int_Tables_number   1
_chemical_formula_structural   Gd3Pd(SO4)6
_chemical_formula_sum   'Gd3 Pd1 S6 O24'
_cell_volume   578.47292776
_cell_formula_units_Z   1
loop_
 _symmetry_equiv_pos_site_id
 _symmetry_equiv_pos_as_xyz
  1  'x, y, z'
loop_
 _atom_site_type_symbol
 _atom_site_label
 _atom_site_symmetry_multiplicity
 _atom_site_fract_x
 _atom_site_fract_y
 _atom_site_fract_z
 _atom_site_occupancy
  Gd  Gd0  1  0.646488  0.353513  0.060540  1
  Gd  Gd1  1  0.852795  0.147206  0.441615  1
  Gd  Gd2  1  0.139080  0.860921  0.582761  1
  Pd  Pd3  1  0.345421  0.654580  0.963738  1
  S  S4  1  0.242197  0.017941  0.241956  1
  S  S5  1  0.982058  0.466212  0.241956  1
  S  S6  1  0.533788  0.757802  0.241956  1
  S  S7  1  0.463796  0.276824  0.757484  1
  S  S8  1  0.055543  0.536204  0.757484  1
  S  S9  1  0.723176  0.944457  0.757484  1
  O  O10  1  0.155290  0.473838  0.104051  1
  O  O11  1  0.526161  0.785502  0.104051  1
  O  O12  1  0.214498  0.844709  0.104051  1
  O  O13  1  0.425395  0.149334  0.197618  1
  O  O14  1  0.850666  0.473679  0.197618  1
  O  O15  1  0.526321  0.574605  0.197618  1
  O  O16  1  0.109396  0.086154  0.268400  1
  O  O17  1  0.913845  0.291643  0.268400  1
  O  O18  1  0.708357  0.890604  0.268400  1
  O  O19  1  0.208323  0.990969  0.395108  1
  O  O20  1  0.009032  0.612462  0.395108  1
  O  O21  1  0.387538  0.791677  0.395108  1
  O  O22  1  0.612958  0.240266  0.604922  1
  O  O23  1  0.022387  0.387042  0.604922  1
  O  O24  1  0.759733  0.977612  0.604922  1
  O  O25  1  0.290413  0.141051  0.729246  1
  O  O26  1  0.121391  0.709587  0.729246  1
  O  O27  1  0.858951  0.878609  0.729246  1
  O  O28  1  0.480236  0.461481  0.790839  1
  O  O29  1  0.190406  0.519764  0.790839  1
  O  O30  1  0.538518  0.809592  0.790839  1
  O  O31  1  0.739823  0.115625  0.894161  1
  O  O32  1  0.481640  0.260177  0.894161  1
  O  O33  1  0.884375  0.518361  0.894161  1
