# generated using pymatgen
data_TbHo2LuCdNi
_symmetry_space_group_name_H-M   'P 1'
_cell_length_a   9.52412121
_cell_length_b   9.52412224
_cell_length_c   9.53341500
_cell_angle_alpha   59.96771512
_cell_angle_beta   59.96771155
_cell_angle_gamma   60.06456299
_symmetry_Int_Tables_number   1
_chemical_formula_structural   TbHo2LuCdNi
_chemical_formula_sum   'Tb4 Ho8 Lu4 Cd4 Ni4'
_cell_volume   611.48036197
_cell_formula_units_Z   4
loop_
 _symmetry_equiv_pos_site_id
 _symmetry_equiv_pos_as_xyz
  1  'x, y, z'
loop_
 _atom_site_type_symbol
 _atom_site_label
 _atom_site_symmetry_multiplicity
 _atom_site_fract_x
 _atom_site_fract_y
 _atom_site_fract_z
 _atom_site_occupancy
  Tb  Tb0  1  0.599848  0.599848  0.598501  1
  Tb  Tb1  1  0.599848  0.599848  0.201804  1
  Tb  Tb2  1  0.598501  0.201804  0.599848  1
  Tb  Tb3  1  0.201804  0.598501  0.599848  1
  Ho  Ho4  1  0.435602  0.435602  0.064398  1
  Ho  Ho5  1  0.064398  0.064398  0.435602  1
  Ho  Ho6  1  0.186567  0.813433  0.813433  1
  Ho  Ho7  1  0.813433  0.186567  0.186567  1
  Ho  Ho8  1  0.813433  0.186567  0.813433  1
  Ho  Ho9  1  0.186567  0.813433  0.186567  1
  Ho  Ho10  1  0.813599  0.813599  0.186401  1
  Ho  Ho11  1  0.186401  0.186401  0.813599  1
  Lu  Lu12  1  0.062852  0.437148  0.437148  1
  Lu  Lu13  1  0.437148  0.062852  0.062852  1
  Lu  Lu14  1  0.437148  0.062852  0.437148  1
  Lu  Lu15  1  0.062852  0.437148  0.062852  1
  Cd  Cd16  1  0.831333  0.831333  0.831580  1
  Cd  Cd17  1  0.831333  0.831333  0.505754  1
  Cd  Cd18  1  0.831580  0.505754  0.831333  1
  Cd  Cd19  1  0.505754  0.831580  0.831333  1
  Ni  Ni20  1  0.390463  0.390463  0.394536  1
  Ni  Ni21  1  0.390463  0.390463  0.824541  1
  Ni  Ni22  1  0.394536  0.824541  0.390463  1
  Ni  Ni23  1  0.824541  0.394536  0.390463  1
