# generated using pymatgen
data_Eu2InSbO7
_symmetry_space_group_name_H-M   'P 1'
_cell_length_a   7.53976431
_cell_length_b   7.53976526
_cell_length_c   7.53976603
_cell_angle_alpha   120.83510572
_cell_angle_beta   119.05643301
_cell_angle_gamma   90.10085610
_symmetry_Int_Tables_number   1
_chemical_formula_structural   Eu2InSbO7
_chemical_formula_sum   'Eu4 In2 Sb2 O14'
_cell_volume   303.23757076
_cell_formula_units_Z   2
loop_
 _symmetry_equiv_pos_site_id
 _symmetry_equiv_pos_as_xyz
  1  'x, y, z'
loop_
 _atom_site_type_symbol
 _atom_site_label
 _atom_site_symmetry_multiplicity
 _atom_site_fract_x
 _atom_site_fract_y
 _atom_site_fract_z
 _atom_site_occupancy
  Eu  Eu0  1  0.500000  0.500000  0.500000  1
  Eu  Eu1  1  0.500000  0.000000  0.000000  1
  Eu  Eu2  1  0.500000  0.500000  0.000000  1
  Eu  Eu3  1  0.000000  0.500000  0.500000  1
  In  In4  1  0.000000  0.000000  0.500000  1
  In  In5  1  0.000000  0.500000  0.000000  1
  Sb  Sb6  1  0.000000  0.000000  0.000000  1
  Sb  Sb7  1  0.500000  0.000000  0.500000  1
  O  O8  1  0.378479  0.628479  0.750000  1
  O  O9  1  0.621521  0.371521  0.250000  1
  O  O10  1  0.315822  0.065822  0.250000  1
  O  O11  1  0.896327  0.646327  0.250000  1
  O  O12  1  0.348275  0.676649  0.274242  1
  O  O13  1  0.902406  0.074032  0.225758  1
  O  O14  1  0.348275  0.074032  0.671627  1
  O  O15  1  0.902406  0.676649  0.828373  1
  O  O16  1  0.684178  0.934178  0.750000  1
  O  O17  1  0.103673  0.353673  0.750000  1
  O  O18  1  0.651725  0.323351  0.725758  1
  O  O19  1  0.097594  0.925968  0.774242  1
  O  O20  1  0.651725  0.925968  0.328373  1
  O  O21  1  0.097594  0.323351  0.171627  1
