# generated using pymatgen
data_CeErReB6
_symmetry_space_group_name_H-M   'P 1'
_cell_length_a   3.71448400
_cell_length_b   9.18085500
_cell_length_c   11.57507400
_cell_angle_alpha   90.00000000
_cell_angle_beta   90.00000000
_cell_angle_gamma   90.00000000
_symmetry_Int_Tables_number   1
_chemical_formula_structural   CeErReB6
_chemical_formula_sum   'Ce4 Er4 Re4 B24'
_cell_volume   394.73478253
_cell_formula_units_Z   4
loop_
 _symmetry_equiv_pos_site_id
 _symmetry_equiv_pos_as_xyz
  1  'x, y, z'
loop_
 _atom_site_type_symbol
 _atom_site_label
 _atom_site_symmetry_multiplicity
 _atom_site_fract_x
 _atom_site_fract_y
 _atom_site_fract_z
 _atom_site_occupancy
  Ce  Ce0  1  0.000000  0.322336  0.414154  1
  Ce  Ce1  1  0.000000  0.677664  0.585846  1
  Ce  Ce2  1  0.000000  0.822336  0.085846  1
  Ce  Ce3  1  0.000000  0.177664  0.914154  1
  Er  Er4  1  0.000000  0.944424  0.372545  1
  Er  Er5  1  0.000000  0.055576  0.627455  1
  Er  Er6  1  0.000000  0.444424  0.127455  1
  Er  Er7  1  0.000000  0.555576  0.872545  1
  Re  Re8  1  0.000000  0.638662  0.320656  1
  Re  Re9  1  0.000000  0.361338  0.679344  1
  Re  Re10  1  0.000000  0.138662  0.179344  1
  Re  Re11  1  0.000000  0.861338  0.820656  1
  B  B12  1  0.500000  0.554737  0.431693  1
  B  B13  1  0.500000  0.445263  0.568307  1
  B  B14  1  0.500000  0.054737  0.068307  1
  B  B15  1  0.500000  0.945263  0.931693  1
  B  B16  1  0.500000  0.749480  0.418488  1
  B  B17  1  0.500000  0.250520  0.581512  1
  B  B18  1  0.500000  0.249480  0.081512  1
  B  B19  1  0.500000  0.750520  0.918488  1
  B  B20  1  0.500000  0.791732  0.265853  1
  B  B21  1  0.500000  0.208268  0.734147  1
  B  B22  1  0.500000  0.291732  0.234147  1
  B  B23  1  0.500000  0.708268  0.765853  1
  B  B24  1  0.500000  0.631154  0.185749  1
  B  B25  1  0.500000  0.368846  0.814251  1
  B  B26  1  0.500000  0.131154  0.314251  1
  B  B27  1  0.500000  0.868846  0.685749  1
  B  B28  1  0.500000  0.983487  0.213027  1
  B  B29  1  0.500000  0.016513  0.786973  1
  B  B30  1  0.500000  0.483487  0.286973  1
  B  B31  1  0.500000  0.516513  0.713027  1
  B  B32  1  0.500000  0.604446  0.028865  1
  B  B33  1  0.500000  0.395554  0.971135  1
  B  B34  1  0.500000  0.104446  0.471135  1
  B  B35  1  0.500000  0.895554  0.528865  1
