# generated using pymatgen
data_TbDyRuC2
_symmetry_space_group_name_H-M   'P 1'
_cell_length_a   5.14196700
_cell_length_b   6.46119200
_cell_length_c   9.81019300
_cell_angle_alpha   90.00000000
_cell_angle_beta   90.00000000
_cell_angle_gamma   90.00000000
_symmetry_Int_Tables_number   1
_chemical_formula_structural   TbDyRuC2
_chemical_formula_sum   'Tb4 Dy4 Ru4 C8'
_cell_volume   325.92635768
_cell_formula_units_Z   4
loop_
 _symmetry_equiv_pos_site_id
 _symmetry_equiv_pos_as_xyz
  1  'x, y, z'
loop_
 _atom_site_type_symbol
 _atom_site_label
 _atom_site_symmetry_multiplicity
 _atom_site_fract_x
 _atom_site_fract_y
 _atom_site_fract_z
 _atom_site_occupancy
  Tb  Tb0  1  0.750000  0.474158  0.783256  1
  Tb  Tb1  1  0.250000  0.025842  0.283256  1
  Tb  Tb2  1  0.750000  0.974158  0.716744  1
  Tb  Tb3  1  0.250000  0.525842  0.216744  1
  Dy  Dy4  1  0.750000  0.820308  0.053758  1
  Dy  Dy5  1  0.250000  0.679692  0.553758  1
  Dy  Dy6  1  0.750000  0.320308  0.446242  1
  Dy  Dy7  1  0.250000  0.179692  0.946242  1
  Ru  Ru8  1  0.750000  0.278716  0.134994  1
  Ru  Ru9  1  0.250000  0.221284  0.634994  1
  Ru  Ru10  1  0.750000  0.778716  0.365006  1
  Ru  Ru11  1  0.250000  0.721284  0.865006  1
  C  C12  1  0.750000  0.174695  0.947672  1
  C  C13  1  0.250000  0.825305  0.052328  1
  C  C14  1  0.750000  0.674695  0.552328  1
  C  C15  1  0.250000  0.325305  0.447672  1
  C  C16  1  0.750000  0.042598  0.256910  1
  C  C17  1  0.250000  0.457402  0.756910  1
  C  C18  1  0.750000  0.542598  0.243090  1
  C  C19  1  0.250000  0.957402  0.743090  1
