# generated using pymatgen
data_Lu4Si4Ir2OsRh
_symmetry_space_group_name_H-M   'P 1'
_cell_length_a   4.21654900
_cell_length_b   6.75913266
_cell_length_c   7.31184356
_cell_angle_alpha   90.09657388
_cell_angle_beta   90.00000000
_cell_angle_gamma   90.00000000
_symmetry_Int_Tables_number   1
_chemical_formula_structural   Lu4Si4Ir2OsRh
_chemical_formula_sum   'Lu4 Si4 Ir2 Os1 Rh1'
_cell_volume   208.38881063
_cell_formula_units_Z   1
loop_
 _symmetry_equiv_pos_site_id
 _symmetry_equiv_pos_as_xyz
  1  'x, y, z'
loop_
 _atom_site_type_symbol
 _atom_site_label
 _atom_site_symmetry_multiplicity
 _atom_site_fract_x
 _atom_site_fract_y
 _atom_site_fract_z
 _atom_site_occupancy
  Lu  Lu0  1  0.750000  0.500480  0.810598  1
  Lu  Lu1  1  0.250000  0.998258  0.313624  1
  Lu  Lu2  1  0.750000  0.002152  0.686841  1
  Lu  Lu3  1  0.250000  0.501481  0.187781  1
  Si  Si4  1  0.250000  0.704966  0.618446  1
  Si  Si5  1  0.250000  0.203114  0.889148  1
  Si  Si6  1  0.750000  0.295275  0.387038  1
  Si  Si7  1  0.750000  0.796131  0.104816  1
  Ir  Ir8  1  0.250000  0.339582  0.563825  1
  Ir  Ir9  1  0.750000  0.159690  0.064871  1
  Os  Os10  1  0.250000  0.842470  0.936678  1
  Rh  Rh11  1  0.750000  0.656402  0.436335  1
