# generated using pymatgen
data_Y20Al3Ru2Au3
_symmetry_space_group_name_H-M   'P 1'
_cell_length_a   9.59433000
_cell_length_b   9.59432869
_cell_length_c   9.57212900
_cell_angle_alpha   90.00000000
_cell_angle_beta   90.00000000
_cell_angle_gamma   120.00000452
_symmetry_Int_Tables_number   1
_chemical_formula_structural   Y20Al3Ru2Au3
_chemical_formula_sum   'Y20 Al3 Ru2 Au3'
_cell_volume   763.07706324
_cell_formula_units_Z   1
loop_
 _symmetry_equiv_pos_site_id
 _symmetry_equiv_pos_as_xyz
  1  'x, y, z'
loop_
 _atom_site_type_symbol
 _atom_site_label
 _atom_site_symmetry_multiplicity
 _atom_site_fract_x
 _atom_site_fract_y
 _atom_site_fract_z
 _atom_site_occupancy
  Y  Y0  1  0.000000  0.000000  0.464871  1
  Y  Y1  1  0.000000  0.000000  0.035129  1
  Y  Y2  1  0.209178  0.790822  0.442507  1
  Y  Y3  1  0.209178  0.418358  0.442507  1
  Y  Y4  1  0.581642  0.790822  0.442507  1
  Y  Y5  1  0.794290  0.205710  0.561821  1
  Y  Y6  1  0.794290  0.588579  0.561821  1
  Y  Y7  1  0.411421  0.205710  0.561821  1
  Y  Y8  1  0.794290  0.205710  0.938179  1
  Y  Y9  1  0.794290  0.588579  0.938179  1
  Y  Y10  1  0.411421  0.205710  0.938179  1
  Y  Y11  1  0.209178  0.790822  0.057493  1
  Y  Y12  1  0.209178  0.418358  0.057493  1
  Y  Y13  1  0.581642  0.790822  0.057493  1
  Y  Y14  1  0.539354  0.460646  0.250000  1
  Y  Y15  1  0.539354  0.078708  0.250000  1
  Y  Y16  1  0.921292  0.460646  0.250000  1
  Y  Y17  1  0.458994  0.541006  0.750000  1
  Y  Y18  1  0.458994  0.917988  0.750000  1
  Y  Y19  1  0.082012  0.541006  0.750000  1
  Al  Al20  1  0.103768  0.896232  0.750000  1
  Al  Al21  1  0.103768  0.207535  0.750000  1
  Al  Al22  1  0.792465  0.896232  0.750000  1
  Ru  Ru23  1  0.333333  0.666667  0.250000  1
  Ru  Ru24  1  0.666667  0.333333  0.750000  1
  Au  Au25  1  0.869882  0.130118  0.250000  1
  Au  Au26  1  0.869882  0.739765  0.250000  1
  Au  Au27  1  0.260235  0.130118  0.250000  1
