# generated using pymatgen
data_Pr6Al24Ru7Pt
_symmetry_space_group_name_H-M   'P 1'
_cell_length_a   8.93489483
_cell_length_b   8.92583797
_cell_length_c   9.70683487
_cell_angle_alpha   90.00000176
_cell_angle_beta   89.93830823
_cell_angle_gamma   119.96646932
_symmetry_Int_Tables_number   1
_chemical_formula_structural   Pr6Al24Ru7Pt
_chemical_formula_sum   'Pr6 Al24 Ru7 Pt1'
_cell_volume   670.64550894
_cell_formula_units_Z   1
loop_
 _symmetry_equiv_pos_site_id
 _symmetry_equiv_pos_as_xyz
  1  'x, y, z'
loop_
 _atom_site_type_symbol
 _atom_site_label
 _atom_site_symmetry_multiplicity
 _atom_site_fract_x
 _atom_site_fract_y
 _atom_site_fract_z
 _atom_site_occupancy
  Pr  Pr0  1  0.192034  0.383124  0.250694  1
  Pr  Pr1  1  0.807966  0.616876  0.749306  1
  Pr  Pr2  1  0.615537  0.807768  0.251397  1
  Pr  Pr3  1  0.384463  0.192232  0.748603  1
  Pr  Pr4  1  0.192034  0.808909  0.250694  1
  Pr  Pr5  1  0.807966  0.191091  0.749306  1
  Al  Al6  1  0.338251  0.669126  0.010797  1
  Al  Al7  1  0.661749  0.330874  0.989203  1
  Al  Al8  1  0.666713  0.333356  0.510385  1
  Al  Al9  1  0.333287  0.666644  0.489615  1
  Al  Al10  1  0.162748  0.325857  0.575431  1
  Al  Al11  1  0.837252  0.674143  0.424569  1
  Al  Al12  1  0.673437  0.836718  0.575697  1
  Al  Al13  1  0.833037  0.675255  0.076333  1
  Al  Al14  1  0.326563  0.163282  0.424303  1
  Al  Al15  1  0.166963  0.324745  0.923667  1
  Al  Al16  1  0.162748  0.836890  0.575431  1
  Al  Al17  1  0.325436  0.162718  0.076802  1
  Al  Al18  1  0.837252  0.163110  0.424569  1
  Al  Al19  1  0.674564  0.837282  0.923198  1
  Al  Al20  1  0.833037  0.157783  0.076333  1
  Al  Al21  1  0.166963  0.842217  0.923667  1
  Al  Al22  1  0.562390  0.124938  0.249338  1
  Al  Al23  1  0.437610  0.875062  0.750662  1
  Al  Al24  1  0.873833  0.436916  0.253211  1
  Al  Al25  1  0.126167  0.563084  0.746789  1
  Al  Al26  1  0.562390  0.437452  0.249338  1
  Al  Al27  1  0.437610  0.562548  0.750662  1
  Al  Al28  1  0.000317  0.000159  0.250082  1
  Al  Al29  1  0.999683  0.999841  0.749918  1
  Ru  Ru30  1  0.500000  0.000000  0.000000  1
  Ru  Ru31  1  0.500000  0.000000  0.500000  1
  Ru  Ru32  1  0.500000  0.500000  0.000000  1
  Ru  Ru33  1  0.000000  0.500000  0.500000  1
  Ru  Ru34  1  0.500000  0.500000  0.500000  1
  Ru  Ru35  1  0.000000  0.000000  0.000000  1
  Ru  Ru36  1  0.000000  0.000000  0.500000  1
  Pt  Pt37  1  0.000000  0.500000  0.000000  1
