# generated using pymatgen
data_Tm12Fe2Co3Sb
_symmetry_space_group_name_H-M   'P 1'
_cell_length_a   8.15505702
_cell_length_b   8.15505710
_cell_length_c   8.15505661
_cell_angle_alpha   111.12477839
_cell_angle_beta   111.76163667
_cell_angle_gamma   105.59606727
_symmetry_Int_Tables_number   1
_chemical_formula_structural   Tm12Fe2Co3Sb
_chemical_formula_sum   'Tm12 Fe2 Co3 Sb1'
_cell_volume   416.06888580
_cell_formula_units_Z   1
loop_
 _symmetry_equiv_pos_site_id
 _symmetry_equiv_pos_as_xyz
  1  'x, y, z'
loop_
 _atom_site_type_symbol
 _atom_site_label
 _atom_site_symmetry_multiplicity
 _atom_site_fract_x
 _atom_site_fract_y
 _atom_site_fract_z
 _atom_site_occupancy
  Tm  Tm0  1  0.284155  0.186267  0.470423  1
  Tm  Tm1  1  0.715845  0.813733  0.529577  1
  Tm  Tm2  1  0.284155  0.813733  0.097887  1
  Tm  Tm3  1  0.715845  0.186267  0.902113  1
  Tm  Tm4  1  0.617622  0.311352  0.306269  1
  Tm  Tm5  1  0.382378  0.688648  0.693731  1
  Tm  Tm6  1  0.005084  0.311352  0.693731  1
  Tm  Tm7  1  0.994916  0.688648  0.306269  1
  Tm  Tm8  1  0.211297  0.407017  0.195722  1
  Tm  Tm9  1  0.788703  0.592983  0.804278  1
  Tm  Tm10  1  0.211297  0.015574  0.804278  1
  Tm  Tm11  1  0.788703  0.984426  0.195722  1
  Fe  Fe12  1  0.000000  0.380975  0.380975  1
  Fe  Fe13  1  0.000000  0.619025  0.619025  1
  Co  Co14  1  0.388304  0.888304  0.500000  1
  Co  Co15  1  0.611696  0.111696  0.500000  1
  Co  Co16  1  0.000000  0.000000  0.000000  1
  Sb  Sb17  1  0.500000  0.500000  0.000000  1
