# generated using pymatgen
data_CaLa2(ZnPt)4
_symmetry_space_group_name_H-M   'P 1'
_cell_length_a   8.34093456
_cell_length_b   8.34093472
_cell_length_c   8.34093462
_cell_angle_alpha   150.84778834
_cell_angle_beta   126.78145878
_cell_angle_gamma   61.82975223
_symmetry_Int_Tables_number   1
_chemical_formula_structural   CaLa2(ZnPt)4
_chemical_formula_sum   'Ca1 La2 Zn4 Pt4'
_cell_volume   224.47378895
_cell_formula_units_Z   1
loop_
 _symmetry_equiv_pos_site_id
 _symmetry_equiv_pos_as_xyz
  1  'x, y, z'
loop_
 _atom_site_type_symbol
 _atom_site_label
 _atom_site_symmetry_multiplicity
 _atom_site_fract_x
 _atom_site_fract_y
 _atom_site_fract_z
 _atom_site_occupancy
  Ca  Ca0  1  0.871285  0.871285  0.000000  1
  La  La1  1  0.500818  0.000818  0.500000  1
  La  La2  1  0.125587  0.125587  0.000000  1
  Zn  Zn3  1  0.484318  0.675274  0.809044  1
  Zn  Zn4  1  0.866230  0.675274  0.190956  1
  Zn  Zn5  1  0.127451  0.325729  0.801722  1
  Zn  Zn6  1  0.524007  0.325729  0.198278  1
  Pt  Pt7  1  0.281599  0.781599  0.500000  1
  Pt  Pt8  1  0.717820  0.217820  0.500000  1
  Pt  Pt9  1  0.803154  0.500442  0.302712  1
  Pt  Pt10  1  0.197729  0.500442  0.697288  1
