# generated using pymatgen
data_Ba2Na(SnIr)4
_symmetry_space_group_name_H-M   'P 1'
_cell_length_a   7.01747771
_cell_length_b   7.01747884
_cell_length_c   12.35953100
_cell_angle_alpha   90.00000000
_cell_angle_beta   90.00000000
_cell_angle_gamma   110.67527960
_symmetry_Int_Tables_number   1
_chemical_formula_structural   Ba2Na(SnIr)4
_chemical_formula_sum   'Ba4 Na2 Sn8 Ir8'
_cell_volume   569.44621510
_cell_formula_units_Z   2
loop_
 _symmetry_equiv_pos_site_id
 _symmetry_equiv_pos_as_xyz
  1  'x, y, z'
loop_
 _atom_site_type_symbol
 _atom_site_label
 _atom_site_symmetry_multiplicity
 _atom_site_fract_x
 _atom_site_fract_y
 _atom_site_fract_z
 _atom_site_occupancy
  Ba  Ba0  1  0.213338  0.786662  0.500000  1
  Ba  Ba1  1  0.213338  0.786662  0.000000  1
  Ba  Ba2  1  0.786662  0.213338  0.500000  1
  Ba  Ba3  1  0.786662  0.213338  0.000000  1
  Na  Na4  1  0.017148  0.017148  0.250000  1
  Na  Na5  1  0.982852  0.982852  0.750000  1
  Sn  Sn6  1  0.526463  0.908296  0.250000  1
  Sn  Sn7  1  0.091704  0.473537  0.750000  1
  Sn  Sn8  1  0.473537  0.091704  0.750000  1
  Sn  Sn9  1  0.908296  0.526463  0.250000  1
  Sn  Sn10  1  0.321238  0.321238  0.425098  1
  Sn  Sn11  1  0.678762  0.678762  0.574902  1
  Sn  Sn12  1  0.321238  0.321238  0.074902  1
  Sn  Sn13  1  0.678762  0.678762  0.925098  1
  Ir  Ir14  1  0.521354  0.273251  0.250000  1
  Ir  Ir15  1  0.726749  0.478646  0.750000  1
  Ir  Ir16  1  0.478646  0.726749  0.750000  1
  Ir  Ir17  1  0.273251  0.521354  0.250000  1
  Ir  Ir18  1  0.653447  0.653447  0.366219  1
  Ir  Ir19  1  0.346553  0.346553  0.633781  1
  Ir  Ir20  1  0.653447  0.653447  0.133781  1
  Ir  Ir21  1  0.346553  0.346553  0.866219  1
