# generated using pymatgen
data_TiNb5Al4(OsC)2
_symmetry_space_group_name_H-M   'P 1'
_cell_length_a   8.33130289
_cell_length_b   8.33115784
_cell_length_c   8.30944500
_cell_angle_alpha   60.08633770
_cell_angle_beta   60.08710960
_cell_angle_gamma   59.82770295
_symmetry_Int_Tables_number   1
_chemical_formula_structural   TiNb5Al4(OsC)2
_chemical_formula_sum   'Ti2 Nb10 Al8 Os4 C4'
_cell_volume   407.82437071
_cell_formula_units_Z   2
loop_
 _symmetry_equiv_pos_site_id
 _symmetry_equiv_pos_as_xyz
  1  'x, y, z'
loop_
 _atom_site_type_symbol
 _atom_site_label
 _atom_site_symmetry_multiplicity
 _atom_site_fract_x
 _atom_site_fract_y
 _atom_site_fract_z
 _atom_site_occupancy
  Ti  Ti0  1  0.308523  0.308531  0.691473  1
  Ti  Ti1  1  0.558537  0.558539  0.941463  1
  Nb  Nb2  1  0.942031  0.942025  0.557972  1
  Nb  Nb3  1  0.694041  0.306469  0.305417  1
  Nb  Nb4  1  0.306464  0.694045  0.694076  1
  Nb  Nb5  1  0.692041  0.692042  0.307958  1
  Nb  Nb6  1  0.694040  0.306469  0.694072  1
  Nb  Nb7  1  0.306464  0.694047  0.305412  1
  Nb  Nb8  1  0.555926  0.944547  0.555955  1
  Nb  Nb9  1  0.555923  0.944550  0.943573  1
  Nb  Nb10  1  0.944555  0.555919  0.555954  1
  Nb  Nb11  1  0.944557  0.555918  0.943572  1
  Al  Al12  1  0.915536  0.252363  0.916050  1
  Al  Al13  1  0.333949  0.333944  0.997643  1
  Al  Al14  1  0.998951  0.332985  0.334032  1
  Al  Al15  1  0.333950  0.333944  0.334465  1
  Al  Al16  1  0.252358  0.915539  0.916051  1
  Al  Al17  1  0.915976  0.915979  0.917008  1
  Al  Al18  1  0.915977  0.915979  0.251035  1
  Al  Al19  1  0.332988  0.998945  0.334034  1
  Os  Os20  1  0.126556  0.624631  0.124408  1
  Os  Os21  1  0.125584  0.125593  0.625374  1
  Os  Os22  1  0.624634  0.126554  0.124408  1
  Os  Os23  1  0.125585  0.125593  0.123448  1
  C  C24  1  0.619513  0.127911  0.626288  1
  C  C25  1  0.623713  0.623716  0.122095  1
  C  C26  1  0.127910  0.619508  0.626291  1
  C  C27  1  0.623717  0.623715  0.630473  1
