# generated using pymatgen
data_Ta8Co7Si14Ru
_symmetry_space_group_name_H-M   'P 1'
_cell_length_a   9.24068917
_cell_length_b   9.24414234
_cell_length_c   9.23788807
_cell_angle_alpha   94.25601138
_cell_angle_beta   94.23165579
_cell_angle_gamma   148.43907087
_symmetry_Int_Tables_number   1
_chemical_formula_structural   Ta8Co7Si14Ru
_chemical_formula_sum   'Ta8 Co7 Si14 Ru1'
_cell_volume   397.44460650
_cell_formula_units_Z   1
loop_
 _symmetry_equiv_pos_site_id
 _symmetry_equiv_pos_as_xyz
  1  'x, y, z'
loop_
 _atom_site_type_symbol
 _atom_site_label
 _atom_site_symmetry_multiplicity
 _atom_site_fract_x
 _atom_site_fract_y
 _atom_site_fract_z
 _atom_site_occupancy
  Ta  Ta0  1  0.132972  0.132993  0.265960  1
  Ta  Ta1  1  0.866713  0.866728  0.733461  1
  Ta  Ta2  1  0.867668  0.133151  0.000831  1
  Ta  Ta3  1  0.133191  0.867693  0.000833  1
  Ta  Ta4  1  0.499490  0.310788  0.810560  1
  Ta  Ta5  1  0.501983  0.690195  0.191236  1
  Ta  Ta6  1  0.689300  0.501077  0.191262  1
  Ta  Ta7  1  0.311050  0.499762  0.810553  1
  Co  Co8  1  0.103027  0.603002  0.206071  1
  Co  Co9  1  0.100228  0.899142  0.498992  1
  Co  Co10  1  0.398758  0.599873  0.498990  1
  Co  Co11  1  0.598419  0.397959  0.497884  1
  Co  Co12  1  0.899442  0.099934  0.497890  1
  Co  Co13  1  0.899670  0.399663  0.799329  1
  Co  Co14  1  0.599813  0.099807  0.199613  1
  Si  Si15  1  0.508910  0.104191  0.589522  1
  Si  Si16  1  0.502577  0.907505  0.405368  1
  Si  Si17  1  0.902790  0.497793  0.405359  1
  Si  Si18  1  0.080685  0.485307  0.589523  1
  Si  Si19  1  0.751173  0.751693  0.000245  1
  Si  Si20  1  0.249061  0.248558  0.000244  1
  Si  Si21  1  0.291733  0.291846  0.583519  1
  Si  Si22  1  0.708432  0.708551  0.417015  1
  Si  Si23  1  0.721307  0.307677  0.005072  1
  Si  Si24  1  0.283754  0.697393  0.005083  1
  Si  Si25  1  0.999063  0.295919  0.296228  1
  Si  Si26  1  0.989168  0.697608  0.702490  1
  Si  Si27  1  0.713326  0.004809  0.702431  1
  Si  Si28  1  0.297141  0.000255  0.296134  1
  Ru  Ru29  1  0.399155  0.899129  0.798304  1
