# generated using pymatgen
data_Tm3Np(B4Mo)4
_symmetry_space_group_name_H-M   'P 1'
_cell_length_a   3.60720400
_cell_length_b   5.98960489
_cell_length_c   11.59358355
_cell_angle_alpha   90.11608983
_cell_angle_beta   90.00000000
_cell_angle_gamma   90.00000000
_symmetry_Int_Tables_number   1
_chemical_formula_structural   Tm3Np(B4Mo)4
_chemical_formula_sum   'Tm3 Np1 B16 Mo4'
_cell_volume   250.48728384
_cell_formula_units_Z   1
loop_
 _symmetry_equiv_pos_site_id
 _symmetry_equiv_pos_as_xyz
  1  'x, y, z'
loop_
 _atom_site_type_symbol
 _atom_site_label
 _atom_site_symmetry_multiplicity
 _atom_site_fract_x
 _atom_site_fract_y
 _atom_site_fract_z
 _atom_site_occupancy
  Tm  Tm0  1  0.000000  0.627007  0.350165  1
  Tm  Tm1  1  0.000000  0.373926  0.648897  1
  Tm  Tm2  1  0.000000  0.127185  0.150776  1
  Np  Np3  1  0.000000  0.874675  0.849297  1
  B  B4  1  0.500000  0.787876  0.187200  1
  B  B5  1  0.500000  0.210663  0.813437  1
  B  B6  1  0.500000  0.288772  0.313653  1
  B  B7  1  0.500000  0.711663  0.686986  1
  B  B8  1  0.500000  0.866843  0.032032  1
  B  B9  1  0.500000  0.131923  0.967559  1
  B  B10  1  0.500000  0.367836  0.467916  1
  B  B11  1  0.500000  0.632841  0.531871  1
  B  B12  1  0.500000  0.884601  0.452116  1
  B  B13  1  0.500000  0.115183  0.547608  1
  B  B14  1  0.500000  0.384513  0.047868  1
  B  B15  1  0.500000  0.615306  0.951933  1
  B  B16  1  0.500000  0.976420  0.306139  1
  B  B17  1  0.500000  0.022659  0.693918  1
  B  B18  1  0.500000  0.476307  0.194145  1
  B  B19  1  0.500000  0.525026  0.806112  1
  Mo  Mo20  1  0.000000  0.631140  0.084281  1
  Mo  Mo21  1  0.000000  0.366516  0.914099  1
  Mo  Mo22  1  0.000000  0.131201  0.416136  1
  Mo  Mo23  1  0.000000  0.869919  0.585856  1
