# generated using pymatgen
data_Tb3Dy(Ho2Ru)4
_symmetry_space_group_name_H-M   'P 1'
_cell_length_a   6.29704400
_cell_length_b   7.29697911
_cell_length_c   9.16155400
_cell_angle_alpha   90.00000000
_cell_angle_beta   90.00000000
_cell_angle_gamma   89.96982178
_symmetry_Int_Tables_number   1
_chemical_formula_structural   Tb3Dy(Ho2Ru)4
_chemical_formula_sum   'Tb3 Dy1 Ho8 Ru4'
_cell_volume   420.96783751
_cell_formula_units_Z   1
loop_
 _symmetry_equiv_pos_site_id
 _symmetry_equiv_pos_as_xyz
  1  'x, y, z'
loop_
 _atom_site_type_symbol
 _atom_site_label
 _atom_site_symmetry_multiplicity
 _atom_site_fract_x
 _atom_site_fract_y
 _atom_site_fract_z
 _atom_site_occupancy
  Tb  Tb0  1  0.865688  0.539347  0.250000  1
  Tb  Tb1  1  0.634317  0.039285  0.250000  1
  Tb  Tb2  1  0.134550  0.460527  0.750000  1
  Dy  Dy3  1  0.365458  0.960674  0.750000  1
  Ho  Ho4  1  0.330504  0.676528  0.064852  1
  Ho  Ho5  1  0.169854  0.175853  0.435235  1
  Ho  Ho6  1  0.669295  0.323528  0.565054  1
  Ho  Ho7  1  0.829914  0.824009  0.934708  1
  Ho  Ho8  1  0.669295  0.323528  0.934946  1
  Ho  Ho9  1  0.829914  0.824009  0.565292  1
  Ho  Ho10  1  0.330504  0.676528  0.435148  1
  Ho  Ho11  1  0.169854  0.175853  0.064765  1
  Ru  Ru12  1  0.041665  0.884328  0.250000  1
  Ru  Ru13  1  0.458411  0.384181  0.250000  1
  Ru  Ru14  1  0.959542  0.115519  0.750000  1
  Ru  Ru15  1  0.541236  0.616306  0.750000  1
