# generated using pymatgen
data_Y9Er(In2Au)4
_symmetry_space_group_name_H-M   'P 1'
_cell_length_a   3.68294800
_cell_length_b   8.22170667
_cell_length_c   18.45954399
_cell_angle_alpha   90.09307827
_cell_angle_beta   90.00000000
_cell_angle_gamma   90.00000000
_symmetry_Int_Tables_number   1
_chemical_formula_structural   Y9Er(In2Au)4
_chemical_formula_sum   'Y9 Er1 In8 Au4'
_cell_volume   558.95643524
_cell_formula_units_Z   1
loop_
 _symmetry_equiv_pos_site_id
 _symmetry_equiv_pos_as_xyz
  1  'x, y, z'
loop_
 _atom_site_type_symbol
 _atom_site_label
 _atom_site_symmetry_multiplicity
 _atom_site_fract_x
 _atom_site_fract_y
 _atom_site_fract_z
 _atom_site_occupancy
  Y  Y0  1  0.000000  0.499263  0.499572  1
  Y  Y1  1  0.000000  0.000120  0.000213  1
  Y  Y2  1  0.000000  0.734648  0.283826  1
  Y  Y3  1  0.000000  0.265184  0.716459  1
  Y  Y4  1  0.000000  0.765189  0.783234  1
  Y  Y5  1  0.000000  0.234828  0.216873  1
  Y  Y6  1  0.000000  0.621062  0.079677  1
  Y  Y7  1  0.000000  0.379154  0.920514  1
  Y  Y8  1  0.000000  0.879485  0.579007  1
  Er  Er9  1  0.000000  0.120102  0.419518  1
  In  In10  1  0.500000  0.709124  0.932732  1
  In  In11  1  0.500000  0.290450  0.067287  1
  In  In12  1  0.500000  0.791521  0.433325  1
  In  In13  1  0.500000  0.209250  0.566110  1
  In  In14  1  0.500000  0.581721  0.647138  1
  In  In15  1  0.500000  0.417437  0.352866  1
  In  In16  1  0.500000  0.919042  0.147911  1
  In  In17  1  0.500000  0.081155  0.852580  1
  Au  Au18  1  0.500000  0.525993  0.196787  1
  Au  Au19  1  0.500000  0.473963  0.803386  1
  Au  Au20  1  0.500000  0.974058  0.696262  1
  Au  Au21  1  0.500000  0.027252  0.304720  1
