# generated using pymatgen
data_Ce4Er4Re3B24Mo
_symmetry_space_group_name_H-M   'P 1'
_cell_length_a   3.71978300
_cell_length_b   9.19645201
_cell_length_c   11.59282901
_cell_angle_alpha   89.99449959
_cell_angle_beta   90.00000000
_cell_angle_gamma   90.00000000
_symmetry_Int_Tables_number   1
_chemical_formula_structural   Ce4Er4Re3B24Mo
_chemical_formula_sum   'Ce4 Er4 Re3 B24 Mo1'
_cell_volume   396.57683513
_cell_formula_units_Z   1
loop_
 _symmetry_equiv_pos_site_id
 _symmetry_equiv_pos_as_xyz
  1  'x, y, z'
loop_
 _atom_site_type_symbol
 _atom_site_label
 _atom_site_symmetry_multiplicity
 _atom_site_fract_x
 _atom_site_fract_y
 _atom_site_fract_z
 _atom_site_occupancy
  Ce  Ce0  1  0.000000  0.321584  0.414328  1
  Ce  Ce1  1  0.000000  0.677557  0.586030  1
  Ce  Ce2  1  0.000000  0.822512  0.085394  1
  Ce  Ce3  1  0.000000  0.177503  0.914375  1
  Er  Er4  1  0.000000  0.944798  0.372729  1
  Er  Er5  1  0.000000  0.056097  0.627790  1
  Er  Er6  1  0.000000  0.443889  0.127039  1
  Er  Er7  1  0.000000  0.555925  0.872078  1
  Re  Re8  1  0.000000  0.360855  0.679833  1
  Re  Re9  1  0.000000  0.138480  0.178964  1
  Re  Re10  1  0.000000  0.861211  0.820609  1
  B  B11  1  0.500000  0.553122  0.433214  1
  B  B12  1  0.500000  0.445277  0.568778  1
  B  B13  1  0.500000  0.054783  0.068448  1
  B  B14  1  0.500000  0.945377  0.931445  1
  B  B15  1  0.500000  0.750784  0.419790  1
  B  B16  1  0.500000  0.250991  0.581963  1
  B  B17  1  0.500000  0.249311  0.081839  1
  B  B18  1  0.500000  0.750760  0.917999  1
  B  B19  1  0.500000  0.793920  0.265035  1
  B  B20  1  0.500000  0.208117  0.734070  1
  B  B21  1  0.500000  0.291598  0.233837  1
  B  B22  1  0.500000  0.708349  0.765942  1
  B  B23  1  0.500000  0.631486  0.184063  1
  B  B24  1  0.500000  0.368579  0.814373  1
  B  B25  1  0.500000  0.131171  0.313970  1
  B  B26  1  0.500000  0.869044  0.685839  1
  B  B27  1  0.500000  0.983704  0.213003  1
  B  B28  1  0.500000  0.016513  0.786996  1
  B  B29  1  0.500000  0.480879  0.286441  1
  B  B30  1  0.500000  0.516210  0.713214  1
  B  B31  1  0.500000  0.604318  0.028241  1
  B  B32  1  0.500000  0.395877  0.971010  1
  B  B33  1  0.500000  0.104268  0.471244  1
  B  B34  1  0.500000  0.896475  0.529306  1
  Mo  Mo35  1  0.000000  0.638679  0.320770  1
