# generated using pymatgen
data_Na(AgTe)4
_symmetry_space_group_name_H-M   'P 1'
_cell_length_a   4.63069500
_cell_length_b   4.63069704
_cell_length_c   14.13331000
_cell_angle_alpha   90.00000000
_cell_angle_beta   90.00000000
_cell_angle_gamma   120.00000684
_symmetry_Int_Tables_number   1
_chemical_formula_structural   Na(AgTe)4
_chemical_formula_sum   'Na1 Ag4 Te4'
_cell_volume   262.46236184
_cell_formula_units_Z   1
loop_
 _symmetry_equiv_pos_site_id
 _symmetry_equiv_pos_as_xyz
  1  'x, y, z'
loop_
 _atom_site_type_symbol
 _atom_site_label
 _atom_site_symmetry_multiplicity
 _atom_site_fract_x
 _atom_site_fract_y
 _atom_site_fract_z
 _atom_site_occupancy
  Na  Na0  1  0.000000  0.000000  0.500000  1
  Ag  Ag1  1  0.666667  0.333333  0.838032  1
  Ag  Ag2  1  0.333333  0.666667  0.161968  1
  Ag  Ag3  1  0.333333  0.666667  0.690018  1
  Ag  Ag4  1  0.666667  0.333333  0.309982  1
  Te  Te5  1  0.000000  0.000000  0.902256  1
  Te  Te6  1  0.000000  0.000000  0.097744  1
  Te  Te7  1  0.666667  0.333333  0.637923  1
  Te  Te8  1  0.333333  0.666667  0.362077  1
