# generated using pymatgen
data_SmYEr2(MoN3)4
_symmetry_space_group_name_H-M   'P 1'
_cell_length_a   7.32519566
_cell_length_b   7.32519608
_cell_length_c   6.26440977
_cell_angle_alpha   73.93896334
_cell_angle_beta   73.93896234
_cell_angle_gamma   81.99038234
_symmetry_Int_Tables_number   1
_chemical_formula_structural   SmYEr2(MoN3)4
_chemical_formula_sum   'Sm1 Y1 Er2 Mo4 N12'
_cell_volume   309.69168937
_cell_formula_units_Z   1
loop_
 _symmetry_equiv_pos_site_id
 _symmetry_equiv_pos_as_xyz
  1  'x, y, z'
loop_
 _atom_site_type_symbol
 _atom_site_label
 _atom_site_symmetry_multiplicity
 _atom_site_fract_x
 _atom_site_fract_y
 _atom_site_fract_z
 _atom_site_occupancy
  Sm  Sm0  1  0.704033  0.295967  0.250000  1
  Y  Y1  1  0.294265  0.705735  0.750000  1
  Er  Er2  1  0.914478  0.085522  0.750000  1
  Er  Er3  1  0.088073  0.911927  0.250000  1
  Mo  Mo4  1  0.801236  0.620436  0.764834  1
  Mo  Mo5  1  0.198828  0.380724  0.232999  1
  Mo  Mo6  1  0.619276  0.801172  0.267001  1
  Mo  Mo7  1  0.379564  0.198764  0.735166  1
  N  N8  1  0.216825  0.999275  0.850171  1
  N  N9  1  0.360964  0.348496  0.442693  1
  N  N10  1  0.634255  0.651007  0.560742  1
  N  N11  1  0.622795  0.111184  0.669381  1
  N  N12  1  0.000725  0.783175  0.649829  1
  N  N13  1  0.786057  0.996562  0.149359  1
  N  N14  1  0.109612  0.623739  0.165064  1
  N  N15  1  0.888816  0.377205  0.830619  1
  N  N16  1  0.003438  0.213943  0.350641  1
  N  N17  1  0.348993  0.365745  0.939258  1
  N  N18  1  0.651504  0.639036  0.057307  1
  N  N19  1  0.376261  0.890388  0.334936  1
