# generated using pymatgen
data_YbTh3(Al3Rh)6
_symmetry_space_group_name_H-M   'P 1'
_cell_length_a   7.66169300
_cell_length_b   7.65105048
_cell_length_c   9.51254600
_cell_angle_alpha   90.00000000
_cell_angle_beta   90.00000000
_cell_angle_gamma   119.41863357
_symmetry_Int_Tables_number   1
_chemical_formula_structural   YbTh3(Al3Rh)6
_chemical_formula_sum   'Yb1 Th3 Al18 Rh6'
_cell_volume   485.72193869
_cell_formula_units_Z   1
loop_
 _symmetry_equiv_pos_site_id
 _symmetry_equiv_pos_as_xyz
  1  'x, y, z'
loop_
 _atom_site_type_symbol
 _atom_site_label
 _atom_site_symmetry_multiplicity
 _atom_site_fract_x
 _atom_site_fract_y
 _atom_site_fract_z
 _atom_site_occupancy
  Yb  Yb0  1  0.993929  0.672621  0.250000  1
  Th  Th1  1  0.006183  0.330132  0.750000  1
  Th  Th2  1  0.671585  0.995188  0.250000  1
  Th  Th3  1  0.327619  0.005209  0.750000  1
  Al  Al4  1  0.129924  0.130617  0.250000  1
  Al  Al5  1  0.867083  0.864387  0.750000  1
  Al  Al6  1  0.004478  0.341441  0.079866  1
  Al  Al7  1  0.995314  0.664680  0.931488  1
  Al  Al8  1  0.995314  0.664680  0.568512  1
  Al  Al9  1  0.330351  0.999177  0.420170  1
  Al  Al10  1  0.004478  0.341441  0.420134  1
  Al  Al11  1  0.664117  0.993585  0.575795  1
  Al  Al12  1  0.664117  0.993585  0.924205  1
  Al  Al13  1  0.330351  0.999177  0.079830  1
  Al  Al14  1  0.336420  0.336071  0.542100  1
  Al  Al15  1  0.667307  0.663847  0.447801  1
  Al  Al16  1  0.667307  0.663847  0.052199  1
  Al  Al17  1  0.336420  0.336071  0.957900  1
  Al  Al18  1  0.341215  0.549118  0.250000  1
  Al  Al19  1  0.661692  0.455712  0.750000  1
  Al  Al20  1  0.549728  0.341913  0.250000  1
  Al  Al21  1  0.455853  0.658282  0.750000  1
  Rh  Rh22  1  0.670594  0.325171  0.998876  1
  Rh  Rh23  1  0.328979  0.672300  0.998246  1
  Rh  Rh24  1  0.328979  0.672300  0.501754  1
  Rh  Rh25  1  0.670594  0.325171  0.501124  1
  Rh  Rh26  1  0.000033  0.002139  0.999166  1
  Rh  Rh27  1  0.000033  0.002139  0.500834  1
