# generated using pymatgen
data_Er16Al4PdPt3
_symmetry_space_group_name_H-M   'P 1'
_cell_length_a   9.50509939
_cell_length_b   9.50510025
_cell_length_c   9.50510025
_cell_angle_alpha   59.97865533
_cell_angle_beta   59.97865072
_cell_angle_gamma   59.97865664
_symmetry_Int_Tables_number   1
_chemical_formula_structural   Er16Al4PdPt3
_chemical_formula_sum   'Er16 Al4 Pd1 Pt3'
_cell_volume   606.93866754
_cell_formula_units_Z   1
loop_
 _symmetry_equiv_pos_site_id
 _symmetry_equiv_pos_as_xyz
  1  'x, y, z'
loop_
 _atom_site_type_symbol
 _atom_site_label
 _atom_site_symmetry_multiplicity
 _atom_site_fract_x
 _atom_site_fract_y
 _atom_site_fract_z
 _atom_site_occupancy
  Er  Er0  1  0.353808  0.353808  0.353808  1
  Er  Er1  1  0.354934  0.354934  0.935942  1
  Er  Er2  1  0.354934  0.935942  0.354934  1
  Er  Er3  1  0.935942  0.354934  0.354934  1
  Er  Er4  1  0.806382  0.193111  0.193111  1
  Er  Er5  1  0.194333  0.806479  0.806479  1
  Er  Er6  1  0.193111  0.806382  0.193111  1
  Er  Er7  1  0.806479  0.194333  0.806479  1
  Er  Er8  1  0.193111  0.193111  0.806382  1
  Er  Er9  1  0.806479  0.806479  0.194333  1
  Er  Er10  1  0.934772  0.564973  0.564973  1
  Er  Er11  1  0.565560  0.934728  0.934728  1
  Er  Er12  1  0.564973  0.934772  0.564973  1
  Er  Er13  1  0.934728  0.565560  0.934728  1
  Er  Er14  1  0.564973  0.564973  0.934772  1
  Er  Er15  1  0.934728  0.934728  0.565560  1
  Al  Al16  1  0.578445  0.578445  0.578445  1
  Al  Al17  1  0.578198  0.578198  0.265989  1
  Al  Al18  1  0.578198  0.265989  0.578198  1
  Al  Al19  1  0.265989  0.578198  0.578198  1
  Pd  Pd20  1  0.143973  0.143973  0.143973  1
  Pt  Pt21  1  0.142960  0.142960  0.570031  1
  Pt  Pt22  1  0.142960  0.570031  0.142960  1
  Pt  Pt23  1  0.570031  0.142960  0.142960  1
