# generated using pymatgen
data_Li22Pd3Pt
_symmetry_space_group_name_H-M   'P 1'
_cell_length_a   8.26803069
_cell_length_b   8.29156402
_cell_length_c   8.26803101
_cell_angle_alpha   109.52888885
_cell_angle_beta   109.41348885
_cell_angle_gamma   109.52887170
_symmetry_Int_Tables_number   1
_chemical_formula_structural   Li22Pd3Pt
_chemical_formula_sum   'Li22 Pd3 Pt1'
_cell_volume   436.02286466
_cell_formula_units_Z   1
loop_
 _symmetry_equiv_pos_site_id
 _symmetry_equiv_pos_as_xyz
  1  'x, y, z'
loop_
 _atom_site_type_symbol
 _atom_site_label
 _atom_site_symmetry_multiplicity
 _atom_site_fract_x
 _atom_site_fract_y
 _atom_site_fract_z
 _atom_site_occupancy
  Li  Li0  1  0.000000  0.798966  0.000000  1
  Li  Li1  1  0.800202  0.002801  0.000000  1
  Li  Li2  1  0.000000  0.002801  0.800202  1
  Li  Li3  1  0.199798  0.202600  0.199798  1
  Li  Li4  1  0.349320  0.603927  0.349320  1
  Li  Li5  1  0.253183  0.999923  0.647708  1
  Li  Li6  1  0.647708  0.999923  0.253183  1
  Li  Li7  1  0.250410  0.644394  0.000000  1
  Li  Li8  1  0.746817  0.746740  0.394525  1
  Li  Li9  1  0.394525  0.746740  0.746817  1
  Li  Li10  1  0.000000  0.644394  0.250410  1
  Li  Li11  1  0.000000  0.254607  0.650680  1
  Li  Li12  1  0.650680  0.254607  0.000000  1
  Li  Li13  1  0.352292  0.352215  0.605475  1
  Li  Li14  1  0.605475  0.352215  0.352292  1
  Li  Li15  1  0.749590  0.393985  0.749590  1
  Li  Li16  1  0.341835  0.345171  0.000000  1
  Li  Li17  1  0.000000  0.655399  0.654757  1
  Li  Li18  1  0.000000  0.345171  0.341835  1
  Li  Li19  1  0.345243  0.000642  0.345243  1
  Li  Li20  1  0.658165  0.003336  0.658165  1
  Li  Li21  1  0.654757  0.655399  0.000000  1
  Pd  Pd22  1  0.340214  0.999718  0.000000  1
  Pd  Pd23  1  0.000000  0.999718  0.340214  1
  Pd  Pd24  1  0.659786  0.659505  0.659786  1
  Pt  Pt25  1  0.000000  0.335103  0.000000  1
