# generated using pymatgen
data_Nb4SiNiH2
_symmetry_space_group_name_H-M   'P 1'
_cell_length_a   5.14136694
_cell_length_b   5.14136557
_cell_length_c   5.14136715
_cell_angle_alpha   104.67463110
_cell_angle_beta   104.67464383
_cell_angle_gamma   119.56037623
_symmetry_Int_Tables_number   1
_chemical_formula_structural   Nb4SiNiH2
_chemical_formula_sum   'Nb4 Si1 Ni1 H2'
_cell_volume   102.14983564
_cell_formula_units_Z   1
loop_
 _symmetry_equiv_pos_site_id
 _symmetry_equiv_pos_as_xyz
  1  'x, y, z'
loop_
 _atom_site_type_symbol
 _atom_site_label
 _atom_site_symmetry_multiplicity
 _atom_site_fract_x
 _atom_site_fract_y
 _atom_site_fract_z
 _atom_site_occupancy
  Nb  Nb0  1  0.166438  0.666438  0.832877  1
  Nb  Nb1  1  0.833562  0.333562  0.167123  1
  Nb  Nb2  1  0.333562  0.166438  0.500000  1
  Nb  Nb3  1  0.666438  0.833562  0.500000  1
  Si  Si4  1  0.750000  0.750000  0.000000  1
  Ni  Ni5  1  0.250000  0.250000  0.000000  1
  H  H6  1  0.750000  0.250000  0.500000  1
  H  H7  1  0.250000  0.750000  0.500000  1
