# generated using pymatgen
data_Er2Tm2Si4Ru3Rh
_symmetry_space_group_name_H-M   'P 1'
_cell_length_a   4.27590900
_cell_length_b   6.92029410
_cell_length_c   7.18784900
_cell_angle_alpha   89.93634128
_cell_angle_beta   90.00000000
_cell_angle_gamma   90.00000000
_symmetry_Int_Tables_number   1
_chemical_formula_structural   Er2Tm2Si4Ru3Rh
_chemical_formula_sum   'Er2 Tm2 Si4 Ru3 Rh1'
_cell_volume   212.69225824
_cell_formula_units_Z   1
loop_
 _symmetry_equiv_pos_site_id
 _symmetry_equiv_pos_as_xyz
  1  'x, y, z'
loop_
 _atom_site_type_symbol
 _atom_site_label
 _atom_site_symmetry_multiplicity
 _atom_site_fract_x
 _atom_site_fract_y
 _atom_site_fract_z
 _atom_site_occupancy
  Er  Er0  1  0.250000  0.989372  0.812996  1
  Er  Er1  1  0.250000  0.490277  0.687826  1
  Tm  Tm2  1  0.750000  0.012242  0.188694  1
  Tm  Tm3  1  0.750000  0.506850  0.311589  1
  Si  Si4  1  0.250000  0.301580  0.106774  1
  Si  Si5  1  0.750000  0.699502  0.897818  1
  Si  Si6  1  0.250000  0.800596  0.386667  1
  Si  Si7  1  0.750000  0.200850  0.607218  1
  Ru  Ru8  1  0.250000  0.153138  0.435477  1
  Ru  Ru9  1  0.750000  0.345257  0.934405  1
  Ru  Ru10  1  0.250000  0.655196  0.065323  1
  Rh  Rh11  1  0.750000  0.845141  0.565214  1
