# generated using pymatgen
data_CaYbCdN
_symmetry_space_group_name_H-M   'P 1'
_cell_length_a   10.51418134
_cell_length_b   10.51418107
_cell_length_c   5.02831200
_cell_angle_alpha   90.00000000
_cell_angle_beta   90.00000000
_cell_angle_gamma   161.37845069
_symmetry_Int_Tables_number   1
_chemical_formula_structural   CaYbCdN
_chemical_formula_sum   'Ca2 Yb2 Cd2 N2'
_cell_volume   177.49800267
_cell_formula_units_Z   2
loop_
 _symmetry_equiv_pos_site_id
 _symmetry_equiv_pos_as_xyz
  1  'x, y, z'
loop_
 _atom_site_type_symbol
 _atom_site_label
 _atom_site_symmetry_multiplicity
 _atom_site_fract_x
 _atom_site_fract_y
 _atom_site_fract_z
 _atom_site_occupancy
  Ca  Ca0  1  0.375582  0.624418  0.750000  1
  Ca  Ca1  1  0.624418  0.375582  0.250000  1
  Yb  Yb2  1  0.219974  0.780026  0.750000  1
  Yb  Yb3  1  0.780026  0.219974  0.250000  1
  Cd  Cd4  1  0.040976  0.959024  0.750000  1
  Cd  Cd5  1  0.959024  0.040976  0.250000  1
  N  N6  1  0.798419  0.201581  0.750000  1
  N  N7  1  0.201581  0.798419  0.250000  1
