# generated using pymatgen
data_HfSc(Ni2P)4
_symmetry_space_group_name_H-M   'P 1'
_cell_length_a   3.56766200
_cell_length_b   6.92045322
_cell_length_c   6.92045322
_cell_angle_alpha   89.59501407
_cell_angle_beta   90.00000000
_cell_angle_gamma   90.00000000
_symmetry_Int_Tables_number   1
_chemical_formula_structural   HfSc(Ni2P)4
_chemical_formula_sum   'Hf1 Sc1 Ni8 P4'
_cell_volume   170.86060038
_cell_formula_units_Z   1
loop_
 _symmetry_equiv_pos_site_id
 _symmetry_equiv_pos_as_xyz
  1  'x, y, z'
loop_
 _atom_site_type_symbol
 _atom_site_label
 _atom_site_symmetry_multiplicity
 _atom_site_fract_x
 _atom_site_fract_y
 _atom_site_fract_z
 _atom_site_occupancy
  Hf  Hf0  1  0.500000  0.000000  0.000000  1
  Sc  Sc1  1  0.000000  0.500000  0.500000  1
  Ni  Ni2  1  0.500000  0.167086  0.583644  1
  Ni  Ni3  1  0.500000  0.832914  0.416356  1
  Ni  Ni4  1  0.000000  0.333906  0.083456  1
  Ni  Ni5  1  0.000000  0.666094  0.916544  1
  Ni  Ni6  1  0.500000  0.583644  0.167086  1
  Ni  Ni7  1  0.500000  0.416356  0.832914  1
  Ni  Ni8  1  0.000000  0.083456  0.333906  1
  Ni  Ni9  1  0.000000  0.916544  0.666094  1
  P  P10  1  0.500000  0.722639  0.722639  1
  P  P11  1  0.500000  0.277361  0.277361  1
  P  P12  1  0.000000  0.782195  0.217805  1
  P  P13  1  0.000000  0.217805  0.782195  1
