# generated using pymatgen
data_Nd8As9P5Ir16
_symmetry_space_group_name_H-M   'P 1'
_cell_length_a   4.07739100
_cell_length_b   13.16454329
_cell_length_c   13.43010950
_cell_angle_alpha   81.72923992
_cell_angle_beta   90.00000000
_cell_angle_gamma   90.00000000
_symmetry_Int_Tables_number   1
_chemical_formula_structural   Nd8As9P5Ir16
_chemical_formula_sum   'Nd8 As9 P5 Ir16'
_cell_volume   713.39014094
_cell_formula_units_Z   1
loop_
 _symmetry_equiv_pos_site_id
 _symmetry_equiv_pos_as_xyz
  1  'x, y, z'
loop_
 _atom_site_type_symbol
 _atom_site_label
 _atom_site_symmetry_multiplicity
 _atom_site_fract_x
 _atom_site_fract_y
 _atom_site_fract_z
 _atom_site_occupancy
  Nd  Nd0  1  0.250000  0.104122  0.792747  1
  Nd  Nd1  1  0.750000  0.895657  0.207251  1
  Nd  Nd2  1  0.250000  0.279557  0.101138  1
  Nd  Nd3  1  0.750000  0.720337  0.898892  1
  Nd  Nd4  1  0.250000  0.520143  0.294019  1
  Nd  Nd5  1  0.750000  0.482157  0.704271  1
  Nd  Nd6  1  0.250000  0.206909  0.437758  1
  Nd  Nd7  1  0.750000  0.790404  0.563217  1
  As  As8  1  0.750000  0.392838  0.435072  1
  As  As9  1  0.250000  0.844705  0.722278  1
  As  As10  1  0.750000  0.152487  0.277781  1
  As  As11  1  0.750000  0.252989  0.917138  1
  As  As12  1  0.250000  0.747437  0.082936  1
  As  As13  1  0.750000  0.096616  0.591259  1
  As  As14  1  0.250000  0.902189  0.410932  1
  As  As15  1  0.750000  0.472570  0.128313  1
  As  As16  1  0.250000  0.529674  0.868275  1
  P  P17  1  0.250000  0.052746  0.097996  1
  P  P18  1  0.750000  0.947088  0.901735  1
  P  P19  1  0.250000  0.313756  0.687541  1
  P  P20  1  0.750000  0.686305  0.314550  1
  P  P21  1  0.250000  0.606840  0.562208  1
  Ir  Ir22  1  0.250000  0.991280  0.577317  1
  Ir  Ir23  1  0.750000  0.008775  0.424129  1
  Ir  Ir24  1  0.250000  0.662448  0.722378  1
  Ir  Ir25  1  0.750000  0.334834  0.267169  1
  Ir  Ir26  1  0.250000  0.558108  0.045551  1
  Ir  Ir27  1  0.750000  0.444625  0.951973  1
  Ir  Ir28  1  0.250000  0.052379  0.269656  1
  Ir  Ir29  1  0.750000  0.945079  0.730747  1
  Ir  Ir30  1  0.250000  0.427943  0.533889  1
  Ir  Ir31  1  0.750000  0.578939  0.475173  1
  Ir  Ir32  1  0.250000  0.924351  0.991719  1
  Ir  Ir33  1  0.750000  0.075444  0.008112  1
  Ir  Ir34  1  0.250000  0.717569  0.397026  1
  Ir  Ir35  1  0.750000  0.279918  0.607002  1
  Ir  Ir36  1  0.250000  0.342412  0.853406  1
  Ir  Ir37  1  0.750000  0.658370  0.147446  1
