# generated using pymatgen
data_Tb3Tm2Th3(MgRu)2
_symmetry_space_group_name_H-M   'P 1'
_cell_length_a   9.72148596
_cell_length_b   9.79988945
_cell_length_c   9.79988914
_cell_angle_alpha   59.47140232
_cell_angle_beta   60.26428829
_cell_angle_gamma   60.26429210
_symmetry_Int_Tables_number   1
_chemical_formula_structural   Tb3Tm2Th3(MgRu)2
_chemical_formula_sum   'Tb6 Tm4 Th6 Mg4 Ru4'
_cell_volume   660.09247469
_cell_formula_units_Z   2
loop_
 _symmetry_equiv_pos_site_id
 _symmetry_equiv_pos_as_xyz
  1  'x, y, z'
loop_
 _atom_site_type_symbol
 _atom_site_label
 _atom_site_symmetry_multiplicity
 _atom_site_fract_x
 _atom_site_fract_y
 _atom_site_fract_z
 _atom_site_occupancy
  Tb  Tb0  1  0.184461  0.815539  0.815539  1
  Tb  Tb1  1  0.815539  0.184461  0.184461  1
  Tb  Tb2  1  0.812717  0.187283  0.812717  1
  Tb  Tb3  1  0.187283  0.812717  0.187283  1
  Tb  Tb4  1  0.812717  0.812717  0.187283  1
  Tb  Tb5  1  0.187283  0.187283  0.812717  1
  Tm  Tm6  1  0.438713  0.061287  0.438713  1
  Tm  Tm7  1  0.061287  0.438713  0.061287  1
  Tm  Tm8  1  0.438713  0.438713  0.061287  1
  Tm  Tm9  1  0.061287  0.061287  0.438713  1
  Th  Th10  1  0.591892  0.598986  0.598986  1
  Th  Th11  1  0.598986  0.591892  0.210138  1
  Th  Th12  1  0.598986  0.210138  0.591892  1
  Th  Th13  1  0.210138  0.598986  0.598986  1
  Th  Th14  1  0.067090  0.432910  0.432910  1
  Th  Th15  1  0.432910  0.067090  0.067090  1
  Mg  Mg16  1  0.832185  0.828887  0.828887  1
  Mg  Mg17  1  0.828887  0.832185  0.510041  1
  Mg  Mg18  1  0.828887  0.510041  0.832185  1
  Mg  Mg19  1  0.510041  0.828887  0.828887  1
  Ru  Ru20  1  0.378728  0.397980  0.397980  1
  Ru  Ru21  1  0.397980  0.378728  0.825312  1
  Ru  Ru22  1  0.397980  0.825312  0.378728  1
  Ru  Ru23  1  0.825312  0.397980  0.397980  1
