# generated using pymatgen
data_Sm3Tm3(Si3Ru)8
_symmetry_space_group_name_H-M   'P 1'
_cell_length_a   10.12835817
_cell_length_b   10.12835986
_cell_length_c   8.16431223
_cell_angle_alpha   89.89044743
_cell_angle_beta   90.10951933
_cell_angle_gamma   132.45838259
_symmetry_Int_Tables_number   1
_chemical_formula_structural   Sm3Tm3(Si3Ru)8
_chemical_formula_sum   'Sm3 Tm3 Si24 Ru8'
_cell_volume   617.89768255
_cell_formula_units_Z   1
loop_
 _symmetry_equiv_pos_site_id
 _symmetry_equiv_pos_as_xyz
  1  'x, y, z'
loop_
 _atom_site_type_symbol
 _atom_site_label
 _atom_site_symmetry_multiplicity
 _atom_site_fract_x
 _atom_site_fract_y
 _atom_site_fract_z
 _atom_site_occupancy
  Sm  Sm0  1  0.497055  0.997057  0.750002  1
  Sm  Sm1  1  0.997608  0.497607  0.750002  1
  Sm  Sm2  1  0.502092  0.002092  0.249997  1
  Tm  Tm3  1  0.999917  0.999934  0.000050  1
  Tm  Tm4  1  0.499932  0.499916  0.499965  1
  Tm  Tm5  1  0.002239  0.502239  0.249995  1
  Si  Si6  1  0.293178  0.704000  0.001687  1
  Si  Si7  1  0.795671  0.206576  0.498109  1
  Si  Si8  1  0.706573  0.295671  0.001890  1
  Si  Si9  1  0.203999  0.793178  0.498311  1
  Si  Si10  1  0.831446  0.832582  0.332809  1
  Si  Si11  1  0.168043  0.168021  0.667475  1
  Si  Si12  1  0.668021  0.668040  0.832525  1
  Si  Si13  1  0.332586  0.331448  0.167192  1
  Si  Si14  1  0.622010  0.388772  0.228437  1
  Si  Si15  1  0.611527  0.377719  0.771371  1
  Si  Si16  1  0.113295  0.879899  0.728853  1
  Si  Si17  1  0.119759  0.886880  0.272404  1
  Si  Si18  1  0.379909  0.613305  0.771148  1
  Si  Si19  1  0.386870  0.619749  0.227596  1
  Si  Si20  1  0.888782  0.122019  0.271558  1
  Si  Si21  1  0.877710  0.111517  0.728630  1
  Si  Si22  1  0.843801  0.611576  0.006034  1
  Si  Si23  1  0.386893  0.153371  0.994993  1
  Si  Si24  1  0.888601  0.657075  0.502276  1
  Si  Si25  1  0.346386  0.112808  0.495385  1
  Si  Si26  1  0.157075  0.388603  0.997731  1
  Si  Si27  1  0.612805  0.846381  0.004609  1
  Si  Si28  1  0.111581  0.343803  0.493957  1
  Si  Si29  1  0.653369  0.886890  0.505015  1
  Ru  Ru30  1  0.164548  0.828893  0.002266  1
  Ru  Ru31  1  0.671343  0.335643  0.498786  1
  Ru  Ru32  1  0.835635  0.171337  0.001212  1
  Ru  Ru33  1  0.328889  0.664549  0.497732  1
  Ru  Ru34  1  0.625842  0.626266  0.126538  1
  Ru  Ru35  1  0.374602  0.374136  0.872990  1
  Ru  Ru36  1  0.874136  0.874603  0.627012  1
  Ru  Ru37  1  0.126272  0.125845  0.373459  1
