# generated using pymatgen
data_Sr11TmSb9
_symmetry_space_group_name_H-M   'P 1'
_cell_length_a   12.71773999
_cell_length_b   12.71774101
_cell_length_c   12.71774100
_cell_angle_alpha   120.90199182
_cell_angle_beta   117.15435256
_cell_angle_gamma   91.72140925
_symmetry_Int_Tables_number   1
_chemical_formula_structural   Sr11TmSb9
_chemical_formula_sum   'Sr22 Tm2 Sb18'
_cell_volume   1473.24711783
_cell_formula_units_Z   2
loop_
 _symmetry_equiv_pos_site_id
 _symmetry_equiv_pos_as_xyz
  1  'x, y, z'
loop_
 _atom_site_type_symbol
 _atom_site_label
 _atom_site_symmetry_multiplicity
 _atom_site_fract_x
 _atom_site_fract_y
 _atom_site_fract_z
 _atom_site_occupancy
  Sr  Sr0  1  0.327508  0.327508  0.000000  1
  Sr  Sr1  1  0.817458  0.832387  0.653159  1
  Sr  Sr2  1  0.439915  0.069118  0.184468  1
  Sr  Sr3  1  0.827508  0.827508  0.000000  1
  Sr  Sr4  1  0.689465  0.947546  0.376902  1
  Sr  Sr5  1  0.426953  0.687671  0.371700  1
  Sr  Sr6  1  0.317458  0.664299  0.985071  1
  Sr  Sr7  1  0.815971  0.187671  0.260718  1
  Sr  Sr8  1  0.618652  0.419911  0.356657  1
  Sr  Sr9  1  0.884650  0.255447  0.815532  1
  Sr  Sr10  1  0.118652  0.761995  0.198741  1
  Sr  Sr11  1  0.189465  0.812563  0.741918  1
  Sr  Sr12  1  0.926953  0.555253  0.739282  1
  Sr  Sr13  1  0.384650  0.569118  0.629205  1
  Sr  Sr14  1  0.063253  0.261995  0.643343  1
  Sr  Sr15  1  0.563253  0.919911  0.801259  1
  Sr  Sr16  1  0.939915  0.755447  0.370795  1
  Sr  Sr17  1  0.679229  0.332387  0.014929  1
  Sr  Sr18  1  0.570645  0.312563  0.623098  1
  Sr  Sr19  1  0.179229  0.164299  0.346841  1
  Sr  Sr20  1  0.070645  0.447546  0.258082  1
  Sr  Sr21  1  0.315971  0.055253  0.628300  1
  Tm  Tm22  1  0.603849  0.603849  0.000000  1
  Tm  Tm23  1  0.103849  0.103849  0.000000  1
  Sb  Sb24  1  0.645007  0.645490  0.654279  1
  Sb  Sb25  1  0.398046  0.968104  0.360447  1
  Sb  Sb26  1  0.991210  0.990729  0.345721  1
  Sb  Sb27  1  0.617260  0.627515  0.249312  1
  Sb  Sb28  1  0.045140  0.037958  0.711192  1
  Sb  Sb29  1  0.250504  0.750504  0.500000  1
  Sb  Sb30  1  0.545140  0.833947  0.007182  1
  Sb  Sb31  1  0.750504  0.250504  0.500000  1
  Sb  Sb32  1  0.878204  0.127515  0.010256  1
  Sb  Sb33  1  0.491210  0.145490  0.000482  1
  Sb  Sb34  1  0.145007  0.490729  0.999518  1
  Sb  Sb35  1  0.378204  0.367948  0.750688  1
  Sb  Sb36  1  0.326766  0.333947  0.288808  1
  Sb  Sb37  1  0.898046  0.537600  0.429943  1
  Sb  Sb38  1  0.107657  0.468104  0.570057  1
  Sb  Sb39  1  0.826766  0.537958  0.992818  1
  Sb  Sb40  1  0.607657  0.037600  0.639553  1
  Sb  Sb41  1  0.117260  0.867948  0.989744  1
