# generated using pymatgen
data_Mn2NiSb12Pt
_symmetry_space_group_name_H-M   'P 1'
_cell_length_a   8.02627801
_cell_length_b   8.04177765
_cell_length_c   9.30020051
_cell_angle_alpha   54.68783201
_cell_angle_beta   54.94305912
_cell_angle_gamma   70.77854680
_symmetry_Int_Tables_number   1
_chemical_formula_structural   Mn2NiSb12Pt
_chemical_formula_sum   'Mn2 Ni1 Sb12 Pt1'
_cell_volume   400.97271331
_cell_formula_units_Z   1
loop_
 _symmetry_equiv_pos_site_id
 _symmetry_equiv_pos_as_xyz
  1  'x, y, z'
loop_
 _atom_site_type_symbol
 _atom_site_label
 _atom_site_symmetry_multiplicity
 _atom_site_fract_x
 _atom_site_fract_y
 _atom_site_fract_z
 _atom_site_occupancy
  Mn  Mn0  1  0.000000  0.500000  0.000000  1
  Mn  Mn1  1  0.500000  0.000000  0.000000  1
  Ni  Ni2  1  0.500000  0.000000  0.500000  1
  Sb  Sb3  1  0.158971  0.160559  0.173030  1
  Sb  Sb4  1  0.841029  0.839441  0.826970  1
  Sb  Sb5  1  0.837191  0.851724  0.497794  1
  Sb  Sb6  1  0.162809  0.148276  0.502206  1
  Sb  Sb7  1  0.815961  0.505156  0.330216  1
  Sb  Sb8  1  0.184039  0.494844  0.669784  1
  Sb  Sb9  1  0.506064  0.822862  0.333806  1
  Sb  Sb10  1  0.493936  0.177138  0.666194  1
  Sb  Sb11  1  0.652255  0.331487  0.852935  1
  Sb  Sb12  1  0.347745  0.668513  0.147065  1
  Sb  Sb13  1  0.666408  0.337213  0.156506  1
  Sb  Sb14  1  0.333592  0.662787  0.843494  1
  Pt  Pt15  1  0.000000  0.500000  0.500000  1
