# generated using pymatgen
data_Na2EuZnSb2
_symmetry_space_group_name_H-M   'P 1'
_cell_length_a   4.63383800
_cell_length_b   7.82777300
_cell_length_c   8.78207600
_cell_angle_alpha   90.00000000
_cell_angle_beta   90.00000000
_cell_angle_gamma   90.00000000
_symmetry_Int_Tables_number   1
_chemical_formula_structural   Na2EuZnSb2
_chemical_formula_sum   'Na4 Eu2 Zn2 Sb4'
_cell_volume   318.54901079
_cell_formula_units_Z   2
loop_
 _symmetry_equiv_pos_site_id
 _symmetry_equiv_pos_as_xyz
  1  'x, y, z'
loop_
 _atom_site_type_symbol
 _atom_site_label
 _atom_site_symmetry_multiplicity
 _atom_site_fract_x
 _atom_site_fract_y
 _atom_site_fract_z
 _atom_site_occupancy
  Na  Na0  1  0.500000  0.024762  0.421077  1
  Na  Na1  1  0.000000  0.346706  0.342696  1
  Na  Na2  1  0.500000  0.524762  0.578923  1
  Na  Na3  1  0.000000  0.846706  0.657304  1
  Eu  Eu4  1  0.000000  0.503040  0.951982  1
  Eu  Eu5  1  0.000000  0.003040  0.048018  1
  Zn  Zn6  1  0.500000  0.151978  0.821243  1
  Zn  Zn7  1  0.500000  0.651978  0.178757  1
  Sb  Sb8  1  0.000000  0.236440  0.672298  1
  Sb  Sb9  1  0.500000  0.282595  0.124640  1
  Sb  Sb10  1  0.000000  0.736440  0.327702  1
  Sb  Sb11  1  0.500000  0.782595  0.875360  1
