# generated using pymatgen
data_Sm3Ga2Ir7
_symmetry_space_group_name_H-M   'P 1'
_cell_length_a   8.82111376
_cell_length_b   8.82111491
_cell_length_c   8.82111500
_cell_angle_alpha   36.23511902
_cell_angle_beta   36.23511978
_cell_angle_gamma   36.23511470
_symmetry_Int_Tables_number   1
_chemical_formula_structural   Sm3Ga2Ir7
_chemical_formula_sum   'Sm3 Ga2 Ir7'
_cell_volume   214.59371382
_cell_formula_units_Z   1
loop_
 _symmetry_equiv_pos_site_id
 _symmetry_equiv_pos_as_xyz
  1  'x, y, z'
loop_
 _atom_site_type_symbol
 _atom_site_label
 _atom_site_symmetry_multiplicity
 _atom_site_fract_x
 _atom_site_fract_y
 _atom_site_fract_z
 _atom_site_occupancy
  Sm  Sm0  1  0.359478  0.359478  0.359478  1
  Sm  Sm1  1  0.500000  0.500000  0.500000  1
  Sm  Sm2  1  0.640522  0.640522  0.640522  1
  Ga  Ga3  1  0.164378  0.164378  0.164378  1
  Ga  Ga4  1  0.835622  0.835622  0.835622  1
  Ir  Ir5  1  0.000000  0.000000  0.000000  1
  Ir  Ir6  1  0.575502  0.085006  0.085006  1
  Ir  Ir7  1  0.085006  0.575502  0.085006  1
  Ir  Ir8  1  0.914994  0.914994  0.424498  1
  Ir  Ir9  1  0.085006  0.085006  0.575502  1
  Ir  Ir10  1  0.914994  0.424498  0.914994  1
  Ir  Ir11  1  0.424498  0.914994  0.914994  1
