# generated using pymatgen
data_Dy4Ga2(OsRu)3
_symmetry_space_group_name_H-M   'P 1'
_cell_length_a   5.31858394
_cell_length_b   5.35204809
_cell_length_c   8.90154400
_cell_angle_alpha   90.00000000
_cell_angle_beta   90.00000000
_cell_angle_gamma   120.28631883
_symmetry_Int_Tables_number   1
_chemical_formula_structural   Dy4Ga2(OsRu)3
_chemical_formula_sum   'Dy4 Ga2 Os3 Ru3'
_cell_volume   218.80223554
_cell_formula_units_Z   1
loop_
 _symmetry_equiv_pos_site_id
 _symmetry_equiv_pos_as_xyz
  1  'x, y, z'
loop_
 _atom_site_type_symbol
 _atom_site_label
 _atom_site_symmetry_multiplicity
 _atom_site_fract_x
 _atom_site_fract_y
 _atom_site_fract_z
 _atom_site_occupancy
  Dy  Dy0  1  0.665530  0.332321  0.567825  1
  Dy  Dy1  1  0.342477  0.670674  0.440170  1
  Dy  Dy2  1  0.342477  0.670674  0.059830  1
  Dy  Dy3  1  0.665530  0.332321  0.932175  1
  Ga  Ga4  1  0.829357  0.663720  0.250000  1
  Ga  Ga5  1  0.830600  0.165104  0.250000  1
  Os  Os6  1  0.163896  0.335980  0.750000  1
  Os  Os7  1  0.161239  0.832421  0.750000  1
  Os  Os8  1  0.644185  0.822429  0.750000  1
  Ru  Ru9  1  0.007412  0.002514  0.500601  1
  Ru  Ru10  1  0.007412  0.002514  0.999399  1
  Ru  Ru11  1  0.339882  0.169325  0.250000  1
