# generated using pymatgen
data_Dy9LuSi5Sn
_symmetry_space_group_name_H-M   'P 1'
_cell_length_a   8.50401514
_cell_length_b   8.53101212
_cell_length_c   6.37660719
_cell_angle_alpha   89.97957654
_cell_angle_beta   89.99387279
_cell_angle_gamma   119.91516445
_symmetry_Int_Tables_number   1
_chemical_formula_structural   Dy9LuSi5Sn
_chemical_formula_sum   'Dy9 Lu1 Si5 Sn1'
_cell_volume   400.97329998
_cell_formula_units_Z   1
loop_
 _symmetry_equiv_pos_site_id
 _symmetry_equiv_pos_as_xyz
  1  'x, y, z'
loop_
 _atom_site_type_symbol
 _atom_site_label
 _atom_site_symmetry_multiplicity
 _atom_site_fract_x
 _atom_site_fract_y
 _atom_site_fract_z
 _atom_site_occupancy
  Dy  Dy0  1  0.673622  0.342121  0.003103  1
  Dy  Dy1  1  0.331472  0.657843  0.496939  1
  Dy  Dy2  1  0.331297  0.657730  0.003047  1
  Dy  Dy3  1  0.765027  0.000238  0.749401  1
  Dy  Dy4  1  0.755877  0.756902  0.250867  1
  Dy  Dy5  1  0.998247  0.242668  0.250743  1
  Dy  Dy6  1  0.989462  0.748706  0.749171  1
  Dy  Dy7  1  0.240899  0.251105  0.749497  1
  Dy  Dy8  1  0.241621  0.000247  0.250549  1
  Lu  Lu9  1  0.673892  0.342454  0.497032  1
  Si  Si10  1  0.394759  0.391820  0.251837  1
  Si  Si11  1  0.999795  0.606698  0.252133  1
  Si  Si12  1  0.997161  0.393969  0.748089  1
  Si  Si13  1  0.604658  0.604526  0.748092  1
  Si  Si14  1  0.605759  0.001363  0.251660  1
  Sn  Sn15  1  0.396452  0.001611  0.747841  1
