# generated using pymatgen
data_TbDy2Y(B6Ru)2
_symmetry_space_group_name_H-M   'P 1'
_cell_length_a   3.66840100
_cell_length_b   9.15916604
_cell_length_c   11.53354205
_cell_angle_alpha   90.01118120
_cell_angle_beta   90.00000000
_cell_angle_gamma   90.00000000
_symmetry_Int_Tables_number   1
_chemical_formula_structural   TbDy2Y(B6Ru)2
_chemical_formula_sum   'Tb2 Dy4 Y2 B24 Ru4'
_cell_volume   387.52116823
_cell_formula_units_Z   2
loop_
 _symmetry_equiv_pos_site_id
 _symmetry_equiv_pos_as_xyz
  1  'x, y, z'
loop_
 _atom_site_type_symbol
 _atom_site_label
 _atom_site_symmetry_multiplicity
 _atom_site_fract_x
 _atom_site_fract_y
 _atom_site_fract_z
 _atom_site_occupancy
  Tb  Tb0  1  0.000000  0.323232  0.413958  1
  Tb  Tb1  1  0.000000  0.676768  0.586042  1
  Dy  Dy2  1  0.000000  0.944001  0.372130  1
  Dy  Dy3  1  0.000000  0.055999  0.627870  1
  Dy  Dy4  1  0.000000  0.444054  0.127789  1
  Dy  Dy5  1  0.000000  0.555946  0.872211  1
  Y  Y6  1  0.000000  0.822967  0.085952  1
  Y  Y7  1  0.000000  0.177033  0.914048  1
  B  B8  1  0.500000  0.554542  0.432729  1
  B  B9  1  0.500000  0.445458  0.567271  1
  B  B10  1  0.500000  0.054438  0.067103  1
  B  B11  1  0.500000  0.945562  0.932897  1
  B  B12  1  0.500000  0.747976  0.419594  1
  B  B13  1  0.500000  0.252024  0.580406  1
  B  B14  1  0.500000  0.247928  0.080327  1
  B  B15  1  0.500000  0.752072  0.919673  1
  B  B16  1  0.500000  0.791351  0.266467  1
  B  B17  1  0.500000  0.208649  0.733533  1
  B  B18  1  0.500000  0.291248  0.233452  1
  B  B19  1  0.500000  0.708752  0.766548  1
  B  B20  1  0.500000  0.632392  0.185411  1
  B  B21  1  0.500000  0.367608  0.814589  1
  B  B22  1  0.500000  0.132386  0.314531  1
  B  B23  1  0.500000  0.867614  0.685469  1
  B  B24  1  0.500000  0.984377  0.212839  1
  B  B25  1  0.500000  0.015623  0.787161  1
  B  B26  1  0.500000  0.484519  0.287107  1
  B  B27  1  0.500000  0.515481  0.712893  1
  B  B28  1  0.500000  0.609142  0.030137  1
  B  B29  1  0.500000  0.390858  0.969863  1
  B  B30  1  0.500000  0.108841  0.469963  1
  B  B31  1  0.500000  0.891159  0.530037  1
  Ru  Ru32  1  0.000000  0.638264  0.321135  1
  Ru  Ru33  1  0.000000  0.361736  0.678865  1
  Ru  Ru34  1  0.000000  0.138165  0.178805  1
  Ru  Ru35  1  0.000000  0.861835  0.821195  1
