# generated using pymatgen
data_NdHg3PdPt3O14
_symmetry_space_group_name_H-M   'P 1'
_cell_length_a   7.37506560
_cell_length_b   7.37506411
_cell_length_c   7.38925046
_cell_angle_alpha   59.51124415
_cell_angle_beta   59.51124956
_cell_angle_gamma   59.50867336
_symmetry_Int_Tables_number   1
_chemical_formula_structural   NdHg3PdPt3O14
_chemical_formula_sum   'Nd1 Hg3 Pd1 Pt3 O14'
_cell_volume   281.03108535
_cell_formula_units_Z   1
loop_
 _symmetry_equiv_pos_site_id
 _symmetry_equiv_pos_as_xyz
  1  'x, y, z'
loop_
 _atom_site_type_symbol
 _atom_site_label
 _atom_site_symmetry_multiplicity
 _atom_site_fract_x
 _atom_site_fract_y
 _atom_site_fract_z
 _atom_site_occupancy
  Nd  Nd0  1  0.125000  0.125000  0.125000  1
  Hg  Hg1  1  0.625000  0.125000  0.125000  1
  Hg  Hg2  1  0.125000  0.625000  0.125000  1
  Hg  Hg3  1  0.125000  0.125000  0.625000  1
  Pd  Pd4  1  0.625000  0.625000  0.125000  1
  Pt  Pt5  1  0.625000  0.625000  0.625000  1
  Pt  Pt6  1  0.625000  0.125000  0.625000  1
  Pt  Pt7  1  0.125000  0.625000  0.625000  1
  O  O8  1  0.715699  0.292787  0.295630  1
  O  O9  1  0.702659  0.296137  0.702120  1
  O  O10  1  0.991856  0.991856  0.990978  1
  O  O11  1  0.292787  0.715699  0.295630  1
  O  O12  1  0.703135  0.703135  0.298022  1
  O  O13  1  0.953863  0.547341  0.547880  1
  O  O14  1  0.296137  0.702659  0.702120  1
  O  O15  1  0.258144  0.258144  0.259022  1
  O  O16  1  0.957213  0.534301  0.954370  1
  O  O17  1  0.547341  0.953863  0.547880  1
  O  O18  1  0.546865  0.546865  0.951978  1
  O  O19  1  0.955275  0.955275  0.534882  1
  O  O20  1  0.534301  0.957213  0.954370  1
  O  O21  1  0.294725  0.294725  0.715118  1
