# generated using pymatgen
data_HoTm5(AuO7)2
_symmetry_space_group_name_H-M   'P 1'
_cell_length_a   6.41730070
_cell_length_b   6.41730155
_cell_length_c   7.34939506
_cell_angle_alpha   90.01222933
_cell_angle_beta   89.98777558
_cell_angle_gamma   108.70060222
_symmetry_Int_Tables_number   1
_chemical_formula_structural   HoTm5(AuO7)2
_chemical_formula_sum   'Ho1 Tm5 Au2 O14'
_cell_volume   286.68255862
_cell_formula_units_Z   1
loop_
 _symmetry_equiv_pos_site_id
 _symmetry_equiv_pos_as_xyz
  1  'x, y, z'
loop_
 _atom_site_type_symbol
 _atom_site_label
 _atom_site_symmetry_multiplicity
 _atom_site_fract_x
 _atom_site_fract_y
 _atom_site_fract_z
 _atom_site_occupancy
  Ho  Ho0  1  0.494887  0.494887  0.000000  1
  Tm  Tm1  1  0.002105  0.471123  0.747692  1
  Tm  Tm2  1  0.997965  0.528817  0.248892  1
  Tm  Tm3  1  0.528817  0.997965  0.751108  1
  Tm  Tm4  1  0.471123  0.002105  0.252308  1
  Tm  Tm5  1  0.506036  0.506036  0.500000  1
  Au  Au6  1  0.999212  0.999212  0.500000  1
  Au  Au7  1  0.000729  0.000729  0.000000  1
  O  O8  1  0.639853  0.360155  0.748065  1
  O  O9  1  0.360155  0.639853  0.251935  1
  O  O10  1  0.917282  0.082677  0.749968  1
  O  O11  1  0.082677  0.917282  0.250032  1
  O  O12  1  0.914329  0.665207  0.523554  1
  O  O13  1  0.083906  0.334606  0.023546  1
  O  O14  1  0.334606  0.083906  0.976454  1
  O  O15  1  0.665207  0.914329  0.476446  1
  O  O16  1  0.366728  0.633351  0.747847  1
  O  O17  1  0.633351  0.366728  0.252153  1
  O  O18  1  0.920152  0.668188  0.973760  1
  O  O19  1  0.080964  0.331729  0.473745  1
  O  O20  1  0.331729  0.080964  0.526255  1
  O  O21  1  0.668188  0.920152  0.026240  1
