# generated using pymatgen
data_Yb12Tm8Si15Ag
_symmetry_space_group_name_H-M   'P 1'
_cell_length_a   7.39822146
_cell_length_b   7.76478451
_cell_length_c   15.02408686
_cell_angle_alpha   89.52262377
_cell_angle_beta   90.71151683
_cell_angle_gamma   90.33052942
_symmetry_Int_Tables_number   1
_chemical_formula_structural   Yb12Tm8Si15Ag
_chemical_formula_sum   'Yb12 Tm8 Si15 Ag1'
_cell_volume   862.95726197
_cell_formula_units_Z   1
loop_
 _symmetry_equiv_pos_site_id
 _symmetry_equiv_pos_as_xyz
  1  'x, y, z'
loop_
 _atom_site_type_symbol
 _atom_site_label
 _atom_site_symmetry_multiplicity
 _atom_site_fract_x
 _atom_site_fract_y
 _atom_site_fract_z
 _atom_site_occupancy
  Yb  Yb0  1  0.982559  0.818570  0.404375  1
  Yb  Yb1  1  0.473621  0.682520  0.095843  1
  Yb  Yb2  1  0.510133  0.322343  0.595705  1
  Yb  Yb3  1  0.024964  0.183600  0.904735  1
  Yb  Yb4  1  0.024525  0.177257  0.594786  1
  Yb  Yb5  1  0.525770  0.318245  0.904300  1
  Yb  Yb6  1  0.475072  0.679950  0.404890  1
  Yb  Yb7  1  0.974862  0.816968  0.095439  1
  Yb  Yb8  1  0.348675  0.021440  0.751990  1
  Yb  Yb9  1  0.847621  0.483472  0.749953  1
  Yb  Yb10  1  0.151676  0.519253  0.250893  1
  Yb  Yb11  1  0.649870  0.977850  0.249606  1
  Tm  Tm12  1  0.316886  0.175588  0.120446  1
  Tm  Tm13  1  0.823352  0.317949  0.374497  1
  Tm  Tm14  1  0.182728  0.678295  0.879799  1
  Tm  Tm15  1  0.673775  0.830168  0.625755  1
  Tm  Tm16  1  0.320928  0.177616  0.376799  1
  Tm  Tm17  1  0.815960  0.322528  0.120572  1
  Tm  Tm18  1  0.188822  0.678033  0.620636  1
  Tm  Tm19  1  0.684854  0.824624  0.879495  1
  Si  Si20  1  0.357304  0.966374  0.961998  1
  Si  Si21  1  0.647934  0.033302  0.463970  1
  Si  Si22  1  0.142182  0.466469  0.039110  1
  Si  Si23  1  0.156291  0.459610  0.461121  1
  Si  Si24  1  0.643599  0.033251  0.038454  1
  Si  Si25  1  0.357525  0.967070  0.536779  1
  Si  Si26  1  0.856730  0.532892  0.961714  1
  Si  Si27  1  0.974647  0.879484  0.749463  1
  Si  Si28  1  0.472222  0.622406  0.753527  1
  Si  Si29  1  0.526947  0.377268  0.246832  1
  Si  Si30  1  0.025949  0.117639  0.249328  1
  Si  Si31  1  0.243507  0.397815  0.751457  1
  Si  Si32  1  0.747860  0.106207  0.750407  1
  Si  Si33  1  0.253921  0.895487  0.249160  1
  Si  Si34  1  0.753712  0.602074  0.250705  1
  Ag  Ag35  1  0.843016  0.536384  0.535459  1
