# generated using pymatgen
data_Ti6V4Si5Ge
_symmetry_space_group_name_H-M   'P 1'
_cell_length_a   7.36842627
_cell_length_b   7.36842596
_cell_length_c   4.96261900
_cell_angle_alpha   90.00000000
_cell_angle_beta   90.00000000
_cell_angle_gamma   120.03127966
_symmetry_Int_Tables_number   1
_chemical_formula_structural   Ti6V4Si5Ge
_chemical_formula_sum   'Ti6 V4 Si5 Ge1'
_cell_volume   233.26740542
_cell_formula_units_Z   1
loop_
 _symmetry_equiv_pos_site_id
 _symmetry_equiv_pos_as_xyz
  1  'x, y, z'
loop_
 _atom_site_type_symbol
 _atom_site_label
 _atom_site_symmetry_multiplicity
 _atom_site_fract_x
 _atom_site_fract_y
 _atom_site_fract_z
 _atom_site_occupancy
  Ti  Ti0  1  0.757620  0.757620  0.750000  1
  Ti  Ti1  1  0.243590  0.995847  0.750000  1
  Ti  Ti2  1  0.995847  0.243590  0.750000  1
  Ti  Ti3  1  0.242943  0.242943  0.250000  1
  Ti  Ti4  1  0.755564  0.000620  0.250000  1
  Ti  Ti5  1  0.000620  0.755564  0.250000  1
  V  V6  1  0.668972  0.332824  0.002041  1
  V  V7  1  0.332824  0.668972  0.002041  1
  V  V8  1  0.332824  0.668972  0.497959  1
  V  V9  1  0.668972  0.332824  0.497959  1
  Si  Si10  1  0.599791  0.999461  0.750000  1
  Si  Si11  1  0.999461  0.599791  0.750000  1
  Si  Si12  1  0.602232  0.602232  0.250000  1
  Si  Si13  1  0.399553  0.000903  0.250000  1
  Si  Si14  1  0.000903  0.399553  0.250000  1
  Ge  Ge15  1  0.398284  0.398284  0.750000  1
