# generated using pymatgen
data_Zr10Al12Co7
_symmetry_space_group_name_H-M   'P 1'
_cell_length_a   8.74577844
_cell_length_b   8.74819179
_cell_length_c   8.74741435
_cell_angle_alpha   59.97972780
_cell_angle_beta   60.01295978
_cell_angle_gamma   60.00174732
_symmetry_Int_Tables_number   1
_chemical_formula_structural   Zr10Al12Co7
_chemical_formula_sum   'Zr10 Al12 Co7'
_cell_volume   473.22003756
_cell_formula_units_Z   1
loop_
 _symmetry_equiv_pos_site_id
 _symmetry_equiv_pos_as_xyz
  1  'x, y, z'
loop_
 _atom_site_type_symbol
 _atom_site_label
 _atom_site_symmetry_multiplicity
 _atom_site_fract_x
 _atom_site_fract_y
 _atom_site_fract_z
 _atom_site_occupancy
  Zr  Zr0  1  0.688808  0.688734  0.311249  1
  Zr  Zr1  1  0.311377  0.688560  0.311378  1
  Zr  Zr2  1  0.689002  0.310992  0.310944  1
  Zr  Zr3  1  0.311192  0.311241  0.688746  1
  Zr  Zr4  1  0.688628  0.311418  0.688616  1
  Zr  Zr5  1  0.311002  0.688992  0.689053  1
  Zr  Zr6  1  0.881951  0.881847  0.354308  1
  Zr  Zr7  1  0.881896  0.354333  0.881845  1
  Zr  Zr8  1  0.354275  0.881908  0.881964  1
  Zr  Zr9  1  0.881859  0.881948  0.881920  1
  Al  Al10  1  0.122090  0.121990  0.633818  1
  Al  Al11  1  0.122087  0.633792  0.122002  1
  Al  Al12  1  0.633813  0.122052  0.122075  1
  Al  Al13  1  0.122033  0.122071  0.122069  1
  Al  Al14  1  0.663065  0.662944  0.011008  1
  Al  Al15  1  0.662992  0.011052  0.662930  1
  Al  Al16  1  0.010968  0.663033  0.663083  1
  Al  Al17  1  0.662933  0.663070  0.663013  1
  Al  Al18  1  0.334731  0.334815  0.995683  1
  Al  Al19  1  0.334760  0.995652  0.334814  1
  Al  Al20  1  0.995728  0.334738  0.334712  1
  Al  Al21  1  0.334809  0.334742  0.334737  1
  Co  Co22  1  0.999989  0.000033  0.000002  1
  Co  Co23  1  0.999065  0.999055  0.500958  1
  Co  Co24  1  0.500944  0.999060  0.500942  1
  Co  Co25  1  0.999072  0.500941  0.500933  1
  Co  Co26  1  0.500938  0.500944  0.999061  1
  Co  Co27  1  0.999061  0.500962  0.999056  1
  Co  Co28  1  0.500938  0.999080  0.999078  1
