# generated using pymatgen
data_Sc4Co10SiGeB4
_symmetry_space_group_name_H-M   'P 1'
_cell_length_a   8.63380000
_cell_length_b   8.63380000
_cell_length_c   2.97417100
_cell_angle_alpha   90.00000000
_cell_angle_beta   90.00000000
_cell_angle_gamma   90.00000000
_symmetry_Int_Tables_number   1
_chemical_formula_structural   Sc4Co10SiGeB4
_chemical_formula_sum   'Sc4 Co10 Si1 Ge1 B4'
_cell_volume   221.70214902
_cell_formula_units_Z   1
loop_
 _symmetry_equiv_pos_site_id
 _symmetry_equiv_pos_as_xyz
  1  'x, y, z'
loop_
 _atom_site_type_symbol
 _atom_site_label
 _atom_site_symmetry_multiplicity
 _atom_site_fract_x
 _atom_site_fract_y
 _atom_site_fract_z
 _atom_site_occupancy
  Sc  Sc0  1  0.176225  0.674250  0.000000  1
  Sc  Sc1  1  0.674250  0.823775  0.000000  1
  Sc  Sc2  1  0.325750  0.176225  0.000000  1
  Sc  Sc3  1  0.823775  0.325750  0.000000  1
  Co  Co4  1  0.000000  0.500000  0.500000  1
  Co  Co5  1  0.500000  0.000000  0.500000  1
  Co  Co6  1  0.283688  0.431613  0.500000  1
  Co  Co7  1  0.716313  0.568387  0.500000  1
  Co  Co8  1  0.568387  0.283688  0.500000  1
  Co  Co9  1  0.431613  0.716313  0.500000  1
  Co  Co10  1  0.929654  0.779715  0.500000  1
  Co  Co11  1  0.779715  0.070346  0.500000  1
  Co  Co12  1  0.220284  0.929654  0.500000  1
  Co  Co13  1  0.070346  0.220284  0.500000  1
  Si  Si14  1  0.500000  0.500000  0.000000  1
  Ge  Ge15  1  0.000000  0.000000  0.000000  1
  B  B16  1  0.380211  0.879538  0.000000  1
  B  B17  1  0.879538  0.619789  0.000000  1
  B  B18  1  0.120462  0.380211  0.000000  1
  B  B19  1  0.619789  0.120462  0.000000  1
