# generated using pymatgen
data_TbNd(Cu2Ni3)2
_symmetry_space_group_name_H-M   'P 1'
_cell_length_a   3.99346700
_cell_length_b   4.98182400
_cell_length_c   8.65848000
_cell_angle_alpha   90.00000000
_cell_angle_beta   90.00000000
_cell_angle_gamma   90.00000000
_symmetry_Int_Tables_number   1
_chemical_formula_structural   TbNd(Cu2Ni3)2
_chemical_formula_sum   'Tb1 Nd1 Cu4 Ni6'
_cell_volume   172.25829276
_cell_formula_units_Z   1
loop_
 _symmetry_equiv_pos_site_id
 _symmetry_equiv_pos_as_xyz
  1  'x, y, z'
loop_
 _atom_site_type_symbol
 _atom_site_label
 _atom_site_symmetry_multiplicity
 _atom_site_fract_x
 _atom_site_fract_y
 _atom_site_fract_z
 _atom_site_occupancy
  Tb  Tb0  1  0.000000  0.000000  0.496164  1
  Nd  Nd1  1  0.000000  0.500000  0.004191  1
  Cu  Cu2  1  0.000000  0.500000  0.335792  1
  Cu  Cu3  1  0.000000  0.000000  0.826324  1
  Cu  Cu4  1  0.000000  0.500000  0.665017  1
  Cu  Cu5  1  0.500000  0.000000  0.000874  1
  Ni  Ni6  1  0.000000  0.000000  0.175040  1
  Ni  Ni7  1  0.500000  0.500000  0.499815  1
  Ni  Ni8  1  0.500000  0.753561  0.254338  1
  Ni  Ni9  1  0.500000  0.246983  0.744054  1
  Ni  Ni10  1  0.500000  0.246439  0.254338  1
  Ni  Ni11  1  0.500000  0.753017  0.744054  1
