# generated using pymatgen
data_YbYPa2(Al3Ir)6
_symmetry_space_group_name_H-M   'P 1'
_cell_length_a   7.59606589
_cell_length_b   7.59296339
_cell_length_c   9.38331100
_cell_angle_alpha   90.00000000
_cell_angle_beta   90.00000000
_cell_angle_gamma   119.61976890
_symmetry_Int_Tables_number   1
_chemical_formula_structural   YbYPa2(Al3Ir)6
_chemical_formula_sum   'Yb1 Y1 Pa2 Al18 Ir6'
_cell_volume   470.47660803
_cell_formula_units_Z   1
loop_
 _symmetry_equiv_pos_site_id
 _symmetry_equiv_pos_as_xyz
  1  'x, y, z'
loop_
 _atom_site_type_symbol
 _atom_site_label
 _atom_site_symmetry_multiplicity
 _atom_site_fract_x
 _atom_site_fract_y
 _atom_site_fract_z
 _atom_site_occupancy
  Yb  Yb0  1  0.670418  0.994129  0.250000  1
  Y  Y1  1  0.330823  0.006650  0.750000  1
  Pa  Pa2  1  0.997548  0.671871  0.250000  1
  Pa  Pa3  1  0.002274  0.327883  0.750000  1
  Al  Al4  1  0.130914  0.127025  0.250000  1
  Al  Al5  1  0.868891  0.872232  0.750000  1
  Al  Al6  1  0.999745  0.331291  0.078721  1
  Al  Al7  1  0.999125  0.667913  0.922233  1
  Al  Al8  1  0.999125  0.667913  0.577767  1
  Al  Al9  1  0.339167  0.003250  0.424196  1
  Al  Al10  1  0.999745  0.331291  0.421279  1
  Al  Al11  1  0.661758  0.996342  0.573385  1
  Al  Al12  1  0.661758  0.996342  0.926615  1
  Al  Al13  1  0.339167  0.003250  0.075804  1
  Al  Al14  1  0.335320  0.333503  0.553122  1
  Al  Al15  1  0.664524  0.667110  0.446122  1
  Al  Al16  1  0.664524  0.667110  0.053878  1
  Al  Al17  1  0.335320  0.333503  0.946878  1
  Al  Al18  1  0.339868  0.548172  0.250000  1
  Al  Al19  1  0.659634  0.452424  0.750000  1
  Al  Al20  1  0.549393  0.342738  0.250000  1
  Al  Al21  1  0.451579  0.658949  0.750000  1
  Ir  Ir22  1  0.675769  0.330486  0.998817  1
  Ir  Ir23  1  0.323032  0.669085  0.999608  1
  Ir  Ir24  1  0.323032  0.669085  0.500392  1
  Ir  Ir25  1  0.675769  0.330486  0.501183  1
  Ir  Ir26  1  0.000891  0.999983  0.999343  1
  Ir  Ir27  1  0.000891  0.999983  0.500657  1
