# generated using pymatgen
data_HoTmMnAl3
_symmetry_space_group_name_H-M   'P 1'
_cell_length_a   5.42740477
_cell_length_b   5.42740557
_cell_length_c   5.42740400
_cell_angle_alpha   61.25511394
_cell_angle_beta   61.25511530
_cell_angle_gamma   61.25510317
_symmetry_Int_Tables_number   1
_chemical_formula_structural   HoTmMnAl3
_chemical_formula_sum   'Ho1 Tm1 Mn1 Al3'
_cell_volume   116.23810821
_cell_formula_units_Z   1
loop_
 _symmetry_equiv_pos_site_id
 _symmetry_equiv_pos_as_xyz
  1  'x, y, z'
loop_
 _atom_site_type_symbol
 _atom_site_label
 _atom_site_symmetry_multiplicity
 _atom_site_fract_x
 _atom_site_fract_y
 _atom_site_fract_z
 _atom_site_occupancy
  Ho  Ho0  1  0.251617  0.251617  0.251617  1
  Tm  Tm1  1  0.998007  0.998007  0.998007  1
  Mn  Mn2  1  0.625215  0.625215  0.625215  1
  Al  Al3  1  0.625014  0.625014  0.125133  1
  Al  Al4  1  0.625014  0.125133  0.625014  1
  Al  Al5  1  0.125133  0.625014  0.625014  1
