# generated using pymatgen
data_Pa6Mn5Co13P12
_symmetry_space_group_name_H-M   'P 1'
_cell_length_a   3.75553800
_cell_length_b   10.48173500
_cell_length_c   12.23435000
_cell_angle_alpha   90.00000000
_cell_angle_beta   90.00000000
_cell_angle_gamma   90.00000000
_symmetry_Int_Tables_number   1
_chemical_formula_structural   Pa6Mn5Co13P12
_chemical_formula_sum   'Pa6 Mn5 Co13 P12'
_cell_volume   481.59973243
_cell_formula_units_Z   1
loop_
 _symmetry_equiv_pos_site_id
 _symmetry_equiv_pos_as_xyz
  1  'x, y, z'
loop_
 _atom_site_type_symbol
 _atom_site_label
 _atom_site_symmetry_multiplicity
 _atom_site_fract_x
 _atom_site_fract_y
 _atom_site_fract_z
 _atom_site_occupancy
  Pa  Pa0  1  0.000000  0.500000  0.521502  1
  Pa  Pa1  1  0.500000  0.000000  0.476088  1
  Pa  Pa2  1  0.500000  0.817609  0.207822  1
  Pa  Pa3  1  0.500000  0.182391  0.207822  1
  Pa  Pa4  1  0.000000  0.679361  0.794066  1
  Pa  Pa5  1  0.000000  0.320639  0.794066  1
  Mn  Mn6  1  0.000000  0.500000  0.985174  1
  Mn  Mn7  1  0.500000  0.300359  0.429321  1
  Mn  Mn8  1  0.500000  0.699641  0.429321  1
  Mn  Mn9  1  0.500000  0.500000  0.154290  1
  Mn  Mn10  1  0.000000  0.000000  0.844162  1
  Co  Co11  1  0.500000  0.000000  0.016367  1
  Co  Co12  1  0.000000  0.197981  0.571475  1
  Co  Co13  1  0.000000  0.802019  0.571475  1
  Co  Co14  1  0.500000  0.875562  0.712564  1
  Co  Co15  1  0.500000  0.124438  0.712564  1
  Co  Co16  1  0.000000  0.622870  0.284875  1
  Co  Co17  1  0.000000  0.377130  0.284875  1
  Co  Co18  1  0.500000  0.330406  0.993415  1
  Co  Co19  1  0.500000  0.669594  0.993415  1
  Co  Co20  1  0.000000  0.166778  0.006241  1
  Co  Co21  1  0.000000  0.833222  0.006241  1
  Co  Co22  1  0.500000  0.500000  0.702985  1
  Co  Co23  1  0.000000  0.000000  0.299217  1
  P  P24  1  0.500000  0.309684  0.612296  1
  P  P25  1  0.500000  0.690316  0.612296  1
  P  P26  1  0.000000  0.192409  0.387358  1
  P  P27  1  0.000000  0.807591  0.387358  1
  P  P28  1  0.500000  0.500000  0.885156  1
  P  P29  1  0.000000  0.000000  0.117369  1
  P  P30  1  0.500000  0.848376  0.895194  1
  P  P31  1  0.500000  0.151624  0.895194  1
  P  P32  1  0.000000  0.651796  0.103985  1
  P  P33  1  0.000000  0.348204  0.103985  1
  P  P34  1  0.500000  0.500000  0.340824  1
  P  P35  1  0.000000  0.000000  0.659643  1
