# generated using pymatgen
data_Y2Tm8Cd3Co
_symmetry_space_group_name_H-M   'P 1'
_cell_length_a   9.50802806
_cell_length_b   9.50624677
_cell_length_c   9.59514600
_cell_angle_alpha   90.00000000
_cell_angle_beta   90.00000000
_cell_angle_gamma   119.99379558
_symmetry_Int_Tables_number   1
_chemical_formula_structural   Y2Tm8Cd3Co
_chemical_formula_sum   'Y4 Tm16 Cd6 Co2'
_cell_volume   751.11927381
_cell_formula_units_Z   2
loop_
 _symmetry_equiv_pos_site_id
 _symmetry_equiv_pos_as_xyz
  1  'x, y, z'
loop_
 _atom_site_type_symbol
 _atom_site_label
 _atom_site_symmetry_multiplicity
 _atom_site_fract_x
 _atom_site_fract_y
 _atom_site_fract_z
 _atom_site_occupancy
  Y  Y0  1  0.914719  0.457359  0.250000  1
  Y  Y1  1  0.458175  0.541602  0.750000  1
  Y  Y2  1  0.458175  0.916575  0.750000  1
  Y  Y3  1  0.083108  0.541555  0.750000  1
  Tm  Tm4  1  0.000090  0.000045  0.500150  1
  Tm  Tm5  1  0.000090  0.000045  0.999850  1
  Tm  Tm6  1  0.541448  0.457661  0.250000  1
  Tm  Tm7  1  0.541448  0.083786  0.250000  1
  Tm  Tm8  1  0.212930  0.789079  0.435546  1
  Tm  Tm9  1  0.212930  0.423852  0.435546  1
  Tm  Tm10  1  0.576305  0.788153  0.435224  1
  Tm  Tm11  1  0.787266  0.211552  0.563284  1
  Tm  Tm12  1  0.787266  0.575712  0.563284  1
  Tm  Tm13  1  0.424557  0.212278  0.562732  1
  Tm  Tm14  1  0.787266  0.211552  0.936716  1
  Tm  Tm15  1  0.787266  0.575712  0.936716  1
  Tm  Tm16  1  0.424557  0.212278  0.937268  1
  Tm  Tm17  1  0.212930  0.789079  0.064454  1
  Tm  Tm18  1  0.212930  0.423852  0.064454  1
  Tm  Tm19  1  0.576305  0.788153  0.064776  1
  Cd  Cd20  1  0.884442  0.113844  0.250000  1
  Cd  Cd21  1  0.884442  0.770598  0.250000  1
  Cd  Cd22  1  0.230522  0.115261  0.250000  1
  Cd  Cd23  1  0.114297  0.885988  0.750000  1
  Cd  Cd24  1  0.114297  0.228310  0.750000  1
  Cd  Cd25  1  0.771587  0.885794  0.750000  1
  Co  Co26  1  0.333668  0.666834  0.250000  1
  Co  Co27  1  0.666982  0.333491  0.750000  1
