# generated using pymatgen
data_DyMn2(CoP)3
_symmetry_space_group_name_H-M   'P 1'
_cell_length_a   3.61559300
_cell_length_b   10.34220800
_cell_length_c   12.06898600
_cell_angle_alpha   90.00000000
_cell_angle_beta   90.00000000
_cell_angle_gamma   90.00000000
_symmetry_Int_Tables_number   1
_chemical_formula_structural   DyMn2(CoP)3
_chemical_formula_sum   'Dy4 Mn8 Co12 P12'
_cell_volume   451.29818651
_cell_formula_units_Z   4
loop_
 _symmetry_equiv_pos_site_id
 _symmetry_equiv_pos_as_xyz
  1  'x, y, z'
loop_
 _atom_site_type_symbol
 _atom_site_label
 _atom_site_symmetry_multiplicity
 _atom_site_fract_x
 _atom_site_fract_y
 _atom_site_fract_z
 _atom_site_occupancy
  Dy  Dy0  1  0.250000  0.583190  0.708787  1
  Dy  Dy1  1  0.250000  0.916810  0.208787  1
  Dy  Dy2  1  0.750000  0.416810  0.291213  1
  Dy  Dy3  1  0.750000  0.083190  0.791213  1
  Mn  Mn4  1  0.250000  0.712754  0.991086  1
  Mn  Mn5  1  0.250000  0.787246  0.491086  1
  Mn  Mn6  1  0.750000  0.287246  0.008914  1
  Mn  Mn7  1  0.750000  0.212754  0.508914  1
  Mn  Mn8  1  0.250000  0.406735  0.491058  1
  Mn  Mn9  1  0.250000  0.093265  0.991058  1
  Mn  Mn10  1  0.750000  0.593265  0.508942  1
  Mn  Mn11  1  0.750000  0.906735  0.008942  1
  Co  Co12  1  0.250000  0.221545  0.176672  1
  Co  Co13  1  0.250000  0.278455  0.676672  1
  Co  Co14  1  0.750000  0.778455  0.823328  1
  Co  Co15  1  0.750000  0.721545  0.323328  1
  Co  Co16  1  0.250000  0.882831  0.696318  1
  Co  Co17  1  0.250000  0.617169  0.196318  1
  Co  Co18  1  0.750000  0.117169  0.303682  1
  Co  Co19  1  0.750000  0.382831  0.803682  1
  Co  Co20  1  0.250000  0.465918  0.933715  1
  Co  Co21  1  0.250000  0.034082  0.433715  1
  Co  Co22  1  0.750000  0.534082  0.066285  1
  Co  Co23  1  0.750000  0.965918  0.566285  1
  P  P24  1  0.250000  0.419173  0.111434  1
  P  P25  1  0.250000  0.080827  0.611434  1
  P  P26  1  0.750000  0.580827  0.888566  1
  P  P27  1  0.750000  0.919173  0.388566  1
  P  P28  1  0.250000  0.269861  0.867082  1
  P  P29  1  0.250000  0.230139  0.367082  1
  P  P30  1  0.750000  0.730139  0.132918  1
  P  P31  1  0.750000  0.769861  0.632918  1
  P  P32  1  0.250000  0.599930  0.383806  1
  P  P33  1  0.250000  0.900070  0.883806  1
  P  P34  1  0.750000  0.400070  0.616194  1
  P  P35  1  0.750000  0.099930  0.116194  1
