# generated using pymatgen
data_TbGd(HCl)2
_symmetry_space_group_name_H-M   'P 1'
_cell_length_a   9.89619080
_cell_length_b   9.89619050
_cell_length_c   9.89619147
_cell_angle_alpha   22.36300199
_cell_angle_beta   22.36300774
_cell_angle_gamma   22.36299596
_symmetry_Int_Tables_number   1
_chemical_formula_structural   TbGd(HCl)2
_chemical_formula_sum   'Tb1 Gd1 H2 Cl2'
_cell_volume   123.04372158
_cell_formula_units_Z   1
loop_
 _symmetry_equiv_pos_site_id
 _symmetry_equiv_pos_as_xyz
  1  'x, y, z'
loop_
 _atom_site_type_symbol
 _atom_site_label
 _atom_site_symmetry_multiplicity
 _atom_site_fract_x
 _atom_site_fract_y
 _atom_site_fract_z
 _atom_site_occupancy
  Tb  Tb0  1  0.881216  0.881216  0.881216  1
  Gd  Gd1  1  0.118636  0.118636  0.118636  1
  H  H2  1  0.196030  0.196030  0.196030  1
  H  H3  1  0.804888  0.804888  0.804888  1
  Cl  Cl4  1  0.393295  0.393295  0.393295  1
  Cl  Cl5  1  0.605936  0.605936  0.605936  1
