# generated using pymatgen
data_HfSc7Ta11VSi16
_symmetry_space_group_name_H-M   'P 1'
_cell_length_a   6.87352303
_cell_length_b   6.87642154
_cell_length_c   12.65683231
_cell_angle_alpha   90.19370914
_cell_angle_beta   89.87385392
_cell_angle_gamma   90.02894955
_symmetry_Int_Tables_number   1
_chemical_formula_structural   HfSc7Ta11VSi16
_chemical_formula_sum   'Hf1 Sc7 Ta11 V1 Si16'
_cell_volume   598.22329596
_cell_formula_units_Z   1
loop_
 _symmetry_equiv_pos_site_id
 _symmetry_equiv_pos_as_xyz
  1  'x, y, z'
loop_
 _atom_site_type_symbol
 _atom_site_label
 _atom_site_symmetry_multiplicity
 _atom_site_fract_x
 _atom_site_fract_y
 _atom_site_fract_z
 _atom_site_occupancy
  Hf  Hf0  1  0.001490  0.659548  0.031783  1
  Sc  Sc1  1  0.839496  0.501471  0.279416  1
  Sc  Sc2  1  0.160089  0.499773  0.780044  1
  Sc  Sc3  1  0.500800  0.840334  0.719318  1
  Sc  Sc4  1  0.498562  0.159875  0.220096  1
  Sc  Sc5  1  0.000035  0.340865  0.529328  1
  Sc  Sc6  1  0.660808  0.999696  0.970429  1
  Sc  Sc7  1  0.339334  0.999973  0.469485  1
  Ta  Ta8  1  0.328146  0.331760  0.000272  1
  Ta  Ta9  1  0.169866  0.830532  0.250584  1
  Ta  Ta10  1  0.829175  0.170822  0.749599  1
  Ta  Ta11  1  0.672543  0.669747  0.499335  1
  Ta  Ta12  1  0.004450  0.151259  0.125691  1
  Ta  Ta13  1  0.349115  0.504690  0.376327  1
  Ta  Ta14  1  0.652482  0.495261  0.877091  1
  Ta  Ta15  1  0.507546  0.347705  0.622382  1
  Ta  Ta16  1  0.495174  0.654152  0.123776  1
  Ta  Ta17  1  0.993995  0.847747  0.626759  1
  Ta  Ta18  1  0.149994  0.004476  0.874369  1
  V  V19  1  0.847242  0.989221  0.373379  1
  Si  Si20  1  0.302967  0.958052  0.064184  1
  Si  Si21  1  0.546956  0.804954  0.315501  1
  Si  Si22  1  0.456361  0.198158  0.813558  1
  Si  Si23  1  0.802832  0.542794  0.686174  1
  Si  Si24  1  0.199294  0.455289  0.187804  1
  Si  Si25  1  0.700999  0.041707  0.559934  1
  Si  Si26  1  0.956353  0.302405  0.935816  1
  Si  Si27  1  0.040499  0.704029  0.434921  1
  Si  Si28  1  0.705737  0.361519  0.073261  1
  Si  Si29  1  0.128249  0.201797  0.323658  1
  Si  Si30  1  0.860129  0.794496  0.822689  1
  Si  Si31  1  0.205758  0.139030  0.677560  1
  Si  Si32  1  0.795431  0.863728  0.181335  1
  Si  Si33  1  0.294559  0.638270  0.571036  1
  Si  Si34  1  0.361443  0.706691  0.927891  1
  Si  Si35  1  0.642086  0.288175  0.425212  1
