# generated using pymatgen
data_TiBe8Mo3
_symmetry_space_group_name_H-M   'P 1'
_cell_length_a   4.47578400
_cell_length_b   4.47579173
_cell_length_c   7.29756600
_cell_angle_alpha   89.99997360
_cell_angle_beta   90.00000000
_cell_angle_gamma   119.99995761
_symmetry_Int_Tables_number   1
_chemical_formula_structural   TiBe8Mo3
_chemical_formula_sum   'Ti1 Be8 Mo3'
_cell_volume   126.60411977
_cell_formula_units_Z   1
loop_
 _symmetry_equiv_pos_site_id
 _symmetry_equiv_pos_as_xyz
  1  'x, y, z'
loop_
 _atom_site_type_symbol
 _atom_site_label
 _atom_site_symmetry_multiplicity
 _atom_site_fract_x
 _atom_site_fract_y
 _atom_site_fract_z
 _atom_site_occupancy
  Ti  Ti0  1  0.333334  0.666666  0.066245  1
  Be  Be1  1  0.000000  0.000000  0.000569  1
  Be  Be2  1  0.341663  0.170829  0.250572  1
  Be  Be3  1  0.829167  0.170829  0.250572  1
  Be  Be4  1  0.829169  0.658336  0.250571  1
  Be  Be5  1  0.000000  0.000000  0.497164  1
  Be  Be6  1  0.170111  0.340223  0.749556  1
  Be  Be7  1  0.170112  0.829891  0.749555  1
  Be  Be8  1  0.659779  0.829891  0.749555  1
  Mo  Mo9  1  0.333334  0.666666  0.439908  1
  Mo  Mo10  1  0.666667  0.333334  0.562962  1
  Mo  Mo11  1  0.666667  0.333333  0.932768  1
