# generated using pymatgen
data_Tb3Nd5Sc12Si15Hg
_symmetry_space_group_name_H-M   'P 1'
_cell_length_a   7.22583443
_cell_length_b   7.47949323
_cell_length_c   14.25279844
_cell_angle_alpha   89.91596648
_cell_angle_beta   89.68288829
_cell_angle_gamma   90.22652747
_symmetry_Int_Tables_number   1
_chemical_formula_structural   Tb3Nd5Sc12Si15Hg
_chemical_formula_sum   'Tb3 Nd5 Sc12 Si15 Hg1'
_cell_volume   770.28208201
_cell_formula_units_Z   1
loop_
 _symmetry_equiv_pos_site_id
 _symmetry_equiv_pos_as_xyz
  1  'x, y, z'
loop_
 _atom_site_type_symbol
 _atom_site_label
 _atom_site_symmetry_multiplicity
 _atom_site_fract_x
 _atom_site_fract_y
 _atom_site_fract_z
 _atom_site_occupancy
  Tb  Tb0  1  0.008032  0.171568  0.397327  1
  Tb  Tb1  1  0.511801  0.322769  0.398386  1
  Tb  Tb2  1  0.495961  0.681287  0.600129  1
  Nd  Nd3  1  0.011707  0.173280  0.098177  1
  Nd  Nd4  1  0.988426  0.827934  0.903414  1
  Nd  Nd5  1  0.488605  0.673199  0.903983  1
  Nd  Nd6  1  0.988626  0.832802  0.596682  1
  Nd  Nd7  1  0.511098  0.326744  0.097216  1
  Sc  Sc8  1  0.162418  0.499773  0.753893  1
  Sc  Sc9  1  0.837392  0.499852  0.250975  1
  Sc  Sc10  1  0.337859  0.999020  0.249719  1
  Sc  Sc11  1  0.664793  0.999695  0.751372  1
  Sc  Sc12  1  0.342828  0.169103  0.628561  1
  Sc  Sc13  1  0.664273  0.823738  0.373458  1
  Sc  Sc14  1  0.167610  0.677237  0.371428  1
  Sc  Sc15  1  0.669440  0.824335  0.125692  1
  Sc  Sc16  1  0.824172  0.325307  0.625008  1
  Sc  Sc17  1  0.329456  0.174398  0.875421  1
  Sc  Sc18  1  0.829868  0.323773  0.875650  1
  Sc  Sc19  1  0.169068  0.675863  0.126167  1
  Si  Si20  1  0.036371  0.126807  0.750630  1
  Si  Si21  1  0.963696  0.879408  0.249835  1
  Si  Si22  1  0.465212  0.619862  0.249591  1
  Si  Si23  1  0.534716  0.381601  0.750832  1
  Si  Si24  1  0.288041  0.877231  0.750089  1
  Si  Si25  1  0.711299  0.122788  0.250678  1
  Si  Si26  1  0.212184  0.375995  0.251183  1
  Si  Si27  1  0.788047  0.621803  0.750445  1
  Si  Si28  1  0.833011  0.536162  0.457709  1
  Si  Si29  1  0.342748  0.963154  0.459224  1
  Si  Si30  1  0.847654  0.537089  0.039427  1
  Si  Si31  1  0.653787  0.039199  0.536280  1
  Si  Si32  1  0.151698  0.462839  0.961853  1
  Si  Si33  1  0.652344  0.036924  0.960851  1
  Si  Si34  1  0.346827  0.962736  0.040030  1
  Hg  Hg35  1  0.168931  0.454722  0.538685  1
