# generated using pymatgen
data_CaDyNiRh3
_symmetry_space_group_name_H-M   'P 1'
_cell_length_a   5.19694122
_cell_length_b   5.19694050
_cell_length_c   5.19694059
_cell_angle_alpha   62.30710605
_cell_angle_beta   62.30711887
_cell_angle_gamma   62.30710070
_symmetry_Int_Tables_number   1
_chemical_formula_structural   CaDyNiRh3
_chemical_formula_sum   'Ca1 Dy1 Ni1 Rh3'
_cell_volume   104.35969685
_cell_formula_units_Z   1
loop_
 _symmetry_equiv_pos_site_id
 _symmetry_equiv_pos_as_xyz
  1  'x, y, z'
loop_
 _atom_site_type_symbol
 _atom_site_label
 _atom_site_symmetry_multiplicity
 _atom_site_fract_x
 _atom_site_fract_y
 _atom_site_fract_z
 _atom_site_occupancy
  Ca  Ca0  1  0.126624  0.126624  0.126624  1
  Dy  Dy1  1  0.873311  0.873311  0.873311  1
  Ni  Ni2  1  0.500021  0.500021  0.500021  1
  Rh  Rh3  1  0.500001  0.000043  0.500001  1
  Rh  Rh4  1  0.000043  0.500001  0.500001  1
  Rh  Rh5  1  0.500001  0.500001  0.000043  1
