# generated using pymatgen
data_Tb5Sc(P2Ir3)6
_symmetry_space_group_name_H-M   'P 1'
_cell_length_a   12.71962147
_cell_length_b   12.91436600
_cell_length_c   3.97776400
_cell_angle_alpha   90.00000000
_cell_angle_beta   90.00000000
_cell_angle_gamma   120.50777839
_symmetry_Int_Tables_number   1
_chemical_formula_structural   Tb5Sc(P2Ir3)6
_chemical_formula_sum   'Tb5 Sc1 P12 Ir18'
_cell_volume   562.95274866
_cell_formula_units_Z   1
loop_
 _symmetry_equiv_pos_site_id
 _symmetry_equiv_pos_as_xyz
  1  'x, y, z'
loop_
 _atom_site_type_symbol
 _atom_site_label
 _atom_site_symmetry_multiplicity
 _atom_site_fract_x
 _atom_site_fract_y
 _atom_site_fract_z
 _atom_site_occupancy
  Tb  Tb0  1  0.329895  0.664520  0.500000  1
  Tb  Tb1  1  0.670105  0.334624  0.500000  1
  Tb  Tb2  1  0.000000  0.814445  0.000000  1
  Tb  Tb3  1  0.185207  0.187688  0.000000  1
  Tb  Tb4  1  0.814793  0.002480  0.000000  1
  Sc  Sc5  1  0.000000  0.444504  0.500000  1
  P  P6  1  0.000000  0.645346  0.500000  1
  P  P7  1  0.357766  0.353449  0.500000  1
  P  P8  1  0.642234  0.995683  0.500000  1
  P  P9  1  0.515173  0.689051  0.000000  1
  P  P10  1  0.311472  0.830346  0.000000  1
  P  P11  1  0.167906  0.483765  0.000000  1
  P  P12  1  0.484827  0.173878  0.000000  1
  P  P13  1  0.688528  0.518874  0.000000  1
  P  P14  1  0.832094  0.315859  0.000000  1
  P  P15  1  0.000000  0.176120  0.500000  1
  P  P16  1  0.819833  0.821562  0.500000  1
  P  P17  1  0.180167  0.001729  0.500000  1
  Ir  Ir18  1  0.507813  0.869098  0.000000  1
  Ir  Ir19  1  0.131657  0.643458  0.000000  1
  Ir  Ir20  1  0.359977  0.495084  0.000000  1
  Ir  Ir21  1  0.492187  0.361284  0.000000  1
  Ir  Ir22  1  0.868343  0.511800  0.000000  1
  Ir  Ir23  1  0.640023  0.135106  0.000000  1
  Ir  Ir24  1  0.536026  0.534602  0.500000  1
  Ir  Ir25  1  0.463974  0.998576  0.500000  1
  Ir  Ir26  1  0.000000  0.279817  0.000000  1
  Ir  Ir27  1  0.714272  0.716253  0.000000  1
  Ir  Ir28  1  0.285728  0.001981  0.000000  1
  Ir  Ir29  1  0.620013  0.801052  0.500000  1
  Ir  Ir30  1  0.198844  0.826332  0.500000  1
  Ir  Ir31  1  0.183924  0.374304  0.500000  1
  Ir  Ir32  1  0.379987  0.181039  0.500000  1
  Ir  Ir33  1  0.801156  0.627489  0.500000  1
  Ir  Ir34  1  0.816076  0.190380  0.500000  1
  Ir  Ir35  1  0.000000  0.998422  0.500000  1
