# generated using pymatgen
data_Np4Al18PdRh5
_symmetry_space_group_name_H-M   'P 1'
_cell_length_a   7.62434355
_cell_length_b   7.62434430
_cell_length_c   9.48694270
_cell_angle_alpha   90.00301485
_cell_angle_beta   90.00301139
_cell_angle_gamma   119.36838135
_symmetry_Int_Tables_number   1
_chemical_formula_structural   Np4Al18PdRh5
_chemical_formula_sum   'Np4 Al18 Pd1 Rh5'
_cell_volume   480.60793950
_cell_formula_units_Z   1
loop_
 _symmetry_equiv_pos_site_id
 _symmetry_equiv_pos_as_xyz
  1  'x, y, z'
loop_
 _atom_site_type_symbol
 _atom_site_label
 _atom_site_symmetry_multiplicity
 _atom_site_fract_x
 _atom_site_fract_y
 _atom_site_fract_z
 _atom_site_occupancy
  Np  Np0  1  0.992850  0.670245  0.752302  1
  Np  Np1  1  0.003668  0.327842  0.247072  1
  Np  Np2  1  0.672158  0.996332  0.752928  1
  Np  Np3  1  0.329755  0.007150  0.247698  1
  Al  Al4  1  0.129295  0.128111  0.749571  1
  Al  Al5  1  0.871889  0.870705  0.250429  1
  Al  Al6  1  0.003792  0.336314  0.575697  1
  Al  Al7  1  0.003845  0.667293  0.424174  1
  Al  Al8  1  0.999651  0.664444  0.076214  1
  Al  Al9  1  0.335556  0.000349  0.923786  1
  Al  Al10  1  0.002060  0.336367  0.923029  1
  Al  Al11  1  0.663633  0.997940  0.076971  1
  Al  Al12  1  0.663686  0.996208  0.424303  1
  Al  Al13  1  0.332707  0.996155  0.575826  1
  Al  Al14  1  0.333372  0.333520  0.050167  1
  Al  Al15  1  0.666480  0.666628  0.949833  1
  Al  Al16  1  0.667224  0.670823  0.554274  1
  Al  Al17  1  0.329177  0.332776  0.445726  1
  Al  Al18  1  0.341415  0.550696  0.749734  1
  Al  Al19  1  0.659439  0.452270  0.247849  1
  Al  Al20  1  0.547730  0.340561  0.752151  1
  Al  Al21  1  0.449304  0.658585  0.250266  1
  Pd  Pd22  1  0.670916  0.329084  0.500000  1
  Rh  Rh23  1  0.329643  0.670357  0.500000  1
  Rh  Rh24  1  0.328705  0.671295  0.000000  1
  Rh  Rh25  1  0.671845  0.328155  0.000000  1
  Rh  Rh26  1  0.000085  0.999915  0.500000  1
  Rh  Rh27  1  0.000116  0.999884  0.000000  1
