# generated using pymatgen
data_CeCo2Ni2SbH4
_symmetry_space_group_name_H-M   'P 1'
_cell_length_a   5.24337640
_cell_length_b   5.24708297
_cell_length_c   4.18312600
_cell_angle_alpha   90.00000000
_cell_angle_beta   90.00000000
_cell_angle_gamma   116.91993863
_symmetry_Int_Tables_number   1
_chemical_formula_structural   CeCo2Ni2SbH4
_chemical_formula_sum   'Ce1 Co2 Ni2 Sb1 H4'
_cell_volume   102.61703696
_cell_formula_units_Z   1
loop_
 _symmetry_equiv_pos_site_id
 _symmetry_equiv_pos_as_xyz
  1  'x, y, z'
loop_
 _atom_site_type_symbol
 _atom_site_label
 _atom_site_symmetry_multiplicity
 _atom_site_fract_x
 _atom_site_fract_y
 _atom_site_fract_z
 _atom_site_occupancy
  Ce  Ce0  1  0.500000  0.500000  0.500000  1
  Co  Co1  1  0.000000  0.500000  0.000000  1
  Co  Co2  1  0.500000  0.000000  0.000000  1
  Ni  Ni3  1  0.846905  0.153207  0.500000  1
  Ni  Ni4  1  0.153095  0.846793  0.500000  1
  Sb  Sb5  1  0.000000  0.000000  0.000000  1
  H  H6  1  0.641081  0.358554  0.000000  1
  H  H7  1  0.358919  0.641446  0.000000  1
  H  H8  1  0.000000  0.500000  0.500000  1
  H  H9  1  0.500000  0.000000  0.500000  1
