# generated using pymatgen
data_Ca2LaYbB24
_symmetry_space_group_name_H-M   'P 1'
_cell_length_a   7.18445763
_cell_length_b   7.18445917
_cell_length_c   5.84622100
_cell_angle_alpha   90.00000000
_cell_angle_beta   90.00000000
_cell_angle_gamma   109.56572225
_symmetry_Int_Tables_number   1
_chemical_formula_structural   Ca2LaYbB24
_chemical_formula_sum   'Ca2 La1 Yb1 B24'
_cell_volume   284.33683025
_cell_formula_units_Z   1
loop_
 _symmetry_equiv_pos_site_id
 _symmetry_equiv_pos_as_xyz
  1  'x, y, z'
loop_
 _atom_site_type_symbol
 _atom_site_label
 _atom_site_symmetry_multiplicity
 _atom_site_fract_x
 _atom_site_fract_y
 _atom_site_fract_z
 _atom_site_occupancy
  Ca  Ca0  1  0.748329  0.251671  0.500000  1
  Ca  Ca1  1  0.499942  0.500058  0.000000  1
  La  La2  1  0.000086  0.999914  0.000000  1
  Yb  Yb3  1  0.251659  0.748341  0.500000  1
  B  B4  1  0.175922  0.325531  0.649315  1
  B  B5  1  0.925610  0.574301  0.150304  1
  B  B6  1  0.674469  0.824078  0.649315  1
  B  B7  1  0.425699  0.074390  0.150304  1
  B  B8  1  0.175922  0.325531  0.350685  1
  B  B9  1  0.925610  0.574301  0.849696  1
  B  B10  1  0.674469  0.824078  0.350685  1
  B  B11  1  0.425699  0.074390  0.849696  1
  B  B12  1  0.399628  0.399957  0.500000  1
  B  B13  1  0.149659  0.649446  0.000000  1
  B  B14  1  0.899323  0.899012  0.500000  1
  B  B15  1  0.649305  0.149507  0.000000  1
  B  B16  1  0.325204  0.175607  0.649313  1
  B  B17  1  0.074776  0.426079  0.150308  1
  B  B18  1  0.824393  0.674796  0.649313  1
  B  B19  1  0.573921  0.925224  0.150308  1
  B  B20  1  0.100988  0.100677  0.500000  1
  B  B21  1  0.850493  0.350695  0.000000  1
  B  B22  1  0.600043  0.600372  0.500000  1
  B  B23  1  0.350554  0.850341  0.000000  1
  B  B24  1  0.325204  0.175607  0.350687  1
  B  B25  1  0.074776  0.426079  0.849692  1
  B  B26  1  0.824393  0.674796  0.350687  1
  B  B27  1  0.573921  0.925224  0.849692  1
