# generated using pymatgen
data_Th8Sc12Sn3Sb13
_symmetry_space_group_name_H-M   'P 1'
_cell_length_a   7.93188464
_cell_length_b   7.85338885
_cell_length_c   14.95195300
_cell_angle_alpha   90.00000000
_cell_angle_beta   90.00000000
_cell_angle_gamma   89.83947266
_symmetry_Int_Tables_number   1
_chemical_formula_structural   Th8Sc12Sn3Sb13
_chemical_formula_sum   'Th8 Sc12 Sn3 Sb13'
_cell_volume   931.38600805
_cell_formula_units_Z   1
loop_
 _symmetry_equiv_pos_site_id
 _symmetry_equiv_pos_as_xyz
  1  'x, y, z'
loop_
 _atom_site_type_symbol
 _atom_site_label
 _atom_site_symmetry_multiplicity
 _atom_site_fract_x
 _atom_site_fract_y
 _atom_site_fract_z
 _atom_site_occupancy
  Th  Th0  1  0.519048  0.326806  0.907432  1
  Th  Th1  1  0.020313  0.174083  0.594439  1
  Th  Th2  1  0.482495  0.674593  0.407131  1
  Th  Th3  1  0.982682  0.825021  0.092836  1
  Th  Th4  1  0.482495  0.674593  0.092869  1
  Th  Th5  1  0.982682  0.825021  0.407164  1
  Th  Th6  1  0.519048  0.326806  0.592568  1
  Th  Th7  1  0.020313  0.174083  0.905561  1
  Sc  Sc8  1  0.345964  0.850796  0.875448  1
  Sc  Sc9  1  0.846631  0.649875  0.622439  1
  Sc  Sc10  1  0.652069  0.151096  0.376284  1
  Sc  Sc11  1  0.151974  0.348416  0.123511  1
  Sc  Sc12  1  0.652069  0.151096  0.123716  1
  Sc  Sc13  1  0.151974  0.348416  0.376489  1
  Sc  Sc14  1  0.345964  0.850796  0.624552  1
  Sc  Sc15  1  0.846631  0.649875  0.877561  1
  Sc  Sc16  1  0.181990  0.499946  0.750000  1
  Sc  Sc17  1  0.680633  0.001311  0.750000  1
  Sc  Sc18  1  0.819528  0.499148  0.250000  1
  Sc  Sc19  1  0.318756  0.999603  0.250000  1
  Sn  Sn20  1  0.822721  0.352829  0.750000  1
  Sn  Sn21  1  0.676487  0.852676  0.250000  1
  Sn  Sn22  1  0.176256  0.647336  0.250000  1
  Sb  Sb23  1  0.307756  0.048003  0.046918  1
  Sb  Sb24  1  0.808349  0.450844  0.452556  1
  Sb  Sb25  1  0.692358  0.952623  0.547326  1
  Sb  Sb26  1  0.192236  0.549178  0.952871  1
  Sb  Sb27  1  0.692358  0.952623  0.952674  1
  Sb  Sb28  1  0.192236  0.549178  0.547129  1
  Sb  Sb29  1  0.307756  0.048003  0.453082  1
  Sb  Sb30  1  0.808349  0.450844  0.047444  1
  Sb  Sb31  1  0.545159  0.635794  0.750000  1
  Sb  Sb32  1  0.040159  0.858008  0.750000  1
  Sb  Sb33  1  0.454820  0.364185  0.250000  1
  Sb  Sb34  1  0.954866  0.136115  0.250000  1
  Sb  Sb35  1  0.324877  0.150380  0.750000  1
