# generated using pymatgen
data_Hf16Co4Tc3Ir
_symmetry_space_group_name_H-M   'P 1'
_cell_length_a   8.60521505
_cell_length_b   8.60583832
_cell_length_c   8.60584000
_cell_angle_alpha   60.00000125
_cell_angle_beta   59.99760526
_cell_angle_gamma   59.99760812
_symmetry_Int_Tables_number   1
_chemical_formula_structural   Hf16Co4Tc3Ir
_chemical_formula_sum   'Hf16 Co4 Tc3 Ir1'
_cell_volume   450.62727352
_cell_formula_units_Z   1
loop_
 _symmetry_equiv_pos_site_id
 _symmetry_equiv_pos_as_xyz
  1  'x, y, z'
loop_
 _atom_site_type_symbol
 _atom_site_label
 _atom_site_symmetry_multiplicity
 _atom_site_fract_x
 _atom_site_fract_y
 _atom_site_fract_z
 _atom_site_occupancy
  Hf  Hf0  1  0.697132  0.100956  0.100956  1
  Hf  Hf1  1  0.101172  0.697728  0.100550  1
  Hf  Hf2  1  0.101172  0.100550  0.697728  1
  Hf  Hf3  1  0.101172  0.100550  0.100550  1
  Hf  Hf4  1  0.314863  0.315335  0.684901  1
  Hf  Hf5  1  0.682988  0.687759  0.314626  1
  Hf  Hf6  1  0.314863  0.684901  0.315335  1
  Hf  Hf7  1  0.682988  0.314626  0.687759  1
  Hf  Hf8  1  0.682988  0.314626  0.314626  1
  Hf  Hf9  1  0.314863  0.684901  0.684901  1
  Hf  Hf10  1  0.953205  0.952122  0.547336  1
  Hf  Hf11  1  0.547199  0.546687  0.953057  1
  Hf  Hf12  1  0.953205  0.547336  0.952122  1
  Hf  Hf13  1  0.547199  0.953057  0.546687  1
  Hf  Hf14  1  0.547199  0.953057  0.953057  1
  Hf  Hf15  1  0.953205  0.547336  0.547336  1
  Co  Co16  1  0.329890  0.890037  0.890037  1
  Co  Co17  1  0.890846  0.328993  0.890080  1
  Co  Co18  1  0.890846  0.890080  0.328993  1
  Co  Co19  1  0.890846  0.890080  0.890080  1
  Tc  Tc20  1  0.334172  0.999793  0.333017  1
  Tc  Tc21  1  0.334172  0.333017  0.999793  1
  Tc  Tc22  1  0.334172  0.333017  0.333017  1
  Ir  Ir23  1  0.999640  0.333454  0.333454  1
