# generated using pymatgen
data_Er4Al18(OsAu)3
_symmetry_space_group_name_H-M   'P 1'
_cell_length_a   7.65218242
_cell_length_b   7.65218163
_cell_length_c   9.48692208
_cell_angle_alpha   90.08717176
_cell_angle_beta   90.08716993
_cell_angle_gamma   119.63903274
_symmetry_Int_Tables_number   1
_chemical_formula_structural   Er4Al18(OsAu)3
_chemical_formula_sum   'Er4 Al18 Os3 Au3'
_cell_volume   482.82836489
_cell_formula_units_Z   1
loop_
 _symmetry_equiv_pos_site_id
 _symmetry_equiv_pos_as_xyz
  1  'x, y, z'
loop_
 _atom_site_type_symbol
 _atom_site_label
 _atom_site_symmetry_multiplicity
 _atom_site_fract_x
 _atom_site_fract_y
 _atom_site_fract_z
 _atom_site_occupancy
  Er  Er0  1  0.995782  0.671006  0.246892  1
  Er  Er1  1  0.006198  0.330432  0.752141  1
  Er  Er2  1  0.669568  0.993802  0.247859  1
  Er  Er3  1  0.328994  0.004218  0.753108  1
  Al  Al4  1  0.121298  0.123444  0.248716  1
  Al  Al5  1  0.876556  0.878702  0.751284  1
  Al  Al6  1  0.988599  0.323038  0.074859  1
  Al  Al7  1  0.990078  0.663485  0.923953  1
  Al  Al8  1  0.997737  0.676222  0.581196  1
  Al  Al9  1  0.323778  0.002263  0.418804  1
  Al  Al10  1  0.000688  0.325446  0.420803  1
  Al  Al11  1  0.674554  0.999312  0.579197  1
  Al  Al12  1  0.676962  0.011401  0.925141  1
  Al  Al13  1  0.336515  0.009922  0.076047  1
  Al  Al14  1  0.323824  0.324558  0.562359  1
  Al  Al15  1  0.675442  0.676176  0.437641  1
  Al  Al16  1  0.678771  0.667962  0.049495  1
  Al  Al17  1  0.332038  0.321229  0.950505  1
  Al  Al18  1  0.341778  0.541129  0.248649  1
  Al  Al19  1  0.656204  0.451528  0.758243  1
  Al  Al20  1  0.548472  0.343796  0.241757  1
  Al  Al21  1  0.458871  0.658222  0.751351  1
  Os  Os22  1  0.671958  0.328042  0.000000  1
  Os  Os23  1  0.001231  0.998769  0.000000  1
  Os  Os24  1  0.999247  0.000753  0.500000  1
  Au  Au25  1  0.326500  0.673500  0.000000  1
  Au  Au26  1  0.325732  0.674268  0.500000  1
  Au  Au27  1  0.672625  0.327375  0.500000  1
