# generated using pymatgen
data_Ce4HfIr3
_symmetry_space_group_name_H-M   'P 1'
_cell_length_a   11.06549400
_cell_length_b   11.06549400
_cell_length_c   6.12635200
_cell_angle_alpha   90.00000000
_cell_angle_beta   90.00000000
_cell_angle_gamma   90.00000000
_symmetry_Int_Tables_number   1
_chemical_formula_structural   Ce4HfIr3
_chemical_formula_sum   'Ce16 Hf4 Ir12'
_cell_volume   750.14213532
_cell_formula_units_Z   4
loop_
 _symmetry_equiv_pos_site_id
 _symmetry_equiv_pos_as_xyz
  1  'x, y, z'
loop_
 _atom_site_type_symbol
 _atom_site_label
 _atom_site_symmetry_multiplicity
 _atom_site_fract_x
 _atom_site_fract_y
 _atom_site_fract_z
 _atom_site_occupancy
  Ce  Ce0  1  0.284885  0.088304  0.370976  1
  Ce  Ce1  1  0.284885  0.911696  0.870976  1
  Ce  Ce2  1  0.715115  0.088304  0.870976  1
  Ce  Ce3  1  0.715115  0.911696  0.370976  1
  Ce  Ce4  1  0.588304  0.784885  0.870976  1
  Ce  Ce5  1  0.588304  0.215115  0.370976  1
  Ce  Ce6  1  0.411696  0.784885  0.370976  1
  Ce  Ce7  1  0.411696  0.215115  0.870976  1
  Ce  Ce8  1  0.215115  0.411696  0.629024  1
  Ce  Ce9  1  0.215115  0.588304  0.129024  1
  Ce  Ce10  1  0.784885  0.411696  0.129024  1
  Ce  Ce11  1  0.784885  0.588304  0.629024  1
  Ce  Ce12  1  0.911696  0.715115  0.129024  1
  Ce  Ce13  1  0.911696  0.284885  0.629024  1
  Ce  Ce14  1  0.088304  0.715115  0.629024  1
  Ce  Ce15  1  0.088304  0.284885  0.129024  1
  Hf  Hf16  1  0.000000  0.000000  0.500000  1
  Hf  Hf17  1  0.000000  0.000000  0.000000  1
  Hf  Hf18  1  0.500000  0.500000  0.000000  1
  Hf  Hf19  1  0.500000  0.500000  0.500000  1
  Ir  Ir20  1  0.855598  0.144402  0.250000  1
  Ir  Ir21  1  0.855598  0.855598  0.750000  1
  Ir  Ir22  1  0.144402  0.144402  0.750000  1
  Ir  Ir23  1  0.144402  0.855598  0.250000  1
  Ir  Ir24  1  0.644402  0.355598  0.750000  1
  Ir  Ir25  1  0.644402  0.644402  0.250000  1
  Ir  Ir26  1  0.355598  0.355598  0.250000  1
  Ir  Ir27  1  0.355598  0.644402  0.750000  1
  Ir  Ir28  1  0.500000  0.000000  0.114337  1
  Ir  Ir29  1  0.500000  0.000000  0.614337  1
  Ir  Ir30  1  0.000000  0.500000  0.885663  1
  Ir  Ir31  1  0.000000  0.500000  0.385663  1
