# generated using pymatgen
data_Tm6Ti(Mn3Co8)2
_symmetry_space_group_name_H-M   'P 1'
_cell_length_a   8.33786930
_cell_length_b   8.33786929
_cell_length_c   8.33786800
_cell_angle_alpha   60.00000512
_cell_angle_beta   60.00000515
_cell_angle_gamma   60.00000111
_symmetry_Int_Tables_number   1
_chemical_formula_structural   Tm6Ti(Mn3Co8)2
_chemical_formula_sum   'Tm6 Ti1 Mn6 Co16'
_cell_volume   409.87385873
_cell_formula_units_Z   1
loop_
 _symmetry_equiv_pos_site_id
 _symmetry_equiv_pos_as_xyz
  1  'x, y, z'
loop_
 _atom_site_type_symbol
 _atom_site_label
 _atom_site_symmetry_multiplicity
 _atom_site_fract_x
 _atom_site_fract_y
 _atom_site_fract_z
 _atom_site_occupancy
  Tm  Tm0  1  0.713407  0.286593  0.286593  1
  Tm  Tm1  1  0.286593  0.713407  0.713407  1
  Tm  Tm2  1  0.286593  0.713407  0.286593  1
  Tm  Tm3  1  0.286593  0.286593  0.713407  1
  Tm  Tm4  1  0.713407  0.286593  0.713407  1
  Tm  Tm5  1  0.713407  0.713407  0.286593  1
  Ti  Ti6  1  0.000000  0.000000  0.000000  1
  Mn  Mn7  1  0.500000  0.000000  0.000000  1
  Mn  Mn8  1  0.000000  0.500000  0.500000  1
  Mn  Mn9  1  0.000000  0.500000  0.000000  1
  Mn  Mn10  1  0.000000  0.000000  0.500000  1
  Mn  Mn11  1  0.500000  0.000000  0.500000  1
  Mn  Mn12  1  0.500000  0.500000  0.000000  1
  Co  Co13  1  0.323387  0.323387  0.323387  1
  Co  Co14  1  0.323387  0.323387  0.029840  1
  Co  Co15  1  0.029840  0.323387  0.323387  1
  Co  Co16  1  0.323387  0.029840  0.323387  1
  Co  Co17  1  0.676613  0.676613  0.676613  1
  Co  Co18  1  0.676613  0.676613  0.970160  1
  Co  Co19  1  0.676613  0.970160  0.676613  1
  Co  Co20  1  0.970160  0.676613  0.676613  1
  Co  Co21  1  0.123998  0.123998  0.123998  1
  Co  Co22  1  0.123998  0.123998  0.628005  1
  Co  Co23  1  0.628005  0.123998  0.123998  1
  Co  Co24  1  0.123998  0.628005  0.123998  1
  Co  Co25  1  0.876002  0.876002  0.876002  1
  Co  Co26  1  0.876002  0.876002  0.371995  1
  Co  Co27  1  0.876002  0.371995  0.876002  1
  Co  Co28  1  0.371995  0.876002  0.876002  1
