# generated using pymatgen
data_Zr8Mn7Si14Ir
_symmetry_space_group_name_H-M   'P 1'
_cell_length_a   5.14924528
_cell_length_b   9.69553800
_cell_length_c   9.67143765
_cell_angle_alpha   85.98807713
_cell_angle_beta   74.56120830
_cell_angle_gamma   74.76276238
_symmetry_Int_Tables_number   1
_chemical_formula_structural   Zr8Mn7Si14Ir
_chemical_formula_sum   'Zr8 Mn7 Si14 Ir1'
_cell_volume   449.05898881
_cell_formula_units_Z   1
loop_
 _symmetry_equiv_pos_site_id
 _symmetry_equiv_pos_as_xyz
  1  'x, y, z'
loop_
 _atom_site_type_symbol
 _atom_site_label
 _atom_site_symmetry_multiplicity
 _atom_site_fract_x
 _atom_site_fract_y
 _atom_site_fract_z
 _atom_site_occupancy
  Zr  Zr0  1  0.198516  0.802991  0.801975  1
  Zr  Zr1  1  0.804588  0.195560  0.196372  1
  Zr  Zr2  1  0.999509  0.197009  0.801975  1
  Zr  Zr3  1  0.999040  0.804440  0.196372  1
  Zr  Zr4  1  0.361575  0.000000  0.276850  1
  Zr  Zr5  1  0.639098  0.000000  0.721801  1
  Zr  Zr6  1  0.638299  0.724508  0.999442  1
  Zr  Zr7  1  0.362259  0.275492  0.999442  1
  Mn  Mn8  1  0.602950  0.500000  0.794099  1
  Mn  Mn9  1  0.103005  0.500000  0.793988  1
  Mn  Mn10  1  0.599453  0.796546  0.502402  1
  Mn  Mn11  1  0.896850  0.500000  0.206300  1
  Mn  Mn12  1  0.399041  0.203114  0.499518  1
  Mn  Mn13  1  0.898145  0.203454  0.502402  1
  Mn  Mn14  1  0.101441  0.796886  0.499518  1
  Si  Si15  1  0.404421  0.592340  0.588976  1
  Si  Si16  1  0.596657  0.404885  0.416368  1
  Si  Si17  1  0.006603  0.407660  0.588976  1
  Si  Si18  1  0.986975  0.595115  0.416368  1
  Si  Si19  1  0.249917  0.000084  0.999434  1
  Si  Si20  1  0.750649  0.999916  0.999434  1
  Si  Si21  1  0.203544  0.291548  0.298809  1
  Si  Si22  1  0.798729  0.703238  0.702618  1
  Si  Si23  1  0.497647  0.708452  0.298809  1
  Si  Si24  1  0.498653  0.296762  0.702618  1
  Si  Si25  1  0.209778  0.000000  0.580445  1
  Si  Si26  1  0.790476  0.000000  0.419046  1
  Si  Si27  1  0.798727  0.417151  0.994974  1
  Si  Si28  1  0.206299  0.582849  0.994974  1
  Ir  Ir29  1  0.397152  0.500000  0.205697  1
