# generated using pymatgen
data_CaAc2Nd2Sn3H
_symmetry_space_group_name_H-M   'P 1'
_cell_length_a   9.70074343
_cell_length_b   9.70085665
_cell_length_c   9.70080436
_cell_angle_alpha   128.75482203
_cell_angle_beta   128.75555485
_cell_angle_gamma   75.40551758
_symmetry_Int_Tables_number   1
_chemical_formula_structural   CaAc2Nd2Sn3H
_chemical_formula_sum   'Ca2 Ac4 Nd4 Sn6 H2'
_cell_volume   540.27434086
_cell_formula_units_Z   2
loop_
 _symmetry_equiv_pos_site_id
 _symmetry_equiv_pos_as_xyz
  1  'x, y, z'
loop_
 _atom_site_type_symbol
 _atom_site_label
 _atom_site_symmetry_multiplicity
 _atom_site_fract_x
 _atom_site_fract_y
 _atom_site_fract_z
 _atom_site_occupancy
  Ca  Ca0  1  0.508206  0.508209  0.999990  1
  Ca  Ca1  1  0.008236  0.008234  0.999997  1
  Ac  Ac2  1  0.514887  0.014882  0.832072  1
  Ac  Ac3  1  0.182815  0.682816  0.167932  1
  Ac  Ac4  1  0.014888  0.182819  0.500009  1
  Ac  Ac5  1  0.682809  0.514883  0.499997  1
  Nd  Nd6  1  0.483979  0.983982  0.170418  1
  Nd  Nd7  1  0.813559  0.313559  0.829578  1
  Nd  Nd8  1  0.983980  0.813562  0.499999  1
  Nd  Nd9  1  0.313561  0.483983  0.500003  1
  Sn  Sn10  1  0.240923  0.240924  0.999999  1
  Sn  Sn11  1  0.740918  0.740918  0.000000  1
  Sn  Sn12  1  0.877543  0.377547  0.239787  1
  Sn  Sn13  1  0.137763  0.637762  0.760220  1
  Sn  Sn14  1  0.377548  0.137755  0.500002  1
  Sn  Sn15  1  0.637762  0.877543  0.499999  1
  H  H16  1  0.240313  0.740312  0.500000  1
  H  H17  1  0.740313  0.240312  0.499998  1
