# generated using pymatgen
data_Ho2Ta4C5
_symmetry_space_group_name_H-M   'P 1'
_cell_length_a   5.69555173
_cell_length_b   5.69555127
_cell_length_c   5.59422030
_cell_angle_alpha   81.79802943
_cell_angle_beta   81.79802476
_cell_angle_gamma   121.27515720
_symmetry_Int_Tables_number   1
_chemical_formula_structural   Ho2Ta4C5
_chemical_formula_sum   'Ho2 Ta4 C5'
_cell_volume   148.39170054
_cell_formula_units_Z   1
loop_
 _symmetry_equiv_pos_site_id
 _symmetry_equiv_pos_as_xyz
  1  'x, y, z'
loop_
 _atom_site_type_symbol
 _atom_site_label
 _atom_site_symmetry_multiplicity
 _atom_site_fract_x
 _atom_site_fract_y
 _atom_site_fract_z
 _atom_site_occupancy
  Ho  Ho0  1  0.761455  0.761455  0.758100  1
  Ho  Ho1  1  0.238545  0.238545  0.241900  1
  Ta  Ta2  1  0.101577  0.451469  0.740116  1
  Ta  Ta3  1  0.548531  0.898423  0.259884  1
  Ta  Ta4  1  0.898423  0.548531  0.259884  1
  Ta  Ta5  1  0.451469  0.101577  0.740116  1
  C  C6  1  0.500000  0.500000  0.500000  1
  C  C7  1  0.681141  0.318859  0.000000  1
  C  C8  1  0.318859  0.681141  0.000000  1
  C  C9  1  0.819948  0.180052  0.500000  1
  C  C10  1  0.180052  0.819948  0.500000  1
