# generated using pymatgen
data_Nd2Zn19Cu3
_symmetry_space_group_name_H-M   'P 1'
_cell_length_a   8.19116496
_cell_length_b   8.18875669
_cell_length_c   8.19112471
_cell_angle_alpha   99.75256849
_cell_angle_beta   99.89324443
_cell_angle_gamma   131.22703066
_symmetry_Int_Tables_number   1
_chemical_formula_structural   Nd2Zn19Cu3
_chemical_formula_sum   'Nd2 Zn19 Cu3'
_cell_volume   376.29887553
_cell_formula_units_Z   1
loop_
 _symmetry_equiv_pos_site_id
 _symmetry_equiv_pos_as_xyz
  1  'x, y, z'
loop_
 _atom_site_type_symbol
 _atom_site_label
 _atom_site_symmetry_multiplicity
 _atom_site_fract_x
 _atom_site_fract_y
 _atom_site_fract_z
 _atom_site_occupancy
  Nd  Nd0  1  0.250226  0.751391  0.501166  1
  Nd  Nd1  1  0.999774  0.998609  0.998834  1
  Zn  Zn2  1  0.426617  0.100983  0.919787  1
  Zn  Zn3  1  0.185651  0.511547  0.083274  1
  Zn  Zn4  1  0.497829  0.501271  0.003442  1
  Zn  Zn5  1  0.752171  0.248729  0.496558  1
  Zn  Zn6  1  0.625000  0.375000  0.750000  1
  Zn  Zn7  1  0.181197  0.100983  0.674366  1
  Zn  Zn8  1  0.759733  0.935015  0.581402  1
  Zn  Zn9  1  0.348100  0.176363  0.412185  1
  Zn  Zn10  1  0.428273  0.511547  0.325896  1
  Zn  Zn11  1  0.896388  0.814985  0.324717  1
  Zn  Zn12  1  0.485823  0.573637  0.671738  1
  Zn  Zn13  1  0.064349  0.238453  0.416726  1
  Zn  Zn14  1  0.823383  0.649017  0.580213  1
  Zn  Zn15  1  0.068803  0.649017  0.825634  1
  Zn  Zn16  1  0.490267  0.814985  0.918598  1
  Zn  Zn17  1  0.901900  0.573637  0.087815  1
  Zn  Zn18  1  0.821727  0.238453  0.174104  1
  Zn  Zn19  1  0.353612  0.935015  0.175283  1
  Zn  Zn20  1  0.764177  0.176363  0.828262  1
  Cu  Cu21  1  0.125000  0.375000  0.750000  1
  Cu  Cu22  1  0.625000  0.375000  0.250000  1
  Cu  Cu23  1  0.625000  0.875000  0.250000  1
