# generated using pymatgen
data_Ta3Al2H
_symmetry_space_group_name_H-M   'P 1'
_cell_length_a   7.01134100
_cell_length_b   7.01134100
_cell_length_c   7.01134100
_cell_angle_alpha   90.00000000
_cell_angle_beta   90.00000000
_cell_angle_gamma   90.00000000
_symmetry_Int_Tables_number   1
_chemical_formula_structural   Ta3Al2H
_chemical_formula_sum   'Ta12 Al8 H4'
_cell_volume   344.66982944
_cell_formula_units_Z   4
loop_
 _symmetry_equiv_pos_site_id
 _symmetry_equiv_pos_as_xyz
  1  'x, y, z'
loop_
 _atom_site_type_symbol
 _atom_site_label
 _atom_site_symmetry_multiplicity
 _atom_site_fract_x
 _atom_site_fract_y
 _atom_site_fract_z
 _atom_site_occupancy
  Ta  Ta0  1  0.796718  0.953282  0.375000  1
  Ta  Ta1  1  0.703282  0.046718  0.875000  1
  Ta  Ta2  1  0.203282  0.453282  0.125000  1
  Ta  Ta3  1  0.296718  0.546718  0.625000  1
  Ta  Ta4  1  0.953282  0.375000  0.796718  1
  Ta  Ta5  1  0.046718  0.875000  0.703282  1
  Ta  Ta6  1  0.453282  0.125000  0.203282  1
  Ta  Ta7  1  0.546718  0.625000  0.296718  1
  Ta  Ta8  1  0.375000  0.796718  0.953282  1
  Ta  Ta9  1  0.875000  0.703282  0.046718  1
  Ta  Ta10  1  0.125000  0.203282  0.453282  1
  Ta  Ta11  1  0.625000  0.296718  0.546718  1
  Al  Al12  1  0.185538  0.814462  0.314462  1
  Al  Al13  1  0.314462  0.185538  0.814462  1
  Al  Al14  1  0.814462  0.314462  0.185538  1
  Al  Al15  1  0.685538  0.685538  0.685538  1
  Al  Al16  1  0.564462  0.435538  0.935538  1
  Al  Al17  1  0.435538  0.935538  0.564462  1
  Al  Al18  1  0.935538  0.564462  0.435538  1
  Al  Al19  1  0.064462  0.064462  0.064462  1
  H  H20  1  0.875000  0.125000  0.625000  1
  H  H21  1  0.625000  0.875000  0.125000  1
  H  H22  1  0.125000  0.625000  0.875000  1
  H  H23  1  0.375000  0.375000  0.375000  1
