# generated using pymatgen
data_K2As2PbO7
_symmetry_space_group_name_H-M   'P 1'
_cell_length_a   5.93527018
_cell_length_b   7.38309749
_cell_length_c   10.69647444
_cell_angle_alpha   104.65217037
_cell_angle_beta   96.03052403
_cell_angle_gamma   108.29191188
_symmetry_Int_Tables_number   1
_chemical_formula_structural   K2As2PbO7
_chemical_formula_sum   'K4 As4 Pb2 O14'
_cell_volume   421.79952166
_cell_formula_units_Z   2
loop_
 _symmetry_equiv_pos_site_id
 _symmetry_equiv_pos_as_xyz
  1  'x, y, z'
loop_
 _atom_site_type_symbol
 _atom_site_label
 _atom_site_symmetry_multiplicity
 _atom_site_fract_x
 _atom_site_fract_y
 _atom_site_fract_z
 _atom_site_occupancy
  K  K0  1  0.103288  0.767109  0.019267  1
  K  K1  1  0.682222  0.902208  0.240063  1
  K  K2  1  0.317774  0.097801  0.759936  1
  K  K3  1  0.896726  0.232906  0.980725  1
  As  As4  1  0.483772  0.377135  0.164865  1
  As  As5  1  0.288444  0.170901  0.383687  1
  As  As6  1  0.711555  0.829099  0.616315  1
  As  As7  1  0.516232  0.622854  0.835134  1
  Pb  Pb8  1  0.127610  0.622020  0.364573  1
  Pb  Pb9  1  0.872392  0.377972  0.635424  1
  O  O10  1  0.352645  0.166689  0.034981  1
  O  O11  1  0.775794  0.513220  0.165352  1
  O  O12  1  0.303468  0.521737  0.181874  1
  O  O13  1  0.192793  0.926703  0.286290  1
  O  O14  1  0.529688  0.306441  0.314423  1
  O  O15  1  0.059618  0.263351  0.371704  1
  O  O16  1  0.573592  0.789522  0.459755  1
  O  O17  1  0.426411  0.210478  0.540246  1
  O  O18  1  0.940382  0.736650  0.628297  1
  O  O19  1  0.470306  0.693560  0.685580  1
  O  O20  1  0.807210  0.073293  0.713709  1
  O  O21  1  0.696526  0.478267  0.818127  1
  O  O22  1  0.224196  0.486769  0.834647  1
  O  O23  1  0.647346  0.833313  0.965024  1
