# generated using pymatgen
data_Na4LaCe3Fe3H22
_symmetry_space_group_name_H-M   'P 1'
_cell_length_a   7.00910305
_cell_length_b   7.00910305
_cell_length_c   7.00910305
_cell_angle_alpha   89.79201652
_cell_angle_beta   89.79201652
_cell_angle_gamma   89.79201652
_symmetry_Int_Tables_number   1
_chemical_formula_structural   Na4LaCe3Fe3H22
_chemical_formula_sum   'Na4 La1 Ce3 Fe3 H22'
_cell_volume   344.33309940
_cell_formula_units_Z   1
loop_
 _symmetry_equiv_pos_site_id
 _symmetry_equiv_pos_as_xyz
  1  'x, y, z'
loop_
 _atom_site_type_symbol
 _atom_site_label
 _atom_site_symmetry_multiplicity
 _atom_site_fract_x
 _atom_site_fract_y
 _atom_site_fract_z
 _atom_site_occupancy
  Na  Na0  1  0.787518  0.787518  0.213955  1
  Na  Na1  1  0.787518  0.213955  0.787518  1
  Na  Na2  1  0.213955  0.787518  0.787518  1
  Na  Na3  1  0.214106  0.214106  0.214106  1
  La  La4  1  0.719548  0.719548  0.719548  1
  Ce  Ce5  1  0.280932  0.280932  0.718883  1
  Ce  Ce6  1  0.280932  0.718883  0.280932  1
  Ce  Ce7  1  0.718883  0.280932  0.280932  1
  Fe  Fe8  1  0.000557  0.000557  0.499004  1
  Fe  Fe9  1  0.000557  0.499004  0.000557  1
  Fe  Fe10  1  0.499004  0.000557  0.000557  1
  H  H11  1  0.999838  0.499028  0.230333  1
  H  H12  1  0.499132  0.770778  0.002174  1
  H  H13  1  0.770778  0.002174  0.499132  1
  H  H14  1  0.002174  0.770778  0.499132  1
  H  H15  1  0.499028  0.999838  0.230333  1
  H  H16  1  0.770778  0.499132  0.002174  1
  H  H17  1  0.002174  0.499132  0.770778  1
  H  H18  1  0.499028  0.230333  0.999838  1
  H  H19  1  0.999838  0.230333  0.499028  1
  H  H20  1  0.499132  0.002174  0.770778  1
  H  H21  1  0.230333  0.999838  0.499028  1
  H  H22  1  0.230333  0.499028  0.999838  1
  H  H23  1  0.000839  0.000839  0.272926  1
  H  H24  1  0.999636  0.725422  0.999636  1
  H  H25  1  0.725422  0.999636  0.999636  1
  H  H26  1  0.999636  0.999636  0.725422  1
  H  H27  1  0.000839  0.272926  0.000839  1
  H  H28  1  0.272926  0.000839  0.000839  1
  H  H29  1  0.613679  0.613679  0.381959  1
  H  H30  1  0.613679  0.381959  0.613679  1
  H  H31  1  0.381959  0.613679  0.613679  1
  H  H32  1  0.385307  0.385307  0.385307  1
