# generated using pymatgen
data_Nd10Rh2I15
_symmetry_space_group_name_H-M   'P 1'
_cell_length_a   10.11043733
_cell_length_b   10.94093587
_cell_length_c   11.85059212
_cell_angle_alpha   92.45929781
_cell_angle_beta   114.13138959
_cell_angle_gamma   110.33587413
_symmetry_Int_Tables_number   1
_chemical_formula_structural   Nd10Rh2I15
_chemical_formula_sum   'Nd10 Rh2 I15'
_cell_volume   1095.23702612
_cell_formula_units_Z   1
loop_
 _symmetry_equiv_pos_site_id
 _symmetry_equiv_pos_as_xyz
  1  'x, y, z'
loop_
 _atom_site_type_symbol
 _atom_site_label
 _atom_site_symmetry_multiplicity
 _atom_site_fract_x
 _atom_site_fract_y
 _atom_site_fract_z
 _atom_site_occupancy
  Nd  Nd0  1  0.224893  0.577056  0.049855  1
  Nd  Nd1  1  0.775107  0.422944  0.950145  1
  Nd  Nd2  1  0.294566  0.899504  0.272190  1
  Nd  Nd3  1  0.705434  0.100496  0.727810  1
  Nd  Nd4  1  0.087319  0.543742  0.329932  1
  Nd  Nd5  1  0.912681  0.456258  0.670068  1
  Nd  Nd6  1  0.833206  0.749653  0.176576  1
  Nd  Nd7  1  0.166794  0.250347  0.823424  1
  Nd  Nd8  1  0.973761  0.792943  0.902021  1
  Nd  Nd9  1  0.026239  0.207057  0.097979  1
  Rh  Rh10  1  0.031565  0.670455  0.117541  1
  Rh  Rh11  1  0.968435  0.329545  0.882459  1
  I  I12  1  0.339613  0.443774  0.302135  1
  I  I13  1  0.660387  0.556226  0.697865  1
  I  I14  1  0.212028  0.739039  0.817025  1
  I  I15  1  0.787972  0.260961  0.182975  1
  I  I16  1  0.143164  0.386268  0.584476  1
  I  I17  1  0.856836  0.613732  0.415524  1
  I  I18  1  0.388818  0.801282  0.531342  1
  I  I19  1  0.611182  0.198718  0.468658  1
  I  I20  1  0.262733  0.087573  0.055352  1
  I  I21  1  0.737267  0.912427  0.944648  1
  I  I22  1  0.562967  0.844794  0.227305  1
  I  I23  1  0.437033  0.155206  0.772695  1
  I  I24  1  0.092709  0.039226  0.337503  1
  I  I25  1  0.907291  0.960774  0.662497  1
  I  I26  1  0.500000  0.500000  0.000000  1
