# generated using pymatgen
data_MgAg3Au16
_symmetry_space_group_name_H-M   'P 1'
_cell_length_a   5.08902283
_cell_length_b   4.85169900
_cell_length_c   14.67687635
_cell_angle_alpha   90.00000000
_cell_angle_beta   90.03605696
_cell_angle_gamma   90.00000000
_symmetry_Int_Tables_number   1
_chemical_formula_structural   MgAg3Au16
_chemical_formula_sum   'Mg1 Ag3 Au16'
_cell_volume   362.37797857
_cell_formula_units_Z   1
loop_
 _symmetry_equiv_pos_site_id
 _symmetry_equiv_pos_as_xyz
  1  'x, y, z'
loop_
 _atom_site_type_symbol
 _atom_site_label
 _atom_site_symmetry_multiplicity
 _atom_site_fract_x
 _atom_site_fract_y
 _atom_site_fract_z
 _atom_site_occupancy
  Mg  Mg0  1  0.836598  0.250000  0.901130  1
  Ag  Ag1  1  0.163717  0.749999  0.099708  1
  Ag  Ag2  1  0.663711  0.749999  0.400252  1
  Ag  Ag3  1  0.337042  0.250000  0.600038  1
  Au  Au4  1  0.667707  0.749999  0.999189  1
  Au  Au5  1  0.833260  0.250000  0.098154  1
  Au  Au6  1  0.335616  0.250000  0.199903  1
  Au  Au7  1  0.665845  0.749999  0.199569  1
  Au  Au8  1  0.166158  0.749999  0.300204  1
  Au  Au9  1  0.835602  0.250000  0.298854  1
  Au  Au10  1  0.333668  0.250000  0.399757  1
  Au  Au11  1  0.166861  0.749999  0.500373  1
  Au  Au12  1  0.834527  0.250000  0.499988  1
  Au  Au13  1  0.666611  0.749999  0.600165  1
  Au  Au14  1  0.165105  0.749999  0.700200  1
  Au  Au15  1  0.833786  0.250000  0.701726  1
  Au  Au16  1  0.333293  0.250000  0.801622  1
  Au  Au17  1  0.666032  0.749999  0.800004  1
  Au  Au18  1  0.162415  0.749999  0.899722  1
  Au  Au19  1  0.332438  0.250000  0.999443  1
