# generated using pymatgen
data_Ca8Fe2PdN8
_symmetry_space_group_name_H-M   'P 1'
_cell_length_a   9.37280303
_cell_length_b   4.97722278
_cell_length_c   7.16296770
_cell_angle_alpha   90.00001218
_cell_angle_beta   73.93328889
_cell_angle_gamma   74.60250270
_symmetry_Int_Tables_number   1
_chemical_formula_structural   Ca8Fe2PdN8
_chemical_formula_sum   'Ca8 Fe2 Pd1 N8'
_cell_volume   308.60339774
_cell_formula_units_Z   1
loop_
 _symmetry_equiv_pos_site_id
 _symmetry_equiv_pos_as_xyz
  1  'x, y, z'
loop_
 _atom_site_type_symbol
 _atom_site_label
 _atom_site_symmetry_multiplicity
 _atom_site_fract_x
 _atom_site_fract_y
 _atom_site_fract_z
 _atom_site_occupancy
  Ca  Ca0  1  0.061717  0.969142  0.744042  1
  Ca  Ca1  1  0.938283  0.030858  0.255958  1
  Ca  Ca2  1  0.672173  0.663914  0.464231  1
  Ca  Ca3  1  0.327827  0.336086  0.535769  1
  Ca  Ca4  1  0.823132  0.588435  0.973601  1
  Ca  Ca5  1  0.176868  0.411565  0.026399  1
  Ca  Ca6  1  0.601958  0.199021  0.807734  1
  Ca  Ca7  1  0.398042  0.800979  0.192266  1
  Fe  Fe8  1  0.377342  0.811328  0.792180  1
  Fe  Fe9  1  0.622658  0.188672  0.207820  1
  Pd  Pd10  1  0.000000  0.500000  0.500000  1
  N  N11  1  0.216414  0.891793  0.996362  1
  N  N12  1  0.783586  0.108207  0.003638  1
  N  N13  1  0.357002  0.821499  0.559821  1
  N  N14  1  0.642998  0.178501  0.440179  1
  N  N15  1  0.558515  0.720743  0.826535  1
  N  N16  1  0.441485  0.279257  0.173465  1
  N  N17  1  0.071020  0.464490  0.753923  1
  N  N18  1  0.928980  0.535510  0.246077  1
