# generated using pymatgen
data_Cu30Si7Sn
_symmetry_space_group_name_H-M   'P 1'
_cell_length_a   8.48388736
_cell_length_b   8.48388580
_cell_length_c   8.52181400
_cell_angle_alpha   109.56180301
_cell_angle_beta   109.56179928
_cell_angle_gamma   109.38049062
_symmetry_Int_Tables_number   1
_chemical_formula_structural   Cu30Si7Sn
_chemical_formula_sum   'Cu30 Si7 Sn1'
_cell_volume   471.64272865
_cell_formula_units_Z   1
loop_
 _symmetry_equiv_pos_site_id
 _symmetry_equiv_pos_as_xyz
  1  'x, y, z'
loop_
 _atom_site_type_symbol
 _atom_site_label
 _atom_site_symmetry_multiplicity
 _atom_site_fract_x
 _atom_site_fract_y
 _atom_site_fract_z
 _atom_site_occupancy
  Cu  Cu0  1  0.342368  0.794621  0.731817  1
  Cu  Cu1  1  0.120436  0.745911  0.870711  1
  Cu  Cu2  1  0.734399  0.370999  0.803354  1
  Cu  Cu3  1  0.636600  0.765601  0.568955  1
  Cu  Cu4  1  0.048386  0.924375  0.699569  1
  Cu  Cu5  1  0.073837  0.273751  0.122701  1
  Cu  Cu6  1  0.933746  0.708623  0.055543  1
  Cu  Cu7  1  0.273315  0.120124  0.073642  1
  Cu  Cu8  1  0.199913  0.426163  0.548865  1
  Cu  Cu9  1  0.774877  0.566254  0.621797  1
  Cu  Cu10  1  0.705379  0.047748  0.937195  1
  Cu  Cu11  1  0.546554  0.203443  0.416035  1
  Cu  Cu12  1  0.625474  0.379564  0.250274  1
  Cu  Cu13  1  0.452252  0.157632  0.889448  1
  Cu  Cu14  1  0.881869  0.125851  0.755426  1
  Cu  Cu15  1  0.950678  0.373398  0.651673  1
  Cu  Cu16  1  0.422720  0.549322  0.200996  1
  Cu  Cu17  1  0.126602  0.077280  0.278276  1
  Cu  Cu18  1  0.296557  0.843111  0.212592  1
  Cu  Cu19  1  0.754089  0.874526  0.124800  1
  Cu  Cu20  1  0.875989  0.451614  0.151182  1
  Cu  Cu21  1  0.575625  0.624011  0.775195  1
  Cu  Cu22  1  0.379876  0.653190  0.953518  1
  Cu  Cu23  1  0.791377  0.725123  0.346920  1
  Cu  Cu24  1  0.656889  0.953446  0.369481  1
  Cu  Cu25  1  0.129001  0.863400  0.432355  1
  Cu  Cu26  1  0.226249  0.300087  0.848950  1
  Cu  Cu27  1  0.374149  0.256018  0.629575  1
  Cu  Cu28  1  0.846810  0.226685  0.300327  1
  Cu  Cu29  1  0.243982  0.618131  0.373557  1
  Si  Si30  1  0.588097  0.501739  0.000780  1
  Si  Si31  1  0.500000  0.000000  0.087708  1
  Si  Si32  1  0.002336  0.090112  0.502269  1
  Si  Si33  1  0.998261  0.586358  0.499041  1
  Si  Si34  1  0.087775  0.497664  0.999932  1
  Si  Si35  1  0.409888  0.412225  0.412157  1
  Si  Si36  1  0.913642  0.911903  0.912683  1
  Sn  Sn37  1  0.500000  0.000000  0.590702  1
