# generated using pymatgen
data_Eu3HoMnMo3O14
_symmetry_space_group_name_H-M   'P 1'
_cell_length_a   7.50290708
_cell_length_b   7.50290678
_cell_length_c   7.36717936
_cell_angle_alpha   59.38866450
_cell_angle_beta   59.38866722
_cell_angle_gamma   60.00000753
_symmetry_Int_Tables_number   1
_chemical_formula_structural   Eu3HoMnMo3O14
_chemical_formula_sum   'Eu3 Ho1 Mn1 Mo3 O14'
_cell_volume   290.51592915
_cell_formula_units_Z   1
loop_
 _symmetry_equiv_pos_site_id
 _symmetry_equiv_pos_as_xyz
  1  'x, y, z'
loop_
 _atom_site_type_symbol
 _atom_site_label
 _atom_site_symmetry_multiplicity
 _atom_site_fract_x
 _atom_site_fract_y
 _atom_site_fract_z
 _atom_site_occupancy
  Eu  Eu0  1  0.125000  0.625000  0.125000  1
  Eu  Eu1  1  0.625000  0.125000  0.125000  1
  Eu  Eu2  1  0.125000  0.125000  0.125000  1
  Ho  Ho3  1  0.125000  0.125000  0.625000  1
  Mn  Mn4  1  0.625000  0.625000  0.125000  1
  Mo  Mo5  1  0.625000  0.625000  0.625000  1
  Mo  Mo6  1  0.125000  0.625000  0.625000  1
  Mo  Mo7  1  0.625000  0.125000  0.625000  1
  O  O8  1  0.297113  0.718194  0.687580  1
  O  O9  1  0.543785  0.968376  0.944054  1
  O  O10  1  0.706215  0.706215  0.305946  1
  O  O11  1  0.297113  0.297113  0.687580  1
  O  O12  1  0.002283  0.002283  0.993150  1
  O  O13  1  0.281624  0.706215  0.305946  1
  O  O14  1  0.718194  0.297113  0.687580  1
  O  O15  1  0.968376  0.543785  0.944054  1
  O  O16  1  0.543785  0.543785  0.944054  1
  O  O17  1  0.952887  0.952887  0.562420  1
  O  O18  1  0.247717  0.247717  0.256850  1
  O  O19  1  0.531806  0.952887  0.562420  1
  O  O20  1  0.706215  0.281624  0.305946  1
  O  O21  1  0.952887  0.531806  0.562420  1
