# generated using pymatgen
data_Cd3BiRu2(RhO7)2
_symmetry_space_group_name_H-M   'P 1'
_cell_length_a   7.27770949
_cell_length_b   7.30208788
_cell_length_c   7.27770849
_cell_angle_alpha   59.43497812
_cell_angle_beta   59.45339829
_cell_angle_gamma   59.43497221
_symmetry_Int_Tables_number   1
_chemical_formula_structural   Cd3BiRu2(RhO7)2
_chemical_formula_sum   'Cd3 Bi1 Ru2 Rh2 O14'
_cell_volume   270.00009463
_cell_formula_units_Z   1
loop_
 _symmetry_equiv_pos_site_id
 _symmetry_equiv_pos_as_xyz
  1  'x, y, z'
loop_
 _atom_site_type_symbol
 _atom_site_label
 _atom_site_symmetry_multiplicity
 _atom_site_fract_x
 _atom_site_fract_y
 _atom_site_fract_z
 _atom_site_occupancy
  Cd  Cd0  1  0.125000  0.625000  0.125000  1
  Cd  Cd1  1  0.625000  0.125000  0.125000  1
  Cd  Cd2  1  0.125000  0.125000  0.625000  1
  Bi  Bi3  1  0.125000  0.125000  0.125000  1
  Ru  Ru4  1  0.625000  0.625000  0.625000  1
  Ru  Ru5  1  0.625000  0.125000  0.625000  1
  Rh  Rh6  1  0.625000  0.625000  0.125000  1
  Rh  Rh7  1  0.125000  0.625000  0.625000  1
  O  O8  1  0.254938  0.248718  0.254938  1
  O  O9  1  0.287379  0.711175  0.287379  1
  O  O10  1  0.954150  0.958394  0.542124  1
  O  O11  1  0.569890  0.932642  0.569890  1
  O  O12  1  0.687238  0.705808  0.305569  1
  O  O13  1  0.944431  0.544192  0.562762  1
  O  O14  1  0.680110  0.317358  0.680110  1
  O  O15  1  0.295850  0.291606  0.707876  1
  O  O16  1  0.707876  0.291606  0.295850  1
  O  O17  1  0.305569  0.705808  0.687238  1
  O  O18  1  0.962621  0.538825  0.962621  1
  O  O19  1  0.562762  0.544192  0.944431  1
  O  O20  1  0.995062  0.001282  0.995062  1
  O  O21  1  0.542124  0.958394  0.954150  1
