# generated using pymatgen
data_TbDy3Tc4F28
_symmetry_space_group_name_H-M   'P 1'
_cell_length_a   5.61787528
_cell_length_b   8.92892757
_cell_length_c   12.03275756
_cell_angle_alpha   62.58521058
_cell_angle_beta   89.97031018
_cell_angle_gamma   90.00465509
_symmetry_Int_Tables_number   1
_chemical_formula_structural   TbDy3Tc4F28
_chemical_formula_sum   'Tb1 Dy3 Tc4 F28'
_cell_volume   535.79790822
_cell_formula_units_Z   1
loop_
 _symmetry_equiv_pos_site_id
 _symmetry_equiv_pos_as_xyz
  1  'x, y, z'
loop_
 _atom_site_type_symbol
 _atom_site_label
 _atom_site_symmetry_multiplicity
 _atom_site_fract_x
 _atom_site_fract_y
 _atom_site_fract_z
 _atom_site_occupancy
  Tb  Tb0  1  0.759261  0.814038  0.764724  1
  Dy  Dy1  1  0.259436  0.187163  0.735260  1
  Dy  Dy2  1  0.240562  0.186171  0.235363  1
  Dy  Dy3  1  0.740620  0.814003  0.264608  1
  Tc  Tc4  1  0.757691  0.272628  0.957016  1
  Tc  Tc5  1  0.257458  0.726678  0.542669  1
  Tc  Tc6  1  0.242465  0.726588  0.043951  1
  Tc  Tc7  1  0.742167  0.273666  0.456341  1
  F  F8  1  0.445759  0.706814  0.919237  1
  F  F9  1  0.946222  0.292901  0.580955  1
  F  F10  1  0.553215  0.292376  0.081402  1
  F  F11  1  0.053383  0.707272  0.418240  1
  F  F12  1  0.450889  0.278728  0.546574  1
  F  F13  1  0.951280  0.720897  0.954418  1
  F  F14  1  0.549316  0.721655  0.452955  1
  F  F15  1  0.048865  0.277990  0.047044  1
  F  F16  1  0.771873  0.519408  0.859437  1
  F  F17  1  0.271626  0.479637  0.640556  1
  F  F18  1  0.228673  0.479397  0.141229  1
  F  F19  1  0.728382  0.520597  0.359018  1
  F  F20  1  0.756341  0.026556  0.053151  1
  F  F21  1  0.256164  0.972828  0.446761  1
  F  F22  1  0.243567  0.972696  0.947440  1
  F  F23  1  0.743705  0.027583  0.552197  1
  F  F24  1  0.976970  0.728932  0.639120  1
  F  F25  1  0.477397  0.270488  0.860269  1
  F  F26  1  0.022616  0.270651  0.359779  1
  F  F27  1  0.522885  0.729540  0.140230  1
  F  F28  1  0.043191  0.746280  0.171703  1
  F  F29  1  0.542752  0.253901  0.328602  1
  F  F30  1  0.957079  0.253433  0.828886  1
  F  F31  1  0.455350  0.745622  0.671018  1
  F  F32  1  0.419423  0.971852  0.232296  1
  F  F33  1  0.919802  0.028450  0.267704  1
  F  F34  1  0.580648  0.030263  0.767914  1
  F  F35  1  0.082966  0.972319  0.731934  1
