# generated using pymatgen
data_Y4Lu4CrOs3C8
_symmetry_space_group_name_H-M   'P 1'
_cell_length_a   5.04094700
_cell_length_b   6.48153184
_cell_length_c   9.63384769
_cell_angle_alpha   90.16832454
_cell_angle_beta   90.00000000
_cell_angle_gamma   90.00000000
_symmetry_Int_Tables_number   1
_chemical_formula_structural   Y4Lu4CrOs3C8
_chemical_formula_sum   'Y4 Lu4 Cr1 Os3 C8'
_cell_volume   314.76591059
_cell_formula_units_Z   1
loop_
 _symmetry_equiv_pos_site_id
 _symmetry_equiv_pos_as_xyz
  1  'x, y, z'
loop_
 _atom_site_type_symbol
 _atom_site_label
 _atom_site_symmetry_multiplicity
 _atom_site_fract_x
 _atom_site_fract_y
 _atom_site_fract_z
 _atom_site_occupancy
  Y  Y0  1  0.250000  0.532023  0.210344  1
  Y  Y1  1  0.750000  0.469346  0.785301  1
  Y  Y2  1  0.750000  0.972017  0.713762  1
  Y  Y3  1  0.250000  0.031813  0.288604  1
  Lu  Lu4  1  0.250000  0.677749  0.559548  1
  Lu  Lu5  1  0.750000  0.327030  0.444407  1
  Lu  Lu6  1  0.750000  0.824385  0.054167  1
  Lu  Lu7  1  0.250000  0.171129  0.942880  1
  Cr  Cr8  1  0.250000  0.727118  0.864077  1
  Os  Os9  1  0.750000  0.275642  0.133717  1
  Os  Os10  1  0.750000  0.776795  0.365513  1
  Os  Os11  1  0.250000  0.227215  0.636401  1
  C  C12  1  0.250000  0.463771  0.766130  1
  C  C13  1  0.750000  0.543185  0.239717  1
  C  C14  1  0.750000  0.042463  0.259315  1
  C  C15  1  0.250000  0.951992  0.742301  1
  C  C16  1  0.250000  0.821740  0.044300  1
  C  C17  1  0.750000  0.166788  0.947523  1
  C  C18  1  0.750000  0.667608  0.552925  1
  C  C19  1  0.250000  0.330190  0.449066  1
