# generated using pymatgen
data_Ta2Mn4NbMoP4
_symmetry_space_group_name_H-M   'P 1'
_cell_length_a   3.58011400
_cell_length_b   6.15247572
_cell_length_c   7.10079843
_cell_angle_alpha   91.01086980
_cell_angle_beta   90.00000000
_cell_angle_gamma   90.00000000
_symmetry_Int_Tables_number   1
_chemical_formula_structural   Ta2Mn4NbMoP4
_chemical_formula_sum   'Ta2 Mn4 Nb1 Mo1 P4'
_cell_volume   156.38185219
_cell_formula_units_Z   1
loop_
 _symmetry_equiv_pos_site_id
 _symmetry_equiv_pos_as_xyz
  1  'x, y, z'
loop_
 _atom_site_type_symbol
 _atom_site_label
 _atom_site_symmetry_multiplicity
 _atom_site_fract_x
 _atom_site_fract_y
 _atom_site_fract_z
 _atom_site_occupancy
  Ta  Ta0  1  0.250000  0.528912  0.323228  1
  Ta  Ta1  1  0.250000  0.025908  0.170185  1
  Mn  Mn2  1  0.750000  0.352318  0.058795  1
  Mn  Mn3  1  0.250000  0.644060  0.940771  1
  Mn  Mn4  1  0.750000  0.858674  0.438760  1
  Mn  Mn5  1  0.250000  0.141332  0.560417  1
  Nb  Nb6  1  0.750000  0.474157  0.677053  1
  Mo  Mo7  1  0.750000  0.972481  0.832311  1
  P  P8  1  0.250000  0.775837  0.635829  1
  P  P9  1  0.750000  0.229528  0.368892  1
  P  P10  1  0.250000  0.275518  0.876984  1
  P  P11  1  0.750000  0.721273  0.116776  1
