# generated using pymatgen
data_Tb3Y9Os3Rh
_symmetry_space_group_name_H-M   'P 1'
_cell_length_a   6.41330718
_cell_length_b   7.37483997
_cell_length_c   9.15889800
_cell_angle_alpha   90.00000000
_cell_angle_beta   90.00000000
_cell_angle_gamma   90.06033868
_symmetry_Int_Tables_number   1
_chemical_formula_structural   Tb3Y9Os3Rh
_chemical_formula_sum   'Tb3 Y9 Os3 Rh1'
_cell_volume   433.18920368
_cell_formula_units_Z   1
loop_
 _symmetry_equiv_pos_site_id
 _symmetry_equiv_pos_as_xyz
  1  'x, y, z'
loop_
 _atom_site_type_symbol
 _atom_site_label
 _atom_site_symmetry_multiplicity
 _atom_site_fract_x
 _atom_site_fract_y
 _atom_site_fract_z
 _atom_site_occupancy
  Tb  Tb0  1  0.632896  0.041212  0.250000  1
  Tb  Tb1  1  0.131088  0.460852  0.750000  1
  Tb  Tb2  1  0.366545  0.960448  0.750000  1
  Y  Y3  1  0.332787  0.672343  0.062445  1
  Y  Y4  1  0.170618  0.177398  0.437737  1
  Y  Y5  1  0.670899  0.324737  0.564462  1
  Y  Y6  1  0.825823  0.824574  0.932561  1
  Y  Y7  1  0.670899  0.324737  0.935538  1
  Y  Y8  1  0.825823  0.824574  0.567439  1
  Y  Y9  1  0.332787  0.672343  0.437555  1
  Y  Y10  1  0.170618  0.177398  0.062263  1
  Y  Y11  1  0.867734  0.538946  0.250000  1
  Os  Os12  1  0.460943  0.382214  0.250000  1
  Os  Os13  1  0.963366  0.116608  0.750000  1
  Os  Os14  1  0.536097  0.617285  0.750000  1
  Rh  Rh15  1  0.041081  0.884330  0.250000  1
