# generated using pymatgen
data_Dy13Ho7Co3Bi8Os
_symmetry_space_group_name_H-M   'P 1'
_cell_length_a   7.96168977
_cell_length_b   8.90705807
_cell_length_c   12.40498816
_cell_angle_alpha   90.01055007
_cell_angle_beta   89.73447164
_cell_angle_gamma   90.01048676
_symmetry_Int_Tables_number   1
_chemical_formula_structural   Dy13Ho7Co3Bi8Os
_chemical_formula_sum   'Dy13 Ho7 Co3 Bi8 Os1'
_cell_volume   879.69315171
_cell_formula_units_Z   1
loop_
 _symmetry_equiv_pos_site_id
 _symmetry_equiv_pos_as_xyz
  1  'x, y, z'
loop_
 _atom_site_type_symbol
 _atom_site_label
 _atom_site_symmetry_multiplicity
 _atom_site_fract_x
 _atom_site_fract_y
 _atom_site_fract_z
 _atom_site_occupancy
  Dy  Dy0  1  0.346026  0.750099  0.700941  1
  Dy  Dy1  1  0.652972  0.249953  0.300561  1
  Dy  Dy2  1  0.847618  0.249959  0.799939  1
  Dy  Dy3  1  0.154853  0.750016  0.206197  1
  Dy  Dy4  1  0.880785  0.749999  0.805575  1
  Dy  Dy5  1  0.114904  0.250000  0.189375  1
  Dy  Dy6  1  0.384435  0.249885  0.688499  1
  Dy  Dy7  1  0.615043  0.750187  0.312585  1
  Dy  Dy8  1  0.675547  0.536861  0.563140  1
  Dy  Dy9  1  0.052364  0.750101  0.497885  1
  Dy  Dy10  1  0.947735  0.249884  0.502545  1
  Dy  Dy11  1  0.554419  0.250007  0.003014  1
  Dy  Dy12  1  0.444464  0.750018  0.996707  1
  Ho  Ho13  1  0.324386  0.461456  0.436861  1
  Ho  Ho14  1  0.176092  0.457468  0.935438  1
  Ho  Ho15  1  0.324676  0.038590  0.436928  1
  Ho  Ho16  1  0.824900  0.537536  0.063535  1
  Ho  Ho17  1  0.674683  0.963040  0.563075  1
  Ho  Ho18  1  0.824910  0.962446  0.063569  1
  Ho  Ho19  1  0.176091  0.042554  0.935445  1
  Co  Co20  1  0.931080  0.250004  0.008864  1
  Co  Co21  1  0.564322  0.249758  0.507831  1
  Co  Co22  1  0.433651  0.750287  0.492392  1
  Bi  Bi23  1  0.571746  0.508551  0.826282  1
  Bi  Bi24  1  0.429486  0.490731  0.173589  1
  Bi  Bi25  1  0.072420  0.490280  0.672426  1
  Bi  Bi26  1  0.429506  0.009261  0.173569  1
  Bi  Bi27  1  0.927560  0.508789  0.327308  1
  Bi  Bi28  1  0.571806  0.991421  0.826144  1
  Bi  Bi29  1  0.927602  0.991200  0.327336  1
  Bi  Bi30  1  0.072085  0.009664  0.672341  1
  Os  Os31  1  0.071833  0.749998  0.990106  1
