# generated using pymatgen
data_Y2Lu8AlSb5
_symmetry_space_group_name_H-M   'P 1'
_cell_length_a   6.25295100
_cell_length_b   8.81334300
_cell_length_c   8.77427858
_cell_angle_alpha   120.14739214
_cell_angle_beta   89.99972631
_cell_angle_gamma   90.00056097
_symmetry_Int_Tables_number   1
_chemical_formula_structural   Y2Lu8AlSb5
_chemical_formula_sum   'Y2 Lu8 Al1 Sb5'
_cell_volume   418.13912639
_cell_formula_units_Z   1
loop_
 _symmetry_equiv_pos_site_id
 _symmetry_equiv_pos_as_xyz
  1  'x, y, z'
loop_
 _atom_site_type_symbol
 _atom_site_label
 _atom_site_symmetry_multiplicity
 _atom_site_fract_x
 _atom_site_fract_y
 _atom_site_fract_z
 _atom_site_occupancy
  Y  Y0  1  0.250000  0.244905  0.243564  1
  Y  Y1  1  0.250000  0.001340  0.756436  1
  Lu  Lu2  1  0.502259  0.338359  0.672890  1
  Lu  Lu3  1  0.502259  0.665469  0.327110  1
  Lu  Lu4  1  0.997743  0.665465  0.327091  1
  Lu  Lu5  1  0.997743  0.338373  0.672909  1
  Lu  Lu6  1  0.750002  0.248238  0.000000  1
  Lu  Lu7  1  0.750000  0.754940  0.766442  1
  Lu  Lu8  1  0.750000  0.988498  0.233558  1
  Lu  Lu9  1  0.250000  0.757058  0.000000  1
  Al  Al10  1  0.749996  0.603034  0.000000  1
  Sb  Sb11  1  0.750003  0.389471  0.391072  1
  Sb  Sb12  1  0.750003  0.998397  0.608928  1
  Sb  Sb13  1  0.250002  0.396189  0.000000  1
  Sb  Sb14  1  0.249997  0.609136  0.608007  1
  Sb  Sb15  1  0.249997  0.001130  0.391993  1
