# generated using pymatgen
data_BiAs3(PbO4)3
_symmetry_space_group_name_H-M   'P 1'
_cell_length_a   9.46286777
_cell_length_b   9.46286776
_cell_length_c   9.43919506
_cell_angle_alpha   70.50068499
_cell_angle_beta   70.50068291
_cell_angle_gamma   109.49638246
_symmetry_Int_Tables_number   1
_chemical_formula_structural   BiAs3(PbO4)3
_chemical_formula_sum   'Bi2 As6 Pb6 O24'
_cell_volume   650.01265653
_cell_formula_units_Z   2
loop_
 _symmetry_equiv_pos_site_id
 _symmetry_equiv_pos_as_xyz
  1  'x, y, z'
loop_
 _atom_site_type_symbol
 _atom_site_label
 _atom_site_symmetry_multiplicity
 _atom_site_fract_x
 _atom_site_fract_y
 _atom_site_fract_z
 _atom_site_occupancy
  Bi  Bi0  1  0.497656  0.171688  0.999477  1
  Bi  Bi1  1  0.171688  0.497656  0.499477  1
  As  As2  1  0.877412  0.620862  0.743375  1
  As  As3  1  0.620862  0.877412  0.243375  1
  As  As4  1  0.749650  0.130570  0.631146  1
  As  As5  1  0.247953  0.374416  0.875361  1
  As  As6  1  0.374416  0.247953  0.375361  1
  As  As7  1  0.130570  0.749650  0.131146  1
  Pb  Pb8  1  0.657625  0.504240  0.495532  1
  Pb  Pb9  1  0.842746  0.345119  0.160630  1
  Pb  Pb10  1  0.992574  0.998689  0.344839  1
  Pb  Pb11  1  0.504240  0.657625  0.995532  1
  Pb  Pb12  1  0.345119  0.842746  0.660630  1
  Pb  Pb13  1  0.998689  0.992574  0.844839  1
  O  O14  1  0.160645  0.807877  0.925531  1
  O  O15  1  0.225105  0.063309  0.571252  1
  O  O16  1  0.264729  0.678559  0.178314  1
  O  O17  1  0.340428  0.422459  0.348324  1
  O  O18  1  0.807877  0.160645  0.425531  1
  O  O19  1  0.063309  0.225105  0.071252  1
  O  O20  1  0.678559  0.264729  0.678314  1
  O  O21  1  0.422459  0.340428  0.848324  1
  O  O22  1  0.662719  0.852441  0.064813  1
  O  O23  1  0.848152  0.760885  0.811890  1
  O  O24  1  0.415728  0.722535  0.423531  1
  O  O25  1  0.075062  0.630402  0.690204  1
  O  O26  1  0.350640  0.207876  0.215520  1
  O  O27  1  0.174353  0.933614  0.150022  1
  O  O28  1  0.577713  0.313892  0.348395  1
  O  O29  1  0.922938  0.576743  0.271844  1
  O  O30  1  0.207876  0.350640  0.715520  1
  O  O31  1  0.933614  0.174353  0.650022  1
  O  O32  1  0.313892  0.577713  0.848395  1
  O  O33  1  0.576743  0.922938  0.771844  1
  O  O34  1  0.852441  0.662719  0.564813  1
  O  O35  1  0.760885  0.848152  0.311890  1
  O  O36  1  0.722535  0.415728  0.923531  1
  O  O37  1  0.630402  0.075062  0.190204  1
