# generated using pymatgen
data_Li7Hg(BPd3)4
_symmetry_space_group_name_H-M   'P 1'
_cell_length_a   6.87534428
_cell_length_b   6.87534428
_cell_length_c   6.87534428
_cell_angle_alpha   89.93396289
_cell_angle_beta   89.93396289
_cell_angle_gamma   89.93396289
_symmetry_Int_Tables_number   1
_chemical_formula_structural   Li7Hg(BPd3)4
_chemical_formula_sum   'Li7 Hg1 B4 Pd12'
_cell_volume   324.99934533
_cell_formula_units_Z   1
loop_
 _symmetry_equiv_pos_site_id
 _symmetry_equiv_pos_as_xyz
  1  'x, y, z'
loop_
 _atom_site_type_symbol
 _atom_site_label
 _atom_site_symmetry_multiplicity
 _atom_site_fract_x
 _atom_site_fract_y
 _atom_site_fract_z
 _atom_site_occupancy
  Li  Li0  1  0.049432  0.447041  0.561837  1
  Li  Li1  1  0.561837  0.049432  0.447041  1
  Li  Li2  1  0.447041  0.561837  0.049432  1
  Li  Li3  1  0.192489  0.694429  0.808091  1
  Li  Li4  1  0.943210  0.943210  0.943210  1
  Li  Li5  1  0.808091  0.192489  0.694429  1
  Li  Li6  1  0.694429  0.808091  0.192489  1
  Hg  Hg7  1  0.313538  0.313538  0.313538  1
  B  B8  1  0.873778  0.373371  0.121570  1
  B  B9  1  0.373371  0.121570  0.873778  1
  B  B10  1  0.625731  0.625731  0.625731  1
  B  B11  1  0.121570  0.873778  0.373371  1
  Pd  Pd12  1  0.193976  0.048226  0.628820  1
  Pd  Pd13  1  0.452130  0.373702  0.701854  1
  Pd  Pd14  1  0.048226  0.628820  0.193976  1
  Pd  Pd15  1  0.941827  0.122507  0.304695  1
  Pd  Pd16  1  0.304695  0.941827  0.122507  1
  Pd  Pd17  1  0.701854  0.452130  0.373702  1
  Pd  Pd18  1  0.552009  0.873931  0.801806  1
  Pd  Pd19  1  0.628820  0.193976  0.048226  1
  Pd  Pd20  1  0.373702  0.701854  0.452130  1
  Pd  Pd21  1  0.873931  0.801806  0.552009  1
  Pd  Pd22  1  0.122507  0.304695  0.941827  1
  Pd  Pd23  1  0.801806  0.552009  0.873931  1
