# generated using pymatgen
data_LaH5Ir
_symmetry_space_group_name_H-M   'P 1'
_cell_length_a   4.61776600
_cell_length_b   4.87556500
_cell_length_c   12.50110300
_cell_angle_alpha   90.00000000
_cell_angle_beta   90.00000000
_cell_angle_gamma   90.00000000
_symmetry_Int_Tables_number   1
_chemical_formula_structural   LaH5Ir
_chemical_formula_sum   'La4 H20 Ir4'
_cell_volume   281.45256178
_cell_formula_units_Z   4
loop_
 _symmetry_equiv_pos_site_id
 _symmetry_equiv_pos_as_xyz
  1  'x, y, z'
loop_
 _atom_site_type_symbol
 _atom_site_label
 _atom_site_symmetry_multiplicity
 _atom_site_fract_x
 _atom_site_fract_y
 _atom_site_fract_z
 _atom_site_occupancy
  La  La0  1  0.263391  0.165143  0.650702  1
  La  La1  1  0.763391  0.334857  0.349298  1
  La  La2  1  0.236609  0.834857  0.150702  1
  La  La3  1  0.736609  0.665143  0.849298  1
  H  H4  1  0.550103  0.385580  0.519477  1
  H  H5  1  0.050103  0.114420  0.480523  1
  H  H6  1  0.949897  0.614420  0.019477  1
  H  H7  1  0.449897  0.885580  0.980523  1
  H  H8  1  0.183221  0.926696  0.822639  1
  H  H9  1  0.683221  0.573304  0.177361  1
  H  H10  1  0.316779  0.073304  0.322639  1
  H  H11  1  0.816779  0.426696  0.677361  1
  H  H12  1  0.212023  0.427395  0.835575  1
  H  H13  1  0.712023  0.072605  0.164425  1
  H  H14  1  0.287977  0.572605  0.335575  1
  H  H15  1  0.787977  0.927395  0.664425  1
  H  H16  1  0.606945  0.163215  0.824462  1
  H  H17  1  0.106945  0.336785  0.175538  1
  H  H18  1  0.893055  0.836785  0.324462  1
  H  H19  1  0.393055  0.663215  0.675538  1
  H  H20  1  0.001718  0.118254  0.995188  1
  H  H21  1  0.501718  0.381746  0.004812  1
  H  H22  1  0.498282  0.881746  0.495188  1
  H  H23  1  0.998282  0.618254  0.504812  1
  Ir  Ir24  1  0.322739  0.153706  0.911603  1
  Ir  Ir25  1  0.822739  0.346294  0.088397  1
  Ir  Ir26  1  0.177261  0.846294  0.411603  1
  Ir  Ir27  1  0.677261  0.653706  0.588397  1
