# generated using pymatgen
data_Tb2Yb4Mn3CrC12
_symmetry_space_group_name_H-M   'P 1'
_cell_length_a   8.06009073
_cell_length_b   8.06398599
_cell_length_c   5.00572204
_cell_angle_alpha   89.99362151
_cell_angle_beta   89.99271737
_cell_angle_gamma   119.89021694
_symmetry_Int_Tables_number   1
_chemical_formula_structural   Tb2Yb4Mn3CrC12
_chemical_formula_sum   'Tb2 Yb4 Mn3 Cr1 C12'
_cell_volume   282.07618350
_cell_formula_units_Z   1
loop_
 _symmetry_equiv_pos_site_id
 _symmetry_equiv_pos_as_xyz
  1  'x, y, z'
loop_
 _atom_site_type_symbol
 _atom_site_label
 _atom_site_symmetry_multiplicity
 _atom_site_fract_x
 _atom_site_fract_y
 _atom_site_fract_z
 _atom_site_occupancy
  Tb  Tb0  1  0.068213  0.384137  0.747937  1
  Tb  Tb1  1  0.382340  0.312596  0.251322  1
  Yb  Yb2  1  0.612850  0.686859  0.748002  1
  Yb  Yb3  1  0.926186  0.613984  0.251757  1
  Yb  Yb4  1  0.680935  0.071740  0.252065  1
  Yb  Yb5  1  0.314769  0.926811  0.748600  1
  Mn  Mn6  1  0.998451  0.998146  0.000071  1
  Mn  Mn7  1  0.669745  0.334067  0.752107  1
  Mn  Mn8  1  0.332985  0.663497  0.248125  1
  Cr  Cr9  1  0.999029  0.999068  0.499258  1
  C  C10  1  0.954813  0.774325  0.748134  1
  C  C11  1  0.187257  0.957049  0.252270  1
  C  C12  1  0.774439  0.821220  0.251873  1
  C  C13  1  0.230349  0.190817  0.748984  1
  C  C14  1  0.820058  0.044934  0.748459  1
  C  C15  1  0.040757  0.224693  0.251138  1
  C  C16  1  0.862628  0.581488  0.753027  1
  C  C17  1  0.279455  0.855094  0.247611  1
  C  C18  1  0.581142  0.720063  0.246915  1
  C  C19  1  0.425340  0.279779  0.752488  1
  C  C20  1  0.137770  0.419730  0.246743  1
  C  C21  1  0.720489  0.139900  0.753115  1
