# generated using pymatgen
data_ErBe11Cu2
_symmetry_space_group_name_H-M   'P 1'
_cell_length_a   7.33094619
_cell_length_b   7.34503777
_cell_length_c   7.29425778
_cell_angle_alpha   60.10094891
_cell_angle_beta   60.29306563
_cell_angle_gamma   59.60598146
_symmetry_Int_Tables_number   1
_chemical_formula_structural   ErBe11Cu2
_chemical_formula_sum   'Er2 Be22 Cu4'
_cell_volume   277.70711272
_cell_formula_units_Z   2
loop_
 _symmetry_equiv_pos_site_id
 _symmetry_equiv_pos_as_xyz
  1  'x, y, z'
loop_
 _atom_site_type_symbol
 _atom_site_label
 _atom_site_symmetry_multiplicity
 _atom_site_fract_x
 _atom_site_fract_y
 _atom_site_fract_z
 _atom_site_occupancy
  Er  Er0  1  0.250000  0.250000  0.250000  1
  Er  Er1  1  0.750000  0.750000  0.750000  1
  Be  Be2  1  0.500000  0.500000  0.500000  1
  Be  Be3  1  0.000000  0.000000  0.000000  1
  Be  Be4  1  0.280085  0.931324  0.719915  1
  Be  Be5  1  0.719915  0.068676  0.280085  1
  Be  Be6  1  0.931324  0.280085  0.068676  1
  Be  Be7  1  0.068676  0.719915  0.931324  1
  Be  Be8  1  0.201460  0.798540  0.560751  1
  Be  Be9  1  0.798540  0.201460  0.439249  1
  Be  Be10  1  0.439249  0.560751  0.798540  1
  Be  Be11  1  0.560751  0.439249  0.201460  1
  Be  Be12  1  0.712439  0.287561  0.934130  1
  Be  Be13  1  0.287561  0.712439  0.065870  1
  Be  Be14  1  0.065870  0.934130  0.287561  1
  Be  Be15  1  0.934130  0.065870  0.712439  1
  Be  Be16  1  0.566936  0.205271  0.794729  1
  Be  Be17  1  0.433064  0.794729  0.205271  1
  Be  Be18  1  0.794729  0.433064  0.566936  1
  Be  Be19  1  0.205271  0.566936  0.433064  1
  Be  Be20  1  0.940694  0.711812  0.288188  1
  Be  Be21  1  0.059306  0.288188  0.711812  1
  Be  Be22  1  0.288188  0.059306  0.940694  1
  Be  Be23  1  0.711812  0.940694  0.059306  1
  Cu  Cu24  1  0.805632  0.558077  0.194368  1
  Cu  Cu25  1  0.194368  0.441923  0.805632  1
  Cu  Cu26  1  0.558077  0.805632  0.441923  1
  Cu  Cu27  1  0.441923  0.194368  0.558077  1
