# generated using pymatgen
data_Er12CoTc3
_symmetry_space_group_name_H-M   'P 1'
_cell_length_a   6.20816799
_cell_length_b   7.30869261
_cell_length_c   9.06335100
_cell_angle_alpha   90.00000000
_cell_angle_beta   90.00000000
_cell_angle_gamma   90.11319678
_symmetry_Int_Tables_number   1
_chemical_formula_structural   Er12CoTc3
_chemical_formula_sum   'Er12 Co1 Tc3'
_cell_volume   411.23598353
_cell_formula_units_Z   1
loop_
 _symmetry_equiv_pos_site_id
 _symmetry_equiv_pos_as_xyz
  1  'x, y, z'
loop_
 _atom_site_type_symbol
 _atom_site_label
 _atom_site_symmetry_multiplicity
 _atom_site_fract_x
 _atom_site_fract_y
 _atom_site_fract_z
 _atom_site_occupancy
  Er  Er0  1  0.334610  0.677346  0.062879  1
  Er  Er1  1  0.161121  0.175868  0.438404  1
  Er  Er2  1  0.661932  0.326123  0.564169  1
  Er  Er3  1  0.834874  0.822152  0.936867  1
  Er  Er4  1  0.661932  0.326123  0.935831  1
  Er  Er5  1  0.834874  0.822152  0.563133  1
  Er  Er6  1  0.334610  0.677346  0.437121  1
  Er  Er7  1  0.161121  0.175868  0.061596  1
  Er  Er8  1  0.874487  0.539715  0.250000  1
  Er  Er9  1  0.625945  0.039241  0.250000  1
  Er  Er10  1  0.136621  0.459937  0.750000  1
  Er  Er11  1  0.376468  0.953179  0.750000  1
  Co  Co12  1  0.537310  0.617762  0.750000  1
  Tc  Tc13  1  0.041638  0.884407  0.250000  1
  Tc  Tc14  1  0.460678  0.387019  0.250000  1
  Tc  Tc15  1  0.961778  0.115761  0.750000  1
