# generated using pymatgen
data_Pr4DyFe3(P3Ir4)4
_symmetry_space_group_name_H-M   'P 1'
_cell_length_a   12.75676800
_cell_length_b   12.75676786
_cell_length_c   3.98790000
_cell_angle_alpha   90.00000000
_cell_angle_beta   90.00000000
_cell_angle_gamma   120.00000036
_symmetry_Int_Tables_number   1
_chemical_formula_structural   Pr4DyFe3(P3Ir4)4
_chemical_formula_sum   'Pr4 Dy1 Fe3 P12 Ir16'
_cell_volume   562.02573160
_cell_formula_units_Z   1
loop_
 _symmetry_equiv_pos_site_id
 _symmetry_equiv_pos_as_xyz
  1  'x, y, z'
loop_
 _atom_site_type_symbol
 _atom_site_label
 _atom_site_symmetry_multiplicity
 _atom_site_fract_x
 _atom_site_fract_y
 _atom_site_fract_z
 _atom_site_occupancy
  Pr  Pr0  1  0.333333  0.666667  0.500000  1
  Pr  Pr1  1  0.000629  0.808698  0.000000  1
  Pr  Pr2  1  0.191302  0.191931  0.000000  1
  Pr  Pr3  1  0.808069  0.999371  0.000000  1
  Dy  Dy4  1  0.666667  0.333333  0.500000  1
  Fe  Fe5  1  0.997448  0.452711  0.500000  1
  Fe  Fe6  1  0.547289  0.544737  0.500000  1
  Fe  Fe7  1  0.455263  0.002552  0.500000  1
  P  P8  1  0.001468  0.628790  0.500000  1
  P  P9  1  0.371210  0.372679  0.500000  1
  P  P10  1  0.627321  0.998532  0.500000  1
  P  P11  1  0.517996  0.686583  0.000000  1
  P  P12  1  0.313417  0.831412  0.000000  1
  P  P13  1  0.168588  0.482004  0.000000  1
  P  P14  1  0.484208  0.173109  0.000000  1
  P  P15  1  0.688900  0.515792  0.000000  1
  P  P16  1  0.826891  0.311100  0.000000  1
  P  P17  1  0.998869  0.180506  0.500000  1
  P  P18  1  0.819494  0.818362  0.500000  1
  P  P19  1  0.181638  0.001131  0.500000  1
  Ir  Ir20  1  0.511245  0.872453  0.000000  1
  Ir  Ir21  1  0.127547  0.638793  0.000000  1
  Ir  Ir22  1  0.361207  0.488755  0.000000  1
  Ir  Ir23  1  0.494586  0.362407  0.000000  1
  Ir  Ir24  1  0.867824  0.505414  0.000000  1
  Ir  Ir25  1  0.637593  0.132176  0.000000  1
  Ir  Ir26  1  0.998070  0.285513  0.000000  1
  Ir  Ir27  1  0.714487  0.712556  0.000000  1
  Ir  Ir28  1  0.287444  0.001930  0.000000  1
  Ir  Ir29  1  0.620048  0.796720  0.500000  1
  Ir  Ir30  1  0.203280  0.823328  0.500000  1
  Ir  Ir31  1  0.176672  0.379952  0.500000  1
  Ir  Ir32  1  0.381482  0.180822  0.500000  1
  Ir  Ir33  1  0.799341  0.618518  0.500000  1
  Ir  Ir34  1  0.819178  0.200659  0.500000  1
  Ir  Ir35  1  0.000000  0.000000  0.500000  1
