# generated using pymatgen
data_Nb6Al4CoOsC2
_symmetry_space_group_name_H-M   'P 1'
_cell_length_a   8.32398929
_cell_length_b   8.29148736
_cell_length_c   8.29141593
_cell_angle_alpha   59.82246913
_cell_angle_beta   59.86999247
_cell_angle_gamma   59.87021266
_symmetry_Int_Tables_number   1
_chemical_formula_structural   Nb6Al4CoOsC2
_chemical_formula_sum   'Nb12 Al8 Co2 Os2 C4'
_cell_volume   403.30943668
_cell_formula_units_Z   2
loop_
 _symmetry_equiv_pos_site_id
 _symmetry_equiv_pos_as_xyz
  1  'x, y, z'
loop_
 _atom_site_type_symbol
 _atom_site_label
 _atom_site_symmetry_multiplicity
 _atom_site_fract_x
 _atom_site_fract_y
 _atom_site_fract_z
 _atom_site_occupancy
  Nb  Nb0  1  0.686165  0.307416  0.696704  1
  Nb  Nb1  1  0.938787  0.561204  0.561224  1
  Nb  Nb2  1  0.555265  0.944731  0.944731  1
  Nb  Nb3  1  0.940284  0.553286  0.942580  1
  Nb  Nb4  1  0.563847  0.553293  0.942579  1
  Nb  Nb5  1  0.940288  0.942585  0.553289  1
  Nb  Nb6  1  0.686153  0.696707  0.307421  1
  Nb  Nb7  1  0.311213  0.688796  0.688776  1
  Nb  Nb8  1  0.694735  0.305269  0.305269  1
  Nb  Nb9  1  0.309712  0.307415  0.696711  1
  Nb  Nb10  1  0.563835  0.942584  0.553296  1
  Nb  Nb11  1  0.309716  0.696714  0.307420  1
  Al  Al12  1  0.324843  0.337977  0.337912  1
  Al  Al13  1  0.250730  0.912022  0.912088  1
  Al  Al14  1  0.923009  0.245905  0.908070  1
  Al  Al15  1  0.923035  0.908025  0.245899  1
  Al  Al16  1  0.326991  0.004095  0.341930  1
  Al  Al17  1  0.326965  0.341975  0.004101  1
  Al  Al18  1  0.999270  0.337978  0.337912  1
  Al  Al19  1  0.925157  0.912023  0.912088  1
  Co  Co20  1  0.125000  0.625000  0.125000  1
  Co  Co21  1  0.125000  0.125000  0.625000  1
  Os  Os22  1  0.125000  0.125000  0.125000  1
  Os  Os23  1  0.625000  0.125000  0.125000  1
  C  C24  1  0.625000  0.625000  0.625000  1
  C  C25  1  0.125000  0.625000  0.625000  1
  C  C26  1  0.625000  0.125000  0.625000  1
  C  C27  1  0.625000  0.625000  0.125000  1
