# generated using pymatgen
data_PrSmZn2Ni5
_symmetry_space_group_name_H-M   'P 1'
_cell_length_a   5.18202108
_cell_length_b   5.18201953
_cell_length_c   12.35893700
_cell_angle_alpha   77.89834323
_cell_angle_beta   77.89834691
_cell_angle_gamma   59.99999336
_symmetry_Int_Tables_number   1
_chemical_formula_structural   PrSmZn2Ni5
_chemical_formula_sum   'Pr2 Sm2 Zn4 Ni10'
_cell_volume   278.86659307
_cell_formula_units_Z   2
loop_
 _symmetry_equiv_pos_site_id
 _symmetry_equiv_pos_as_xyz
  1  'x, y, z'
loop_
 _atom_site_type_symbol
 _atom_site_label
 _atom_site_symmetry_multiplicity
 _atom_site_fract_x
 _atom_site_fract_y
 _atom_site_fract_z
 _atom_site_occupancy
  Pr  Pr0  1  0.949920  0.949920  0.150241  1
  Pr  Pr1  1  0.050080  0.050080  0.849759  1
  Sm  Sm2  1  0.852415  0.852415  0.442756  1
  Sm  Sm3  1  0.147585  0.147585  0.557244  1
  Zn  Zn4  1  0.722895  0.722895  0.831318  1
  Zn  Zn5  1  0.277105  0.277105  0.168682  1
  Zn  Zn6  1  0.610990  0.610990  0.167029  1
  Zn  Zn7  1  0.389010  0.389010  0.832971  1
  Ni  Ni8  1  0.500000  0.500000  0.500000  1
  Ni  Ni9  1  0.000000  0.500000  0.000000  1
  Ni  Ni10  1  0.500000  0.000000  0.000000  1
  Ni  Ni11  1  0.500000  0.500000  0.000000  1
  Ni  Ni12  1  0.389492  0.389492  0.333902  1
  Ni  Ni13  1  0.887114  0.389492  0.333902  1
  Ni  Ni14  1  0.389492  0.887114  0.333902  1
  Ni  Ni15  1  0.610508  0.610508  0.666098  1
  Ni  Ni16  1  0.112886  0.610508  0.666098  1
  Ni  Ni17  1  0.610508  0.112886  0.666098  1
