# generated using pymatgen
data_Li4Nd4Co3H22
_symmetry_space_group_name_H-M   'P 1'
_cell_length_a   6.39729200
_cell_length_b   6.39729200
_cell_length_c   6.39729200
_cell_angle_alpha   90.00000000
_cell_angle_beta   90.00000000
_cell_angle_gamma   90.00000000
_symmetry_Int_Tables_number   1
_chemical_formula_structural   Li4Nd4Co3H22
_chemical_formula_sum   'Li4 Nd4 Co3 H22'
_cell_volume   261.81138174
_cell_formula_units_Z   1
loop_
 _symmetry_equiv_pos_site_id
 _symmetry_equiv_pos_as_xyz
  1  'x, y, z'
loop_
 _atom_site_type_symbol
 _atom_site_label
 _atom_site_symmetry_multiplicity
 _atom_site_fract_x
 _atom_site_fract_y
 _atom_site_fract_z
 _atom_site_occupancy
  Li  Li0  1  0.789050  0.789050  0.210950  1
  Li  Li1  1  0.789050  0.210950  0.789050  1
  Li  Li2  1  0.210950  0.789050  0.789050  1
  Li  Li3  1  0.210950  0.210950  0.210950  1
  Nd  Nd4  1  0.288438  0.288438  0.711562  1
  Nd  Nd5  1  0.288438  0.711562  0.288438  1
  Nd  Nd6  1  0.711562  0.288438  0.288438  1
  Nd  Nd7  1  0.711562  0.711562  0.711562  1
  Co  Co8  1  0.000000  0.000000  0.500000  1
  Co  Co9  1  0.000000  0.500000  0.000000  1
  Co  Co10  1  0.500000  0.000000  0.000000  1
  H  H11  1  0.000000  0.500000  0.245670  1
  H  H12  1  0.500000  0.754330  0.000000  1
  H  H13  1  0.754330  0.000000  0.500000  1
  H  H14  1  0.000000  0.754330  0.500000  1
  H  H15  1  0.500000  0.000000  0.245670  1
  H  H16  1  0.754330  0.500000  0.000000  1
  H  H17  1  0.000000  0.500000  0.754330  1
  H  H18  1  0.500000  0.245670  0.000000  1
  H  H19  1  0.000000  0.245670  0.500000  1
  H  H20  1  0.500000  0.000000  0.754330  1
  H  H21  1  0.245670  0.000000  0.500000  1
  H  H22  1  0.245670  0.500000  0.000000  1
  H  H23  1  0.000000  0.000000  0.257736  1
  H  H24  1  0.000000  0.742264  0.000000  1
  H  H25  1  0.742264  0.000000  0.000000  1
  H  H26  1  0.000000  0.000000  0.742264  1
  H  H27  1  0.000000  0.257736  0.000000  1
  H  H28  1  0.257736  0.000000  0.000000  1
  H  H29  1  0.629331  0.629331  0.370669  1
  H  H30  1  0.629331  0.370669  0.629331  1
  H  H31  1  0.370669  0.629331  0.629331  1
  H  H32  1  0.370669  0.370669  0.370669  1
