# generated using pymatgen
data_La4As4Ru3RhO4
_symmetry_space_group_name_H-M   'P 1'
_cell_length_a   5.86166731
_cell_length_b   5.86152773
_cell_length_c   17.63393636
_cell_angle_alpha   80.42870174
_cell_angle_beta   80.42809057
_cell_angle_gamma   90.00131166
_symmetry_Int_Tables_number   1
_chemical_formula_structural   La4As4Ru3RhO4
_chemical_formula_sum   'La8 As8 Ru6 Rh2 O8'
_cell_volume   588.88210655
_cell_formula_units_Z   2
loop_
 _symmetry_equiv_pos_site_id
 _symmetry_equiv_pos_as_xyz
  1  'x, y, z'
loop_
 _atom_site_type_symbol
 _atom_site_label
 _atom_site_symmetry_multiplicity
 _atom_site_fract_x
 _atom_site_fract_y
 _atom_site_fract_z
 _atom_site_occupancy
  La  La0  1  0.283809  0.533771  0.432564  1
  La  La1  1  0.783793  0.033786  0.432574  1
  La  La2  1  0.466214  0.216231  0.067436  1
  La  La3  1  0.966234  0.716190  0.067434  1
  La  La4  1  0.036138  0.286127  0.927804  1
  La  La5  1  0.536150  0.786150  0.927813  1
  La  La6  1  0.213842  0.963853  0.572191  1
  La  La7  1  0.713884  0.463871  0.572190  1
  As  As8  1  0.413490  0.663500  0.173096  1
  As  As9  1  0.913495  0.163491  0.173095  1
  As  As10  1  0.336504  0.086508  0.326901  1
  As  As11  1  0.836523  0.586524  0.326900  1
  As  As12  1  0.162563  0.412564  0.674822  1
  As  As13  1  0.662553  0.912567  0.674823  1
  As  As14  1  0.087423  0.837426  0.825179  1
  As  As15  1  0.587428  0.337429  0.825177  1
  Ru  Ru16  1  0.875036  0.625047  0.749997  1
  Ru  Ru17  1  0.375037  0.125056  0.750001  1
  Ru  Ru18  1  0.624973  0.874986  0.250015  1
  Ru  Ru19  1  0.124987  0.374977  0.250015  1
  Ru  Ru20  1  0.374940  0.624952  0.750003  1
  Ru  Ru21  1  0.874955  0.124951  0.750000  1
  Rh  Rh22  1  0.125005  0.875022  0.249997  1
  Rh  Rh23  1  0.625027  0.375028  0.250002  1
  O  O24  1  0.750850  0.500850  0.998329  1
  O  O25  1  0.250848  0.000849  0.998334  1
  O  O26  1  0.999239  0.749240  0.501648  1
  O  O27  1  0.499237  0.249239  0.501649  1
  O  O28  1  0.250692  0.500689  0.998504  1
  O  O29  1  0.750696  0.000687  0.998505  1
  O  O30  1  0.499218  0.749220  0.501500  1
  O  O31  1  0.999217  0.249221  0.501499  1
