# generated using pymatgen
data_LiTa(SO4)3
_symmetry_space_group_name_H-M   'P 1'
_cell_length_a   8.53796244
_cell_length_b   9.24469903
_cell_length_c   8.66317576
_cell_angle_alpha   109.78141447
_cell_angle_beta   105.19784357
_cell_angle_gamma   110.60666315
_symmetry_Int_Tables_number   1
_chemical_formula_structural   LiTa(SO4)3
_chemical_formula_sum   'Li2 Ta2 S6 O24'
_cell_volume   542.92375396
_cell_formula_units_Z   2
loop_
 _symmetry_equiv_pos_site_id
 _symmetry_equiv_pos_as_xyz
  1  'x, y, z'
loop_
 _atom_site_type_symbol
 _atom_site_label
 _atom_site_symmetry_multiplicity
 _atom_site_fract_x
 _atom_site_fract_y
 _atom_site_fract_z
 _atom_site_occupancy
  Li  Li0  1  0.857342  0.474519  0.219643  1
  Li  Li1  1  0.733167  0.067366  0.524396  1
  Ta  Ta2  1  0.025540  0.982320  0.999870  1
  Ta  Ta3  1  0.476544  0.507113  0.515782  1
  S  S4  1  0.585786  0.926225  0.774141  1
  S  S5  1  0.184821  0.411791  0.098710  1
  S  S6  1  0.088680  0.193966  0.450616  1
  S  S7  1  0.887708  0.776575  0.547677  1
  S  S8  1  0.771065  0.547972  0.888400  1
  S  S9  1  0.489492  0.148432  0.259275  1
  O  O10  1  0.019886  0.876071  0.751240  1
  O  O11  1  0.286749  0.037105  0.108084  1
  O  O12  1  0.976756  0.710720  0.443627  1
  O  O13  1  0.532220  0.032113  0.315814  1
  O  O14  1  0.054823  0.441804  0.166201  1
  O  O15  1  0.477884  0.932077  0.873958  1
  O  O16  1  0.486276  0.736260  0.610617  1
  O  O17  1  0.239373  0.489479  0.992173  1
  O  O18  1  0.228295  0.384634  0.503776  1
  O  O19  1  0.109659  0.210948  0.995421  1
  O  O20  1  0.362437  0.469684  0.266898  1
  O  O21  1  0.811790  0.881279  0.502160  1
  O  O22  1  0.179728  0.124373  0.543229  1
  O  O23  1  0.597090  0.543024  0.766975  1
  O  O24  1  0.921104  0.746006  0.979854  1
  O  O25  1  0.728966  0.614472  0.528947  1
  O  O26  1  0.733398  0.515425  0.029671  1
  O  O27  1  0.470803  0.276169  0.414558  1
  O  O28  1  0.609792  0.248710  0.202084  1
  O  O29  1  0.827805  0.441928  0.778632  1
  O  O30  1  0.631469  0.049087  0.704543  1
  O  O31  1  0.927272  0.199688  0.466872  1
  O  O32  1  0.768431  0.936440  0.885865  1
  O  O33  1  0.037140  0.094715  0.242509  1
