# generated using pymatgen
data_Lu16Cd4Ni3Ir
_symmetry_space_group_name_H-M   'P 1'
_cell_length_a   9.39612540
_cell_length_b   9.39612584
_cell_length_c   9.39612594
_cell_angle_alpha   59.74845455
_cell_angle_beta   59.74845393
_cell_angle_gamma   59.74845819
_symmetry_Int_Tables_number   1
_chemical_formula_structural   Lu16Cd4Ni3Ir
_chemical_formula_sum   'Lu16 Cd4 Ni3 Ir1'
_cell_volume   583.23504936
_cell_formula_units_Z   1
loop_
 _symmetry_equiv_pos_site_id
 _symmetry_equiv_pos_as_xyz
  1  'x, y, z'
loop_
 _atom_site_type_symbol
 _atom_site_label
 _atom_site_symmetry_multiplicity
 _atom_site_fract_x
 _atom_site_fract_y
 _atom_site_fract_z
 _atom_site_occupancy
  Lu  Lu0  1  0.347938  0.347938  0.347938  1
  Lu  Lu1  1  0.350322  0.350322  0.954500  1
  Lu  Lu2  1  0.350322  0.954500  0.350322  1
  Lu  Lu3  1  0.954500  0.350322  0.350322  1
  Lu  Lu4  1  0.808197  0.188706  0.188706  1
  Lu  Lu5  1  0.187710  0.811623  0.811623  1
  Lu  Lu6  1  0.188706  0.808197  0.188706  1
  Lu  Lu7  1  0.811623  0.187710  0.811623  1
  Lu  Lu8  1  0.188706  0.188706  0.808197  1
  Lu  Lu9  1  0.811623  0.811623  0.187710  1
  Lu  Lu10  1  0.936167  0.564344  0.564344  1
  Lu  Lu11  1  0.561746  0.937236  0.937236  1
  Lu  Lu12  1  0.564344  0.936167  0.564344  1
  Lu  Lu13  1  0.937236  0.561746  0.937236  1
  Lu  Lu14  1  0.564344  0.564344  0.936167  1
  Lu  Lu15  1  0.937236  0.937236  0.561746  1
  Cd  Cd16  1  0.581408  0.581408  0.581408  1
  Cd  Cd17  1  0.581467  0.581467  0.255058  1
  Cd  Cd18  1  0.581467  0.255058  0.581467  1
  Cd  Cd19  1  0.255058  0.581467  0.581467  1
  Ni  Ni20  1  0.141791  0.141791  0.574200  1
  Ni  Ni21  1  0.141791  0.574200  0.141791  1
  Ni  Ni22  1  0.574200  0.141791  0.141791  1
  Ir  Ir23  1  0.142094  0.142094  0.142094  1
