# generated using pymatgen
data_Dy5Pd9
_symmetry_space_group_name_H-M   'P 1'
_cell_length_a   9.81412300
_cell_length_b   9.81412300
_cell_length_c   5.75705100
_cell_angle_alpha   90.00000000
_cell_angle_beta   90.00000000
_cell_angle_gamma   90.00000000
_symmetry_Int_Tables_number   1
_chemical_formula_structural   Dy5Pd9
_chemical_formula_sum   'Dy10 Pd18'
_cell_volume   554.50194023
_cell_formula_units_Z   2
loop_
 _symmetry_equiv_pos_site_id
 _symmetry_equiv_pos_as_xyz
  1  'x, y, z'
loop_
 _atom_site_type_symbol
 _atom_site_label
 _atom_site_symmetry_multiplicity
 _atom_site_fract_x
 _atom_site_fract_y
 _atom_site_fract_z
 _atom_site_occupancy
  Dy  Dy0  1  0.453686  0.808027  0.000000  1
  Dy  Dy1  1  0.546314  0.191973  0.000000  1
  Dy  Dy2  1  0.191973  0.546314  0.000000  1
  Dy  Dy3  1  0.808027  0.453686  0.000000  1
  Dy  Dy4  1  0.500000  0.500000  0.500000  1
  Dy  Dy5  1  0.308027  0.046314  0.500000  1
  Dy  Dy6  1  0.691973  0.953686  0.500000  1
  Dy  Dy7  1  0.953686  0.691973  0.500000  1
  Dy  Dy8  1  0.046314  0.308027  0.500000  1
  Dy  Dy9  1  0.000000  0.000000  0.000000  1
  Pd  Pd10  1  0.191475  0.808525  0.249997  1
  Pd  Pd11  1  0.808525  0.191475  0.750003  1
  Pd  Pd12  1  0.808525  0.191475  0.249997  1
  Pd  Pd13  1  0.191475  0.808525  0.750003  1
  Pd  Pd14  1  0.440192  0.781097  0.500000  1
  Pd  Pd15  1  0.559808  0.218903  0.500000  1
  Pd  Pd16  1  0.218903  0.559808  0.500000  1
  Pd  Pd17  1  0.781097  0.440192  0.500000  1
  Pd  Pd18  1  0.308525  0.308525  0.250003  1
  Pd  Pd19  1  0.691475  0.691475  0.749997  1
  Pd  Pd20  1  0.691475  0.691475  0.250003  1
  Pd  Pd21  1  0.308525  0.308525  0.749997  1
  Pd  Pd22  1  0.281097  0.059808  0.000000  1
  Pd  Pd23  1  0.718903  0.940192  0.000000  1
  Pd  Pd24  1  0.940192  0.718903  0.000000  1
  Pd  Pd25  1  0.059808  0.281097  0.000000  1
  Pd  Pd26  1  0.000000  0.000000  0.500000  1
  Pd  Pd27  1  0.500000  0.500000  0.000000  1
