# generated using pymatgen
data_Ba4SmU7S20
_symmetry_space_group_name_H-M   'P 1'
_cell_length_a   7.60530377
_cell_length_b   8.37355265
_cell_length_c   11.83591000
_cell_angle_alpha   89.49964489
_cell_angle_beta   90.36906153
_cell_angle_gamma   90.26642767
_symmetry_Int_Tables_number   1
_chemical_formula_structural   Ba4SmU7S20
_chemical_formula_sum   'Ba4 Sm1 U7 S20'
_cell_volume   753.69879695
_cell_formula_units_Z   1
loop_
 _symmetry_equiv_pos_site_id
 _symmetry_equiv_pos_as_xyz
  1  'x, y, z'
loop_
 _atom_site_type_symbol
 _atom_site_label
 _atom_site_symmetry_multiplicity
 _atom_site_fract_x
 _atom_site_fract_y
 _atom_site_fract_z
 _atom_site_occupancy
  Ba  Ba0  1  0.050989  0.489050  0.331304  1
  Ba  Ba1  1  0.554451  0.507446  0.167715  1
  Ba  Ba2  1  0.946712  0.508082  0.669321  1
  Ba  Ba3  1  0.445906  0.492017  0.832103  1
  Sm  Sm4  1  0.025798  0.997547  0.320197  1
  U  U5  1  0.521737  0.001853  0.180525  1
  U  U6  1  0.979028  0.000782  0.679934  1
  U  U7  1  0.478581  0.998711  0.819521  1
  U  U8  1  0.065349  0.758022  0.008653  1
  U  U9  1  0.565454  0.244356  0.494785  1
  U  U10  1  0.933575  0.242034  0.991493  1
  U  U11  1  0.433754  0.757194  0.506276  1
  S  S12  1  0.656074  0.959340  0.402268  1
  S  S13  1  0.165554  0.044817  0.093101  1
  S  S14  1  0.337852  0.043579  0.600321  1
  S  S15  1  0.838872  0.956379  0.899712  1
  S  S16  1  0.448600  0.793668  0.001637  1
  S  S17  1  0.942328  0.208456  0.502785  1
  S  S18  1  0.553298  0.204316  0.997104  1
  S  S19  1  0.055458  0.789680  0.507155  1
  S  S20  1  0.837356  0.781353  0.183153  1
  S  S21  1  0.348330  0.222137  0.310611  1
  S  S22  1  0.157437  0.216468  0.811356  1
  S  S23  1  0.656472  0.785105  0.688526  1
  S  S24  1  0.315474  0.772302  0.284980  1
  S  S25  1  0.812807  0.224488  0.209501  1
  S  S26  1  0.685522  0.222940  0.715504  1
  S  S27  1  0.186127  0.778282  0.789802  1
  S  S28  1  0.173854  0.463452  0.070119  1
  S  S29  1  0.673967  0.536989  0.430213  1
  S  S30  1  0.826155  0.534718  0.927049  1
  S  S31  1  0.327126  0.464439  0.573277  1
