# generated using pymatgen
data_InCu2(PdO2)4
_symmetry_space_group_name_H-M   'P 1'
_cell_length_a   6.64925830
_cell_length_b   6.73635510
_cell_length_c   6.73650154
_cell_angle_alpha   59.14012627
_cell_angle_beta   60.42761888
_cell_angle_gamma   60.42978587
_symmetry_Int_Tables_number   1
_chemical_formula_structural   InCu2(PdO2)4
_chemical_formula_sum   'In1 Cu2 Pd4 O8'
_cell_volume   213.28694275
_cell_formula_units_Z   1
loop_
 _symmetry_equiv_pos_site_id
 _symmetry_equiv_pos_as_xyz
  1  'x, y, z'
loop_
 _atom_site_type_symbol
 _atom_site_label
 _atom_site_symmetry_multiplicity
 _atom_site_fract_x
 _atom_site_fract_y
 _atom_site_fract_z
 _atom_site_occupancy
  In  In0  1  0.000000  0.000000  0.000000  1
  Cu  Cu1  1  0.500000  0.000000  0.000000  1
  Cu  Cu2  1  0.000000  0.500000  0.500000  1
  Pd  Pd3  1  0.000000  0.000000  0.500000  1
  Pd  Pd4  1  0.000000  0.500000  0.000000  1
  Pd  Pd5  1  0.500000  0.500000  0.000000  1
  Pd  Pd6  1  0.500000  0.000000  0.500000  1
  O  O7  1  0.133666  0.152231  0.580449  1
  O  O8  1  0.133660  0.580448  0.152226  1
  O  O9  1  0.580449  0.133664  0.133657  1
  O  O10  1  0.866340  0.419552  0.847774  1
  O  O11  1  0.152237  0.133662  0.133647  1
  O  O12  1  0.847763  0.866338  0.866353  1
  O  O13  1  0.866334  0.847769  0.419551  1
  O  O14  1  0.419551  0.866336  0.866343  1
