# generated using pymatgen
data_Sm2Tm2ReB12Os
_symmetry_space_group_name_H-M   'P 1'
_cell_length_a   3.67723400
_cell_length_b   9.17274565
_cell_length_c   11.60087100
_cell_angle_alpha   90.12009028
_cell_angle_beta   90.00000000
_cell_angle_gamma   90.00000000
_symmetry_Int_Tables_number   1
_chemical_formula_structural   Sm2Tm2ReB12Os
_chemical_formula_sum   'Sm4 Tm4 Re2 B24 Os2'
_cell_volume   391.30037294
_cell_formula_units_Z   2
loop_
 _symmetry_equiv_pos_site_id
 _symmetry_equiv_pos_as_xyz
  1  'x, y, z'
loop_
 _atom_site_type_symbol
 _atom_site_label
 _atom_site_symmetry_multiplicity
 _atom_site_fract_x
 _atom_site_fract_y
 _atom_site_fract_z
 _atom_site_occupancy
  Sm  Sm0  1  0.000000  0.320633  0.412824  1
  Sm  Sm1  1  0.000000  0.679367  0.587176  1
  Sm  Sm2  1  0.000000  0.823563  0.085078  1
  Sm  Sm3  1  0.000000  0.176437  0.914922  1
  Tm  Tm4  1  0.000000  0.943483  0.370621  1
  Tm  Tm5  1  0.000000  0.056517  0.629379  1
  Tm  Tm6  1  0.000000  0.442358  0.128950  1
  Tm  Tm7  1  0.000000  0.557642  0.871050  1
  Re  Re8  1  0.000000  0.139162  0.180878  1
  Re  Re9  1  0.000000  0.860838  0.819122  1
  B  B10  1  0.500000  0.554900  0.431399  1
  B  B11  1  0.500000  0.445100  0.568601  1
  B  B12  1  0.500000  0.054203  0.068487  1
  B  B13  1  0.500000  0.945797  0.931513  1
  B  B14  1  0.500000  0.749937  0.417147  1
  B  B15  1  0.500000  0.250063  0.582853  1
  B  B16  1  0.500000  0.249957  0.082713  1
  B  B17  1  0.500000  0.750043  0.917287  1
  B  B18  1  0.500000  0.790700  0.266391  1
  B  B19  1  0.500000  0.209300  0.733609  1
  B  B20  1  0.500000  0.291546  0.234072  1
  B  B21  1  0.500000  0.708454  0.765928  1
  B  B22  1  0.500000  0.629561  0.186061  1
  B  B23  1  0.500000  0.370439  0.813939  1
  B  B24  1  0.500000  0.129987  0.314834  1
  B  B25  1  0.500000  0.870013  0.685166  1
  B  B26  1  0.500000  0.983286  0.213751  1
  B  B27  1  0.500000  0.016714  0.786249  1
  B  B28  1  0.500000  0.483648  0.286896  1
  B  B29  1  0.500000  0.516352  0.713104  1
  B  B30  1  0.500000  0.599311  0.027536  1
  B  B31  1  0.500000  0.400689  0.972464  1
  B  B32  1  0.500000  0.099883  0.472722  1
  B  B33  1  0.500000  0.900117  0.527278  1
  Os  Os34  1  0.000000  0.638463  0.320158  1
  Os  Os35  1  0.000000  0.361537  0.679842  1
