# generated using pymatgen
data_HoEr3(B2Ir5)2
_symmetry_space_group_name_H-M   'P 1'
_cell_length_a   11.00016744
_cell_length_b   11.00016678
_cell_length_c   11.00016800
_cell_angle_alpha   28.74448124
_cell_angle_beta   28.74448541
_cell_angle_gamma   28.74448126
_symmetry_Int_Tables_number   1
_chemical_formula_structural   HoEr3(B2Ir5)2
_chemical_formula_sum   'Ho1 Er3 B4 Ir10'
_cell_volume   272.17591719
_cell_formula_units_Z   1
loop_
 _symmetry_equiv_pos_site_id
 _symmetry_equiv_pos_as_xyz
  1  'x, y, z'
loop_
 _atom_site_type_symbol
 _atom_site_label
 _atom_site_symmetry_multiplicity
 _atom_site_fract_x
 _atom_site_fract_y
 _atom_site_fract_z
 _atom_site_occupancy
  Ho  Ho0  1  0.151919  0.151919  0.151919  1
  Er  Er1  1  0.950227  0.950227  0.950227  1
  Er  Er2  1  0.848066  0.848066  0.848066  1
  Er  Er3  1  0.049774  0.049774  0.049774  1
  B  B4  1  0.617295  0.617295  0.617295  1
  B  B5  1  0.716108  0.716108  0.716108  1
  B  B6  1  0.382708  0.382708  0.382708  1
  B  B7  1  0.283893  0.283893  0.283893  1
  Ir  Ir8  1  0.405185  0.900004  0.405185  1
  Ir  Ir9  1  0.900004  0.405185  0.405185  1
  Ir  Ir10  1  0.499997  0.499997  0.000004  1
  Ir  Ir11  1  0.499997  0.000004  0.499997  1
  Ir  Ir12  1  0.000004  0.499997  0.499997  1
  Ir  Ir13  1  0.500010  0.500010  0.500010  1
  Ir  Ir14  1  0.594855  0.099915  0.594855  1
  Ir  Ir15  1  0.594855  0.594855  0.099915  1
  Ir  Ir16  1  0.099915  0.594855  0.594855  1
  Ir  Ir17  1  0.405185  0.405185  0.900004  1
