# generated using pymatgen
data_Pr3Y5Cd2IrOs
_symmetry_space_group_name_H-M   'P 1'
_cell_length_a   9.80752987
_cell_length_b   9.80752857
_cell_length_c   9.86566000
_cell_angle_alpha   59.80374128
_cell_angle_beta   59.80374570
_cell_angle_gamma   59.69747040
_symmetry_Int_Tables_number   1
_chemical_formula_structural   Pr3Y5Cd2IrOs
_chemical_formula_sum   'Pr6 Y10 Cd4 Ir2 Os2'
_cell_volume   667.48080164
_cell_formula_units_Z   2
loop_
 _symmetry_equiv_pos_site_id
 _symmetry_equiv_pos_as_xyz
  1  'x, y, z'
loop_
 _atom_site_type_symbol
 _atom_site_label
 _atom_site_symmetry_multiplicity
 _atom_site_fract_x
 _atom_site_fract_y
 _atom_site_fract_z
 _atom_site_occupancy
  Pr  Pr0  1  0.940891  0.554865  0.560814  1
  Pr  Pr1  1  0.554865  0.940891  0.943430  1
  Pr  Pr2  1  0.554865  0.940891  0.560814  1
  Pr  Pr3  1  0.940891  0.554865  0.943430  1
  Pr  Pr4  1  0.559425  0.559425  0.940575  1
  Pr  Pr5  1  0.943635  0.943635  0.556365  1
  Y  Y6  1  0.346977  0.346977  0.346073  1
  Y  Y7  1  0.346977  0.346977  0.959970  1
  Y  Y8  1  0.346460  0.962509  0.345515  1
  Y  Y9  1  0.962509  0.346460  0.345515  1
  Y  Y10  1  0.812940  0.187333  0.188449  1
  Y  Y11  1  0.187333  0.812940  0.811278  1
  Y  Y12  1  0.187333  0.812940  0.188449  1
  Y  Y13  1  0.812940  0.187333  0.811278  1
  Y  Y14  1  0.187558  0.187558  0.812442  1
  Y  Y15  1  0.811501  0.811501  0.188499  1
  Cd  Cd16  1  0.578651  0.578651  0.579367  1
  Cd  Cd17  1  0.578651  0.578651  0.263329  1
  Cd  Cd18  1  0.578894  0.261673  0.579717  1
  Cd  Cd19  1  0.261673  0.578894  0.579717  1
  Ir  Ir20  1  0.142527  0.579238  0.139118  1
  Ir  Ir21  1  0.579238  0.142527  0.139118  1
  Os  Os22  1  0.141632  0.141632  0.137995  1
  Os  Os23  1  0.141632  0.141632  0.578741  1
