# generated using pymatgen
data_KScH6Ru
_symmetry_space_group_name_H-M   'P 1'
_cell_length_a   7.22457100
_cell_length_b   7.22457100
_cell_length_c   7.22457100
_cell_angle_alpha   90.00000000
_cell_angle_beta   90.00000000
_cell_angle_gamma   90.00000000
_symmetry_Int_Tables_number   1
_chemical_formula_structural   KScH6Ru
_chemical_formula_sum   'K4 Sc4 H24 Ru4'
_cell_volume   377.08233741
_cell_formula_units_Z   4
loop_
 _symmetry_equiv_pos_site_id
 _symmetry_equiv_pos_as_xyz
  1  'x, y, z'
loop_
 _atom_site_type_symbol
 _atom_site_label
 _atom_site_symmetry_multiplicity
 _atom_site_fract_x
 _atom_site_fract_y
 _atom_site_fract_z
 _atom_site_occupancy
  K  K0  1  0.000000  0.000000  0.500000  1
  K  K1  1  0.000000  0.500000  0.000000  1
  K  K2  1  0.500000  0.000000  0.000000  1
  K  K3  1  0.000000  0.000000  0.000000  1
  Sc  Sc4  1  0.500000  0.500000  0.500000  1
  Sc  Sc5  1  0.000000  0.500000  0.500000  1
  Sc  Sc6  1  0.500000  0.000000  0.500000  1
  Sc  Sc7  1  0.500000  0.500000  0.000000  1
  H  H8  1  0.729760  0.729760  0.516363  1
  H  H9  1  0.270240  0.270240  0.516363  1
  H  H10  1  0.043699  0.712268  0.712268  1
  H  H11  1  0.287732  0.956301  0.712268  1
  H  H12  1  0.712268  0.043699  0.712268  1
  H  H13  1  0.956301  0.287732  0.712268  1
  H  H14  1  0.729760  0.516363  0.729760  1
  H  H15  1  0.516363  0.729760  0.729760  1
  H  H16  1  0.483637  0.270240  0.729760  1
  H  H17  1  0.270240  0.483637  0.729760  1
  H  H18  1  0.287732  0.712268  0.956301  1
  H  H19  1  0.712268  0.287732  0.956301  1
  H  H20  1  0.712268  0.712268  0.043699  1
  H  H21  1  0.287732  0.287732  0.043699  1
  H  H22  1  0.270240  0.516363  0.270240  1
  H  H23  1  0.483637  0.729760  0.270240  1
  H  H24  1  0.516363  0.270240  0.270240  1
  H  H25  1  0.729760  0.483637  0.270240  1
  H  H26  1  0.956301  0.712268  0.287732  1
  H  H27  1  0.712268  0.956301  0.287732  1
  H  H28  1  0.287732  0.043699  0.287732  1
  H  H29  1  0.043699  0.287732  0.287732  1
  H  H30  1  0.270240  0.729760  0.483637  1
  H  H31  1  0.729760  0.270240  0.483637  1
  Ru  Ru32  1  0.283582  0.716418  0.716418  1
  Ru  Ru33  1  0.716418  0.283582  0.716418  1
  Ru  Ru34  1  0.716418  0.716418  0.283582  1
  Ru  Ru35  1  0.283582  0.283582  0.283582  1
