# generated using pymatgen
data_Ti3Fe4MoP4
_symmetry_space_group_name_H-M   'P 1'
_cell_length_a   3.58943100
_cell_length_b   6.00572143
_cell_length_c   6.79833017
_cell_angle_alpha   89.76642222
_cell_angle_beta   90.00000000
_cell_angle_gamma   90.00000000
_symmetry_Int_Tables_number   1
_chemical_formula_structural   Ti3Fe4MoP4
_chemical_formula_sum   'Ti3 Fe4 Mo1 P4'
_cell_volume   146.55121980
_cell_formula_units_Z   1
loop_
 _symmetry_equiv_pos_site_id
 _symmetry_equiv_pos_as_xyz
  1  'x, y, z'
loop_
 _atom_site_type_symbol
 _atom_site_label
 _atom_site_symmetry_multiplicity
 _atom_site_fract_x
 _atom_site_fract_y
 _atom_site_fract_z
 _atom_site_occupancy
  Ti  Ti0  1  0.250000  0.522219  0.681938  1
  Ti  Ti1  1  0.750000  0.978551  0.179239  1
  Ti  Ti2  1  0.750000  0.478528  0.317706  1
  Fe  Fe3  1  0.250000  0.146230  0.439748  1
  Fe  Fe4  1  0.250000  0.646026  0.062962  1
  Fe  Fe5  1  0.750000  0.853269  0.559282  1
  Fe  Fe6  1  0.750000  0.357413  0.935869  1
  Mo  Mo7  1  0.250000  0.021356  0.826504  1
  P  P8  1  0.250000  0.773997  0.378672  1
  P  P9  1  0.250000  0.274068  0.118894  1
  P  P10  1  0.750000  0.223628  0.620309  1
  P  P11  1  0.750000  0.724716  0.878878  1
