# generated using pymatgen
data_YbPrB2(Ru2C)2
_symmetry_space_group_name_H-M   'P 1'
_cell_length_a   6.74375964
_cell_length_b   5.92564151
_cell_length_c   5.52255907
_cell_angle_alpha   72.08408915
_cell_angle_beta   56.72813728
_cell_angle_gamma   51.18776908
_symmetry_Int_Tables_number   1
_chemical_formula_structural   YbPrB2(Ru2C)2
_chemical_formula_sum   'Yb1 Pr1 B2 Ru4 C2'
_cell_volume   143.54979920
_cell_formula_units_Z   1
loop_
 _symmetry_equiv_pos_site_id
 _symmetry_equiv_pos_as_xyz
  1  'x, y, z'
loop_
 _atom_site_type_symbol
 _atom_site_label
 _atom_site_symmetry_multiplicity
 _atom_site_fract_x
 _atom_site_fract_y
 _atom_site_fract_z
 _atom_site_occupancy
  Yb  Yb0  1  0.000000  0.000000  0.000000  1
  Pr  Pr1  1  0.250000  0.250000  0.250000  1
  B  B2  1  0.929634  0.570366  0.929634  1
  B  B3  1  0.570366  0.929634  0.570366  1
  Ru  Ru4  1  0.608114  0.608114  0.891886  1
  Ru  Ru5  1  0.630236  0.630236  0.369763  1
  Ru  Ru6  1  0.369763  0.369764  0.630236  1
  Ru  Ru7  1  0.891887  0.891886  0.608113  1
  C  C8  1  0.683637  0.316363  0.683637  1
  C  C9  1  0.316363  0.683637  0.316363  1
