# generated using pymatgen
data_YbCdRu4(PbO7)2
_symmetry_space_group_name_H-M   'P 1'
_cell_length_a   7.24882359
_cell_length_b   7.30055017
_cell_length_c   7.33930538
_cell_angle_alpha   60.17453018
_cell_angle_beta   60.06885779
_cell_angle_gamma   59.76366541
_symmetry_Int_Tables_number   1
_chemical_formula_structural   YbCdRu4(PbO7)2
_chemical_formula_sum   'Yb1 Cd1 Ru4 Pb2 O14'
_cell_volume   274.64658864
_cell_formula_units_Z   1
loop_
 _symmetry_equiv_pos_site_id
 _symmetry_equiv_pos_as_xyz
  1  'x, y, z'
loop_
 _atom_site_type_symbol
 _atom_site_label
 _atom_site_symmetry_multiplicity
 _atom_site_fract_x
 _atom_site_fract_y
 _atom_site_fract_z
 _atom_site_occupancy
  Yb  Yb0  1  0.125000  0.125000  0.625000  1
  Cd  Cd1  1  0.625000  0.125000  0.125000  1
  Ru  Ru2  1  0.625000  0.625000  0.625000  1
  Ru  Ru3  1  0.125000  0.625000  0.625000  1
  Ru  Ru4  1  0.625000  0.625000  0.125000  1
  Ru  Ru5  1  0.625000  0.125000  0.625000  1
  Pb  Pb6  1  0.125000  0.125000  0.125000  1
  Pb  Pb7  1  0.125000  0.625000  0.125000  1
  O  O8  1  0.980885  0.010727  0.997661  1
  O  O9  1  0.269115  0.239273  0.252339  1
  O  O10  1  0.299010  0.301563  0.702155  1
  O  O11  1  0.548713  0.561586  0.945142  1
  O  O12  1  0.695670  0.307550  0.689230  1
  O  O13  1  0.701287  0.305441  0.304858  1
  O  O14  1  0.299010  0.697274  0.702155  1
  O  O15  1  0.298606  0.700526  0.300341  1
  O  O16  1  0.701287  0.688414  0.304858  1
  O  O17  1  0.950990  0.552726  0.547845  1
  O  O18  1  0.548713  0.944559  0.945142  1
  O  O19  1  0.950990  0.948437  0.547845  1
  O  O20  1  0.951394  0.549474  0.949659  1
  O  O21  1  0.554330  0.942450  0.560770  1
