# generated using pymatgen
data_Li2PaI6
_symmetry_space_group_name_H-M   'P 1'
_cell_length_a   7.53137100
_cell_length_b   7.53137159
_cell_length_c   14.73644900
_cell_angle_alpha   90.00000000
_cell_angle_beta   90.00000000
_cell_angle_gamma   120.00000182
_symmetry_Int_Tables_number   1
_chemical_formula_structural   Li2PaI6
_chemical_formula_sum   'Li4 Pa2 I12'
_cell_volume   723.88834865
_cell_formula_units_Z   2
loop_
 _symmetry_equiv_pos_site_id
 _symmetry_equiv_pos_as_xyz
  1  'x, y, z'
loop_
 _atom_site_type_symbol
 _atom_site_label
 _atom_site_symmetry_multiplicity
 _atom_site_fract_x
 _atom_site_fract_y
 _atom_site_fract_z
 _atom_site_occupancy
  Li  Li0  1  0.666667  0.333333  0.250000  1
  Li  Li1  1  0.333333  0.666667  0.750000  1
  Li  Li2  1  0.000000  0.000000  0.250000  1
  Li  Li3  1  0.000000  0.000000  0.750000  1
  Pa  Pa4  1  0.666667  0.333333  0.750000  1
  Pa  Pa5  1  0.333333  0.666667  0.250000  1
  I  I6  1  0.333080  0.000883  0.132867  1
  I  I7  1  0.000883  0.333080  0.632867  1
  I  I8  1  0.666920  0.667803  0.632867  1
  I  I9  1  0.666920  0.999117  0.867133  1
  I  I10  1  0.333080  0.332197  0.367133  1
  I  I11  1  0.999117  0.666920  0.367133  1
  I  I12  1  0.332197  0.333080  0.867133  1
  I  I13  1  0.667803  0.666920  0.132867  1
  I  I14  1  0.000883  0.667803  0.867133  1
  I  I15  1  0.999117  0.332197  0.132867  1
  I  I16  1  0.667803  0.000883  0.367133  1
  I  I17  1  0.332197  0.999117  0.632867  1
