# generated using pymatgen
data_La3Pr3(Ga2Sn3)2
_symmetry_space_group_name_H-M   'P 1'
_cell_length_a   6.56982034
_cell_length_b   6.56981999
_cell_length_c   10.30465700
_cell_angle_alpha   90.00138411
_cell_angle_beta   90.00138817
_cell_angle_gamma   102.23621119
_symmetry_Int_Tables_number   1
_chemical_formula_structural   La3Pr3(Ga2Sn3)2
_chemical_formula_sum   'La3 Pr3 Ga4 Sn6'
_cell_volume   434.67079991
_cell_formula_units_Z   1
loop_
 _symmetry_equiv_pos_site_id
 _symmetry_equiv_pos_as_xyz
  1  'x, y, z'
loop_
 _atom_site_type_symbol
 _atom_site_label
 _atom_site_symmetry_multiplicity
 _atom_site_fract_x
 _atom_site_fract_y
 _atom_site_fract_z
 _atom_site_occupancy
  La  La0  1  0.204234  0.795766  0.000000  1
  La  La1  1  0.204235  0.795765  0.500000  1
  La  La2  1  0.795838  0.204162  0.500000  1
  Pr  Pr3  1  0.639571  0.639488  0.249869  1
  Pr  Pr4  1  0.360512  0.360429  0.750131  1
  Pr  Pr5  1  0.796173  0.203827  0.000000  1
  Ga  Ga6  1  0.310511  0.310725  0.045474  1
  Ga  Ga7  1  0.689275  0.689489  0.954526  1
  Ga  Ga8  1  0.689115  0.689136  0.545757  1
  Ga  Ga9  1  0.310864  0.310885  0.454243  1
  Sn  Sn10  1  0.091603  0.489951  0.249766  1
  Sn  Sn11  1  0.908048  0.509594  0.750523  1
  Sn  Sn12  1  0.490406  0.091952  0.249477  1
  Sn  Sn13  1  0.510049  0.908397  0.750234  1
  Sn  Sn14  1  0.026430  0.026863  0.249522  1
  Sn  Sn15  1  0.973137  0.973570  0.750478  1
