# generated using pymatgen
data_ErThCoSi4Ni
_symmetry_space_group_name_H-M   'P 1'
_cell_length_a   8.39551960
_cell_length_b   8.39551995
_cell_length_c   4.03426600
_cell_angle_alpha   90.00000000
_cell_angle_beta   90.00000000
_cell_angle_gamma   152.08210279
_symmetry_Int_Tables_number   1
_chemical_formula_structural   ErThCoSi4Ni
_chemical_formula_sum   'Er1 Th1 Co1 Si4 Ni1'
_cell_volume   133.13631816
_cell_formula_units_Z   1
loop_
 _symmetry_equiv_pos_site_id
 _symmetry_equiv_pos_as_xyz
  1  'x, y, z'
loop_
 _atom_site_type_symbol
 _atom_site_label
 _atom_site_symmetry_multiplicity
 _atom_site_fract_x
 _atom_site_fract_y
 _atom_site_fract_z
 _atom_site_occupancy
  Er  Er0  1  0.605765  0.394235  0.250000  1
  Th  Th1  1  0.392914  0.607086  0.750000  1
  Co  Co2  1  0.180482  0.819518  0.750000  1
  Si  Si3  1  0.963741  0.036259  0.250000  1
  Si  Si4  1  0.044174  0.955826  0.750000  1
  Si  Si5  1  0.245512  0.754488  0.250000  1
  Si  Si6  1  0.745558  0.254442  0.750000  1
  Ni  Ni7  1  0.821854  0.178146  0.250000  1
