# generated using pymatgen
data_Yb2YAl3Ge2Pd
_symmetry_space_group_name_H-M   'P 1'
_cell_length_a   6.98776849
_cell_length_b   6.98776943
_cell_length_c   4.30485300
_cell_angle_alpha   90.00000000
_cell_angle_beta   90.00000000
_cell_angle_gamma   120.33848873
_symmetry_Int_Tables_number   1
_chemical_formula_structural   Yb2YAl3Ge2Pd
_chemical_formula_sum   'Yb2 Y1 Al3 Ge2 Pd1'
_cell_volume   181.41558607
_cell_formula_units_Z   1
loop_
 _symmetry_equiv_pos_site_id
 _symmetry_equiv_pos_as_xyz
  1  'x, y, z'
loop_
 _atom_site_type_symbol
 _atom_site_label
 _atom_site_symmetry_multiplicity
 _atom_site_fract_x
 _atom_site_fract_y
 _atom_site_fract_z
 _atom_site_occupancy
  Yb  Yb0  1  0.421444  0.000216  0.000000  1
  Yb  Yb1  1  0.000216  0.421444  0.000000  1
  Y  Y2  1  0.578272  0.578272  0.000000  1
  Al  Al3  1  0.765768  0.997544  0.500001  1
  Al  Al4  1  0.234890  0.234889  0.500001  1
  Al  Al5  1  0.997544  0.765769  0.500001  1
  Ge  Ge6  1  0.666426  0.335209  0.500001  1
  Ge  Ge7  1  0.335210  0.666427  0.500001  1
  Pd  Pd8  1  0.000230  0.000230  0.000000  1
