# generated using pymatgen
data_Nb12Fe5Si7C3N
_symmetry_space_group_name_H-M   'P 1'
_cell_length_a   8.03948291
_cell_length_b   8.03948333
_cell_length_c   8.03948304
_cell_angle_alpha   60.56863196
_cell_angle_beta   60.56863311
_cell_angle_gamma   60.56862658
_symmetry_Int_Tables_number   1
_chemical_formula_structural   Nb12Fe5Si7C3N
_chemical_formula_sum   'Nb12 Fe5 Si7 C3 N1'
_cell_volume   372.14523371
_cell_formula_units_Z   1
loop_
 _symmetry_equiv_pos_site_id
 _symmetry_equiv_pos_as_xyz
  1  'x, y, z'
loop_
 _atom_site_type_symbol
 _atom_site_label
 _atom_site_symmetry_multiplicity
 _atom_site_fract_x
 _atom_site_fract_y
 _atom_site_fract_z
 _atom_site_occupancy
  Nb  Nb0  1  0.803708  0.803708  0.195358  1
  Nb  Nb1  1  0.194343  0.194343  0.806315  1
  Nb  Nb2  1  0.803708  0.195358  0.803708  1
  Nb  Nb3  1  0.194343  0.806315  0.194343  1
  Nb  Nb4  1  0.195358  0.803708  0.803708  1
  Nb  Nb5  1  0.806315  0.194343  0.194343  1
  Nb  Nb6  1  0.445235  0.445235  0.056061  1
  Nb  Nb7  1  0.053546  0.053546  0.447651  1
  Nb  Nb8  1  0.445235  0.056061  0.445235  1
  Nb  Nb9  1  0.053546  0.447651  0.053546  1
  Nb  Nb10  1  0.056061  0.445235  0.445235  1
  Nb  Nb11  1  0.447651  0.053546  0.053546  1
  Fe  Fe12  1  0.137082  0.617988  0.617988  1
  Fe  Fe13  1  0.617988  0.137082  0.617988  1
  Fe  Fe14  1  0.617988  0.617988  0.137082  1
  Fe  Fe15  1  0.623763  0.623763  0.623763  1
  Fe  Fe16  1  0.827462  0.827462  0.827462  1
  Si  Si17  1  0.750100  0.416319  0.416319  1
  Si  Si18  1  0.416319  0.750100  0.416319  1
  Si  Si19  1  0.416319  0.416319  0.750100  1
  Si  Si20  1  0.416403  0.416403  0.416403  1
  Si  Si21  1  0.509249  0.834088  0.834088  1
  Si  Si22  1  0.834088  0.509249  0.834088  1
  Si  Si23  1  0.834088  0.834088  0.509249  1
  C  C24  1  0.626847  0.123808  0.123808  1
  C  C25  1  0.123808  0.626847  0.123808  1
  C  C26  1  0.123808  0.123808  0.626847  1
  N  N27  1  0.125640  0.125640  0.125640  1
