# generated using pymatgen
data_Lu3Sc(SnRu2)4
_symmetry_space_group_name_H-M   'P 1'
_cell_length_a   6.45650301
_cell_length_b   6.61051200
_cell_length_c   6.45681901
_cell_angle_alpha   89.99842215
_cell_angle_beta   89.99986676
_cell_angle_gamma   89.99871633
_symmetry_Int_Tables_number   1
_chemical_formula_structural   Lu3Sc(SnRu2)4
_chemical_formula_sum   'Lu3 Sc1 Sn4 Ru8'
_cell_volume   275.58213987
_cell_formula_units_Z   1
loop_
 _symmetry_equiv_pos_site_id
 _symmetry_equiv_pos_as_xyz
  1  'x, y, z'
loop_
 _atom_site_type_symbol
 _atom_site_label
 _atom_site_symmetry_multiplicity
 _atom_site_fract_x
 _atom_site_fract_y
 _atom_site_fract_z
 _atom_site_occupancy
  Lu  Lu0  1  0.999982  0.249906  0.000013  1
  Lu  Lu1  1  0.000016  0.750023  0.000011  1
  Lu  Lu2  1  0.499989  0.750104  0.499974  1
  Sc  Sc3  1  0.500041  0.250000  0.500003  1
  Sn  Sn4  1  0.500001  0.249987  0.000017  1
  Sn  Sn5  1  0.499990  0.750011  0.999981  1
  Sn  Sn6  1  0.999979  0.249984  0.500009  1
  Sn  Sn7  1  0.999991  0.750013  0.499997  1
  Ru  Ru8  1  0.252118  0.498063  0.252087  1
  Ru  Ru9  1  0.252093  0.001911  0.252055  1
  Ru  Ru10  1  0.747905  0.498116  0.252131  1
  Ru  Ru11  1  0.747941  0.001924  0.252108  1
  Ru  Ru12  1  0.252090  0.498031  0.747881  1
  Ru  Ru13  1  0.252070  0.001926  0.747908  1
  Ru  Ru14  1  0.747899  0.498083  0.747903  1
  Ru  Ru15  1  0.747894  0.001923  0.747921  1
