# generated using pymatgen
data_CsF37
_symmetry_space_group_name_H-M   'P 1'
_cell_length_a   6.19736655
_cell_length_b   11.88072950
_cell_length_c   10.60035866
_cell_angle_alpha   83.46854104
_cell_angle_beta   96.27297514
_cell_angle_gamma   76.49193766
_symmetry_Int_Tables_number   1
_chemical_formula_structural   CsF37
_chemical_formula_sum   'Cs1 F37'
_cell_volume   746.48885777
_cell_formula_units_Z   1
loop_
 _symmetry_equiv_pos_site_id
 _symmetry_equiv_pos_as_xyz
  1  'x, y, z'
loop_
 _atom_site_type_symbol
 _atom_site_label
 _atom_site_symmetry_multiplicity
 _atom_site_fract_x
 _atom_site_fract_y
 _atom_site_fract_z
 _atom_site_occupancy
  Cs  Cs0  1  0.204581  0.163713  0.230393  1
  F  F1  1  0.720786  0.849363  0.734604  1
  F  F2  1  0.283438  0.379428  0.890560  1
  F  F3  1  0.684449  0.633635  0.083295  1
  F  F4  1  0.333174  0.249394  0.568811  1
  F  F5  1  0.678706  0.741980  0.444651  1
  F  F6  1  0.839717  0.216319  0.812923  1
  F  F7  1  0.128476  0.805565  0.188724  1
  F  F8  1  0.696460  0.885171  0.020965  1
  F  F9  1  0.318204  0.098987  0.939459  1
  F  F10  1  0.775136  0.586888  0.835876  1
  F  F11  1  0.172063  0.452595  0.171330  1
  F  F12  1  0.439811  0.437346  0.840945  1
  F  F13  1  0.590779  0.565446  0.171282  1
  F  F14  1  0.767422  0.586140  0.701021  1
  F  F15  1  0.258384  0.431337  0.304922  1
  F  F16  1  0.759918  0.059144  0.480806  1
  F  F17  1  0.266268  0.965023  0.483611  1
  F  F18  1  0.296581  0.182797  0.681367  1
  F  F19  1  0.695119  0.799163  0.321614  1
  F  F20  1  0.828104  0.068731  0.620705  1
  F  F21  1  0.190828  0.904211  0.385339  1
  F  F22  1  0.801595  0.975574  0.982448  1
  F  F23  1  0.207560  0.009659  0.974654  1
  F  F24  1  0.895965  0.326283  0.799874  1
  F  F25  1  0.109478  0.688042  0.195323  1
  F  F26  1  0.166441  0.710454  0.921130  1
  F  F27  1  0.742697  0.278867  0.088173  1
  F  F28  1  0.496439  0.915918  0.731219  1
  F  F29  1  0.675868  0.043405  0.293768  1
  F  F30  1  0.115862  0.750063  0.594213  1
  F  F31  1  0.846520  0.272407  0.438179  1
  F  F32  1  0.207110  0.633720  0.658691  1
  F  F33  1  0.815912  0.377863  0.351113  1
  F  F34  1  0.294506  0.783611  0.865632  1
  F  F35  1  0.707301  0.167263  0.187750  1
  F  F36  1  0.472232  0.449495  0.531274  1
  F  F37  1  0.516109  0.555000  0.473358  1
