# generated using pymatgen
data_Lu6Mn(Si2Ir)3
_symmetry_space_group_name_H-M   'P 1'
_cell_length_a   5.62135541
_cell_length_b   5.62135574
_cell_length_c   13.45327417
_cell_angle_alpha   90.18413873
_cell_angle_beta   89.81586284
_cell_angle_gamma   136.87747749
_symmetry_Int_Tables_number   1
_chemical_formula_structural   Lu6Mn(Si2Ir)3
_chemical_formula_sum   'Lu6 Mn1 Si6 Ir3'
_cell_volume   290.59265056
_cell_formula_units_Z   1
loop_
 _symmetry_equiv_pos_site_id
 _symmetry_equiv_pos_as_xyz
  1  'x, y, z'
loop_
 _atom_site_type_symbol
 _atom_site_label
 _atom_site_symmetry_multiplicity
 _atom_site_fract_x
 _atom_site_fract_y
 _atom_site_fract_z
 _atom_site_occupancy
  Lu  Lu0  1  0.643045  0.356955  0.249082  1
  Lu  Lu1  1  0.357355  0.642645  0.749501  1
  Lu  Lu2  1  0.922535  0.077465  0.113396  1
  Lu  Lu3  1  0.074543  0.925457  0.885471  1
  Lu  Lu4  1  0.078348  0.921652  0.617057  1
  Lu  Lu5  1  0.923376  0.076624  0.384293  1
  Mn  Mn6  1  0.785265  0.214735  0.916623  1
  Si  Si7  1  0.336366  0.663634  0.249368  1
  Si  Si8  1  0.665383  0.334617  0.751599  1
  Si  Si9  1  0.609362  0.390638  0.037128  1
  Si  Si10  1  0.389505  0.610495  0.961645  1
  Si  Si11  1  0.392291  0.607709  0.537503  1
  Si  Si12  1  0.610162  0.389838  0.462692  1
  Ir  Ir13  1  0.790306  0.209694  0.585535  1
  Ir  Ir14  1  0.211477  0.788523  0.413793  1
  Ir  Ir15  1  0.210678  0.789322  0.085313  1
