# generated using pymatgen
data_U6Co20P13
_symmetry_space_group_name_H-M   'P 1'
_cell_length_a   12.61644900
_cell_length_b   12.61644909
_cell_length_c   3.65691100
_cell_angle_alpha   90.00000000
_cell_angle_beta   90.00000000
_cell_angle_gamma   119.99999925
_symmetry_Int_Tables_number   1
_chemical_formula_structural   U6Co20P13
_chemical_formula_sum   'U6 Co20 P13'
_cell_volume   504.10302303
_cell_formula_units_Z   1
loop_
 _symmetry_equiv_pos_site_id
 _symmetry_equiv_pos_as_xyz
  1  'x, y, z'
loop_
 _atom_site_type_symbol
 _atom_site_label
 _atom_site_symmetry_multiplicity
 _atom_site_fract_x
 _atom_site_fract_y
 _atom_site_fract_z
 _atom_site_occupancy
  U  U0  1  0.527143  0.718492  0.249082  1
  U  U1  1  0.281508  0.808652  0.249082  1
  U  U2  1  0.191348  0.472857  0.249082  1
  U  U3  1  0.472857  0.281508  0.750918  1
  U  U4  1  0.718492  0.191348  0.750918  1
  U  U5  1  0.808652  0.527143  0.750918  1
  Co  Co6  1  0.333333  0.666667  0.749649  1
  Co  Co7  1  0.925002  0.248201  0.254651  1
  Co  Co8  1  0.751799  0.676801  0.254651  1
  Co  Co9  1  0.323199  0.074998  0.254651  1
  Co  Co10  1  0.435458  0.019669  0.751454  1
  Co  Co11  1  0.980331  0.415790  0.751454  1
  Co  Co12  1  0.584210  0.564542  0.751454  1
  Co  Co13  1  0.666667  0.333333  0.250351  1
  Co  Co14  1  0.087779  0.185092  0.246034  1
  Co  Co15  1  0.814908  0.902687  0.246034  1
  Co  Co16  1  0.097313  0.912221  0.246034  1
  Co  Co17  1  0.019669  0.584210  0.248546  1
  Co  Co18  1  0.415790  0.435458  0.248546  1
  Co  Co19  1  0.564542  0.980331  0.248546  1
  Co  Co20  1  0.676801  0.925002  0.745349  1
  Co  Co21  1  0.074998  0.751799  0.745349  1
  Co  Co22  1  0.248201  0.323199  0.745349  1
  Co  Co23  1  0.912221  0.814908  0.753966  1
  Co  Co24  1  0.185092  0.097313  0.753966  1
  Co  Co25  1  0.902687  0.087779  0.753966  1
  P  P26  1  0.521314  0.132940  0.251168  1
  P  P27  1  0.867060  0.388374  0.251168  1
  P  P28  1  0.611626  0.478686  0.251168  1
  P  P29  1  0.949939  0.720549  0.251178  1
  P  P30  1  0.279451  0.229390  0.251178  1
  P  P31  1  0.770610  0.050061  0.251178  1
  P  P32  1  0.388374  0.521314  0.748832  1
  P  P33  1  0.478686  0.867060  0.748832  1
  P  P34  1  0.132940  0.611626  0.748832  1
  P  P35  1  0.720549  0.770610  0.748822  1
  P  P36  1  0.229390  0.949939  0.748822  1
  P  P37  1  0.050061  0.279451  0.748822  1
  P  P38  1  0.000000  0.000000  0.000000  1
