# generated using pymatgen
data_PrEuZn21Pt
_symmetry_space_group_name_H-M   'P 1'
_cell_length_a   8.32036527
_cell_length_b   8.31540527
_cell_length_c   8.32036500
_cell_angle_alpha   100.12301001
_cell_angle_beta   99.77572250
_cell_angle_gamma   130.91519810
_symmetry_Int_Tables_number   1
_chemical_formula_structural   PrEuZn21Pt
_chemical_formula_sum   'Pr1 Eu1 Zn21 Pt1'
_cell_volume   395.59367646
_cell_formula_units_Z   1
loop_
 _symmetry_equiv_pos_site_id
 _symmetry_equiv_pos_as_xyz
  1  'x, y, z'
loop_
 _atom_site_type_symbol
 _atom_site_label
 _atom_site_symmetry_multiplicity
 _atom_site_fract_x
 _atom_site_fract_y
 _atom_site_fract_z
 _atom_site_occupancy
  Pr  Pr0  1  0.751678  0.256457  0.504778  1
  Eu  Eu1  1  0.497889  0.493691  0.995802  1
  Zn  Zn2  1  0.846691  0.430784  0.173432  1
  Zn  Zn3  1  0.124696  0.874989  0.750293  1
  Zn  Zn4  1  0.324763  0.151663  0.583719  1
  Zn  Zn5  1  0.257352  0.430784  0.584092  1
  Zn  Zn6  1  0.327657  0.740999  0.172244  1
  Zn  Zn7  1  0.992397  0.319462  0.915676  1
  Zn  Zn8  1  0.261521  0.676569  0.828595  1
  Zn  Zn9  1  0.246533  0.742023  0.495490  1
  Zn  Zn10  1  0.988250  0.073235  0.670734  1
  Zn  Zn11  1  0.003867  0.008318  0.004452  1
  Zn  Zn12  1  0.680757  0.009379  0.086710  1
  Zn  Zn13  1  0.625464  0.875288  0.750147  1
  Zn  Zn14  1  0.403787  0.319462  0.327065  1
  Zn  Zn15  1  0.922669  0.009379  0.328623  1
  Zn  Zn16  1  0.847973  0.676569  0.415047  1
  Zn  Zn17  1  0.568756  0.740999  0.413342  1
  Zn  Zn18  1  0.681867  0.598116  0.672676  1
  Zn  Zn19  1  0.402501  0.073235  0.084986  1
  Zn  Zn20  1  0.925441  0.598116  0.916250  1
  Zn  Zn21  1  0.567944  0.151663  0.826899  1
  Zn  Zn22  1  0.125141  0.875288  0.249824  1
  Pt  Pt23  1  0.124404  0.373528  0.249124  1
