# generated using pymatgen
data_PaBr35
_symmetry_space_group_name_H-M   'P 1'
_cell_length_a   15.98197694
_cell_length_b   11.40028128
_cell_length_c   10.79188300
_cell_angle_alpha   88.81408278
_cell_angle_beta   66.02770512
_cell_angle_gamma   92.31545406
_symmetry_Int_Tables_number   1
_chemical_formula_structural   PaBr35
_chemical_formula_sum   'Pa1 Br35'
_cell_volume   1793.71352310
_cell_formula_units_Z   1
loop_
 _symmetry_equiv_pos_site_id
 _symmetry_equiv_pos_as_xyz
  1  'x, y, z'
loop_
 _atom_site_type_symbol
 _atom_site_label
 _atom_site_symmetry_multiplicity
 _atom_site_fract_x
 _atom_site_fract_y
 _atom_site_fract_z
 _atom_site_occupancy
  Pa  Pa0  1  0.233587  0.450880  0.454713  1
  Br  Br1  1  0.516946  0.257041  0.515448  1
  Br  Br2  1  0.766513  0.574780  0.550670  1
  Br  Br3  1  0.496621  0.681653  0.748237  1
  Br  Br4  1  0.044306  0.889177  0.877203  1
  Br  Br5  1  0.889216  0.159011  0.001590  1
  Br  Br6  1  0.654453  0.319238  0.286053  1
  Br  Br7  1  0.625666  0.350235  0.837647  1
  Br  Br8  1  0.359638  0.748965  0.707998  1
  Br  Br9  1  0.351141  0.589737  0.214911  1
  Br  Br10  1  0.640469  0.144778  0.809215  1
  Br  Br11  1  0.899155  0.534643  0.340309  1
  Br  Br12  1  0.046582  0.954846  0.652293  1
  Br  Br13  1  0.892975  0.102099  0.238266  1
  Br  Br14  1  0.884438  0.219230  0.783460  1
  Br  Br15  1  0.654317  0.046887  0.233593  1
  Br  Br16  1  0.018508  0.816757  0.121431  1
  Br  Br17  1  0.372206  0.968679  0.720065  1
  Br  Br18  1  0.892996  0.312089  0.301940  1
  Br  Br19  1  0.865629  0.929694  0.722338  1
  Br  Br20  1  0.889434  0.665604  0.797206  1
  Br  Br21  1  0.319491  0.026779  0.302432  1
  Br  Br22  1  0.346330  0.302507  0.271678  1
  Br  Br23  1  0.634208  0.613734  0.790456  1
  Br  Br24  1  0.112710  0.420764  0.342816  1
  Br  Br25  1  0.699111  0.908262  0.792732  1
  Br  Br26  1  0.870936  0.456205  0.798048  1
  Br  Br27  1  0.493499  0.036480  0.267429  1
  Br  Br28  1  0.148520  0.282479  0.645943  1
  Br  Br29  1  0.670977  0.770101  0.271796  1
  Br  Br30  1  0.845135  0.795438  0.199122  1
  Br  Br31  1  0.380896  0.195984  0.727723  1
  Br  Br32  1  0.357675  0.487993  0.561975  1
  Br  Br33  1  0.652705  0.541452  0.264232  1
  Br  Br34  1  0.146399  0.633831  0.591300  1
  Br  Br35  1  0.326613  0.811970  0.257735  1
