# generated using pymatgen
data_Er5Lu3ZnIn3
_symmetry_space_group_name_H-M   'P 1'
_cell_length_a   10.56606900
_cell_length_b   10.56606860
_cell_length_c   6.68461400
_cell_angle_alpha   90.00000000
_cell_angle_beta   90.00000000
_cell_angle_gamma   119.99999812
_symmetry_Int_Tables_number   1
_chemical_formula_structural   Er5Lu3ZnIn3
_chemical_formula_sum   'Er10 Lu6 Zn2 In6'
_cell_volume   646.29953374
_cell_formula_units_Z   2
loop_
 _symmetry_equiv_pos_site_id
 _symmetry_equiv_pos_as_xyz
  1  'x, y, z'
loop_
 _atom_site_type_symbol
 _atom_site_label
 _atom_site_symmetry_multiplicity
 _atom_site_fract_x
 _atom_site_fract_y
 _atom_site_fract_z
 _atom_site_occupancy
  Er  Er0  1  0.173263  0.346525  0.727640  1
  Er  Er1  1  0.653475  0.826737  0.727640  1
  Er  Er2  1  0.173263  0.826737  0.727640  1
  Er  Er3  1  0.826737  0.653475  0.227640  1
  Er  Er4  1  0.346525  0.173263  0.227640  1
  Er  Er5  1  0.826737  0.173263  0.227640  1
  Er  Er6  1  0.666667  0.333333  0.854443  1
  Er  Er7  1  0.333333  0.666667  0.354443  1
  Er  Er8  1  0.000000  0.000000  0.491748  1
  Er  Er9  1  0.000000  0.000000  0.991748  1
  Lu  Lu10  1  0.519160  0.038322  0.509377  1
  Lu  Lu11  1  0.961678  0.480840  0.509377  1
  Lu  Lu12  1  0.519160  0.480840  0.509377  1
  Lu  Lu13  1  0.480840  0.961678  0.009377  1
  Lu  Lu14  1  0.038322  0.519160  0.009377  1
  Lu  Lu15  1  0.480840  0.519160  0.009377  1
  Zn  Zn16  1  0.666667  0.333333  0.300817  1
  Zn  Zn17  1  0.333333  0.666667  0.800817  1
  In  In18  1  0.835231  0.670463  0.740322  1
  In  In19  1  0.329537  0.164769  0.740322  1
  In  In20  1  0.835231  0.164769  0.740322  1
  In  In21  1  0.164769  0.329537  0.240322  1
  In  In22  1  0.670463  0.835231  0.240322  1
  In  In23  1  0.164769  0.835231  0.240322  1
