# generated using pymatgen
data_La8CeNd(USe10)2
_symmetry_space_group_name_H-M   'P 1'
_cell_length_a   7.96124871
_cell_length_b   8.59901500
_cell_length_c   12.57186266
_cell_angle_alpha   90.00000000
_cell_angle_beta   89.92521774
_cell_angle_gamma   90.00000000
_symmetry_Int_Tables_number   1
_chemical_formula_structural   La8CeNd(USe10)2
_chemical_formula_sum   'La8 Ce1 Nd1 U2 Se20'
_cell_volume   860.65511840
_cell_formula_units_Z   1
loop_
 _symmetry_equiv_pos_site_id
 _symmetry_equiv_pos_as_xyz
  1  'x, y, z'
loop_
 _atom_site_type_symbol
 _atom_site_label
 _atom_site_symmetry_multiplicity
 _atom_site_fract_x
 _atom_site_fract_y
 _atom_site_fract_z
 _atom_site_occupancy
  La  La0  1  0.530043  0.501670  0.323706  1
  La  La1  1  0.969665  0.998211  0.823163  1
  La  La2  1  0.474647  0.999356  0.677065  1
  La  La3  1  0.027049  0.500331  0.176737  1
  La  La4  1  0.474647  0.500644  0.677065  1
  La  La5  1  0.027049  0.999669  0.176737  1
  La  La6  1  0.530043  0.998330  0.323706  1
  La  La7  1  0.969665  0.501789  0.823163  1
  Ce  Ce8  1  0.074252  0.750000  0.490849  1
  Nd  Nd9  1  0.423922  0.750000  0.991220  1
  U  U10  1  0.936052  0.250000  0.506928  1
  U  U11  1  0.559248  0.250000  0.006224  1
  Se  Se12  1  0.836156  0.963781  0.592681  1
  Se  Se13  1  0.666574  0.529388  0.094398  1
  Se  Se14  1  0.166729  0.453724  0.406675  1
  Se  Se15  1  0.333369  0.051935  0.906187  1
  Se  Se16  1  0.166729  0.046276  0.406675  1
  Se  Se17  1  0.333369  0.448065  0.906187  1
  Se  Se18  1  0.836156  0.536219  0.592681  1
  Se  Se19  1  0.666574  0.970612  0.094398  1
  Se  Se20  1  0.831330  0.750000  0.309964  1
  Se  Se21  1  0.670291  0.750000  0.808319  1
  Se  Se22  1  0.163559  0.250000  0.684866  1
  Se  Se23  1  0.336306  0.250000  0.184068  1
  Se  Se24  1  0.458506  0.750000  0.499496  1
  Se  Se25  1  0.038661  0.750000  0.998644  1
  Se  Se26  1  0.548947  0.250000  0.501875  1
  Se  Se27  1  0.950578  0.250000  0.000716  1
  Se  Se28  1  0.193502  0.750000  0.716817  1
  Se  Se29  1  0.305845  0.750000  0.219004  1
  Se  Se30  1  0.810860  0.250000  0.289996  1
  Se  Se31  1  0.689680  0.250000  0.789790  1
