# generated using pymatgen
data_LaNd2Th5(ZnRh)8
_symmetry_space_group_name_H-M   'P 1'
_cell_length_a   3.95421000
_cell_length_b   7.55927623
_cell_length_c   16.59511301
_cell_angle_alpha   90.64716562
_cell_angle_beta   90.00000000
_cell_angle_gamma   90.00000000
_symmetry_Int_Tables_number   1
_chemical_formula_structural   LaNd2Th5(ZnRh)8
_chemical_formula_sum   'La1 Nd2 Th5 Zn8 Rh8'
_cell_volume   496.01231045
_cell_formula_units_Z   1
loop_
 _symmetry_equiv_pos_site_id
 _symmetry_equiv_pos_as_xyz
  1  'x, y, z'
loop_
 _atom_site_type_symbol
 _atom_site_label
 _atom_site_symmetry_multiplicity
 _atom_site_fract_x
 _atom_site_fract_y
 _atom_site_fract_z
 _atom_site_occupancy
  La  La0  1  0.250000  0.054946  0.714690  1
  Nd  Nd1  1  0.750000  0.444086  0.214654  1
  Nd  Nd2  1  0.250000  0.554994  0.786165  1
  Th  Th3  1  0.250000  0.174303  0.939240  1
  Th  Th4  1  0.250000  0.673015  0.560963  1
  Th  Th5  1  0.750000  0.326339  0.438825  1
  Th  Th6  1  0.750000  0.944317  0.284377  1
  Th  Th7  1  0.750000  0.829791  0.060495  1
  Zn  Zn8  1  0.750000  0.006548  0.559238  1
  Zn  Zn9  1  0.250000  0.614402  0.344930  1
  Zn  Zn10  1  0.750000  0.384252  0.654288  1
  Zn  Zn11  1  0.250000  0.497391  0.062010  1
  Zn  Zn12  1  0.750000  0.506966  0.939067  1
  Zn  Zn13  1  0.250000  0.991607  0.441398  1
  Zn  Zn14  1  0.250000  0.122128  0.152162  1
  Zn  Zn15  1  0.750000  0.879880  0.846821  1
  Rh  Rh16  1  0.750000  0.739626  0.438040  1
  Rh  Rh17  1  0.250000  0.230133  0.319190  1
  Rh  Rh18  1  0.750000  0.247344  0.820267  1
  Rh  Rh19  1  0.750000  0.750551  0.678184  1
  Rh  Rh20  1  0.250000  0.261896  0.559098  1
  Rh  Rh21  1  0.250000  0.761631  0.185588  1
  Rh  Rh22  1  0.750000  0.243602  0.058751  1
  Rh  Rh23  1  0.250000  0.760253  0.941559  1
