# generated using pymatgen
data_Yb5Pr11(SmSn4)4
_symmetry_space_group_name_H-M   'P 1'
_cell_length_a   8.09404834
_cell_length_b   8.50490598
_cell_length_c   16.06625079
_cell_angle_alpha   90.05004742
_cell_angle_beta   89.87923759
_cell_angle_gamma   90.02809455
_symmetry_Int_Tables_number   1
_chemical_formula_structural   Yb5Pr11(SmSn4)4
_chemical_formula_sum   'Yb5 Pr11 Sm4 Sn16'
_cell_volume   1105.98355844
_cell_formula_units_Z   1
loop_
 _symmetry_equiv_pos_site_id
 _symmetry_equiv_pos_as_xyz
  1  'x, y, z'
loop_
 _atom_site_type_symbol
 _atom_site_label
 _atom_site_symmetry_multiplicity
 _atom_site_fract_x
 _atom_site_fract_y
 _atom_site_fract_z
 _atom_site_occupancy
  Yb  Yb0  1  0.669348  0.169444  0.123980  1
  Yb  Yb1  1  0.160140  0.497422  0.750589  1
  Yb  Yb2  1  0.660472  0.002664  0.750079  1
  Yb  Yb3  1  0.838830  0.500322  0.248912  1
  Yb  Yb4  1  0.339363  0.998768  0.248356  1
  Pr  Pr5  1  0.167211  0.326568  0.374719  1
  Pr  Pr6  1  0.333225  0.828183  0.625076  1
  Pr  Pr7  1  0.831973  0.672433  0.876106  1
  Pr  Pr8  1  0.491178  0.316137  0.904229  1
  Pr  Pr9  1  0.988760  0.183242  0.597180  1
  Pr  Pr10  1  0.510992  0.684968  0.402903  1
  Pr  Pr11  1  0.010028  0.815112  0.097183  1
  Pr  Pr12  1  0.510772  0.682975  0.096619  1
  Pr  Pr13  1  0.008492  0.816927  0.403253  1
  Pr  Pr14  1  0.489427  0.317719  0.596046  1
  Pr  Pr15  1  0.989732  0.183833  0.904036  1
  Sm  Sm16  1  0.331356  0.830009  0.875616  1
  Sm  Sm17  1  0.832161  0.671298  0.625421  1
  Sm  Sm18  1  0.667169  0.172129  0.374431  1
  Sm  Sm19  1  0.168512  0.328837  0.125297  1
  Sn  Sn20  1  0.326773  0.037575  0.038345  1
  Sn  Sn21  1  0.824205  0.462589  0.462396  1
  Sn  Sn22  1  0.676413  0.962895  0.537056  1
  Sn  Sn23  1  0.175229  0.536995  0.962700  1
  Sn  Sn24  1  0.667838  0.964678  0.962080  1
  Sn  Sn25  1  0.169173  0.537565  0.537908  1
  Sn  Sn26  1  0.329151  0.036690  0.460941  1
  Sn  Sn27  1  0.830994  0.461835  0.040300  1
  Sn  Sn28  1  0.527842  0.605722  0.750486  1
  Sn  Sn29  1  0.028216  0.894849  0.750660  1
  Sn  Sn30  1  0.472849  0.394636  0.248262  1
  Sn  Sn31  1  0.969231  0.106234  0.248948  1
  Sn  Sn32  1  0.290654  0.141405  0.750504  1
  Sn  Sn33  1  0.791086  0.358835  0.749971  1
  Sn  Sn34  1  0.710175  0.859415  0.249672  1
  Sn  Sn35  1  0.211031  0.639096  0.249739  1
