# generated using pymatgen
data_Ho7Er3(CoRu)2
_symmetry_space_group_name_H-M   'P 1'
_cell_length_a   6.26708903
_cell_length_b   7.10287905
_cell_length_c   8.45180720
_cell_angle_alpha   96.58979360
_cell_angle_beta   111.56574094
_cell_angle_gamma   90.04332869
_symmetry_Int_Tables_number   1
_chemical_formula_structural   Ho7Er3(CoRu)2
_chemical_formula_sum   'Ho7 Er3 Co2 Ru2'
_cell_volume   347.20243270
_cell_formula_units_Z   1
loop_
 _symmetry_equiv_pos_site_id
 _symmetry_equiv_pos_as_xyz
  1  'x, y, z'
loop_
 _atom_site_type_symbol
 _atom_site_label
 _atom_site_symmetry_multiplicity
 _atom_site_fract_x
 _atom_site_fract_y
 _atom_site_fract_z
 _atom_site_occupancy
  Ho  Ho0  1  0.789331  0.588971  0.811085  1
  Ho  Ho1  1  0.978214  0.911735  0.189820  1
  Ho  Ho2  1  0.198130  0.416866  0.185609  1
  Ho  Ho3  1  0.012427  0.083048  0.814188  1
  Ho  Ho4  1  0.215118  0.689711  0.567323  1
  Ho  Ho5  1  0.647976  0.811581  0.432321  1
  Ho  Ho6  1  0.792703  0.317563  0.433599  1
  Er  Er7  1  0.359216  0.182431  0.566993  1
  Er  Er8  1  0.427605  0.749904  0.999476  1
  Er  Er9  1  0.577424  0.248569  0.999343  1
  Co  Co10  1  0.602535  0.923469  0.777444  1
  Co  Co11  1  0.825224  0.576613  0.222690  1
  Ru  Ru12  1  0.396508  0.072455  0.220119  1
  Ru  Ru13  1  0.177589  0.427084  0.779991  1
