# generated using pymatgen
data_Li3Ac2PrGe3
_symmetry_space_group_name_H-M   'P 1'
_cell_length_a   7.65272600
_cell_length_b   7.57327928
_cell_length_c   4.52957100
_cell_angle_alpha   90.00000000
_cell_angle_beta   90.00000000
_cell_angle_gamma   120.34763058
_symmetry_Int_Tables_number   1
_chemical_formula_structural   Li3Ac2PrGe3
_chemical_formula_sum   'Li3 Ac2 Pr1 Ge3'
_cell_volume   226.54570985
_cell_formula_units_Z   1
loop_
 _symmetry_equiv_pos_site_id
 _symmetry_equiv_pos_as_xyz
  1  'x, y, z'
loop_
 _atom_site_type_symbol
 _atom_site_label
 _atom_site_symmetry_multiplicity
 _atom_site_fract_x
 _atom_site_fract_y
 _atom_site_fract_z
 _atom_site_occupancy
  Li  Li0  1  0.767790  0.773385  0.500000  1
  Li  Li1  1  0.234261  0.000000  0.500000  1
  Li  Li2  1  0.994405  0.226615  0.500000  1
  Ac  Ac3  1  0.001952  0.583308  0.000000  1
  Ac  Ac4  1  0.418645  0.416692  0.000000  1
  Pr  Pr5  1  0.588839  0.000000  0.000000  1
  Ge  Ge6  1  0.343331  0.681295  0.500000  1
  Ge  Ge7  1  0.662037  0.318705  0.500000  1
  Ge  Ge8  1  0.988740  0.000000  0.000000  1
