# generated using pymatgen
data_Nd4SnB4Ir9
_symmetry_space_group_name_H-M   'P 1'
_cell_length_a   11.04456754
_cell_length_b   11.04456770
_cell_length_c   11.04456769
_cell_angle_alpha   29.49211105
_cell_angle_beta   29.49210835
_cell_angle_gamma   29.49211808
_symmetry_Int_Tables_number   1
_chemical_formula_structural   Nd4SnB4Ir9
_chemical_formula_sum   'Nd4 Sn1 B4 Ir9'
_cell_volume   289.01133461
_cell_formula_units_Z   1
loop_
 _symmetry_equiv_pos_site_id
 _symmetry_equiv_pos_as_xyz
  1  'x, y, z'
loop_
 _atom_site_type_symbol
 _atom_site_label
 _atom_site_symmetry_multiplicity
 _atom_site_fract_x
 _atom_site_fract_y
 _atom_site_fract_z
 _atom_site_occupancy
  Nd  Nd0  1  0.147654  0.147654  0.147654  1
  Nd  Nd1  1  0.951202  0.951202  0.951202  1
  Nd  Nd2  1  0.852346  0.852346  0.852346  1
  Nd  Nd3  1  0.048798  0.048798  0.048798  1
  Sn  Sn4  1  0.500000  0.500000  0.500000  1
  B  B5  1  0.616859  0.616859  0.616859  1
  B  B6  1  0.716539  0.716539  0.716539  1
  B  B7  1  0.383141  0.383141  0.383141  1
  B  B8  1  0.283461  0.283461  0.283461  1
  Ir  Ir9  1  0.404796  0.906750  0.404796  1
  Ir  Ir10  1  0.906750  0.404796  0.404796  1
  Ir  Ir11  1  0.500000  0.500000  0.000000  1
  Ir  Ir12  1  0.500000  0.000000  0.500000  1
  Ir  Ir13  1  0.000000  0.500000  0.500000  1
  Ir  Ir14  1  0.595204  0.093250  0.595204  1
  Ir  Ir15  1  0.595204  0.595204  0.093250  1
  Ir  Ir16  1  0.093250  0.595204  0.595204  1
  Ir  Ir17  1  0.404796  0.404796  0.906750  1
