# generated using pymatgen
data_Ho16MgIn3Ni4
_symmetry_space_group_name_H-M   'P 1'
_cell_length_a   9.53443374
_cell_length_b   9.52952270
_cell_length_c   9.52952300
_cell_angle_alpha   60.00000242
_cell_angle_beta   60.01703984
_cell_angle_gamma   60.01704280
_symmetry_Int_Tables_number   1
_chemical_formula_structural   Ho16MgIn3Ni4
_chemical_formula_sum   'Ho16 Mg1 In3 Ni4'
_cell_volume   612.39839505
_cell_formula_units_Z   1
loop_
 _symmetry_equiv_pos_site_id
 _symmetry_equiv_pos_as_xyz
  1  'x, y, z'
loop_
 _atom_site_type_symbol
 _atom_site_label
 _atom_site_symmetry_multiplicity
 _atom_site_fract_x
 _atom_site_fract_y
 _atom_site_fract_z
 _atom_site_occupancy
  Ho  Ho0  1  0.347890  0.346387  0.346387  1
  Ho  Ho1  1  0.347890  0.346387  0.959335  1
  Ho  Ho2  1  0.347890  0.959335  0.346387  1
  Ho  Ho3  1  0.955745  0.348085  0.348085  1
  Ho  Ho4  1  0.810553  0.188909  0.188909  1
  Ho  Ho5  1  0.186249  0.813247  0.813247  1
  Ho  Ho6  1  0.186249  0.813247  0.187256  1
  Ho  Ho7  1  0.810553  0.188909  0.811628  1
  Ho  Ho8  1  0.186249  0.187256  0.813247  1
  Ho  Ho9  1  0.810553  0.811628  0.188909  1
  Ho  Ho10  1  0.935657  0.564410  0.564409  1
  Ho  Ho11  1  0.564190  0.936497  0.936496  1
  Ho  Ho12  1  0.564191  0.936497  0.562816  1
  Ho  Ho13  1  0.935657  0.564410  0.935524  1
  Ho  Ho14  1  0.564190  0.562817  0.936496  1
  Ho  Ho15  1  0.935657  0.935525  0.564409  1
  Mg  Mg16  1  0.266666  0.577778  0.577778  1
  In  In17  1  0.581623  0.582800  0.582800  1
  In  In18  1  0.581623  0.582800  0.252778  1
  In  In19  1  0.581623  0.252778  0.582800  1
  Ni  Ni20  1  0.141711  0.142059  0.142059  1
  Ni  Ni21  1  0.141711  0.142059  0.574170  1
  Ni  Ni22  1  0.141711  0.574170  0.142059  1
  Ni  Ni23  1  0.573965  0.142011  0.142011  1
