# generated using pymatgen
data_Pr2PaRu3
_symmetry_space_group_name_H-M   'P 1'
_cell_length_a   5.34828089
_cell_length_b   5.34828052
_cell_length_c   5.34827927
_cell_angle_alpha   68.29965567
_cell_angle_beta   68.29965939
_cell_angle_gamma   68.29964738
_symmetry_Int_Tables_number   1
_chemical_formula_structural   Pr2PaRu3
_chemical_formula_sum   'Pr2 Pa1 Ru3'
_cell_volume   127.16467751
_cell_formula_units_Z   1
loop_
 _symmetry_equiv_pos_site_id
 _symmetry_equiv_pos_as_xyz
  1  'x, y, z'
loop_
 _atom_site_type_symbol
 _atom_site_label
 _atom_site_symmetry_multiplicity
 _atom_site_fract_x
 _atom_site_fract_y
 _atom_site_fract_z
 _atom_site_occupancy
  Pr  Pr0  1  0.750107  0.750107  0.750107  1
  Pr  Pr1  1  0.499893  0.499893  0.499893  1
  Pa  Pa2  1  0.125000  0.125000  0.125000  1
  Ru  Ru3  1  0.125000  0.125000  0.625000  1
  Ru  Ru4  1  0.125000  0.625000  0.125000  1
  Ru  Ru5  1  0.625000  0.125000  0.125000  1
