# generated using pymatgen
data_ZrSc8Re4As
_symmetry_space_group_name_H-M   'P 1'
_cell_length_a   8.58866801
_cell_length_b   8.73149916
_cell_length_c   8.70563200
_cell_angle_alpha   119.90553890
_cell_angle_beta   90.00210139
_cell_angle_gamma   90.08139684
_symmetry_Int_Tables_number   1
_chemical_formula_structural   ZrSc8Re4As
_chemical_formula_sum   'Zr2 Sc16 Re8 As2'
_cell_volume   565.92329068
_cell_formula_units_Z   2
loop_
 _symmetry_equiv_pos_site_id
 _symmetry_equiv_pos_as_xyz
  1  'x, y, z'
loop_
 _atom_site_type_symbol
 _atom_site_label
 _atom_site_symmetry_multiplicity
 _atom_site_fract_x
 _atom_site_fract_y
 _atom_site_fract_z
 _atom_site_occupancy
  Zr  Zr0  1  0.544659  0.805463  0.611039  1
  Zr  Zr1  1  0.544647  0.805472  0.194440  1
  Sc  Sc2  1  0.548221  0.391626  0.195820  1
  Sc  Sc3  1  0.451202  0.195994  0.387819  1
  Sc  Sc4  1  0.451213  0.195986  0.808183  1
  Sc  Sc5  1  0.451405  0.610536  0.805267  1
  Sc  Sc6  1  0.048828  0.193330  0.387015  1
  Sc  Sc7  1  0.048822  0.193328  0.806313  1
  Sc  Sc8  1  0.048819  0.610473  0.805233  1
  Sc  Sc9  1  0.952051  0.805619  0.611731  1
  Sc  Sc10  1  0.952059  0.805625  0.193883  1
  Sc  Sc11  1  0.952920  0.388980  0.194495  1
  Sc  Sc12  1  0.750390  0.462373  0.923971  1
  Sc  Sc13  1  0.750396  0.462374  0.538409  1
  Sc  Sc14  1  0.749635  0.075247  0.537625  1
  Sc  Sc15  1  0.251213  0.539280  0.078804  1
  Sc  Sc16  1  0.251213  0.539287  0.460482  1
  Sc  Sc17  1  0.252054  0.922317  0.461167  1
  Re  Re18  1  0.749410  0.107090  0.214196  1
  Re  Re19  1  0.749401  0.107107  0.892883  1
  Re  Re20  1  0.748986  0.783601  0.891800  1
  Re  Re21  1  0.250679  0.891774  0.784792  1
  Re  Re22  1  0.250663  0.891780  0.106954  1
  Re  Re23  1  0.249572  0.214175  0.107087  1
  Re  Re24  1  0.499255  0.003417  0.001709  1
  Re  Re25  1  0.000049  0.998799  0.999412  1
  As  As26  1  0.752446  0.666478  0.333228  1
  As  As27  1  0.249791  0.332473  0.666246  1
