# generated using pymatgen
data_Ga(IBr2)3
_symmetry_space_group_name_H-M   'P 1'
_cell_length_a   15.14366333
_cell_length_b   15.14366308
_cell_length_c   15.51980905
_cell_angle_alpha   73.24523676
_cell_angle_beta   73.24523715
_cell_angle_gamma   31.72948573
_symmetry_Int_Tables_number   1
_chemical_formula_structural   Ga(IBr2)3
_chemical_formula_sum   'Ga4 I12 Br24'
_cell_volume   1785.76413643
_cell_formula_units_Z   4
loop_
 _symmetry_equiv_pos_site_id
 _symmetry_equiv_pos_as_xyz
  1  'x, y, z'
loop_
 _atom_site_type_symbol
 _atom_site_label
 _atom_site_symmetry_multiplicity
 _atom_site_fract_x
 _atom_site_fract_y
 _atom_site_fract_z
 _atom_site_occupancy
  Ga  Ga0  1  0.429977  0.308727  0.458308  1
  Ga  Ga1  1  0.691273  0.570023  0.041692  1
  Ga  Ga2  1  0.308727  0.429977  0.958308  1
  Ga  Ga3  1  0.570023  0.691273  0.541692  1
  I  I4  1  0.212770  0.710316  0.108864  1
  I  I5  1  0.067715  0.169129  0.780872  1
  I  I6  1  0.169129  0.067715  0.280872  1
  I  I7  1  0.830871  0.932285  0.719128  1
  I  I8  1  0.787230  0.289684  0.891136  1
  I  I9  1  0.289684  0.787230  0.391136  1
  I  I10  1  0.932285  0.830871  0.219128  1
  I  I11  1  0.941389  0.655764  0.822131  1
  I  I12  1  0.344236  0.058611  0.677869  1
  I  I13  1  0.710316  0.212770  0.608864  1
  I  I14  1  0.655764  0.941389  0.322131  1
  I  I15  1  0.058611  0.344236  0.177869  1
  Br  Br16  1  0.004921  0.663446  0.985382  1
  Br  Br17  1  0.607703  0.611268  0.905338  1
  Br  Br18  1  0.392297  0.388732  0.094662  1
  Br  Br19  1  0.619630  0.889815  0.201709  1
  Br  Br20  1  0.336554  0.995079  0.514618  1
  Br  Br21  1  0.903452  0.033795  0.890293  1
  Br  Br22  1  0.889815  0.619630  0.701709  1
  Br  Br23  1  0.611268  0.607703  0.405338  1
  Br  Br24  1  0.562589  0.815621  0.049961  1
  Br  Br25  1  0.184379  0.437411  0.450039  1
  Br  Br26  1  0.096548  0.966205  0.109707  1
  Br  Br27  1  0.995079  0.336554  0.014618  1
  Br  Br28  1  0.437411  0.184379  0.950039  1
  Br  Br29  1  0.033795  0.903452  0.390293  1
  Br  Br30  1  0.486653  0.638600  0.666277  1
  Br  Br31  1  0.380370  0.110185  0.798291  1
  Br  Br32  1  0.663446  0.004921  0.485382  1
  Br  Br33  1  0.638600  0.486653  0.166277  1
  Br  Br34  1  0.815621  0.562589  0.549961  1
  Br  Br35  1  0.110185  0.380370  0.298291  1
  Br  Br36  1  0.513347  0.361400  0.333723  1
  Br  Br37  1  0.388732  0.392297  0.594662  1
  Br  Br38  1  0.966205  0.096548  0.609707  1
  Br  Br39  1  0.361400  0.513347  0.833723  1
