# generated using pymatgen
data_K3Tl(InBr4)4
_symmetry_space_group_name_H-M   'P 1'
_cell_length_a   8.06929200
_cell_length_b   10.90794148
_cell_length_c   11.04686800
_cell_angle_alpha   91.94918354
_cell_angle_beta   90.00000000
_cell_angle_gamma   90.00000000
_symmetry_Int_Tables_number   1
_chemical_formula_structural   K3Tl(InBr4)4
_chemical_formula_sum   'K3 Tl1 In4 Br16'
_cell_volume   971.77569785
_cell_formula_units_Z   1
loop_
 _symmetry_equiv_pos_site_id
 _symmetry_equiv_pos_as_xyz
  1  'x, y, z'
loop_
 _atom_site_type_symbol
 _atom_site_label
 _atom_site_symmetry_multiplicity
 _atom_site_fract_x
 _atom_site_fract_y
 _atom_site_fract_z
 _atom_site_occupancy
  K  K0  1  0.677979  0.250000  0.750000  1
  K  K1  1  0.825373  0.750000  0.750000  1
  K  K2  1  0.322772  0.750000  0.250000  1
  Tl  Tl3  1  0.173989  0.250000  0.250000  1
  In  In4  1  0.249897  0.999730  0.678209  1
  In  In5  1  0.249897  0.500270  0.821791  1
  In  In6  1  0.749924  0.996735  0.324510  1
  In  In7  1  0.749924  0.503265  0.175490  1
  Br  Br8  1  0.502210  0.961795  0.812262  1
  Br  Br9  1  0.502210  0.538205  0.687738  1
  Br  Br10  1  0.995805  0.459985  0.687180  1
  Br  Br11  1  0.995805  0.040015  0.812820  1
  Br  Br12  1  0.498265  0.034960  0.189605  1
  Br  Br13  1  0.498265  0.465040  0.310395  1
  Br  Br14  1  0.006319  0.542723  0.308297  1
  Br  Br15  1  0.006319  0.957277  0.191703  1
  Br  Br16  1  0.335968  0.181560  0.553424  1
  Br  Br17  1  0.335968  0.318440  0.946576  1
  Br  Br18  1  0.161442  0.686818  0.951228  1
  Br  Br19  1  0.161442  0.813182  0.548772  1
  Br  Br20  1  0.659627  0.816753  0.449670  1
  Br  Br21  1  0.659627  0.683247  0.050330  1
  Br  Br22  1  0.840490  0.314554  0.049776  1
  Br  Br23  1  0.840490  0.185446  0.450224  1
