# generated using pymatgen
data_CaSm3Ho4(B6Os)4
_symmetry_space_group_name_H-M   'P 1'
_cell_length_a   3.67152000
_cell_length_b   9.19265457
_cell_length_c   11.60633151
_cell_angle_alpha   89.89898323
_cell_angle_beta   90.00000000
_cell_angle_gamma   90.00000000
_symmetry_Int_Tables_number   1
_chemical_formula_structural   CaSm3Ho4(B6Os)4
_chemical_formula_sum   'Ca1 Sm3 Ho4 B24 Os4'
_cell_volume   391.72486137
_cell_formula_units_Z   1
loop_
 _symmetry_equiv_pos_site_id
 _symmetry_equiv_pos_as_xyz
  1  'x, y, z'
loop_
 _atom_site_type_symbol
 _atom_site_label
 _atom_site_symmetry_multiplicity
 _atom_site_fract_x
 _atom_site_fract_y
 _atom_site_fract_z
 _atom_site_occupancy
  Ca  Ca0  1  0.000000  0.322428  0.413948  1
  Sm  Sm1  1  0.000000  0.675956  0.585022  1
  Sm  Sm2  1  0.000000  0.822626  0.086664  1
  Sm  Sm3  1  0.000000  0.177941  0.914425  1
  Ho  Ho4  1  0.000000  0.944526  0.371700  1
  Ho  Ho5  1  0.000000  0.057680  0.627372  1
  Ho  Ho6  1  0.000000  0.443337  0.129282  1
  Ho  Ho7  1  0.000000  0.555698  0.872030  1
  B  B8  1  0.500000  0.554162  0.431330  1
  B  B9  1  0.500000  0.444756  0.568039  1
  B  B10  1  0.500000  0.054782  0.068481  1
  B  B11  1  0.500000  0.944771  0.931154  1
  B  B12  1  0.500000  0.748501  0.417706  1
  B  B13  1  0.500000  0.251742  0.581463  1
  B  B14  1  0.500000  0.248553  0.082373  1
  B  B15  1  0.500000  0.750912  0.918050  1
  B  B16  1  0.500000  0.790922  0.266802  1
  B  B17  1  0.500000  0.209901  0.733161  1
  B  B18  1  0.500000  0.290560  0.233906  1
  B  B19  1  0.500000  0.709488  0.766728  1
  B  B20  1  0.500000  0.631066  0.186393  1
  B  B21  1  0.500000  0.368921  0.814479  1
  B  B22  1  0.500000  0.131630  0.314362  1
  B  B23  1  0.500000  0.869051  0.685420  1
  B  B24  1  0.500000  0.985077  0.213180  1
  B  B25  1  0.500000  0.015379  0.786265  1
  B  B26  1  0.500000  0.483994  0.287256  1
  B  B27  1  0.500000  0.514914  0.713201  1
  B  B28  1  0.500000  0.604410  0.028846  1
  B  B29  1  0.500000  0.395654  0.971610  1
  B  B30  1  0.500000  0.103576  0.471410  1
  B  B31  1  0.500000  0.896786  0.528366  1
  Os  Os32  1  0.000000  0.639522  0.319926  1
  Os  Os33  1  0.000000  0.361273  0.680513  1
  Os  Os34  1  0.000000  0.138053  0.178957  1
  Os  Os35  1  0.000000  0.861455  0.820183  1
