# generated using pymatgen
data_TbY3(VB4)4
_symmetry_space_group_name_H-M   'P 1'
_cell_length_a   3.45275700
_cell_length_b   6.01205101
_cell_length_c   11.64479902
_cell_angle_alpha   89.99272339
_cell_angle_beta   90.00000000
_cell_angle_gamma   90.00000000
_symmetry_Int_Tables_number   1
_chemical_formula_structural   TbY3(VB4)4
_chemical_formula_sum   'Tb1 Y3 V4 B16'
_cell_volume   241.72449707
_cell_formula_units_Z   1
loop_
 _symmetry_equiv_pos_site_id
 _symmetry_equiv_pos_as_xyz
  1  'x, y, z'
loop_
 _atom_site_type_symbol
 _atom_site_label
 _atom_site_symmetry_multiplicity
 _atom_site_fract_x
 _atom_site_fract_y
 _atom_site_fract_z
 _atom_site_occupancy
  Tb  Tb0  1  0.000000  0.375885  0.651655  1
  Y  Y1  1  0.000000  0.123963  0.151645  1
  Y  Y2  1  0.000000  0.876054  0.848372  1
  Y  Y3  1  0.000000  0.623940  0.348306  1
  V  V4  1  0.000000  0.126602  0.417337  1
  V  V5  1  0.000000  0.873329  0.582530  1
  V  V6  1  0.000000  0.626737  0.082670  1
  V  V7  1  0.000000  0.373391  0.917521  1
  B  B8  1  0.500000  0.476923  0.192068  1
  B  B9  1  0.500000  0.523304  0.808204  1
  B  B10  1  0.500000  0.976851  0.307860  1
  B  B11  1  0.500000  0.023013  0.691979  1
  B  B12  1  0.500000  0.285661  0.314408  1
  B  B13  1  0.500000  0.714735  0.685521  1
  B  B14  1  0.500000  0.785664  0.185540  1
  B  B15  1  0.500000  0.214377  0.814638  1
  B  B16  1  0.500000  0.363807  0.467163  1
  B  B17  1  0.500000  0.636033  0.532548  1
  B  B18  1  0.500000  0.864037  0.032741  1
  B  B19  1  0.500000  0.135916  0.967443  1
  B  B20  1  0.500000  0.385472  0.047478  1
  B  B21  1  0.500000  0.614690  0.952725  1
  B  B22  1  0.500000  0.885323  0.452460  1
  B  B23  1  0.500000  0.114292  0.547187  1
