# generated using pymatgen
data_Tm12Si12Ir3Pt
_symmetry_space_group_name_H-M   'P 1'
_cell_length_a   4.18969000
_cell_length_b   10.57312449
_cell_length_c   12.19816700
_cell_angle_alpha   90.01751421
_cell_angle_beta   90.00000000
_cell_angle_gamma   90.00000000
_symmetry_Int_Tables_number   1
_chemical_formula_structural   Tm12Si12Ir3Pt
_chemical_formula_sum   'Tm12 Si12 Ir3 Pt1'
_cell_volume   540.35576664
_cell_formula_units_Z   1
loop_
 _symmetry_equiv_pos_site_id
 _symmetry_equiv_pos_as_xyz
  1  'x, y, z'
loop_
 _atom_site_type_symbol
 _atom_site_label
 _atom_site_symmetry_multiplicity
 _atom_site_fract_x
 _atom_site_fract_y
 _atom_site_fract_z
 _atom_site_occupancy
  Tm  Tm0  1  0.250000  0.879026  0.021045  1
  Tm  Tm1  1  0.250000  0.620738  0.519931  1
  Tm  Tm2  1  0.750000  0.121864  0.980685  1
  Tm  Tm3  1  0.750000  0.379915  0.479339  1
  Tm  Tm4  1  0.250000  0.919815  0.602961  1
  Tm  Tm5  1  0.250000  0.580177  0.103904  1
  Tm  Tm6  1  0.750000  0.079855  0.396907  1
  Tm  Tm7  1  0.750000  0.420380  0.896958  1
  Tm  Tm8  1  0.250000  0.659513  0.800354  1
  Tm  Tm9  1  0.250000  0.840240  0.300672  1
  Tm  Tm10  1  0.750000  0.341081  0.199088  1
  Tm  Tm11  1  0.750000  0.161468  0.698082  1
  Si  Si12  1  0.250000  0.017341  0.823267  1
  Si  Si13  1  0.250000  0.487173  0.322047  1
  Si  Si14  1  0.750000  0.987064  0.177006  1
  Si  Si15  1  0.750000  0.511428  0.678395  1
  Si  Si16  1  0.250000  0.248027  0.840670  1
  Si  Si17  1  0.250000  0.252937  0.340951  1
  Si  Si18  1  0.750000  0.752512  0.159690  1
  Si  Si19  1  0.750000  0.744858  0.655772  1
  Si  Si20  1  0.250000  0.198790  0.542569  1
  Si  Si21  1  0.250000  0.301501  0.043649  1
  Si  Si22  1  0.750000  0.802087  0.455977  1
  Si  Si23  1  0.750000  0.692873  0.959302  1
  Ir  Ir24  1  0.250000  0.389722  0.680127  1
  Ir  Ir25  1  0.250000  0.109944  0.180991  1
  Ir  Ir26  1  0.750000  0.609753  0.320608  1
  Pt  Pt27  1  0.750000  0.889922  0.819052  1
