# generated using pymatgen
data_Ce10NiPb6S
_symmetry_space_group_name_H-M   'P 1'
_cell_length_a   9.53454300
_cell_length_b   9.53454423
_cell_length_c   6.62833400
_cell_angle_alpha   90.00000000
_cell_angle_beta   90.00000000
_cell_angle_gamma   120.00000616
_symmetry_Int_Tables_number   1
_chemical_formula_structural   Ce10NiPb6S
_chemical_formula_sum   'Ce10 Ni1 Pb6 S1'
_cell_volume   521.83692727
_cell_formula_units_Z   1
loop_
 _symmetry_equiv_pos_site_id
 _symmetry_equiv_pos_as_xyz
  1  'x, y, z'
loop_
 _atom_site_type_symbol
 _atom_site_label
 _atom_site_symmetry_multiplicity
 _atom_site_fract_x
 _atom_site_fract_y
 _atom_site_fract_z
 _atom_site_occupancy
  Ce  Ce0  1  0.243216  0.243216  0.747981  1
  Ce  Ce1  1  0.756784  0.756784  0.252019  1
  Ce  Ce2  1  0.243216  0.000000  0.252019  1
  Ce  Ce3  1  0.756784  0.000000  0.747981  1
  Ce  Ce4  1  0.333333  0.666667  0.500000  1
  Ce  Ce5  1  0.666667  0.333333  0.500000  1
  Ce  Ce6  1  0.000000  0.243216  0.252019  1
  Ce  Ce7  1  0.000000  0.756784  0.747981  1
  Ce  Ce8  1  0.333333  0.666667  0.000000  1
  Ce  Ce9  1  0.666667  0.333333  0.000000  1
  Ni  Ni10  1  0.000000  0.000000  0.500000  1
  Pb  Pb11  1  0.392871  0.392871  0.249686  1
  Pb  Pb12  1  0.607129  0.607129  0.750314  1
  Pb  Pb13  1  0.000000  0.392871  0.750314  1
  Pb  Pb14  1  0.607129  0.000000  0.249686  1
  Pb  Pb15  1  0.392871  0.000000  0.750314  1
  Pb  Pb16  1  0.000000  0.607129  0.249686  1
  S  S17  1  0.000000  0.000000  0.000000  1
