# generated using pymatgen
data_Dy3Y(GaRh)4
_symmetry_space_group_name_H-M   'P 1'
_cell_length_a   4.28785500
_cell_length_b   6.85761832
_cell_length_c   7.81738418
_cell_angle_alpha   90.39796340
_cell_angle_beta   90.00000000
_cell_angle_gamma   90.00000000
_symmetry_Int_Tables_number   1
_chemical_formula_structural   Dy3Y(GaRh)4
_chemical_formula_sum   'Dy3 Y1 Ga4 Rh4'
_cell_volume   229.86051734
_cell_formula_units_Z   1
loop_
 _symmetry_equiv_pos_site_id
 _symmetry_equiv_pos_as_xyz
  1  'x, y, z'
loop_
 _atom_site_type_symbol
 _atom_site_label
 _atom_site_symmetry_multiplicity
 _atom_site_fract_x
 _atom_site_fract_y
 _atom_site_fract_z
 _atom_site_occupancy
  Dy  Dy0  1  0.250000  0.971684  0.310811  1
  Dy  Dy1  1  0.250000  0.471940  0.189262  1
  Dy  Dy2  1  0.750000  0.027776  0.689249  1
  Y  Y3  1  0.750000  0.527758  0.809789  1
  Ga  Ga4  1  0.250000  0.345795  0.570724  1
  Ga  Ga5  1  0.250000  0.844659  0.929391  1
  Ga  Ga6  1  0.750000  0.654787  0.429196  1
  Ga  Ga7  1  0.750000  0.154786  0.070497  1
  Rh  Rh8  1  0.250000  0.231802  0.892265  1
  Rh  Rh9  1  0.250000  0.735827  0.607043  1
  Rh  Rh10  1  0.750000  0.767095  0.109844  1
  Rh  Rh11  1  0.750000  0.266093  0.391929  1
