# generated using pymatgen
data_Y4B16IrRu15
_symmetry_space_group_name_H-M   'P 1'
_cell_length_a   7.49324652
_cell_length_b   7.49795279
_cell_length_c   9.20923778
_cell_angle_alpha   114.10654934
_cell_angle_beta   114.01879513
_cell_angle_gamma   89.86901169
_symmetry_Int_Tables_number   1
_chemical_formula_structural   Y4B16IrRu15
_chemical_formula_sum   'Y4 B16 Ir1 Ru15'
_cell_volume   422.96875916
_cell_formula_units_Z   1
loop_
 _symmetry_equiv_pos_site_id
 _symmetry_equiv_pos_as_xyz
  1  'x, y, z'
loop_
 _atom_site_type_symbol
 _atom_site_label
 _atom_site_symmetry_multiplicity
 _atom_site_fract_x
 _atom_site_fract_y
 _atom_site_fract_z
 _atom_site_occupancy
  Y  Y0  1  0.500538  0.000638  0.000123  1
  Y  Y1  1  0.999538  0.500790  0.998783  1
  Y  Y2  1  0.250376  0.251175  0.501251  1
  Y  Y3  1  0.749820  0.748790  0.498631  1
  B  B4  1  0.253171  0.220795  0.162553  1
  B  B5  1  0.747988  0.440673  0.163408  1
  B  B6  1  0.414015  0.723230  0.163674  1
  B  B7  1  0.913633  0.938578  0.163790  1
  B  B8  1  0.835341  0.025662  0.337737  1
  B  B9  1  0.501047  0.309690  0.337465  1
  B  B10  1  0.999917  0.528957  0.337501  1
  B  B11  1  0.337003  0.808104  0.337023  1
  B  B12  1  0.691213  0.164789  0.663726  1
  B  B13  1  0.972578  0.498933  0.662441  1
  B  B14  1  0.471750  0.663582  0.663232  1
  B  B15  1  0.191507  0.000095  0.664256  1
  B  B16  1  0.776862  0.083613  0.833777  1
  B  B17  1  0.276965  0.250922  0.836908  1
  B  B18  1  0.558546  0.586209  0.836356  1
  B  B19  1  0.058157  0.750020  0.835689  1
  Ir  Ir20  1  0.948169  0.212344  0.124688  1
  Ru  Ru21  1  0.445712  0.414350  0.123096  1
  Ru  Ru22  1  0.676793  0.709353  0.123194  1
  Ru  Ru23  1  0.176814  0.913331  0.123674  1
  Ru  Ru24  1  0.572514  0.040675  0.376792  1
  Ru  Ru25  1  0.803110  0.334842  0.375657  1
  Ru  Ru26  1  0.304012  0.540756  0.376996  1
  Ru  Ru27  1  0.073191  0.837094  0.376570  1
  Ru  Ru28  1  0.960235  0.196229  0.623779  1
  Ru  Ru29  1  0.664443  0.428153  0.624134  1
  Ru  Ru30  1  0.164060  0.697274  0.623979  1
  Ru  Ru31  1  0.460315  0.926735  0.623545  1
  Ru  Ru32  1  0.085961  0.052468  0.876707  1
  Ru  Ru33  1  0.584393  0.323197  0.874848  1
  Ru  Ru34  1  0.290258  0.554333  0.876812  1
  Ru  Ru35  1  0.790051  0.823622  0.877208  1
