# generated using pymatgen
data_Li4LaY3Si8
_symmetry_space_group_name_H-M   'P 1'
_cell_length_a   3.84253200
_cell_length_b   7.65472398
_cell_length_c   10.30718752
_cell_angle_alpha   89.73538598
_cell_angle_beta   90.00000000
_cell_angle_gamma   90.00000000
_symmetry_Int_Tables_number   1
_chemical_formula_structural   Li4LaY3Si8
_chemical_formula_sum   'Li4 La1 Y3 Si8'
_cell_volume   303.16745208
_cell_formula_units_Z   1
loop_
 _symmetry_equiv_pos_site_id
 _symmetry_equiv_pos_as_xyz
  1  'x, y, z'
loop_
 _atom_site_type_symbol
 _atom_site_label
 _atom_site_symmetry_multiplicity
 _atom_site_fract_x
 _atom_site_fract_y
 _atom_site_fract_z
 _atom_site_occupancy
  Li  Li0  1  0.250000  0.992685  0.391793  1
  Li  Li1  1  0.250000  0.488683  0.106175  1
  Li  Li2  1  0.750000  0.010967  0.611185  1
  Li  Li3  1  0.750000  0.509705  0.892917  1
  La  La4  1  0.750000  0.356063  0.363000  1
  Y  Y5  1  0.250000  0.136938  0.863460  1
  Y  Y6  1  0.250000  0.640048  0.636523  1
  Y  Y7  1  0.750000  0.861219  0.134640  1
  Si  Si8  1  0.250000  0.231261  0.576182  1
  Si  Si9  1  0.250000  0.731572  0.930866  1
  Si  Si10  1  0.750000  0.776568  0.430444  1
  Si  Si11  1  0.750000  0.261579  0.063122  1
  Si  Si12  1  0.250000  0.663924  0.321303  1
  Si  Si13  1  0.250000  0.152432  0.173231  1
  Si  Si14  1  0.750000  0.343286  0.683952  1
  Si  Si15  1  0.750000  0.843071  0.821206  1
