# generated using pymatgen
data_ReOs2Ru4W
_symmetry_space_group_name_H-M   'P 1'
_cell_length_a   5.52300230
_cell_length_b   5.52300250
_cell_length_c   4.37360500
_cell_angle_alpha   90.00000000
_cell_angle_beta   90.00000000
_cell_angle_gamma   120.12526883
_symmetry_Int_Tables_number   1
_chemical_formula_structural   ReOs2Ru4W
_chemical_formula_sum   'Re1 Os2 Ru4 W1'
_cell_volume   115.39076746
_cell_formula_units_Z   1
loop_
 _symmetry_equiv_pos_site_id
 _symmetry_equiv_pos_as_xyz
  1  'x, y, z'
loop_
 _atom_site_type_symbol
 _atom_site_label
 _atom_site_symmetry_multiplicity
 _atom_site_fract_x
 _atom_site_fract_y
 _atom_site_fract_z
 _atom_site_occupancy
  Re  Re0  1  0.667460  0.332540  0.250000  1
  Os  Os1  1  0.830564  0.665375  0.750000  1
  Os  Os2  1  0.334625  0.169436  0.750000  1
  Ru  Ru3  1  0.165995  0.332333  0.250000  1
  Ru  Ru4  1  0.667667  0.834005  0.250000  1
  Ru  Ru5  1  0.166404  0.833596  0.250000  1
  Ru  Ru6  1  0.833063  0.166937  0.750000  1
  W  W7  1  0.334221  0.665779  0.750000  1
