# generated using pymatgen
data_Ca2SnPd2Pb
_symmetry_space_group_name_H-M   'P 1'
_cell_length_a   4.65927000
_cell_length_b   7.44225867
_cell_length_c   8.27859891
_cell_angle_alpha   90.64193533
_cell_angle_beta   90.00000000
_cell_angle_gamma   90.00000000
_symmetry_Int_Tables_number   1
_chemical_formula_structural   Ca2SnPd2Pb
_chemical_formula_sum   'Ca4 Sn2 Pd4 Pb2'
_cell_volume   287.04647775
_cell_formula_units_Z   2
loop_
 _symmetry_equiv_pos_site_id
 _symmetry_equiv_pos_as_xyz
  1  'x, y, z'
loop_
 _atom_site_type_symbol
 _atom_site_label
 _atom_site_symmetry_multiplicity
 _atom_site_fract_x
 _atom_site_fract_y
 _atom_site_fract_z
 _atom_site_occupancy
  Ca  Ca0  1  0.750000  0.478050  0.815456  1
  Ca  Ca1  1  0.250000  0.521950  0.184544  1
  Ca  Ca2  1  0.250000  0.018119  0.309373  1
  Ca  Ca3  1  0.750000  0.981881  0.690627  1
  Sn  Sn4  1  0.750000  0.832307  0.069411  1
  Sn  Sn5  1  0.250000  0.167693  0.930589  1
  Pd  Pd6  1  0.750000  0.207495  0.099423  1
  Pd  Pd7  1  0.750000  0.723542  0.380244  1
  Pd  Pd8  1  0.250000  0.792505  0.900577  1
  Pd  Pd9  1  0.250000  0.276458  0.619756  1
  Pb  Pb10  1  0.750000  0.330391  0.426249  1
  Pb  Pb11  1  0.250000  0.669609  0.573751  1
