# generated using pymatgen
data_La7SmSc12Si15Pt
_symmetry_space_group_name_H-M   'P 1'
_cell_length_a   7.28428438
_cell_length_b   7.63736064
_cell_length_c   14.25476961
_cell_angle_alpha   89.89371214
_cell_angle_beta   90.02863204
_cell_angle_gamma   90.13855128
_symmetry_Int_Tables_number   1
_chemical_formula_structural   La7SmSc12Si15Pt
_chemical_formula_sum   'La7 Sm1 Sc12 Si15 Pt1'
_cell_volume   793.02763837
_cell_formula_units_Z   1
loop_
 _symmetry_equiv_pos_site_id
 _symmetry_equiv_pos_as_xyz
  1  'x, y, z'
loop_
 _atom_site_type_symbol
 _atom_site_label
 _atom_site_symmetry_multiplicity
 _atom_site_fract_x
 _atom_site_fract_y
 _atom_site_fract_z
 _atom_site_occupancy
  La  La0  1  0.011854  0.175348  0.097070  1
  La  La1  1  0.991919  0.825823  0.903592  1
  La  La2  1  0.488448  0.672466  0.904194  1
  La  La3  1  0.991517  0.825336  0.595768  1
  La  La4  1  0.511193  0.327453  0.096570  1
  La  La5  1  0.012684  0.175224  0.403607  1
  La  La6  1  0.511196  0.326631  0.404141  1
  Sm  Sm7  1  0.488085  0.675860  0.597707  1
  Sc  Sc8  1  0.156421  0.496088  0.749083  1
  Sc  Sc9  1  0.840850  0.503136  0.249967  1
  Sc  Sc10  1  0.340650  0.998060  0.250091  1
  Sc  Sc11  1  0.664094  0.004724  0.749181  1
  Sc  Sc12  1  0.324210  0.172448  0.626301  1
  Sc  Sc13  1  0.671043  0.826645  0.373783  1
  Sc  Sc14  1  0.172530  0.674919  0.374042  1
  Sc  Sc15  1  0.672158  0.828373  0.127042  1
  Sc  Sc16  1  0.828688  0.324115  0.626371  1
  Sc  Sc17  1  0.324127  0.171774  0.872504  1
  Sc  Sc18  1  0.828434  0.324051  0.872700  1
  Sc  Sc19  1  0.171034  0.674818  0.126666  1
  Si  Si20  1  0.969560  0.872953  0.250414  1
  Si  Si21  1  0.468809  0.625687  0.250183  1
  Si  Si22  1  0.529983  0.380716  0.748535  1
  Si  Si23  1  0.291531  0.879272  0.748775  1
  Si  Si24  1  0.709227  0.117605  0.250258  1
  Si  Si25  1  0.209555  0.384051  0.250266  1
  Si  Si26  1  0.781163  0.616347  0.748246  1
  Si  Si27  1  0.155150  0.466262  0.540310  1
  Si  Si28  1  0.849118  0.537884  0.461118  1
  Si  Si29  1  0.352242  0.959677  0.461510  1
  Si  Si30  1  0.850356  0.538211  0.039632  1
  Si  Si31  1  0.650059  0.032838  0.540463  1
  Si  Si32  1  0.150674  0.464079  0.960385  1
  Si  Si33  1  0.650897  0.036551  0.960225  1
  Si  Si34  1  0.351664  0.963297  0.039852  1
  Pt  Pt35  1  0.028880  0.121281  0.749453  1
