# generated using pymatgen
data_Ho4VZn2Os5
_symmetry_space_group_name_H-M   'P 1'
_cell_length_a   5.25015122
_cell_length_b   5.26017779
_cell_length_c   8.84175100
_cell_angle_alpha   90.00000000
_cell_angle_beta   90.00000000
_cell_angle_gamma   117.87233662
_symmetry_Int_Tables_number   1
_chemical_formula_structural   Ho4VZn2Os5
_chemical_formula_sum   'Ho4 V1 Zn2 Os5'
_cell_volume   215.85324462
_cell_formula_units_Z   1
loop_
 _symmetry_equiv_pos_site_id
 _symmetry_equiv_pos_as_xyz
  1  'x, y, z'
loop_
 _atom_site_type_symbol
 _atom_site_label
 _atom_site_symmetry_multiplicity
 _atom_site_fract_x
 _atom_site_fract_y
 _atom_site_fract_z
 _atom_site_occupancy
  Ho  Ho0  1  0.323121  0.666539  0.434602  1
  Ho  Ho1  1  0.658576  0.328008  0.557732  1
  Ho  Ho2  1  0.658576  0.328008  0.942268  1
  Ho  Ho3  1  0.323121  0.666539  0.065398  1
  V  V4  1  0.836671  0.157754  0.250000  1
  Zn  Zn5  1  0.190525  0.840344  0.750000  1
  Zn  Zn6  1  0.188268  0.350189  0.750000  1
  Os  Os7  1  0.978589  0.997191  0.501867  1
  Os  Os8  1  0.978589  0.997191  0.998133  1
  Os  Os9  1  0.822277  0.652160  0.250000  1
  Os  Os10  1  0.351056  0.173666  0.250000  1
  Os  Os11  1  0.690630  0.842411  0.750000  1
