# generated using pymatgen
data_LaPr2In3Ga2Pd
_symmetry_space_group_name_H-M   'P 1'
_cell_length_a   7.49988444
_cell_length_b   7.49988582
_cell_length_c   4.58365400
_cell_angle_alpha   90.00000000
_cell_angle_beta   90.00000000
_cell_angle_gamma   120.17067980
_symmetry_Int_Tables_number   1
_chemical_formula_structural   LaPr2In3Ga2Pd
_chemical_formula_sum   'La1 Pr2 In3 Ga2 Pd1'
_cell_volume   222.89594834
_cell_formula_units_Z   1
loop_
 _symmetry_equiv_pos_site_id
 _symmetry_equiv_pos_as_xyz
  1  'x, y, z'
loop_
 _atom_site_type_symbol
 _atom_site_label
 _atom_site_symmetry_multiplicity
 _atom_site_fract_x
 _atom_site_fract_y
 _atom_site_fract_z
 _atom_site_occupancy
  La  La0  1  0.410598  0.410598  0.000000  1
  Pr  Pr1  1  0.589591  0.000107  0.000000  1
  Pr  Pr2  1  0.000107  0.589591  0.000000  1
  In  In3  1  0.244883  0.998712  0.500000  1
  In  In4  1  0.998712  0.244883  0.500000  1
  In  In5  1  0.755742  0.755742  0.500000  1
  Ga  Ga6  1  0.332352  0.667721  0.500000  1
  Ga  Ga7  1  0.667721  0.332352  0.500000  1
  Pd  Pd8  1  0.000293  0.000293  0.000000  1
