# generated using pymatgen
data_Sr4TbDy7Se16
_symmetry_space_group_name_H-M   'P 1'
_cell_length_a   4.15485500
_cell_length_b   12.64522924
_cell_length_c   15.02607429
_cell_angle_alpha   90.02232867
_cell_angle_beta   90.00000000
_cell_angle_gamma   90.00000000
_symmetry_Int_Tables_number   1
_chemical_formula_structural   Sr4TbDy7Se16
_chemical_formula_sum   'Sr4 Tb1 Dy7 Se16'
_cell_volume   789.45626839
_cell_formula_units_Z   1
loop_
 _symmetry_equiv_pos_site_id
 _symmetry_equiv_pos_as_xyz
  1  'x, y, z'
loop_
 _atom_site_type_symbol
 _atom_site_label
 _atom_site_symmetry_multiplicity
 _atom_site_fract_x
 _atom_site_fract_y
 _atom_site_fract_z
 _atom_site_occupancy
  Sr  Sr0  1  0.250000  0.758638  0.664434  1
  Sr  Sr1  1  0.750000  0.741434  0.164422  1
  Sr  Sr2  1  0.250000  0.258472  0.835647  1
  Sr  Sr3  1  0.750000  0.241427  0.335522  1
  Tb  Tb4  1  0.250000  0.433547  0.609764  1
  Dy  Dy5  1  0.750000  0.066134  0.109873  1
  Dy  Dy6  1  0.250000  0.933856  0.890118  1
  Dy  Dy7  1  0.750000  0.566199  0.390047  1
  Dy  Dy8  1  0.250000  0.419763  0.098959  1
  Dy  Dy9  1  0.750000  0.080160  0.598990  1
  Dy  Dy10  1  0.250000  0.919741  0.401027  1
  Dy  Dy11  1  0.750000  0.580306  0.901134  1
  Se  Se12  1  0.250000  0.412259  0.420808  1
  Se  Se13  1  0.750000  0.087769  0.921379  1
  Se  Se14  1  0.250000  0.912229  0.078625  1
  Se  Se15  1  0.750000  0.588336  0.578495  1
  Se  Se16  1  0.250000  0.024173  0.716190  1
  Se  Se17  1  0.750000  0.475793  0.216153  1
  Se  Se18  1  0.250000  0.524425  0.784118  1
  Se  Se19  1  0.750000  0.975798  0.283816  1
  Se  Se20  1  0.250000  0.131265  0.472248  1
  Se  Se21  1  0.750000  0.368792  0.972205  1
  Se  Se22  1  0.250000  0.631226  0.027839  1
  Se  Se23  1  0.750000  0.868820  0.527754  1
  Se  Se24  1  0.250000  0.207494  0.173915  1
  Se  Se25  1  0.750000  0.291946  0.674321  1
  Se  Se26  1  0.250000  0.707495  0.326102  1
  Se  Se27  1  0.750000  0.792502  0.826093  1
