# generated using pymatgen
data_Ti6GaP2
_symmetry_space_group_name_H-M   'P 1'
_cell_length_a   6.78656500
_cell_length_b   6.78656588
_cell_length_c   3.46595200
_cell_angle_alpha   90.00000000
_cell_angle_beta   90.00000000
_cell_angle_gamma   119.99999083
_symmetry_Int_Tables_number   1
_chemical_formula_structural   Ti6GaP2
_chemical_formula_sum   'Ti6 Ga1 P2'
_cell_volume   138.24623039
_cell_formula_units_Z   1
loop_
 _symmetry_equiv_pos_site_id
 _symmetry_equiv_pos_as_xyz
  1  'x, y, z'
loop_
 _atom_site_type_symbol
 _atom_site_label
 _atom_site_symmetry_multiplicity
 _atom_site_fract_x
 _atom_site_fract_y
 _atom_site_fract_z
 _atom_site_occupancy
  Ti  Ti0  1  0.004040  0.255562  0.500000  1
  Ti  Ti1  1  0.251522  0.995960  0.500000  1
  Ti  Ti2  1  0.744438  0.748478  0.500000  1
  Ti  Ti3  1  0.591961  0.984024  0.000000  1
  Ti  Ti4  1  0.392063  0.408039  0.000000  1
  Ti  Ti5  1  0.015976  0.607937  0.000000  1
  Ga  Ga6  1  0.666667  0.333333  0.500000  1
  P  P7  1  0.000000  0.000000  0.000000  1
  P  P8  1  0.333333  0.666667  0.500000  1
