# generated using pymatgen
data_Ce2ThNi9
_symmetry_space_group_name_H-M   'P 1'
_cell_length_a   4.98591998
_cell_length_b   4.98591873
_cell_length_c   8.82704038
_cell_angle_alpha   73.59512846
_cell_angle_beta   73.59513216
_cell_angle_gamma   60.00000907
_symmetry_Int_Tables_number   1
_chemical_formula_structural   Ce2ThNi9
_chemical_formula_sum   'Ce2 Th1 Ni9'
_cell_volume   179.64698494
_cell_formula_units_Z   1
loop_
 _symmetry_equiv_pos_site_id
 _symmetry_equiv_pos_as_xyz
  1  'x, y, z'
loop_
 _atom_site_type_symbol
 _atom_site_label
 _atom_site_symmetry_multiplicity
 _atom_site_fract_x
 _atom_site_fract_y
 _atom_site_fract_z
 _atom_site_occupancy
  Ce  Ce0  1  0.138791  0.138791  0.583627  1
  Ce  Ce1  1  0.861209  0.861209  0.416373  1
  Th  Th2  1  0.000000  0.000000  0.000000  1
  Ni  Ni3  1  0.082202  0.582216  0.753364  1
  Ni  Ni4  1  0.582216  0.582216  0.753364  1
  Ni  Ni5  1  0.582216  0.082202  0.753364  1
  Ni  Ni6  1  0.917798  0.417784  0.246636  1
  Ni  Ni7  1  0.417784  0.417784  0.246636  1
  Ni  Ni8  1  0.417784  0.917798  0.246636  1
  Ni  Ni9  1  0.333015  0.333015  0.000953  1
  Ni  Ni10  1  0.666985  0.666985  0.999047  1
  Ni  Ni11  1  0.500000  0.500000  0.500000  1
