# generated using pymatgen
data_Y4Lu(SiB4)2
_symmetry_space_group_name_H-M   'P 1'
_cell_length_a   7.21601900
_cell_length_b   7.21601900
_cell_length_c   8.04390200
_cell_angle_alpha   90.00000000
_cell_angle_beta   90.00000000
_cell_angle_gamma   90.00000000
_symmetry_Int_Tables_number   1
_chemical_formula_structural   Y4Lu(SiB4)2
_chemical_formula_sum   'Y8 Lu2 Si4 B16'
_cell_volume   418.85345964
_cell_formula_units_Z   2
loop_
 _symmetry_equiv_pos_site_id
 _symmetry_equiv_pos_as_xyz
  1  'x, y, z'
loop_
 _atom_site_type_symbol
 _atom_site_label
 _atom_site_symmetry_multiplicity
 _atom_site_fract_x
 _atom_site_fract_y
 _atom_site_fract_z
 _atom_site_occupancy
  Y  Y0  1  0.680493  0.180493  0.225473  1
  Y  Y1  1  0.319507  0.819507  0.774527  1
  Y  Y2  1  0.319507  0.819507  0.225473  1
  Y  Y3  1  0.819507  0.680493  0.225473  1
  Y  Y4  1  0.819507  0.680493  0.774527  1
  Y  Y5  1  0.680493  0.180493  0.774527  1
  Y  Y6  1  0.180493  0.319507  0.774527  1
  Y  Y7  1  0.180493  0.319507  0.225473  1
  Lu  Lu8  1  0.000000  0.000000  0.500000  1
  Lu  Lu9  1  0.500000  0.500000  0.500000  1
  Si  Si10  1  0.115853  0.615853  0.500000  1
  Si  Si11  1  0.884147  0.384147  0.500000  1
  Si  Si12  1  0.384147  0.115853  0.500000  1
  Si  Si13  1  0.615853  0.884147  0.500000  1
  B  B14  1  0.172408  0.039265  0.000000  1
  B  B15  1  0.827592  0.960735  0.000000  1
  B  B16  1  0.960735  0.172408  0.000000  1
  B  B17  1  0.327592  0.539265  0.000000  1
  B  B18  1  0.039265  0.827592  0.000000  1
  B  B19  1  0.672408  0.460735  0.000000  1
  B  B20  1  0.539265  0.672408  0.000000  1
  B  B21  1  0.460735  0.327592  0.000000  1
  B  B22  1  0.089711  0.589711  0.000000  1
  B  B23  1  0.910289  0.410289  0.000000  1
  B  B24  1  0.410289  0.089711  0.000000  1
  B  B25  1  0.589711  0.910289  0.000000  1
  B  B26  1  0.000000  0.000000  0.163388  1
  B  B27  1  0.000000  0.000000  0.836612  1
  B  B28  1  0.500000  0.500000  0.836612  1
  B  B29  1  0.500000  0.500000  0.163388  1
