# generated using pymatgen
data_LaTb5HoCoI12
_symmetry_space_group_name_H-M   'P 1'
_cell_length_a   9.80693774
_cell_length_b   9.80711679
_cell_length_c   9.80888527
_cell_angle_alpha   106.31921138
_cell_angle_beta   106.33981498
_cell_angle_gamma   106.27824621
_symmetry_Int_Tables_number   1
_chemical_formula_structural   LaTb5HoCoI12
_chemical_formula_sum   'La1 Tb5 Ho1 Co1 I12'
_cell_volume   799.94870842
_cell_formula_units_Z   1
loop_
 _symmetry_equiv_pos_site_id
 _symmetry_equiv_pos_as_xyz
  1  'x, y, z'
loop_
 _atom_site_type_symbol
 _atom_site_label
 _atom_site_symmetry_multiplicity
 _atom_site_fract_x
 _atom_site_fract_y
 _atom_site_fract_z
 _atom_site_occupancy
  La  La0  1  0.995462  0.995343  0.995447  1
  Tb  Tb1  1  0.516813  0.588342  0.784648  1
  Tb  Tb2  1  0.784637  0.516503  0.588901  1
  Tb  Tb3  1  0.588895  0.784977  0.516964  1
  Tb  Tb4  1  0.481450  0.409227  0.214336  1
  Tb  Tb5  1  0.214206  0.481255  0.409642  1
  Ho  Ho6  1  0.410681  0.216939  0.481808  1
  Co  Co7  1  0.499689  0.499566  0.499699  1
  I  I8  1  0.276003  0.823597  0.426589  1
  I  I9  1  0.426216  0.275103  0.821872  1
  I  I10  1  0.823048  0.426390  0.275776  1
  I  I11  1  0.721508  0.175303  0.571503  1
  I  I12  1  0.571927  0.722941  0.175763  1
  I  I13  1  0.175561  0.571929  0.723030  1
  I  I14  1  0.046058  0.122981  0.350559  1
  I  I15  1  0.350224  0.044896  0.123998  1
  I  I16  1  0.123030  0.350178  0.044820  1
  I  I17  1  0.953082  0.874336  0.642549  1
  I  I18  1  0.642484  0.953038  0.874289  1
  I  I19  1  0.874397  0.642526  0.953178  1
