# generated using pymatgen
data_AgSe2Cl
_symmetry_space_group_name_H-M   'P 1'
_cell_length_a   5.18396400
_cell_length_b   8.35993696
_cell_length_c   12.43390794
_cell_angle_alpha   62.49970384
_cell_angle_beta   90.00000000
_cell_angle_gamma   90.00000000
_symmetry_Int_Tables_number   1
_chemical_formula_structural   AgSe2Cl
_chemical_formula_sum   'Ag4 Se8 Cl4'
_cell_volume   477.96971824
_cell_formula_units_Z   4
loop_
 _symmetry_equiv_pos_site_id
 _symmetry_equiv_pos_as_xyz
  1  'x, y, z'
loop_
 _atom_site_type_symbol
 _atom_site_label
 _atom_site_symmetry_multiplicity
 _atom_site_fract_x
 _atom_site_fract_y
 _atom_site_fract_z
 _atom_site_occupancy
  Ag  Ag0  1  0.366542  0.165179  0.759953  1
  Ag  Ag1  1  0.866542  0.834821  0.740047  1
  Ag  Ag2  1  0.633458  0.834821  0.240047  1
  Ag  Ag3  1  0.133458  0.165179  0.259953  1
  Se  Se4  1  0.974839  0.683059  0.152999  1
  Se  Se5  1  0.474839  0.316941  0.347001  1
  Se  Se6  1  0.025161  0.316941  0.847001  1
  Se  Se7  1  0.525161  0.683059  0.652999  1
  Se  Se8  1  0.227597  0.574175  0.830890  1
  Se  Se9  1  0.727597  0.425825  0.669110  1
  Se  Se10  1  0.772403  0.425825  0.169110  1
  Se  Se11  1  0.272403  0.574175  0.330890  1
  Cl  Cl12  1  0.372610  0.113207  0.098447  1
  Cl  Cl13  1  0.872610  0.886793  0.401553  1
  Cl  Cl14  1  0.627390  0.886793  0.901553  1
  Cl  Cl15  1  0.127390  0.113207  0.598447  1
