# generated using pymatgen
data_La3Mn4BiF28
_symmetry_space_group_name_H-M   'P 1'
_cell_length_a   5.64765650
_cell_length_b   9.11622766
_cell_length_c   12.14957913
_cell_angle_alpha   61.85505128
_cell_angle_beta   90.08781718
_cell_angle_gamma   89.98605944
_symmetry_Int_Tables_number   1
_chemical_formula_structural   La3Mn4BiF28
_chemical_formula_sum   'La3 Mn4 Bi1 F28'
_cell_volume   551.56011963
_cell_formula_units_Z   1
loop_
 _symmetry_equiv_pos_site_id
 _symmetry_equiv_pos_as_xyz
  1  'x, y, z'
loop_
 _atom_site_type_symbol
 _atom_site_label
 _atom_site_symmetry_multiplicity
 _atom_site_fract_x
 _atom_site_fract_y
 _atom_site_fract_z
 _atom_site_occupancy
  La  La0  1  0.259327  0.193822  0.235357  1
  La  La1  1  0.240185  0.193365  0.734513  1
  La  La2  1  0.740531  0.807015  0.765053  1
  Mn  Mn3  1  0.243220  0.725675  0.541988  1
  Mn  Mn4  1  0.743457  0.273622  0.957256  1
  Mn  Mn5  1  0.756764  0.276032  0.456261  1
  Mn  Mn6  1  0.257134  0.726055  0.044636  1
  Bi  Bi7  1  0.765399  0.811719  0.263240  1
  F  F8  1  0.969198  0.715558  0.459244  1
  F  F9  1  0.472693  0.285222  0.038623  1
  F  F10  1  0.027491  0.286232  0.537658  1
  F  F11  1  0.526626  0.714003  0.962372  1
  F  F12  1  0.068288  0.708336  0.927454  1
  F  F13  1  0.568497  0.291975  0.573171  1
  F  F14  1  0.932330  0.291360  0.073888  1
  F  F15  1  0.433219  0.708803  0.425902  1
  F  F16  1  0.736507  0.502447  0.864420  1
  F  F17  1  0.235917  0.497130  0.635312  1
  F  F18  1  0.263292  0.496028  0.136567  1
  F  F19  1  0.763374  0.504458  0.363676  1
  F  F20  1  0.740483  0.043688  0.047551  1
  F  F21  1  0.240510  0.954433  0.453679  1
  F  F22  1  0.259808  0.953848  0.954891  1
  F  F23  1  0.759788  0.047206  0.545080  1
  F  F24  1  0.056567  0.739715  0.662622  1
  F  F25  1  0.557328  0.259759  0.837274  1
  F  F26  1  0.943685  0.260296  0.336188  1
  F  F27  1  0.446226  0.740892  0.164287  1
  F  F28  1  0.008530  0.269494  0.870923  1
  F  F29  1  0.508191  0.729975  0.629492  1
  F  F30  1  0.989544  0.731140  0.131156  1
  F  F31  1  0.490779  0.269602  0.369647  1
  F  F32  1  0.088588  0.964181  0.228773  1
  F  F33  1  0.602471  0.026563  0.271934  1
  F  F34  1  0.901933  0.033183  0.771947  1
  F  F35  1  0.402121  0.967169  0.727965  1
