# generated using pymatgen
data_Tm2BeSi4Ni
_symmetry_space_group_name_H-M   'P 1'
_cell_length_a   8.41128820
_cell_length_b   8.41128744
_cell_length_c   3.89800000
_cell_angle_alpha   90.00000000
_cell_angle_beta   90.00000000
_cell_angle_gamma   152.78816195
_symmetry_Int_Tables_number   1
_chemical_formula_structural   Tm2BeSi4Ni
_chemical_formula_sum   'Tm2 Be1 Si4 Ni1'
_cell_volume   126.11031996
_cell_formula_units_Z   1
loop_
 _symmetry_equiv_pos_site_id
 _symmetry_equiv_pos_as_xyz
  1  'x, y, z'
loop_
 _atom_site_type_symbol
 _atom_site_label
 _atom_site_symmetry_multiplicity
 _atom_site_fract_x
 _atom_site_fract_y
 _atom_site_fract_z
 _atom_site_occupancy
  Tm  Tm0  1  0.601522  0.398478  0.250000  1
  Tm  Tm1  1  0.393123  0.606877  0.750000  1
  Be  Be2  1  0.827865  0.172135  0.250000  1
  Si  Si3  1  0.961406  0.038594  0.250000  1
  Si  Si4  1  0.039757  0.960243  0.750000  1
  Si  Si5  1  0.250615  0.749385  0.250000  1
  Si  Si6  1  0.749072  0.250928  0.750000  1
  Ni  Ni7  1  0.176640  0.823360  0.750000  1
