# generated using pymatgen
data_YGaAu3
_symmetry_space_group_name_H-M   'P 1'
_cell_length_a   9.22010800
_cell_length_b   9.22010800
_cell_length_c   9.22010800
_cell_angle_alpha   90.00000000
_cell_angle_beta   90.00000000
_cell_angle_gamma   90.00000000
_symmetry_Int_Tables_number   1
_chemical_formula_structural   YGaAu3
_chemical_formula_sum   'Y8 Ga8 Au24'
_cell_volume   783.80499104
_cell_formula_units_Z   8
loop_
 _symmetry_equiv_pos_site_id
 _symmetry_equiv_pos_as_xyz
  1  'x, y, z'
loop_
 _atom_site_type_symbol
 _atom_site_label
 _atom_site_symmetry_multiplicity
 _atom_site_fract_x
 _atom_site_fract_y
 _atom_site_fract_z
 _atom_site_occupancy
  Y  Y0  1  0.390526  0.390526  0.390526  1
  Y  Y1  1  0.609474  0.890526  0.109474  1
  Y  Y2  1  0.109474  0.890526  0.390526  1
  Y  Y3  1  0.609474  0.609474  0.609474  1
  Y  Y4  1  0.890526  0.390526  0.109474  1
  Y  Y5  1  0.390526  0.109474  0.890526  1
  Y  Y6  1  0.109474  0.609474  0.890526  1
  Y  Y7  1  0.890526  0.109474  0.609474  1
  Ga  Ga8  1  0.895277  0.604723  0.395277  1
  Ga  Ga9  1  0.604723  0.395277  0.895277  1
  Ga  Ga10  1  0.895277  0.895277  0.895277  1
  Ga  Ga11  1  0.395277  0.604723  0.104723  1
  Ga  Ga12  1  0.104723  0.104723  0.104723  1
  Ga  Ga13  1  0.395277  0.895277  0.604723  1
  Ga  Ga14  1  0.604723  0.104723  0.395277  1
  Ga  Ga15  1  0.104723  0.395277  0.604723  1
  Au  Au16  1  0.579211  0.261761  0.143029  1
  Au  Au17  1  0.079211  0.238239  0.856971  1
  Au  Au18  1  0.261761  0.143029  0.579211  1
  Au  Au19  1  0.643029  0.579211  0.238239  1
  Au  Au20  1  0.579211  0.238239  0.643029  1
  Au  Au21  1  0.261761  0.356971  0.079211  1
  Au  Au22  1  0.356971  0.420789  0.761761  1
  Au  Au23  1  0.238239  0.856971  0.079211  1
  Au  Au24  1  0.238239  0.643029  0.579211  1
  Au  Au25  1  0.761761  0.143029  0.920789  1
  Au  Au26  1  0.738239  0.643029  0.920789  1
  Au  Au27  1  0.738239  0.856971  0.420789  1
  Au  Au28  1  0.356971  0.079211  0.261761  1
  Au  Au29  1  0.420789  0.738239  0.856971  1
  Au  Au30  1  0.920789  0.738239  0.643029  1
  Au  Au31  1  0.643029  0.920789  0.738239  1
  Au  Au32  1  0.856971  0.420789  0.738239  1
  Au  Au33  1  0.420789  0.761761  0.356971  1
  Au  Au34  1  0.920789  0.761761  0.143029  1
  Au  Au35  1  0.079211  0.261761  0.356971  1
  Au  Au36  1  0.761761  0.356971  0.420789  1
  Au  Au37  1  0.143029  0.579211  0.261761  1
  Au  Au38  1  0.856971  0.079211  0.238239  1
  Au  Au39  1  0.143029  0.920789  0.761761  1
