# generated using pymatgen
data_La17Nd3(Sn7Bi)2
_symmetry_space_group_name_H-M   'P 1'
_cell_length_a   8.49488824
_cell_length_b   8.57145668
_cell_length_c   16.35257900
_cell_angle_alpha   90.03339569
_cell_angle_beta   89.98647680
_cell_angle_gamma   89.92562959
_symmetry_Int_Tables_number   1
_chemical_formula_structural   La17Nd3(Sn7Bi)2
_chemical_formula_sum   'La17 Nd3 Sn14 Bi2'
_cell_volume   1190.68835988
_cell_formula_units_Z   1
loop_
 _symmetry_equiv_pos_site_id
 _symmetry_equiv_pos_as_xyz
  1  'x, y, z'
loop_
 _atom_site_type_symbol
 _atom_site_label
 _atom_site_symmetry_multiplicity
 _atom_site_fract_x
 _atom_site_fract_y
 _atom_site_fract_z
 _atom_site_occupancy
  La  La0  1  0.387402  0.836951  0.883319  1
  La  La1  1  0.886554  0.663422  0.617253  1
  La  La2  1  0.616509  0.154852  0.382323  1
  La  La3  1  0.116055  0.344093  0.118830  1
  La  La4  1  0.621354  0.159552  0.116853  1
  La  La5  1  0.121334  0.339668  0.381877  1
  La  La6  1  0.384619  0.840297  0.616252  1
  La  La7  1  0.884115  0.660288  0.883376  1
  La  La8  1  0.537526  0.324142  0.896803  1
  La  La9  1  0.037762  0.175505  0.603498  1
  La  La10  1  0.458727  0.678461  0.395576  1
  La  La11  1  0.958666  0.820345  0.103044  1
  La  La12  1  0.462982  0.673521  0.104252  1
  La  La13  1  0.964065  0.825138  0.397207  1
  La  La14  1  0.530636  0.317619  0.603349  1
  La  La15  1  0.031407  0.182231  0.896331  1
  La  La16  1  0.215503  0.500953  0.749858  1
  Nd  Nd17  1  0.715921  0.998170  0.750050  1
  Nd  Nd18  1  0.783235  0.498821  0.246611  1
  Nd  Nd19  1  0.282972  0.000907  0.253505  1
  Sn  Sn20  1  0.724864  0.974976  0.546570  1
  Sn  Sn21  1  0.224062  0.527612  0.955909  1
  Sn  Sn22  1  0.725762  0.974554  0.952909  1
  Sn  Sn23  1  0.224905  0.528677  0.544240  1
  Sn  Sn24  1  0.276878  0.027006  0.453374  1
  Sn  Sn25  1  0.776780  0.473132  0.046466  1
  Sn  Sn26  1  0.586683  0.622393  0.748982  1
  Sn  Sn27  1  0.084348  0.882067  0.751295  1
  Sn  Sn28  1  0.418792  0.376639  0.249808  1
  Sn  Sn29  1  0.917566  0.121387  0.250033  1
  Sn  Sn30  1  0.338914  0.136550  0.751092  1
  Sn  Sn31  1  0.834580  0.359702  0.748940  1
  Sn  Sn32  1  0.659780  0.857232  0.249997  1
  Sn  Sn33  1  0.158533  0.643477  0.249907  1
  Bi  Bi34  1  0.274890  0.027122  0.046693  1
  Bi  Bi35  1  0.775319  0.472537  0.453615  1
