# generated using pymatgen
data_Pu6ZrTcSb10
_symmetry_space_group_name_H-M   'P 1'
_cell_length_a   9.43673100
_cell_length_b   9.43672958
_cell_length_c   6.27396200
_cell_angle_alpha   90.00000000
_cell_angle_beta   90.00000000
_cell_angle_gamma   119.99999446
_symmetry_Int_Tables_number   1
_chemical_formula_structural   Pu6ZrTcSb10
_chemical_formula_sum   'Pu6 Zr1 Tc1 Sb10'
_cell_volume   483.85543671
_cell_formula_units_Z   1
loop_
 _symmetry_equiv_pos_site_id
 _symmetry_equiv_pos_as_xyz
  1  'x, y, z'
loop_
 _atom_site_type_symbol
 _atom_site_label
 _atom_site_symmetry_multiplicity
 _atom_site_fract_x
 _atom_site_fract_y
 _atom_site_fract_z
 _atom_site_occupancy
  Pu  Pu0  1  0.619089  0.000000  0.252798  1
  Pu  Pu1  1  0.380911  0.000000  0.747202  1
  Pu  Pu2  1  0.000000  0.619089  0.252798  1
  Pu  Pu3  1  0.000000  0.380911  0.747202  1
  Pu  Pu4  1  0.380911  0.380911  0.252798  1
  Pu  Pu5  1  0.619089  0.619089  0.747202  1
  Zr  Zr6  1  0.000000  0.000000  0.500000  1
  Tc  Tc7  1  0.000000  0.000000  0.000000  1
  Sb  Sb8  1  0.259801  0.000000  0.233752  1
  Sb  Sb9  1  0.740199  0.000000  0.766248  1
  Sb  Sb10  1  0.000000  0.259801  0.233752  1
  Sb  Sb11  1  0.000000  0.740199  0.766248  1
  Sb  Sb12  1  0.740199  0.740199  0.233752  1
  Sb  Sb13  1  0.259801  0.259801  0.766248  1
  Sb  Sb14  1  0.333333  0.666667  0.000000  1
  Sb  Sb15  1  0.666667  0.333333  0.000000  1
  Sb  Sb16  1  0.666667  0.333333  0.500000  1
  Sb  Sb17  1  0.333333  0.666667  0.500000  1
