# generated using pymatgen
data_Ho7Er3(In2Ir)4
_symmetry_space_group_name_H-M   'P 1'
_cell_length_a   3.63597100
_cell_length_b   8.00428832
_cell_length_c   18.23445701
_cell_angle_alpha   89.98232205
_cell_angle_beta   90.00000000
_cell_angle_gamma   90.00000000
_symmetry_Int_Tables_number   1
_chemical_formula_structural   Ho7Er3(In2Ir)4
_chemical_formula_sum   'Ho7 Er3 In8 Ir4'
_cell_volume   530.68394515
_cell_formula_units_Z   1
loop_
 _symmetry_equiv_pos_site_id
 _symmetry_equiv_pos_as_xyz
  1  'x, y, z'
loop_
 _atom_site_type_symbol
 _atom_site_label
 _atom_site_symmetry_multiplicity
 _atom_site_fract_x
 _atom_site_fract_y
 _atom_site_fract_z
 _atom_site_occupancy
  Ho  Ho0  1  0.000000  0.499886  0.500024  1
  Ho  Ho1  1  0.000000  0.999878  0.999918  1
  Ho  Ho2  1  0.000000  0.747366  0.277984  1
  Ho  Ho3  1  0.000000  0.252650  0.722245  1
  Ho  Ho4  1  0.000000  0.752743  0.777425  1
  Ho  Ho5  1  0.000000  0.247613  0.222628  1
  Ho  Ho6  1  0.000000  0.617657  0.089589  1
  Er  Er7  1  0.000000  0.382601  0.910155  1
  Er  Er8  1  0.000000  0.882709  0.589539  1
  Er  Er9  1  0.000000  0.117288  0.410313  1
  In  In10  1  0.500000  0.704686  0.932668  1
  In  In11  1  0.500000  0.294632  0.067056  1
  In  In12  1  0.500000  0.795531  0.433165  1
  In  In13  1  0.500000  0.204251  0.566889  1
  In  In14  1  0.500000  0.567476  0.648561  1
  In  In15  1  0.500000  0.432573  0.351330  1
  In  In16  1  0.500000  0.933219  0.149216  1
  In  In17  1  0.500000  0.067301  0.850993  1
  Ir  Ir18  1  0.500000  0.521918  0.196208  1
  Ir  Ir19  1  0.500000  0.477880  0.804117  1
  Ir  Ir20  1  0.500000  0.977904  0.695530  1
  Ir  Ir21  1  0.500000  0.022236  0.304446  1
