# generated using pymatgen
data_La2Ce2Zn5Cu3Ru2
_symmetry_space_group_name_H-M   'P 1'
_cell_length_a   7.20564400
_cell_length_b   7.20564400
_cell_length_c   5.13340889
_cell_angle_alpha   90.06974908
_cell_angle_beta   89.93025092
_cell_angle_gamma   90.26083109
_symmetry_Int_Tables_number   1
_chemical_formula_structural   La2Ce2Zn5Cu3Ru2
_chemical_formula_sum   'La2 Ce2 Zn5 Cu3 Ru2'
_cell_volume   266.53013601
_cell_formula_units_Z   1
loop_
 _symmetry_equiv_pos_site_id
 _symmetry_equiv_pos_as_xyz
  1  'x, y, z'
loop_
 _atom_site_type_symbol
 _atom_site_label
 _atom_site_symmetry_multiplicity
 _atom_site_fract_x
 _atom_site_fract_y
 _atom_site_fract_z
 _atom_site_occupancy
  La  La0  1  0.996053  0.503947  0.760303  1
  La  La1  1  0.503091  0.996909  0.230959  1
  Ce  Ce2  1  0.996420  0.995997  0.017681  1
  Ce  Ce3  1  0.504003  0.503580  0.017681  1
  Zn  Zn4  1  0.312781  0.187219  0.714069  1
  Zn  Zn5  1  0.180949  0.319051  0.288947  1
  Zn  Zn6  1  0.690912  0.191214  0.705672  1
  Zn  Zn7  1  0.689317  0.810683  0.702051  1
  Zn  Zn8  1  0.308786  0.809088  0.705672  1
  Cu  Cu9  1  0.180869  0.683207  0.280974  1
  Cu  Cu10  1  0.820266  0.679734  0.283787  1
  Cu  Cu11  1  0.816793  0.319131  0.280974  1
  Ru  Ru12  1  0.497526  0.497767  0.505616  1
  Ru  Ru13  1  0.002233  0.002474  0.505616  1
