# generated using pymatgen
data_Tb3Th5(P7Ir8)2
_symmetry_space_group_name_H-M   'P 1'
_cell_length_a   3.98470900
_cell_length_b   12.78271029
_cell_length_c   13.20925877
_cell_angle_alpha   81.92702595
_cell_angle_beta   90.00000000
_cell_angle_gamma   90.00000000
_symmetry_Int_Tables_number   1
_chemical_formula_structural   Tb3Th5(P7Ir8)2
_chemical_formula_sum   'Tb3 Th5 P14 Ir16'
_cell_volume   666.15099865
_cell_formula_units_Z   1
loop_
 _symmetry_equiv_pos_site_id
 _symmetry_equiv_pos_as_xyz
  1  'x, y, z'
loop_
 _atom_site_type_symbol
 _atom_site_label
 _atom_site_symmetry_multiplicity
 _atom_site_fract_x
 _atom_site_fract_y
 _atom_site_fract_z
 _atom_site_occupancy
  Tb  Tb0  1  0.750000  0.791762  0.559208  1
  Tb  Tb1  1  0.250000  0.207758  0.441435  1
  Tb  Tb2  1  0.750000  0.480543  0.707425  1
  Th  Th3  1  0.250000  0.515652  0.291517  1
  Th  Th4  1  0.750000  0.715270  0.899914  1
  Th  Th5  1  0.250000  0.107045  0.789940  1
  Th  Th6  1  0.750000  0.893361  0.207471  1
  Th  Th7  1  0.250000  0.282513  0.099672  1
  P  P8  1  0.250000  0.906808  0.411487  1
  P  P9  1  0.750000  0.472074  0.125535  1
  P  P10  1  0.250000  0.527157  0.869068  1
  P  P11  1  0.750000  0.093237  0.589587  1
  P  P12  1  0.250000  0.746994  0.083397  1
  P  P13  1  0.750000  0.254491  0.916971  1
  P  P14  1  0.750000  0.155798  0.285339  1
  P  P15  1  0.250000  0.844391  0.715028  1
  P  P16  1  0.250000  0.055442  0.099121  1
  P  P17  1  0.750000  0.945086  0.900131  1
  P  P18  1  0.250000  0.317424  0.688092  1
  P  P19  1  0.750000  0.685205  0.314374  1
  P  P20  1  0.250000  0.608131  0.566372  1
  P  P21  1  0.750000  0.389437  0.439426  1
  Ir  Ir22  1  0.250000  0.991735  0.576021  1
  Ir  Ir23  1  0.750000  0.008622  0.423967  1
  Ir  Ir24  1  0.250000  0.664038  0.729524  1
  Ir  Ir25  1  0.750000  0.336882  0.270445  1
  Ir  Ir26  1  0.250000  0.550369  0.047772  1
  Ir  Ir27  1  0.750000  0.451290  0.949421  1
  Ir  Ir28  1  0.250000  0.060391  0.275014  1
  Ir  Ir29  1  0.750000  0.939608  0.724996  1
  Ir  Ir30  1  0.250000  0.424651  0.527772  1
  Ir  Ir31  1  0.750000  0.575920  0.475642  1
  Ir  Ir32  1  0.250000  0.918012  0.995747  1
  Ir  Ir33  1  0.750000  0.082807  0.002449  1
  Ir  Ir34  1  0.250000  0.728055  0.398017  1
  Ir  Ir35  1  0.750000  0.271574  0.602890  1
  Ir  Ir36  1  0.250000  0.339088  0.859308  1
  Ir  Ir37  1  0.750000  0.661380  0.140506  1
