# generated using pymatgen
data_Ho3PaGa20Pt11
_symmetry_space_group_name_H-M   'P 1'
_cell_length_a   4.23259556
_cell_length_b   10.88792675
_cell_length_c   13.81060355
_cell_angle_alpha   81.50888153
_cell_angle_beta   81.05064726
_cell_angle_gamma   78.59434769
_symmetry_Int_Tables_number   1
_chemical_formula_structural   Ho3PaGa20Pt11
_chemical_formula_sum   'Ho3 Pa1 Ga20 Pt11'
_cell_volume   611.77967769
_cell_formula_units_Z   1
loop_
 _symmetry_equiv_pos_site_id
 _symmetry_equiv_pos_as_xyz
  1  'x, y, z'
loop_
 _atom_site_type_symbol
 _atom_site_label
 _atom_site_symmetry_multiplicity
 _atom_site_fract_x
 _atom_site_fract_y
 _atom_site_fract_z
 _atom_site_occupancy
  Ho  Ho0  1  0.123913  0.086624  0.665564  1
  Ho  Ho1  1  0.876174  0.912075  0.335665  1
  Ho  Ho2  1  0.773149  0.629134  0.820738  1
  Pa  Pa3  1  0.228062  0.372609  0.177074  1
  Ga  Ga4  1  0.012443  0.065774  0.908780  1
  Ga  Ga5  1  0.987427  0.935826  0.089414  1
  Ga  Ga6  1  0.062491  0.680261  0.194625  1
  Ga  Ga7  1  0.936974  0.323088  0.805465  1
  Ga  Ga8  1  0.102074  0.341399  0.455860  1
  Ga  Ga9  1  0.898936  0.657936  0.544976  1
  Ga  Ga10  1  0.200525  0.605815  0.991877  1
  Ga  Ga11  1  0.800326  0.396181  0.003039  1
  Ga  Ga12  1  0.259868  0.779276  0.698799  1
  Ga  Ga13  1  0.738543  0.221135  0.304165  1
  Ga  Ga14  1  0.302326  0.900764  0.494959  1
  Ga  Ga15  1  0.697469  0.098988  0.505441  1
  Ga  Ga16  1  0.385210  0.523419  0.700999  1
  Ga  Ga17  1  0.611550  0.476844  0.303216  1
  Ga  Ga18  1  0.397128  0.201052  0.000886  1
  Ga  Ga19  1  0.604319  0.796895  0.998050  1
  Ga  Ga20  1  0.545163  0.281193  0.629439  1
  Ga  Ga21  1  0.454653  0.718529  0.370814  1
  Ga  Ga22  1  0.641124  0.931294  0.790697  1
  Ga  Ga23  1  0.360805  0.066043  0.207407  1
  Pt  Pt24  1  0.499124  0.500244  0.500764  1
  Pt  Pt25  1  0.028213  0.575281  0.370011  1
  Pt  Pt26  1  0.972149  0.423308  0.629567  1
  Pt  Pt27  1  0.145044  0.829359  0.885153  1
  Pt  Pt28  1  0.851096  0.175089  0.116787  1
  Pt  Pt29  1  0.240818  0.129113  0.391033  1
  Pt  Pt30  1  0.759634  0.871263  0.607474  1
  Pt  Pt31  1  0.345058  0.420058  0.890757  1
  Pt  Pt32  1  0.657259  0.575361  0.111545  1
  Pt  Pt33  1  0.507532  0.167048  0.817669  1
  Pt  Pt34  1  0.493420  0.831720  0.181293  1
