# generated using pymatgen
data_Dy15Lu(MgPb4)4
_symmetry_space_group_name_H-M   'P 1'
_cell_length_a   7.83086330
_cell_length_b   8.31369657
_cell_length_c   15.52246667
_cell_angle_alpha   89.99802058
_cell_angle_beta   89.98200041
_cell_angle_gamma   90.07614153
_symmetry_Int_Tables_number   1
_chemical_formula_structural   Dy15Lu(MgPb4)4
_chemical_formula_sum   'Dy15 Lu1 Mg4 Pb16'
_cell_volume   1010.56474630
_cell_formula_units_Z   1
loop_
 _symmetry_equiv_pos_site_id
 _symmetry_equiv_pos_as_xyz
  1  'x, y, z'
loop_
 _atom_site_type_symbol
 _atom_site_label
 _atom_site_symmetry_multiplicity
 _atom_site_fract_x
 _atom_site_fract_y
 _atom_site_fract_z
 _atom_site_occupancy
  Dy  Dy0  1  0.840166  0.661983  0.627860  1
  Dy  Dy1  1  0.658393  0.162235  0.372333  1
  Dy  Dy2  1  0.158911  0.338966  0.126349  1
  Dy  Dy3  1  0.656295  0.162461  0.127837  1
  Dy  Dy4  1  0.157195  0.336267  0.372135  1
  Dy  Dy5  1  0.344672  0.836487  0.628614  1
  Dy  Dy6  1  0.843029  0.662551  0.872579  1
  Dy  Dy7  1  0.509024  0.313025  0.909652  1
  Dy  Dy8  1  0.009911  0.186913  0.591443  1
  Dy  Dy9  1  0.491950  0.686241  0.409803  1
  Dy  Dy10  1  0.989454  0.812377  0.090341  1
  Dy  Dy11  1  0.490579  0.686516  0.089646  1
  Dy  Dy12  1  0.992071  0.814153  0.409124  1
  Dy  Dy13  1  0.508089  0.314575  0.591195  1
  Dy  Dy14  1  0.008853  0.186606  0.908183  1
  Lu  Lu15  1  0.341007  0.840385  0.872447  1
  Mg  Mg16  1  0.164724  0.503242  0.749031  1
  Mg  Mg17  1  0.666885  0.996154  0.750725  1
  Mg  Mg18  1  0.834773  0.495605  0.249902  1
  Mg  Mg19  1  0.334190  0.002932  0.250637  1
  Pb  Pb20  1  0.306473  0.037167  0.040472  1
  Pb  Pb21  1  0.808286  0.461428  0.459100  1
  Pb  Pb22  1  0.693623  0.962314  0.541435  1
  Pb  Pb23  1  0.194059  0.540396  0.957217  1
  Pb  Pb24  1  0.690225  0.961356  0.958565  1
  Pb  Pb25  1  0.192346  0.539289  0.540640  1
  Pb  Pb26  1  0.308207  0.038492  0.459929  1
  Pb  Pb27  1  0.806981  0.460701  0.040773  1
  Pb  Pb28  1  0.525598  0.599359  0.752720  1
  Pb  Pb29  1  0.029205  0.900241  0.750177  1
  Pb  Pb30  1  0.472547  0.402794  0.250438  1
  Pb  Pb31  1  0.972890  0.097568  0.248749  1
  Pb  Pb32  1  0.315460  0.161984  0.750501  1
  Pb  Pb33  1  0.813231  0.338239  0.750014  1
  Pb  Pb34  1  0.685210  0.836654  0.249803  1
  Pb  Pb35  1  0.185484  0.662348  0.249630  1
