# generated using pymatgen
data_Hf3Nb3(B2Ru5)2
_symmetry_space_group_name_H-M   'P 1'
_cell_length_a   9.46978001
_cell_length_b   9.46978014
_cell_length_c   3.08925000
_cell_angle_alpha   90.00000000
_cell_angle_beta   90.00000000
_cell_angle_gamma   90.03077224
_symmetry_Int_Tables_number   1
_chemical_formula_structural   Hf3Nb3(B2Ru5)2
_chemical_formula_sum   'Hf3 Nb3 B4 Ru10'
_cell_volume   277.03381268
_cell_formula_units_Z   1
loop_
 _symmetry_equiv_pos_site_id
 _symmetry_equiv_pos_as_xyz
  1  'x, y, z'
loop_
 _atom_site_type_symbol
 _atom_site_label
 _atom_site_symmetry_multiplicity
 _atom_site_fract_x
 _atom_site_fract_y
 _atom_site_fract_z
 _atom_site_occupancy
  Hf  Hf0  1  0.176313  0.823687  0.000000  1
  Hf  Hf1  1  0.323390  0.324386  0.000000  1
  Hf  Hf2  1  0.675614  0.676610  0.000000  1
  Nb  Nb3  1  0.499101  0.999921  0.000000  1
  Nb  Nb4  1  0.000079  0.500899  0.000000  1
  Nb  Nb5  1  0.823390  0.176610  0.000000  1
  B  B6  1  0.621999  0.378001  0.000000  1
  B  B7  1  0.379086  0.620914  0.000000  1
  B  B8  1  0.120969  0.121987  0.000000  1
  B  B9  1  0.878013  0.879031  0.000000  1
  Ru  Ru10  1  0.501076  0.498924  0.500000  1
  Ru  Ru11  1  0.997811  0.002189  0.500000  1
  Ru  Ru12  1  0.574377  0.216783  0.500000  1
  Ru  Ru13  1  0.430137  0.781424  0.500000  1
  Ru  Ru14  1  0.067874  0.281061  0.500000  1
  Ru  Ru15  1  0.928749  0.718711  0.500000  1
  Ru  Ru16  1  0.281289  0.071251  0.500000  1
  Ru  Ru17  1  0.718939  0.932126  0.500000  1
  Ru  Ru18  1  0.218576  0.569863  0.500000  1
  Ru  Ru19  1  0.783217  0.425623  0.500000  1
