# generated using pymatgen
data_SmCrH5
_symmetry_space_group_name_H-M   'P 1'
_cell_length_a   4.40797200
_cell_length_b   4.62481300
_cell_length_c   11.51218100
_cell_angle_alpha   90.00000000
_cell_angle_beta   90.00000000
_cell_angle_gamma   90.00000000
_symmetry_Int_Tables_number   1
_chemical_formula_structural   SmCrH5
_chemical_formula_sum   'Sm4 Cr4 H20'
_cell_volume   234.68785384
_cell_formula_units_Z   4
loop_
 _symmetry_equiv_pos_site_id
 _symmetry_equiv_pos_as_xyz
  1  'x, y, z'
loop_
 _atom_site_type_symbol
 _atom_site_label
 _atom_site_symmetry_multiplicity
 _atom_site_fract_x
 _atom_site_fract_y
 _atom_site_fract_z
 _atom_site_occupancy
  Sm  Sm0  1  0.265025  0.252003  0.647486  1
  Sm  Sm1  1  0.765025  0.247997  0.352514  1
  Sm  Sm2  1  0.234975  0.747997  0.147486  1
  Sm  Sm3  1  0.734975  0.752003  0.852514  1
  Cr  Cr4  1  0.275111  0.252245  0.922896  1
  Cr  Cr5  1  0.775111  0.247755  0.077104  1
  Cr  Cr6  1  0.224889  0.747755  0.422896  1
  Cr  Cr7  1  0.724889  0.752245  0.577104  1
  H  H8  1  0.498044  0.515755  0.495460  1
  H  H9  1  0.998044  0.984245  0.504540  1
  H  H10  1  0.001956  0.484245  0.995460  1
  H  H11  1  0.501956  0.015755  0.004540  1
  H  H12  1  0.188354  0.999314  0.821815  1
  H  H13  1  0.688354  0.500686  0.178185  1
  H  H14  1  0.311646  0.000686  0.321815  1
  H  H15  1  0.811646  0.499314  0.678185  1
  H  H16  1  0.191749  0.508983  0.822829  1
  H  H17  1  0.691749  0.991017  0.177171  1
  H  H18  1  0.308251  0.491017  0.322829  1
  H  H19  1  0.808251  0.008983  0.677171  1
  H  H20  1  0.572091  0.252576  0.829741  1
  H  H21  1  0.072091  0.247424  0.170259  1
  H  H22  1  0.927909  0.747424  0.329741  1
  H  H23  1  0.427909  0.752576  0.670259  1
  H  H24  1  0.004489  0.014926  0.995221  1
  H  H25  1  0.504489  0.485074  0.004779  1
  H  H26  1  0.495511  0.985074  0.495221  1
  H  H27  1  0.995511  0.514926  0.504779  1
