# generated using pymatgen
data_Ce2SbRh2
_symmetry_space_group_name_H-M   'P 1'
_cell_length_a   7.57611300
_cell_length_b   7.57611300
_cell_length_c   3.82619100
_cell_angle_alpha   90.00000000
_cell_angle_beta   90.00000000
_cell_angle_gamma   90.00000000
_symmetry_Int_Tables_number   1
_chemical_formula_structural   Ce2SbRh2
_chemical_formula_sum   'Ce4 Sb2 Rh4'
_cell_volume   219.61375273
_cell_formula_units_Z   2
loop_
 _symmetry_equiv_pos_site_id
 _symmetry_equiv_pos_as_xyz
  1  'x, y, z'
loop_
 _atom_site_type_symbol
 _atom_site_label
 _atom_site_symmetry_multiplicity
 _atom_site_fract_x
 _atom_site_fract_y
 _atom_site_fract_z
 _atom_site_occupancy
  Ce  Ce0  1  0.675726  0.175726  0.500000  1
  Ce  Ce1  1  0.324274  0.824274  0.500000  1
  Ce  Ce2  1  0.175726  0.324274  0.500000  1
  Ce  Ce3  1  0.824274  0.675726  0.500000  1
  Sb  Sb4  1  0.000000  0.000000  0.000000  1
  Sb  Sb5  1  0.500000  0.500000  0.000000  1
  Rh  Rh6  1  0.133766  0.633766  0.000000  1
  Rh  Rh7  1  0.866234  0.366234  0.000000  1
  Rh  Rh8  1  0.633766  0.866234  0.000000  1
  Rh  Rh9  1  0.366234  0.133766  0.000000  1
