# generated using pymatgen
data_Tb3PaGa2Rh3
_symmetry_space_group_name_H-M   'P 1'
_cell_length_a   7.35884512
_cell_length_b   7.35884369
_cell_length_c   4.07712300
_cell_angle_alpha   90.00000000
_cell_angle_beta   90.00000000
_cell_angle_gamma   120.70970053
_symmetry_Int_Tables_number   1
_chemical_formula_structural   Tb3PaGa2Rh3
_chemical_formula_sum   'Tb3 Pa1 Ga2 Rh3'
_cell_volume   189.82492218
_cell_formula_units_Z   1
loop_
 _symmetry_equiv_pos_site_id
 _symmetry_equiv_pos_as_xyz
  1  'x, y, z'
loop_
 _atom_site_type_symbol
 _atom_site_label
 _atom_site_symmetry_multiplicity
 _atom_site_fract_x
 _atom_site_fract_y
 _atom_site_fract_z
 _atom_site_occupancy
  Tb  Tb0  1  0.032430  0.589172  0.500000  1
  Tb  Tb1  1  0.369366  0.369366  0.500000  1
  Tb  Tb2  1  0.589172  0.032430  0.500000  1
  Pa  Pa3  1  0.738693  0.738693  0.000000  1
  Ga  Ga4  1  0.994351  0.250329  0.000000  1
  Ga  Ga5  1  0.250329  0.994351  0.000000  1
  Rh  Rh6  1  0.359824  0.675043  0.000000  1
  Rh  Rh7  1  0.990791  0.990791  0.500000  1
  Rh  Rh8  1  0.675043  0.359824  0.000000  1
