# generated using pymatgen
data_CrSe23
_symmetry_space_group_name_H-M   'P 1'
_cell_length_a   5.48466520
_cell_length_b   10.08254414
_cell_length_c   15.64949600
_cell_angle_alpha   98.94882388
_cell_angle_beta   86.30809311
_cell_angle_gamma   94.29197879
_symmetry_Int_Tables_number   1
_chemical_formula_structural   CrSe23
_chemical_formula_sum   'Cr1 Se23'
_cell_volume   851.25283311
_cell_formula_units_Z   1
loop_
 _symmetry_equiv_pos_site_id
 _symmetry_equiv_pos_as_xyz
  1  'x, y, z'
loop_
 _atom_site_type_symbol
 _atom_site_label
 _atom_site_symmetry_multiplicity
 _atom_site_fract_x
 _atom_site_fract_y
 _atom_site_fract_z
 _atom_site_occupancy
  Cr  Cr0  1  0.435739  0.230594  0.308137  1
  Se  Se1  1  0.558653  0.812736  0.387784  1
  Se  Se2  1  0.931882  0.351451  0.146509  1
  Se  Se3  1  0.683202  0.189045  0.419505  1
  Se  Se4  1  0.308263  0.784583  0.513645  1
  Se  Se5  1  0.181855  0.273363  0.024365  1
  Se  Se6  1  0.785157  0.738320  0.034523  1
  Se  Se7  1  0.133607  0.379620  0.375684  1
  Se  Se8  1  0.737500  0.604858  0.353303  1
  Se  Se9  1  0.731201  0.153938  0.194131  1
  Se  Se10  1  0.334735  0.914512  0.148853  1
  Se  Se11  1  0.761772  0.612151  0.623979  1
  Se  Se12  1  0.244645  0.345763  0.611740  1
  Se  Se13  1  0.224296  0.865592  0.868034  1
  Se  Se14  1  0.751249  0.116126  0.850195  1
  Se  Se15  1  0.077006  0.715167  0.135178  1
  Se  Se16  1  0.580579  0.819503  0.627445  1
  Se  Se17  1  0.436146  0.151971  0.546704  1
  Se  Se18  1  0.985587  0.671633  0.897182  1
  Se  Se19  1  0.993032  0.313337  0.899693  1
  Se  Se20  1  0.417161  0.471339  0.273818  1
  Se  Se21  1  0.166198  0.039358  0.281660  1
  Se  Se22  1  0.515028  0.476032  0.709198  1
  Se  Se23  1  0.025508  0.969008  0.768735  1
