# generated using pymatgen
data_LiTb16Cd(HgIr2)2
_symmetry_space_group_name_H-M   'P 1'
_cell_length_a   9.69210960
_cell_length_b   9.68733517
_cell_length_c   9.68733468
_cell_angle_alpha   59.83683846
_cell_angle_beta   59.80686516
_cell_angle_gamma   59.80686285
_symmetry_Int_Tables_number   1
_chemical_formula_structural   LiTb16Cd(HgIr2)2
_chemical_formula_sum   'Li1 Tb16 Cd1 Hg2 Ir4'
_cell_volume   640.47576279
_cell_formula_units_Z   1
loop_
 _symmetry_equiv_pos_site_id
 _symmetry_equiv_pos_as_xyz
  1  'x, y, z'
loop_
 _atom_site_type_symbol
 _atom_site_label
 _atom_site_symmetry_multiplicity
 _atom_site_fract_x
 _atom_site_fract_y
 _atom_site_fract_z
 _atom_site_occupancy
  Li  Li0  1  0.820984  0.817481  0.817481  1
  Tb  Tb1  1  0.600747  0.600527  0.600527  1
  Tb  Tb2  1  0.598527  0.598637  0.205958  1
  Tb  Tb3  1  0.598527  0.205958  0.598637  1
  Tb  Tb4  1  0.203990  0.599057  0.599057  1
  Tb  Tb5  1  0.059569  0.441481  0.441481  1
  Tb  Tb6  1  0.434693  0.062163  0.062163  1
  Tb  Tb7  1  0.440422  0.060763  0.440689  1
  Tb  Tb8  1  0.061355  0.435838  0.061858  1
  Tb  Tb9  1  0.440422  0.440689  0.060763  1
  Tb  Tb10  1  0.061355  0.061858  0.435838  1
  Tb  Tb11  1  0.190300  0.810767  0.810767  1
  Tb  Tb12  1  0.811480  0.187407  0.187407  1
  Tb  Tb13  1  0.810536  0.191155  0.810899  1
  Tb  Tb14  1  0.186176  0.811726  0.188185  1
  Tb  Tb15  1  0.810536  0.810899  0.191155  1
  Tb  Tb16  1  0.186176  0.188185  0.811726  1
  Cd  Cd17  1  0.505567  0.832843  0.832843  1
  Hg  Hg18  1  0.836581  0.838691  0.495296  1
  Hg  Hg19  1  0.836581  0.495296  0.838691  1
  Ir  Ir20  1  0.391809  0.392825  0.392825  1
  Ir  Ir21  1  0.393761  0.394980  0.826092  1
  Ir  Ir22  1  0.393761  0.826092  0.394980  1
  Ir  Ir23  1  0.826154  0.394688  0.394688  1
