# generated using pymatgen
data_GdTm5(Si3Ru)8
_symmetry_space_group_name_H-M   'P 1'
_cell_length_a   10.13803104
_cell_length_b   10.13803075
_cell_length_c   8.14296408
_cell_angle_alpha   89.95744444
_cell_angle_beta   90.04255593
_cell_angle_gamma   132.70558431
_symmetry_Int_Tables_number   1
_chemical_formula_structural   GdTm5(Si3Ru)8
_chemical_formula_sum   'Gd1 Tm5 Si24 Ru8'
_cell_volume   615.01740464
_cell_formula_units_Z   1
loop_
 _symmetry_equiv_pos_site_id
 _symmetry_equiv_pos_as_xyz
  1  'x, y, z'
loop_
 _atom_site_type_symbol
 _atom_site_label
 _atom_site_symmetry_multiplicity
 _atom_site_fract_x
 _atom_site_fract_y
 _atom_site_fract_z
 _atom_site_occupancy
  Gd  Gd0  1  0.997457  0.497457  0.250000  1
  Tm  Tm1  1  0.497497  0.997497  0.250000  1
  Tm  Tm2  1  0.002517  0.502517  0.750000  1
  Tm  Tm3  1  0.502539  0.002539  0.750000  1
  Tm  Tm4  1  0.499998  0.500000  0.500017  1
  Tm  Tm5  1  0.000000  0.999998  0.999983  1
  Si  Si6  1  0.388321  0.154794  0.005180  1
  Si  Si7  1  0.654794  0.888321  0.494820  1
  Si  Si8  1  0.111770  0.345487  0.505303  1
  Si  Si9  1  0.845487  0.611770  0.994697  1
  Si  Si10  1  0.611661  0.845185  0.994878  1
  Si  Si11  1  0.345185  0.111661  0.505122  1
  Si  Si12  1  0.888223  0.654517  0.494872  1
  Si  Si13  1  0.154517  0.388223  0.005128  1
  Si  Si14  1  0.612847  0.378381  0.228661  1
  Si  Si15  1  0.878381  0.112847  0.271339  1
  Si  Si16  1  0.887522  0.121981  0.728472  1
  Si  Si17  1  0.621981  0.387522  0.771528  1
  Si  Si18  1  0.387080  0.621438  0.771435  1
  Si  Si19  1  0.121438  0.887080  0.728565  1
  Si  Si20  1  0.704936  0.294998  0.999876  1
  Si  Si21  1  0.794998  0.204936  0.500124  1
  Si  Si22  1  0.295043  0.704944  0.999885  1
  Si  Si23  1  0.204944  0.795043  0.500115  1
  Si  Si24  1  0.167601  0.167643  0.333242  1
  Si  Si25  1  0.667643  0.667601  0.166758  1
  Si  Si26  1  0.332349  0.332408  0.833260  1
  Si  Si27  1  0.832408  0.832349  0.666740  1
  Si  Si28  1  0.378161  0.612588  0.228581  1
  Si  Si29  1  0.112588  0.878161  0.271419  1
  Ru  Ru30  1  0.626625  0.626647  0.872271  1
  Ru  Ru31  1  0.126647  0.126625  0.627729  1
  Ru  Ru32  1  0.873366  0.873407  0.372246  1
  Ru  Ru33  1  0.373407  0.373366  0.127754  1
  Ru  Ru34  1  0.330887  0.670373  0.500176  1
  Ru  Ru35  1  0.170373  0.830887  0.999824  1
  Ru  Ru36  1  0.669141  0.329668  0.500426  1
  Ru  Ru37  1  0.829668  0.169141  0.999574  1
