# generated using pymatgen
data_TbHo3Co4(SnH)4
_symmetry_space_group_name_H-M   'P 1'
_cell_length_a   4.26080900
_cell_length_b   7.09270015
_cell_length_c   8.14305917
_cell_angle_alpha   90.02328125
_cell_angle_beta   90.00000000
_cell_angle_gamma   90.00000000
_symmetry_Int_Tables_number   1
_chemical_formula_structural   TbHo3Co4(SnH)4
_chemical_formula_sum   'Tb1 Ho3 Co4 Sn4 H4'
_cell_volume   246.08844433
_cell_formula_units_Z   1
loop_
 _symmetry_equiv_pos_site_id
 _symmetry_equiv_pos_as_xyz
  1  'x, y, z'
loop_
 _atom_site_type_symbol
 _atom_site_label
 _atom_site_symmetry_multiplicity
 _atom_site_fract_x
 _atom_site_fract_y
 _atom_site_fract_z
 _atom_site_occupancy
  Tb  Tb0  1  0.750000  0.013221  0.686783  1
  Ho  Ho1  1  0.250000  0.986790  0.314366  1
  Ho  Ho2  1  0.250000  0.486597  0.185547  1
  Ho  Ho3  1  0.750000  0.513185  0.814445  1
  Co  Co4  1  0.750000  0.773249  0.103309  1
  Co  Co5  1  0.250000  0.227374  0.897960  1
  Co  Co6  1  0.250000  0.725522  0.602801  1
  Co  Co7  1  0.750000  0.273649  0.396026  1
  Sn  Sn8  1  0.750000  0.654871  0.425977  1
  Sn  Sn9  1  0.250000  0.345183  0.573012  1
  Sn  Sn10  1  0.250000  0.844809  0.927832  1
  Sn  Sn11  1  0.750000  0.155784  0.074511  1
  H  H12  1  0.250000  0.449193  0.919009  1
  H  H13  1  0.750000  0.551432  0.081001  1
  H  H14  1  0.750000  0.051848  0.417371  1
  H  H15  1  0.250000  0.947295  0.580051  1
