# generated using pymatgen
data_Tb16Ho3ErIr12
_symmetry_space_group_name_H-M   'P 1'
_cell_length_a   10.92662600
_cell_length_b   10.92662600
_cell_length_c   6.38206500
_cell_angle_alpha   90.00000000
_cell_angle_beta   90.00000000
_cell_angle_gamma   90.00000000
_symmetry_Int_Tables_number   1
_chemical_formula_structural   Tb16Ho3ErIr12
_chemical_formula_sum   'Tb16 Ho3 Er1 Ir12'
_cell_volume   761.96211638
_cell_formula_units_Z   1
loop_
 _symmetry_equiv_pos_site_id
 _symmetry_equiv_pos_as_xyz
  1  'x, y, z'
loop_
 _atom_site_type_symbol
 _atom_site_label
 _atom_site_symmetry_multiplicity
 _atom_site_fract_x
 _atom_site_fract_y
 _atom_site_fract_z
 _atom_site_occupancy
  Tb  Tb0  1  0.290629  0.087799  0.377939  1
  Tb  Tb1  1  0.290627  0.912222  0.877955  1
  Tb  Tb2  1  0.709373  0.087778  0.877955  1
  Tb  Tb3  1  0.709371  0.912201  0.377939  1
  Tb  Tb4  1  0.587775  0.790600  0.877929  1
  Tb  Tb5  1  0.587762  0.209467  0.377975  1
  Tb  Tb6  1  0.412238  0.790533  0.377975  1
  Tb  Tb7  1  0.412225  0.209400  0.877929  1
  Tb  Tb8  1  0.209467  0.412238  0.622025  1
  Tb  Tb9  1  0.209400  0.587775  0.122071  1
  Tb  Tb10  1  0.790600  0.412225  0.122071  1
  Tb  Tb11  1  0.790533  0.587762  0.622025  1
  Tb  Tb12  1  0.912222  0.709373  0.122045  1
  Tb  Tb13  1  0.912201  0.290629  0.622061  1
  Tb  Tb14  1  0.087799  0.709371  0.622061  1
  Tb  Tb15  1  0.087778  0.290627  0.122045  1
  Ho  Ho16  1  0.000000  0.000000  0.500000  1
  Ho  Ho17  1  0.000000  0.000000  0.000000  1
  Ho  Ho18  1  0.500000  0.500000  0.000000  1
  Er  Er19  1  0.500000  0.500000  0.500000  1
  Ir  Ir20  1  0.847365  0.152636  0.249994  1
  Ir  Ir21  1  0.847364  0.847365  0.750006  1
  Ir  Ir22  1  0.152636  0.152635  0.750006  1
  Ir  Ir23  1  0.152635  0.847364  0.249994  1
  Ir  Ir24  1  0.652489  0.347502  0.749789  1
  Ir  Ir25  1  0.652498  0.652489  0.250211  1
  Ir  Ir26  1  0.347502  0.347511  0.250211  1
  Ir  Ir27  1  0.347511  0.652498  0.749789  1
  Ir  Ir28  1  0.500000  0.000000  0.120959  1
  Ir  Ir29  1  0.500000  0.000000  0.620953  1
  Ir  Ir30  1  0.000000  0.500000  0.879041  1
  Ir  Ir31  1  0.000000  0.500000  0.379047  1
