# generated using pymatgen
data_Pr3Y4Ho(CdIr)2
_symmetry_space_group_name_H-M   'P 1'
_cell_length_a   9.79417651
_cell_length_b   9.79417609
_cell_length_c   9.80285300
_cell_angle_alpha   59.97069288
_cell_angle_beta   59.97069429
_cell_angle_gamma   59.94012447
_symmetry_Int_Tables_number   1
_chemical_formula_structural   Pr3Y4Ho(CdIr)2
_chemical_formula_sum   'Pr6 Y8 Ho2 Cd4 Ir4'
_cell_volume   664.33031915
_cell_formula_units_Z   2
loop_
 _symmetry_equiv_pos_site_id
 _symmetry_equiv_pos_as_xyz
  1  'x, y, z'
loop_
 _atom_site_type_symbol
 _atom_site_label
 _atom_site_symmetry_multiplicity
 _atom_site_fract_x
 _atom_site_fract_y
 _atom_site_fract_z
 _atom_site_occupancy
  Pr  Pr0  1  0.941089  0.558859  0.559098  1
  Pr  Pr1  1  0.558859  0.941089  0.940955  1
  Pr  Pr2  1  0.558859  0.941089  0.559098  1
  Pr  Pr3  1  0.941089  0.558859  0.940955  1
  Pr  Pr4  1  0.558974  0.558974  0.941026  1
  Pr  Pr5  1  0.940888  0.940888  0.559112  1
  Y  Y6  1  0.347807  0.957409  0.347392  1
  Y  Y7  1  0.957409  0.347807  0.347392  1
  Y  Y8  1  0.811708  0.187623  0.188349  1
  Y  Y9  1  0.187623  0.811708  0.812321  1
  Y  Y10  1  0.187623  0.811708  0.188349  1
  Y  Y11  1  0.811708  0.187623  0.812321  1
  Y  Y12  1  0.188114  0.188114  0.811886  1
  Y  Y13  1  0.812154  0.812154  0.187846  1
  Ho  Ho14  1  0.347047  0.347047  0.346623  1
  Ho  Ho15  1  0.347047  0.347047  0.959283  1
  Cd  Cd16  1  0.579229  0.579229  0.579281  1
  Cd  Cd17  1  0.579229  0.579229  0.262262  1
  Cd  Cd18  1  0.579272  0.262108  0.579310  1
  Cd  Cd19  1  0.262108  0.579272  0.579310  1
  Ir  Ir20  1  0.142009  0.142009  0.140043  1
  Ir  Ir21  1  0.142009  0.142009  0.575940  1
  Ir  Ir22  1  0.142873  0.575277  0.140926  1
  Ir  Ir23  1  0.575277  0.142873  0.140926  1
