# generated using pymatgen
data_Hf16PtRh7O4
_symmetry_space_group_name_H-M   'P 1'
_cell_length_a   8.74357319
_cell_length_b   8.74390351
_cell_length_c   8.74390400
_cell_angle_alpha   59.99999814
_cell_angle_beta   59.99874843
_cell_angle_gamma   59.99874470
_symmetry_Int_Tables_number   1
_chemical_formula_structural   Hf16PtRh7O4
_chemical_formula_sum   'Hf16 Pt1 Rh7 O4'
_cell_volume   472.69004358
_cell_formula_units_Z   1
loop_
 _symmetry_equiv_pos_site_id
 _symmetry_equiv_pos_as_xyz
  1  'x, y, z'
loop_
 _atom_site_type_symbol
 _atom_site_label
 _atom_site_symmetry_multiplicity
 _atom_site_fract_x
 _atom_site_fract_y
 _atom_site_fract_z
 _atom_site_occupancy
  Hf  Hf0  1  0.124964  0.625012  0.625012  1
  Hf  Hf1  1  0.624221  0.121891  0.626944  1
  Hf  Hf2  1  0.624221  0.626944  0.121891  1
  Hf  Hf3  1  0.624221  0.626944  0.626944  1
  Hf  Hf4  1  0.815490  0.816056  0.184227  1
  Hf  Hf5  1  0.184152  0.184438  0.815705  1
  Hf  Hf6  1  0.815490  0.184227  0.816056  1
  Hf  Hf7  1  0.184152  0.815705  0.184438  1
  Hf  Hf8  1  0.184152  0.815705  0.815705  1
  Hf  Hf9  1  0.815490  0.184227  0.184227  1
  Hf  Hf10  1  0.434634  0.434385  0.065490  1
  Hf  Hf11  1  0.067985  0.061948  0.435034  1
  Hf  Hf12  1  0.434634  0.065490  0.434385  1
  Hf  Hf13  1  0.067985  0.435034  0.061948  1
  Hf  Hf14  1  0.067985  0.435034  0.435034  1
  Hf  Hf15  1  0.434634  0.065490  0.065490  1
  Pt  Pt16  1  0.782081  0.405973  0.405973  1
  Rh  Rh17  1  0.404943  0.783640  0.405708  1
  Rh  Rh18  1  0.404943  0.405708  0.783640  1
  Rh  Rh19  1  0.404943  0.405708  0.405708  1
  Rh  Rh20  1  0.465537  0.844821  0.844821  1
  Rh  Rh21  1  0.844552  0.466738  0.844356  1
  Rh  Rh22  1  0.844552  0.844356  0.466738  1
  Rh  Rh23  1  0.844552  0.844356  0.844356  1
  O  O24  1  0.625402  0.124866  0.124866  1
  O  O25  1  0.124696  0.624746  0.125279  1
  O  O26  1  0.124696  0.125279  0.624746  1
  O  O27  1  0.124696  0.125279  0.125279  1
