# generated using pymatgen
data_Hf6Co4Si5Ge
_symmetry_space_group_name_H-M   'P 1'
_cell_length_a   3.82380000
_cell_length_b   5.34960423
_cell_length_c   12.86261700
_cell_angle_alpha   90.00000000
_cell_angle_beta   90.00000000
_cell_angle_gamma   110.94004996
_symmetry_Int_Tables_number   1
_chemical_formula_structural   Hf6Co4Si5Ge
_chemical_formula_sum   'Hf6 Co4 Si5 Ge1'
_cell_volume   245.73785232
_cell_formula_units_Z   1
loop_
 _symmetry_equiv_pos_site_id
 _symmetry_equiv_pos_as_xyz
  1  'x, y, z'
loop_
 _atom_site_type_symbol
 _atom_site_label
 _atom_site_symmetry_multiplicity
 _atom_site_fract_x
 _atom_site_fract_y
 _atom_site_fract_z
 _atom_site_occupancy
  Hf  Hf0  1  0.074470  0.148940  0.386676  1
  Hf  Hf1  1  0.924584  0.849169  0.617031  1
  Hf  Hf2  1  0.074470  0.148940  0.113324  1
  Hf  Hf3  1  0.924584  0.849169  0.882969  1
  Hf  Hf4  1  0.365107  0.730213  0.250000  1
  Hf  Hf5  1  0.635481  0.270962  0.750000  1
  Co  Co6  1  0.220967  0.441934  0.918129  1
  Co  Co7  1  0.780942  0.561882  0.077164  1
  Co  Co8  1  0.220967  0.441934  0.581871  1
  Co  Co9  1  0.780942  0.561882  0.422836  1
  Si  Si10  1  0.390759  0.781516  0.458137  1
  Si  Si11  1  0.609458  0.218917  0.543330  1
  Si  Si12  1  0.390759  0.781516  0.041863  1
  Si  Si13  1  0.609458  0.218917  0.956670  1
  Si  Si14  1  0.334487  0.668974  0.750000  1
  Ge  Ge15  1  0.662567  0.325134  0.250000  1
