# generated using pymatgen
data_YbSc3BeB7Ru10
_symmetry_space_group_name_H-M   'P 1'
_cell_length_a   3.01984400
_cell_length_b   8.54913191
_cell_length_c   10.15459048
_cell_angle_alpha   90.16134400
_cell_angle_beta   90.00000000
_cell_angle_gamma   90.00000000
_symmetry_Int_Tables_number   1
_chemical_formula_structural   YbSc3BeB7Ru10
_chemical_formula_sum   'Yb1 Sc3 Be1 B7 Ru10'
_cell_volume   262.16047687
_cell_formula_units_Z   1
loop_
 _symmetry_equiv_pos_site_id
 _symmetry_equiv_pos_as_xyz
  1  'x, y, z'
loop_
 _atom_site_type_symbol
 _atom_site_label
 _atom_site_symmetry_multiplicity
 _atom_site_fract_x
 _atom_site_fract_y
 _atom_site_fract_z
 _atom_site_occupancy
  Yb  Yb0  1  0.500000  0.841689  0.182312  1
  Sc  Sc1  1  0.500000  0.155432  0.818913  1
  Sc  Sc2  1  0.500000  0.656275  0.681870  1
  Sc  Sc3  1  0.500000  0.343739  0.320237  1
  Be  Be4  1  0.500000  0.964248  0.591123  1
  B  B5  1  0.500000  0.037648  0.407696  1
  B  B6  1  0.500000  0.851973  0.898071  1
  B  B7  1  0.500000  0.148674  0.100730  1
  B  B8  1  0.500000  0.650528  0.400052  1
  B  B9  1  0.500000  0.350003  0.598761  1
  B  B10  1  0.500000  0.464084  0.910214  1
  B  B11  1  0.500000  0.533732  0.089724  1
  Ru  Ru12  1  0.000000  0.655531  0.953859  1
  Ru  Ru13  1  0.000000  0.341547  0.044251  1
  Ru  Ru14  1  0.000000  0.840352  0.449306  1
  Ru  Ru15  1  0.000000  0.165141  0.544439  1
  Ru  Ru16  1  0.000000  0.005564  0.998483  1
  Ru  Ru17  1  0.000000  0.402746  0.760774  1
  Ru  Ru18  1  0.000000  0.588161  0.240141  1
  Ru  Ru19  1  0.000000  0.502609  0.501616  1
  Ru  Ru20  1  0.000000  0.897143  0.746903  1
  Ru  Ru21  1  0.000000  0.103180  0.260524  1
