# generated using pymatgen
data_NdSm3Mn4(CuO5)4
_symmetry_space_group_name_H-M   'P 1'
_cell_length_a   5.67605400
_cell_length_b   7.70850035
_cell_length_c   8.58946693
_cell_angle_alpha   90.14632247
_cell_angle_beta   90.00000000
_cell_angle_gamma   90.00000000
_symmetry_Int_Tables_number   1
_chemical_formula_structural   NdSm3Mn4(CuO5)4
_chemical_formula_sum   'Nd1 Sm3 Mn4 Cu4 O20'
_cell_volume   375.82114444
_cell_formula_units_Z   1
loop_
 _symmetry_equiv_pos_site_id
 _symmetry_equiv_pos_as_xyz
  1  'x, y, z'
loop_
 _atom_site_type_symbol
 _atom_site_label
 _atom_site_symmetry_multiplicity
 _atom_site_fract_x
 _atom_site_fract_y
 _atom_site_fract_z
 _atom_site_occupancy
  Nd  Nd0  1  0.000000  0.150821  0.174492  1
  Sm  Sm1  1  0.000000  0.348924  0.674778  1
  Sm  Sm2  1  0.000000  0.651355  0.325483  1
  Sm  Sm3  1  0.000000  0.848230  0.824471  1
  Mn  Mn4  1  0.260814  0.501521  0.999599  1
  Mn  Mn5  1  0.738838  0.999348  0.500649  1
  Mn  Mn6  1  0.739186  0.501521  0.999599  1
  Mn  Mn7  1  0.261162  0.999348  0.500649  1
  Cu  Cu8  1  0.500000  0.066834  0.849049  1
  Cu  Cu9  1  0.500000  0.928667  0.150162  1
  Cu  Cu10  1  0.500000  0.568263  0.650741  1
  Cu  Cu11  1  0.500000  0.434228  0.349280  1
  O  O12  1  0.247018  0.906189  0.288041  1
  O  O13  1  0.245454  0.091313  0.713080  1
  O  O14  1  0.753908  0.412901  0.212849  1
  O  O15  1  0.754679  0.591264  0.786869  1
  O  O16  1  0.754546  0.091313  0.713080  1
  O  O17  1  0.752982  0.906189  0.288041  1
  O  O18  1  0.245321  0.591264  0.786869  1
  O  O19  1  0.246092  0.412901  0.212849  1
  O  O20  1  0.500000  0.349303  0.941629  1
  O  O21  1  0.500000  0.653035  0.057507  1
  O  O22  1  0.500000  0.848561  0.560441  1
  O  O23  1  0.500000  0.150522  0.440808  1
  O  O24  1  0.277524  0.997216  0.998806  1
  O  O25  1  0.723596  0.499738  0.500415  1
  O  O26  1  0.722476  0.997216  0.998806  1
  O  O27  1  0.276404  0.499738  0.500415  1
  O  O28  1  0.000000  0.159624  0.452509  1
  O  O29  1  0.000000  0.839196  0.549587  1
  O  O30  1  0.000000  0.661775  0.049144  1
  O  O31  1  0.000000  0.341682  0.949300  1
