# generated using pymatgen
data_Tb2DyYAl17GeIr6
_symmetry_space_group_name_H-M   'P 1'
_cell_length_a   7.55541900
_cell_length_b   7.55564154
_cell_length_c   9.48833300
_cell_angle_alpha   90.00000000
_cell_angle_beta   90.00000000
_cell_angle_gamma   119.52921012
_symmetry_Int_Tables_number   1
_chemical_formula_structural   Tb2DyYAl17GeIr6
_chemical_formula_sum   'Tb2 Dy1 Y1 Al17 Ge1 Ir6'
_cell_volume   471.29328509
_cell_formula_units_Z   1
loop_
 _symmetry_equiv_pos_site_id
 _symmetry_equiv_pos_as_xyz
  1  'x, y, z'
loop_
 _atom_site_type_symbol
 _atom_site_label
 _atom_site_symmetry_multiplicity
 _atom_site_fract_x
 _atom_site_fract_y
 _atom_site_fract_z
 _atom_site_occupancy
  Tb  Tb0  1  0.005024  0.324362  0.250000  1
  Tb  Tb1  1  0.671787  0.995721  0.750000  1
  Dy  Dy2  1  0.324544  0.004955  0.250000  1
  Y  Y3  1  0.995785  0.671740  0.750000  1
  Al  Al4  1  0.129511  0.129289  0.750000  1
  Al  Al5  1  0.001944  0.335704  0.575059  1
  Al  Al6  1  0.999478  0.662552  0.426549  1
  Al  Al7  1  0.999478  0.662552  0.073451  1
  Al  Al8  1  0.335426  0.001843  0.925314  1
  Al  Al9  1  0.001944  0.335704  0.924941  1
  Al  Al10  1  0.662165  0.999376  0.073658  1
  Al  Al11  1  0.662165  0.999376  0.426342  1
  Al  Al12  1  0.335426  0.001843  0.574686  1
  Al  Al13  1  0.335554  0.335437  0.051124  1
  Al  Al14  1  0.666718  0.666612  0.943389  1
  Al  Al15  1  0.666718  0.666612  0.556611  1
  Al  Al16  1  0.335554  0.335437  0.448876  1
  Al  Al17  1  0.339309  0.548672  0.750000  1
  Al  Al18  1  0.662207  0.447185  0.250000  1
  Al  Al19  1  0.548621  0.339018  0.750000  1
  Al  Al20  1  0.447318  0.662723  0.250000  1
  Ge  Ge21  1  0.865836  0.865364  0.250000  1
  Ir  Ir22  1  0.673002  0.330464  0.499319  1
  Ir  Ir23  1  0.330399  0.673050  0.499330  1
  Ir  Ir24  1  0.330399  0.673050  0.000670  1
  Ir  Ir25  1  0.673002  0.330464  0.000681  1
  Ir  Ir26  1  0.000341  0.000449  0.499097  1
  Ir  Ir27  1  0.000341  0.000449  0.000903  1
