# generated using pymatgen
data_SrDy3(SiAu2)8
_symmetry_space_group_name_H-M   'P 1'
_cell_length_a   4.46592800
_cell_length_b   4.46592800
_cell_length_c   26.84768800
_cell_angle_alpha   90.00000000
_cell_angle_beta   90.00000000
_cell_angle_gamma   90.00000000
_symmetry_Int_Tables_number   1
_chemical_formula_structural   SrDy3(SiAu2)8
_chemical_formula_sum   'Sr1 Dy3 Si8 Au16'
_cell_volume   535.46405968
_cell_formula_units_Z   1
loop_
 _symmetry_equiv_pos_site_id
 _symmetry_equiv_pos_as_xyz
  1  'x, y, z'
loop_
 _atom_site_type_symbol
 _atom_site_label
 _atom_site_symmetry_multiplicity
 _atom_site_fract_x
 _atom_site_fract_y
 _atom_site_fract_z
 _atom_site_occupancy
  Sr  Sr0  1  0.500000  0.500000  0.000000  1
  Dy  Dy1  1  0.000000  0.500000  0.748839  1
  Dy  Dy2  1  0.500000  0.000000  0.251161  1
  Dy  Dy3  1  0.500000  0.500000  0.500000  1
  Si  Si4  1  0.000000  0.000000  0.954107  1
  Si  Si5  1  0.000000  0.000000  0.456489  1
  Si  Si6  1  0.500000  0.000000  0.792986  1
  Si  Si7  1  0.500000  0.000000  0.705784  1
  Si  Si8  1  0.000000  0.500000  0.207014  1
  Si  Si9  1  0.000000  0.500000  0.294216  1
  Si  Si10  1  0.000000  0.000000  0.045893  1
  Si  Si11  1  0.000000  0.000000  0.543511  1
  Au  Au12  1  0.500000  0.000000  0.089348  1
  Au  Au13  1  0.500000  0.500000  0.663780  1
  Au  Au14  1  0.500000  0.500000  0.833201  1
  Au  Au15  1  0.000000  0.500000  0.088684  1
  Au  Au16  1  0.500000  0.000000  0.911316  1
  Au  Au17  1  0.000000  0.000000  0.665138  1
  Au  Au18  1  0.000000  0.500000  0.415841  1
  Au  Au19  1  0.500000  0.500000  0.336220  1
  Au  Au20  1  0.500000  0.000000  0.414512  1
  Au  Au21  1  0.000000  0.000000  0.334862  1
  Au  Au22  1  0.000000  0.000000  0.166123  1
  Au  Au23  1  0.500000  0.000000  0.584159  1
  Au  Au24  1  0.000000  0.000000  0.833877  1
  Au  Au25  1  0.500000  0.500000  0.166799  1
  Au  Au26  1  0.000000  0.500000  0.585488  1
  Au  Au27  1  0.000000  0.500000  0.910652  1
