# generated using pymatgen
data_SrCeEuSe4
_symmetry_space_group_name_H-M   'P 1'
_cell_length_a   7.88264118
_cell_length_b   7.88263990
_cell_length_c   7.88990200
_cell_angle_alpha   109.47390640
_cell_angle_beta   109.47391081
_cell_angle_gamma   109.54354126
_symmetry_Int_Tables_number   1
_chemical_formula_structural   SrCeEuSe4
_chemical_formula_sum   'Sr2 Ce2 Eu2 Se8'
_cell_volume   377.02996406
_cell_formula_units_Z   2
loop_
 _symmetry_equiv_pos_site_id
 _symmetry_equiv_pos_as_xyz
  1  'x, y, z'
loop_
 _atom_site_type_symbol
 _atom_site_label
 _atom_site_symmetry_multiplicity
 _atom_site_fract_x
 _atom_site_fract_y
 _atom_site_fract_z
 _atom_site_occupancy
  Sr  Sr0  1  0.750952  0.380281  0.876300  1
  Sr  Sr1  1  0.630281  0.500952  0.376300  1
  Ce  Ce2  1  0.498037  0.872468  0.128749  1
  Ce  Ce3  1  0.122468  0.248037  0.628749  1
  Eu  Eu4  1  0.245052  0.749686  0.496955  1
  Eu  Eu5  1  0.999686  0.995052  0.996955  1
  Se  Se6  1  0.736694  0.985813  0.600411  1
  Se  Se7  1  0.369055  0.113717  0.385860  1
  Se  Se8  1  0.505810  0.624183  0.756310  1
  Se  Se9  1  0.235813  0.486694  0.100411  1
  Se  Se10  1  0.363717  0.119055  0.885860  1
  Se  Se11  1  0.874183  0.255810  0.256310  1
  Se  Se12  1  0.040640  0.627608  0.755415  1
  Se  Se13  1  0.877608  0.790640  0.255415  1
