# generated using pymatgen
data_Cs2Cu(S4O13)2
_symmetry_space_group_name_H-M   'P 1'
_cell_length_a   7.85746209
_cell_length_b   8.94320934
_cell_length_c   9.70989826
_cell_angle_alpha   108.04560228
_cell_angle_beta   89.32836585
_cell_angle_gamma   106.80250946
_symmetry_Int_Tables_number   1
_chemical_formula_structural   Cs2Cu(S4O13)2
_chemical_formula_sum   'Cs2 Cu1 S8 O26'
_cell_volume   618.78828316
_cell_formula_units_Z   1
loop_
 _symmetry_equiv_pos_site_id
 _symmetry_equiv_pos_as_xyz
  1  'x, y, z'
loop_
 _atom_site_type_symbol
 _atom_site_label
 _atom_site_symmetry_multiplicity
 _atom_site_fract_x
 _atom_site_fract_y
 _atom_site_fract_z
 _atom_site_occupancy
  Cs  Cs0  1  0.131039  0.267761  0.885292  1
  Cs  Cs1  1  0.868961  0.732239  0.114708  1
  Cu  Cu2  1  0.500000  0.500000  0.500000  1
  S  S3  1  0.666078  0.360807  0.700872  1
  S  S4  1  0.333922  0.639193  0.299128  1
  S  S5  1  0.873285  0.192962  0.482057  1
  S  S6  1  0.126715  0.807038  0.517943  1
  S  S7  1  0.394069  0.160706  0.231262  1
  S  S8  1  0.605931  0.839294  0.768738  1
  S  S9  1  0.784259  0.222222  0.199701  1
  S  S10  1  0.215741  0.777778  0.800299  1
  O  O11  1  0.700387  0.188812  0.567487  1
  O  O12  1  0.299613  0.811188  0.432513  1
  O  O13  1  0.685242  0.480538  0.619708  1
  O  O14  1  0.314758  0.519462  0.380292  1
  O  O15  1  0.809523  0.414158  0.812354  1
  O  O16  1  0.190477  0.585842  0.187646  1
  O  O17  1  0.848424  0.300125  0.375622  1
  O  O18  1  0.151576  0.699875  0.624378  1
  O  O19  1  0.031300  0.295708  0.573562  1
  O  O20  1  0.968700  0.704292  0.426438  1
  O  O21  1  0.487554  0.287889  0.730098  1
  O  O22  1  0.512446  0.712111  0.269902  1
  O  O23  1  0.853068  0.026714  0.396152  1
  O  O24  1  0.146932  0.973286  0.603848  1
  O  O25  1  0.436353  0.262381  0.386595  1
  O  O26  1  0.563647  0.737619  0.613405  1
  O  O27  1  0.594274  0.099107  0.192436  1
  O  O28  1  0.405726  0.900893  0.807564  1
  O  O29  1  0.779435  0.364490  0.164355  1
  O  O30  1  0.220565  0.635510  0.835645  1
  O  O31  1  0.896613  0.125590  0.130123  1
  O  O32  1  0.103387  0.874410  0.869877  1
  O  O33  1  0.384083  0.247571  0.131143  1
  O  O34  1  0.615917  0.752429  0.868857  1
  O  O35  1  0.271963  0.000121  0.209746  1
  O  O36  1  0.728037  0.999879  0.790254  1
