# generated using pymatgen
data_Tb7Y13(CoSb2)4
_symmetry_space_group_name_H-M   'P 1'
_cell_length_a   7.96199902
_cell_length_b   8.74791601
_cell_length_c   12.22942103
_cell_angle_alpha   89.99711241
_cell_angle_beta   90.00688105
_cell_angle_gamma   89.99480068
_symmetry_Int_Tables_number   1
_chemical_formula_structural   Tb7Y13(CoSb2)4
_chemical_formula_sum   'Tb7 Y13 Co4 Sb8'
_cell_volume   851.79015474
_cell_formula_units_Z   1
loop_
 _symmetry_equiv_pos_site_id
 _symmetry_equiv_pos_as_xyz
  1  'x, y, z'
loop_
 _atom_site_type_symbol
 _atom_site_label
 _atom_site_symmetry_multiplicity
 _atom_site_fract_x
 _atom_site_fract_y
 _atom_site_fract_z
 _atom_site_occupancy
  Tb  Tb0  1  0.321765  0.034457  0.435099  1
  Tb  Tb1  1  0.178268  0.465825  0.935100  1
  Tb  Tb2  1  0.678318  0.534416  0.564852  1
  Tb  Tb3  1  0.177750  0.034480  0.935233  1
  Tb  Tb4  1  0.678286  0.965587  0.564914  1
  Tb  Tb5  1  0.821770  0.534299  0.064984  1
  Tb  Tb6  1  0.321712  0.465471  0.435160  1
  Y  Y7  1  0.155784  0.749824  0.203986  1
  Y  Y8  1  0.655745  0.250032  0.295960  1
  Y  Y9  1  0.844468  0.249978  0.796288  1
  Y  Y10  1  0.344207  0.749966  0.704061  1
  Y  Y11  1  0.456668  0.749572  0.998536  1
  Y  Y12  1  0.956916  0.249940  0.501291  1
  Y  Y13  1  0.542917  0.250361  0.001127  1
  Y  Y14  1  0.043100  0.750011  0.498677  1
  Y  Y15  1  0.623115  0.749639  0.304463  1
  Y  Y16  1  0.122728  0.249940  0.195078  1
  Y  Y17  1  0.376908  0.249968  0.695584  1
  Y  Y18  1  0.876665  0.750249  0.804621  1
  Y  Y19  1  0.821798  0.965321  0.065701  1
  Co  Co20  1  0.435082  0.749970  0.489723  1
  Co  Co21  1  0.935480  0.251381  0.010003  1
  Co  Co22  1  0.564892  0.250012  0.510253  1
  Co  Co23  1  0.065104  0.749855  0.989669  1
  Sb  Sb24  1  0.927711  0.991396  0.326635  1
  Sb  Sb25  1  0.428455  0.008368  0.172927  1
  Sb  Sb26  1  0.072187  0.491449  0.673239  1
  Sb  Sb27  1  0.572431  0.508563  0.826665  1
  Sb  Sb28  1  0.072250  0.008506  0.673201  1
  Sb  Sb29  1  0.572192  0.991453  0.826898  1
  Sb  Sb30  1  0.927747  0.508425  0.326846  1
  Sb  Sb31  1  0.427583  0.491288  0.173225  1
