# generated using pymatgen
data_Cs2ScCo3F12
_symmetry_space_group_name_H-M   'P 1'
_cell_length_a   7.54182400
_cell_length_b   7.74981908
_cell_length_c   13.10621200
_cell_angle_alpha   55.15241107
_cell_angle_beta   90.00000000
_cell_angle_gamma   90.00000000
_symmetry_Int_Tables_number   1
_chemical_formula_structural   Cs2ScCo3F12
_chemical_formula_sum   'Cs4 Sc2 Co6 F24'
_cell_volume   628.66067845
_cell_formula_units_Z   2
loop_
 _symmetry_equiv_pos_site_id
 _symmetry_equiv_pos_as_xyz
  1  'x, y, z'
loop_
 _atom_site_type_symbol
 _atom_site_label
 _atom_site_symmetry_multiplicity
 _atom_site_fract_x
 _atom_site_fract_y
 _atom_site_fract_z
 _atom_site_occupancy
  Cs  Cs0  1  0.499250  0.346052  0.384504  1
  Cs  Cs1  1  0.000750  0.346052  0.884504  1
  Cs  Cs2  1  0.500750  0.653948  0.615496  1
  Cs  Cs3  1  0.999250  0.653948  0.115496  1
  Sc  Sc4  1  0.500000  0.500000  0.000000  1
  Sc  Sc5  1  0.000000  0.500000  0.500000  1
  Co  Co6  1  0.500000  0.000000  0.000000  1
  Co  Co7  1  0.000000  0.000000  0.500000  1
  Co  Co8  1  0.731854  0.992011  0.258552  1
  Co  Co9  1  0.768146  0.992011  0.758552  1
  Co  Co10  1  0.268146  0.007989  0.741448  1
  Co  Co11  1  0.231854  0.007989  0.241448  1
  F  F12  1  0.666591  0.927707  0.135056  1
  F  F13  1  0.833409  0.927707  0.635056  1
  F  F14  1  0.333409  0.072293  0.864944  1
  F  F15  1  0.166591  0.072293  0.364944  1
  F  F16  1  0.210381  0.967594  0.605889  1
  F  F17  1  0.289619  0.967594  0.105889  1
  F  F18  1  0.789619  0.032406  0.394111  1
  F  F19  1  0.710381  0.032406  0.894111  1
  F  F20  1  0.477640  0.947915  0.311959  1
  F  F21  1  0.022360  0.947915  0.811959  1
  F  F22  1  0.522360  0.052085  0.688041  1
  F  F23  1  0.977640  0.052085  0.188041  1
  F  F24  1  0.822339  0.310331  0.637358  1
  F  F25  1  0.677661  0.310331  0.137358  1
  F  F26  1  0.177661  0.689669  0.362642  1
  F  F27  1  0.322339  0.689669  0.862642  1
  F  F28  1  0.291578  0.324971  0.113369  1
  F  F29  1  0.208422  0.324971  0.613369  1
  F  F30  1  0.708422  0.675029  0.886631  1
  F  F31  1  0.791578  0.675029  0.386631  1
  F  F32  1  0.515829  0.316586  0.933133  1
  F  F33  1  0.984171  0.316586  0.433133  1
  F  F34  1  0.484171  0.683414  0.066867  1
  F  F35  1  0.015829  0.683414  0.566867  1
