# generated using pymatgen
data_Nd2Co3Tc5Ni3P7Ru
_symmetry_space_group_name_H-M   'P 1'
_cell_length_a   9.39158600
_cell_length_b   9.39158458
_cell_length_c   3.80206800
_cell_angle_alpha   90.00000000
_cell_angle_beta   90.00000000
_cell_angle_gamma   119.99999794
_symmetry_Int_Tables_number   1
_chemical_formula_structural   Nd2Co3Tc5Ni3P7Ru
_chemical_formula_sum   'Nd2 Co3 Tc5 Ni3 P7 Ru1'
_cell_volume   290.42121278
_cell_formula_units_Z   1
loop_
 _symmetry_equiv_pos_site_id
 _symmetry_equiv_pos_as_xyz
  1  'x, y, z'
loop_
 _atom_site_type_symbol
 _atom_site_label
 _atom_site_symmetry_multiplicity
 _atom_site_fract_x
 _atom_site_fract_y
 _atom_site_fract_z
 _atom_site_occupancy
  Nd  Nd0  1  0.000602  0.999513  0.000000  1
  Nd  Nd1  1  0.332971  0.667109  0.500000  1
  Co  Co2  1  0.823561  0.603488  0.000000  1
  Co  Co3  1  0.396810  0.219036  0.000000  1
  Co  Co4  1  0.780223  0.177999  0.000000  1
  Tc  Tc5  1  0.230715  0.290548  0.500000  1
  Tc  Tc6  1  0.709103  0.940284  0.500000  1
  Tc  Tc7  1  0.877008  0.423792  0.500000  1
  Tc  Tc8  1  0.579223  0.453283  0.500000  1
  Tc  Tc9  1  0.547302  0.125105  0.500000  1
  Ni  Ni10  1  0.087417  0.396422  0.000000  1
  Ni  Ni11  1  0.604157  0.691022  0.000000  1
  Ni  Ni12  1  0.306875  0.910647  0.000000  1
  P  P13  1  0.784266  0.730629  0.500000  1
  P  P14  1  0.269915  0.055061  0.500000  1
  P  P15  1  0.944415  0.214225  0.500000  1
  P  P16  1  0.666157  0.332915  0.000000  1
  P  P17  1  0.071024  0.630039  0.000000  1
  P  P18  1  0.369505  0.440946  0.000000  1
  P  P19  1  0.558580  0.928375  0.000000  1
  Ru  Ru20  1  0.060172  0.769561  0.500000  1
