# generated using pymatgen
data_LiEu2ZnSb4
_symmetry_space_group_name_H-M   'P 1'
_cell_length_a   4.38274600
_cell_length_b   4.41755870
_cell_length_c   21.75507332
_cell_angle_alpha   90.09345729
_cell_angle_beta   90.00000000
_cell_angle_gamma   90.00000000
_symmetry_Int_Tables_number   1
_chemical_formula_structural   LiEu2ZnSb4
_chemical_formula_sum   'Li2 Eu4 Zn2 Sb8'
_cell_volume   421.20023518
_cell_formula_units_Z   2
loop_
 _symmetry_equiv_pos_site_id
 _symmetry_equiv_pos_as_xyz
  1  'x, y, z'
loop_
 _atom_site_type_symbol
 _atom_site_label
 _atom_site_symmetry_multiplicity
 _atom_site_fract_x
 _atom_site_fract_y
 _atom_site_fract_z
 _atom_site_occupancy
  Li  Li0  1  0.250000  0.273017  0.750102  1
  Li  Li1  1  0.750000  0.726983  0.249898  1
  Eu  Eu2  1  0.250000  0.768934  0.619683  1
  Eu  Eu3  1  0.750000  0.231066  0.380317  1
  Eu  Eu4  1  0.750000  0.269932  0.880635  1
  Eu  Eu5  1  0.250000  0.730068  0.119365  1
  Zn  Zn6  1  0.750000  0.773356  0.749478  1
  Zn  Zn7  1  0.250000  0.226644  0.250522  1
  Sb  Sb8  1  0.250000  0.224421  0.003304  1
  Sb  Sb9  1  0.750000  0.775579  0.996696  1
  Sb  Sb10  1  0.750000  0.726054  0.499759  1
  Sb  Sb11  1  0.250000  0.273946  0.500241  1
  Sb  Sb12  1  0.250000  0.727525  0.329026  1
  Sb  Sb13  1  0.750000  0.272475  0.670974  1
  Sb  Sb14  1  0.750000  0.227224  0.171585  1
  Sb  Sb15  1  0.250000  0.772776  0.828415  1
