# generated using pymatgen
data_LaNd7(Sc3Pb4)4
_symmetry_space_group_name_H-M   'P 1'
_cell_length_a   8.00176252
_cell_length_b   15.25164737
_cell_length_c   8.12434500
_cell_angle_alpha   89.96466077
_cell_angle_beta   90.26644641
_cell_angle_gamma   90.12885238
_symmetry_Int_Tables_number   1
_chemical_formula_structural   LaNd7(Sc3Pb4)4
_chemical_formula_sum   'La1 Nd7 Sc12 Pb16'
_cell_volume   991.48214359
_cell_formula_units_Z   1
loop_
 _symmetry_equiv_pos_site_id
 _symmetry_equiv_pos_as_xyz
  1  'x, y, z'
loop_
 _atom_site_type_symbol
 _atom_site_label
 _atom_site_symmetry_multiplicity
 _atom_site_fract_x
 _atom_site_fract_y
 _atom_site_fract_z
 _atom_site_occupancy
  La  La0  1  0.982327  0.594180  0.825251  1
  Nd  Nd1  1  0.481903  0.594845  0.675219  1
  Nd  Nd2  1  0.982562  0.905265  0.824865  1
  Nd  Nd3  1  0.517796  0.094730  0.324231  1
  Nd  Nd4  1  0.017957  0.404619  0.175632  1
  Nd  Nd5  1  0.518034  0.404925  0.323985  1
  Nd  Nd6  1  0.017562  0.094740  0.175661  1
  Nd  Nd7  1  0.482388  0.906018  0.675754  1
  Sc  Sc8  1  0.645130  0.625759  0.156848  1
  Sc  Sc9  1  0.145837  0.874393  0.343194  1
  Sc  Sc10  1  0.353607  0.125590  0.843251  1
  Sc  Sc11  1  0.854141  0.373593  0.656672  1
  Sc  Sc12  1  0.353876  0.374067  0.843262  1
  Sc  Sc13  1  0.854142  0.125967  0.657151  1
  Sc  Sc14  1  0.646845  0.874397  0.156915  1
  Sc  Sc15  1  0.146154  0.626163  0.342667  1
  Sc  Sc16  1  0.813666  0.750375  0.493000  1
  Sc  Sc17  1  0.313899  0.750361  0.006551  1
  Sc  Sc18  1  0.186497  0.249990  0.506371  1
  Sc  Sc19  1  0.686206  0.250075  0.993673  1
  Pb  Pb20  1  0.689335  0.454149  0.953388  1
  Pb  Pb21  1  0.190973  0.044832  0.546366  1
  Pb  Pb22  1  0.309156  0.955181  0.047748  1
  Pb  Pb23  1  0.808170  0.544806  0.451835  1
  Pb  Pb24  1  0.309678  0.544454  0.048340  1
  Pb  Pb25  1  0.808808  0.955233  0.454134  1
  Pb  Pb26  1  0.691247  0.044853  0.952976  1
  Pb  Pb27  1  0.191882  0.454859  0.545497  1
  Pb  Pb28  1  0.453488  0.749955  0.364327  1
  Pb  Pb29  1  0.952741  0.750506  0.135854  1
  Pb  Pb30  1  0.546888  0.249921  0.635533  1
  Pb  Pb31  1  0.047588  0.249808  0.864940  1
  Pb  Pb32  1  0.670532  0.750649  0.850862  1
  Pb  Pb33  1  0.172784  0.751115  0.648054  1
  Pb  Pb34  1  0.328040  0.249769  0.149008  1
  Pb  Pb35  1  0.828162  0.249857  0.350985  1
