# generated using pymatgen
data_Dy3In3Hg2Pd
_symmetry_space_group_name_H-M   'P 1'
_cell_length_a   7.74358900
_cell_length_b   7.74358943
_cell_length_c   4.09461900
_cell_angle_alpha   90.00000000
_cell_angle_beta   90.00000000
_cell_angle_gamma   120.00000243
_symmetry_Int_Tables_number   1
_chemical_formula_structural   Dy3In3Hg2Pd
_chemical_formula_sum   'Dy3 In3 Hg2 Pd1'
_cell_volume   212.63205234
_cell_formula_units_Z   1
loop_
 _symmetry_equiv_pos_site_id
 _symmetry_equiv_pos_as_xyz
  1  'x, y, z'
loop_
 _atom_site_type_symbol
 _atom_site_label
 _atom_site_symmetry_multiplicity
 _atom_site_fract_x
 _atom_site_fract_y
 _atom_site_fract_z
 _atom_site_occupancy
  Dy  Dy0  1  0.396414  0.000000  0.500000  1
  Dy  Dy1  1  0.603586  0.603586  0.500000  1
  Dy  Dy2  1  0.000000  0.396414  0.500000  1
  In  In3  1  0.248344  0.248344  0.000000  1
  In  In4  1  0.751656  0.000000  0.000000  1
  In  In5  1  0.000000  0.751656  0.000000  1
  Hg  Hg6  1  0.666667  0.333333  0.000000  1
  Hg  Hg7  1  0.333333  0.666667  0.000000  1
  Pd  Pd8  1  0.000000  0.000000  0.500000  1
