# generated using pymatgen
data_HoTmNi7P4
_symmetry_space_group_name_H-M   'P 1'
_cell_length_a   3.67941500
_cell_length_b   9.11755100
_cell_length_c   10.23070400
_cell_angle_alpha   90.00000000
_cell_angle_beta   90.00000000
_cell_angle_gamma   90.00000000
_symmetry_Int_Tables_number   1
_chemical_formula_structural   HoTmNi7P4
_chemical_formula_sum   'Ho2 Tm2 Ni14 P8'
_cell_volume   343.21202479
_cell_formula_units_Z   2
loop_
 _symmetry_equiv_pos_site_id
 _symmetry_equiv_pos_as_xyz
  1  'x, y, z'
loop_
 _atom_site_type_symbol
 _atom_site_label
 _atom_site_symmetry_multiplicity
 _atom_site_fract_x
 _atom_site_fract_y
 _atom_site_fract_z
 _atom_site_occupancy
  Ho  Ho0  1  0.000000  0.436286  0.178503  1
  Ho  Ho1  1  0.500000  0.563714  0.678503  1
  Tm  Tm2  1  0.000000  0.057721  0.395646  1
  Tm  Tm3  1  0.500000  0.942279  0.895646  1
  Ni  Ni4  1  0.000000  0.055781  0.699834  1
  Ni  Ni5  1  0.500000  0.944219  0.199834  1
  Ni  Ni6  1  0.000000  0.724229  0.510500  1
  Ni  Ni7  1  0.500000  0.275771  0.010500  1
  Ni  Ni8  1  0.000000  0.097742  0.093701  1
  Ni  Ni9  1  0.500000  0.902258  0.593701  1
  Ni  Ni10  1  0.000000  0.745804  0.273125  1
  Ni  Ni11  1  0.500000  0.254196  0.773125  1
  Ni  Ni12  1  0.000000  0.306130  0.603207  1
  Ni  Ni13  1  0.500000  0.693870  0.103207  1
  Ni  Ni14  1  0.000000  0.687815  0.912089  1
  Ni  Ni15  1  0.500000  0.312185  0.412089  1
  Ni  Ni16  1  0.000000  0.418547  0.868926  1
  Ni  Ni17  1  0.500000  0.581453  0.368926  1
  P  P18  1  0.000000  0.179780  0.889345  1
  P  P19  1  0.500000  0.820220  0.389345  1
  P  P20  1  0.000000  0.847125  0.082827  1
  P  P21  1  0.500000  0.152875  0.582827  1
  P  P22  1  0.000000  0.809270  0.715435  1
  P  P23  1  0.500000  0.190730  0.215435  1
  P  P24  1  0.000000  0.479469  0.460959  1
  P  P25  1  0.500000  0.520531  0.960959  1
