# generated using pymatgen
data_AlV2(TcS4)2
_symmetry_space_group_name_H-M   'P 1'
_cell_length_a   6.87588332
_cell_length_b   6.84374905
_cell_length_c   6.84399536
_cell_angle_alpha   59.45696140
_cell_angle_beta   59.84526940
_cell_angle_gamma   59.84415101
_symmetry_Int_Tables_number   1
_chemical_formula_structural   AlV2(TcS4)2
_chemical_formula_sum   'Al1 V2 Tc2 S8'
_cell_volume   226.24976337
_cell_formula_units_Z   1
loop_
 _symmetry_equiv_pos_site_id
 _symmetry_equiv_pos_as_xyz
  1  'x, y, z'
loop_
 _atom_site_type_symbol
 _atom_site_label
 _atom_site_symmetry_multiplicity
 _atom_site_fract_x
 _atom_site_fract_y
 _atom_site_fract_z
 _atom_site_occupancy
  Al  Al0  1  0.999282  0.000722  0.000722  1
  V  V1  1  0.193562  0.597760  0.597763  1
  V  V2  1  0.610888  0.597787  0.597794  1
  Tc  Tc3  1  0.603135  0.602113  0.191618  1
  Tc  Tc4  1  0.603142  0.191590  0.602122  1
  S  S5  1  0.364791  0.380264  0.890146  1
  S  S6  1  0.364799  0.890152  0.380246  1
  S  S7  1  0.897986  0.369261  0.369238  1
  S  S8  1  0.363510  0.369264  0.369238  1
  S  S9  1  0.863414  0.866069  0.407110  1
  S  S10  1  0.863402  0.407129  0.866076  1
  S  S11  1  0.409449  0.863947  0.863967  1
  S  S12  1  0.862639  0.863941  0.863958  1
