# generated using pymatgen
data_Nd4SmSi2Pb
_symmetry_space_group_name_H-M   'P 1'
_cell_length_a   7.93146571
_cell_length_b   7.93146772
_cell_length_c   9.33880000
_cell_angle_alpha   115.12859320
_cell_angle_beta   115.12859205
_cell_angle_gamma   89.99999909
_symmetry_Int_Tables_number   1
_chemical_formula_structural   Nd4SmSi2Pb
_chemical_formula_sum   'Nd8 Sm2 Si4 Pb2'
_cell_volume   469.74796051
_cell_formula_units_Z   2
loop_
 _symmetry_equiv_pos_site_id
 _symmetry_equiv_pos_as_xyz
  1  'x, y, z'
loop_
 _atom_site_type_symbol
 _atom_site_label
 _atom_site_symmetry_multiplicity
 _atom_site_fract_x
 _atom_site_fract_y
 _atom_site_fract_z
 _atom_site_occupancy
  Nd  Nd0  1  0.962357  0.810799  0.273155  1
  Nd  Nd1  1  0.310799  0.462357  0.273155  1
  Nd  Nd2  1  0.810799  0.310799  0.273155  1
  Nd  Nd3  1  0.462357  0.962357  0.273155  1
  Nd  Nd4  1  0.037643  0.189201  0.726845  1
  Nd  Nd5  1  0.689201  0.537643  0.726845  1
  Nd  Nd6  1  0.189201  0.689201  0.726845  1
  Nd  Nd7  1  0.537643  0.037643  0.726845  1
  Sm  Sm8  1  0.500000  0.500000  0.000000  1
  Sm  Sm9  1  0.000000  0.000000  0.000000  1
  Si  Si10  1  0.619536  0.880464  0.000000  1
  Si  Si11  1  0.380464  0.119536  0.000000  1
  Si  Si12  1  0.880464  0.380464  0.000000  1
  Si  Si13  1  0.119536  0.619536  0.000000  1
  Pb  Pb14  1  0.750000  0.750000  0.500000  1
  Pb  Pb15  1  0.250000  0.250000  0.500000  1
