# generated using pymatgen
data_Sm8MgSc11Si15Ge
_symmetry_space_group_name_H-M   'P 1'
_cell_length_a   7.15558622
_cell_length_b   7.47302221
_cell_length_c   14.15730905
_cell_angle_alpha   90.01337357
_cell_angle_beta   89.89767049
_cell_angle_gamma   89.91806316
_symmetry_Int_Tables_number   1
_chemical_formula_structural   Sm8MgSc11Si15Ge
_chemical_formula_sum   'Sm8 Mg1 Sc11 Si15 Ge1'
_cell_volume   757.04388413
_cell_formula_units_Z   1
loop_
 _symmetry_equiv_pos_site_id
 _symmetry_equiv_pos_as_xyz
  1  'x, y, z'
loop_
 _atom_site_type_symbol
 _atom_site_label
 _atom_site_symmetry_multiplicity
 _atom_site_fract_x
 _atom_site_fract_y
 _atom_site_fract_z
 _atom_site_occupancy
  Sm  Sm0  1  0.011516  0.173255  0.097428  1
  Sm  Sm1  1  0.989425  0.822774  0.901435  1
  Sm  Sm2  1  0.484971  0.673316  0.901483  1
  Sm  Sm3  1  0.989476  0.823469  0.598738  1
  Sm  Sm4  1  0.511923  0.325708  0.097638  1
  Sm  Sm5  1  0.010337  0.172646  0.401926  1
  Sm  Sm6  1  0.512383  0.324539  0.401424  1
  Sm  Sm7  1  0.487299  0.674727  0.598942  1
  Mg  Mg8  1  0.158734  0.501622  0.751383  1
  Sc  Sc9  1  0.839214  0.499774  0.249895  1
  Sc  Sc10  1  0.339050  0.000844  0.249883  1
  Sc  Sc11  1  0.659530  0.999113  0.750193  1
  Sc  Sc12  1  0.330571  0.176967  0.625778  1
  Sc  Sc13  1  0.670016  0.824481  0.374519  1
  Sc  Sc14  1  0.168774  0.678288  0.373753  1
  Sc  Sc15  1  0.670769  0.823733  0.124768  1
  Sc  Sc16  1  0.832161  0.324873  0.625148  1
  Sc  Sc17  1  0.328324  0.179193  0.875232  1
  Sc  Sc18  1  0.833032  0.324605  0.874914  1
  Sc  Sc19  1  0.170079  0.677741  0.125568  1
  Si  Si20  1  0.033042  0.112264  0.750073  1
  Si  Si21  1  0.966478  0.880140  0.249550  1
  Si  Si22  1  0.466112  0.621667  0.249764  1
  Si  Si23  1  0.539735  0.377592  0.750263  1
  Si  Si24  1  0.289812  0.888402  0.750380  1
  Si  Si25  1  0.712303  0.122004  0.249584  1
  Si  Si26  1  0.211456  0.378243  0.250002  1
  Si  Si27  1  0.778558  0.622543  0.750170  1
  Si  Si28  1  0.840679  0.538223  0.460743  1
  Si  Si29  1  0.345273  0.963931  0.460881  1
  Si  Si30  1  0.845635  0.536737  0.038336  1
  Si  Si31  1  0.655929  0.035540  0.539970  1
  Si  Si32  1  0.155361  0.461699  0.965461  1
  Si  Si33  1  0.655069  0.034936  0.959881  1
  Si  Si34  1  0.346276  0.964320  0.039117  1
  Ge  Ge35  1  0.160701  0.460092  0.535774  1
