# generated using pymatgen
data_PrTh7(GePd)8
_symmetry_space_group_name_H-M   'P 1'
_cell_length_a   4.52255300
_cell_length_b   7.79021400
_cell_length_c   14.59985700
_cell_angle_alpha   90.00000000
_cell_angle_beta   90.00000000
_cell_angle_gamma   90.00000000
_symmetry_Int_Tables_number   1
_chemical_formula_structural   PrTh7(GePd)8
_chemical_formula_sum   'Pr1 Th7 Ge8 Pd8'
_cell_volume   514.37713504
_cell_formula_units_Z   1
loop_
 _symmetry_equiv_pos_site_id
 _symmetry_equiv_pos_as_xyz
  1  'x, y, z'
loop_
 _atom_site_type_symbol
 _atom_site_label
 _atom_site_symmetry_multiplicity
 _atom_site_fract_x
 _atom_site_fract_y
 _atom_site_fract_z
 _atom_site_occupancy
  Pr  Pr0  1  0.000000  0.290328  0.000000  1
  Th  Th1  1  0.500000  0.771466  0.747735  1
  Th  Th2  1  0.000000  0.229993  0.753412  1
  Th  Th3  1  0.500000  0.771466  0.252265  1
  Th  Th4  1  0.000000  0.229993  0.246588  1
  Th  Th5  1  0.500000  0.715930  0.000000  1
  Th  Th6  1  0.000000  0.282578  0.500000  1
  Th  Th7  1  0.500000  0.710159  0.500000  1
  Ge  Ge8  1  0.500000  0.407117  0.640218  1
  Ge  Ge9  1  0.000000  0.592203  0.859389  1
  Ge  Ge10  1  0.500000  0.407117  0.359782  1
  Ge  Ge11  1  0.000000  0.592203  0.140611  1
  Ge  Ge12  1  0.500000  0.088052  0.099334  1
  Ge  Ge13  1  0.000000  0.912590  0.398385  1
  Ge  Ge14  1  0.500000  0.088052  0.900666  1
  Ge  Ge15  1  0.000000  0.912590  0.601615  1
  Pd  Pd16  1  0.500000  0.073781  0.615261  1
  Pd  Pd17  1  0.000000  0.924490  0.884669  1
  Pd  Pd18  1  0.500000  0.073781  0.384739  1
  Pd  Pd19  1  0.000000  0.924490  0.115331  1
  Pd  Pd20  1  0.500000  0.417954  0.147477  1
  Pd  Pd21  1  0.000000  0.582857  0.354794  1
  Pd  Pd22  1  0.500000  0.417954  0.852523  1
  Pd  Pd23  1  0.000000  0.582857  0.645206  1
