# generated using pymatgen
data_Li3ScTl4
_symmetry_space_group_name_H-M   'P 1'
_cell_length_a   6.14316900
_cell_length_b   6.14317020
_cell_length_c   9.62053600
_cell_angle_alpha   90.00000000
_cell_angle_beta   90.00000000
_cell_angle_gamma   106.79020621
_symmetry_Int_Tables_number   1
_chemical_formula_structural   Li3ScTl4
_chemical_formula_sum   'Li6 Sc2 Tl8'
_cell_volume   347.58705191
_cell_formula_units_Z   2
loop_
 _symmetry_equiv_pos_site_id
 _symmetry_equiv_pos_as_xyz
  1  'x, y, z'
loop_
 _atom_site_type_symbol
 _atom_site_label
 _atom_site_symmetry_multiplicity
 _atom_site_fract_x
 _atom_site_fract_y
 _atom_site_fract_z
 _atom_site_occupancy
  Li  Li0  1  0.507239  0.507239  0.250000  1
  Li  Li1  1  0.492761  0.492761  0.750000  1
  Li  Li2  1  0.235097  0.764903  0.500000  1
  Li  Li3  1  0.235097  0.764903  0.000000  1
  Li  Li4  1  0.764903  0.235097  0.500000  1
  Li  Li5  1  0.764903  0.235097  0.000000  1
  Sc  Sc6  1  0.998139  0.998139  0.250000  1
  Sc  Sc7  1  0.001861  0.001861  0.750000  1
  Tl  Tl8  1  0.273441  0.273441  0.002289  1
  Tl  Tl9  1  0.726559  0.726559  0.997711  1
  Tl  Tl10  1  0.273441  0.273441  0.497711  1
  Tl  Tl11  1  0.726559  0.726559  0.502289  1
  Tl  Tl12  1  0.500214  0.004338  0.250000  1
  Tl  Tl13  1  0.995662  0.499786  0.750000  1
  Tl  Tl14  1  0.499786  0.995662  0.750000  1
  Tl  Tl15  1  0.004338  0.500214  0.250000  1
