# generated using pymatgen
data_EuSb2As2F18
_symmetry_space_group_name_H-M   'P 1'
_cell_length_a   11.69836500
_cell_length_b   6.18493298
_cell_length_c   11.31776400
_cell_angle_alpha   89.68753158
_cell_angle_beta   90.00000000
_cell_angle_gamma   90.00000000
_symmetry_Int_Tables_number   1
_chemical_formula_structural   EuSb2As2F18
_chemical_formula_sum   'Eu2 Sb4 As4 F36'
_cell_volume   818.86883088
_cell_formula_units_Z   2
loop_
 _symmetry_equiv_pos_site_id
 _symmetry_equiv_pos_as_xyz
  1  'x, y, z'
loop_
 _atom_site_type_symbol
 _atom_site_label
 _atom_site_symmetry_multiplicity
 _atom_site_fract_x
 _atom_site_fract_y
 _atom_site_fract_z
 _atom_site_occupancy
  Eu  Eu0  1  0.379331  0.012109  0.503489  1
  Eu  Eu1  1  0.620669  0.012109  0.003489  1
  Sb  Sb2  1  0.114394  0.514469  0.467820  1
  Sb  Sb3  1  0.885606  0.514469  0.967820  1
  Sb  Sb4  1  0.471814  0.512285  0.769120  1
  Sb  Sb5  1  0.528186  0.512285  0.269120  1
  As  As6  1  0.253418  0.097024  0.128985  1
  As  As7  1  0.746582  0.097024  0.628985  1
  As  As8  1  0.861480  0.884777  0.289034  1
  As  As9  1  0.138520  0.884777  0.789034  1
  F  F10  1  0.514012  0.304307  0.894638  1
  F  F11  1  0.300007  0.042617  0.278277  1
  F  F12  1  0.418932  0.274080  0.668213  1
  F  F13  1  0.246161  0.709386  0.455006  1
  F  F14  1  0.016298  0.762433  0.456226  1
  F  F15  1  0.024586  0.048849  0.741418  1
  F  F16  1  0.564583  0.718290  0.141242  1
  F  F17  1  0.198529  0.836622  0.110627  1
  F  F18  1  0.321557  0.545533  0.834158  1
  F  F19  1  0.435417  0.718290  0.641242  1
  F  F20  1  0.230871  0.971943  0.667509  1
  F  F21  1  0.699993  0.042617  0.778277  1
  F  F22  1  0.391812  0.031821  0.067944  1
  F  F23  1  0.799440  0.079260  0.385553  1
  F  F24  1  0.377545  0.479516  0.203217  1
  F  F25  1  0.983702  0.762433  0.956226  1
  F  F26  1  0.200560  0.079260  0.885553  1
  F  F27  1  0.874556  0.548285  0.135369  1
  F  F28  1  0.125444  0.548285  0.635369  1
  F  F29  1  0.678443  0.545533  0.334158  1
  F  F30  1  0.581068  0.274080  0.168213  1
  F  F31  1  0.521024  0.756260  0.868493  1
  F  F32  1  0.801471  0.836622  0.610627  1
  F  F33  1  0.975414  0.048849  0.241418  1
  F  F34  1  0.608188  0.031821  0.567944  1
  F  F35  1  0.769129  0.971943  0.167509  1
  F  F36  1  0.622455  0.479516  0.703217  1
  F  F37  1  0.115403  0.480996  0.301197  1
  F  F38  1  0.884597  0.480996  0.801197  1
  F  F39  1  0.753839  0.709386  0.955006  1
  F  F40  1  0.485988  0.304307  0.394638  1
  F  F41  1  0.990667  0.319590  0.487423  1
  F  F42  1  0.009333  0.319590  0.987423  1
  F  F43  1  0.226330  0.279643  0.479441  1
  F  F44  1  0.773670  0.279643  0.979441  1
  F  F45  1  0.478976  0.756260  0.368493  1
