# generated using pymatgen
data_YbCu3PtAu
_symmetry_space_group_name_H-M   'P 1'
_cell_length_a   5.04641784
_cell_length_b   5.04641814
_cell_length_c   5.15593751
_cell_angle_alpha   60.70020399
_cell_angle_beta   60.70019781
_cell_angle_gamma   59.99999370
_symmetry_Int_Tables_number   1
_chemical_formula_structural   YbCu3PtAu
_chemical_formula_sum   'Yb1 Cu3 Pt1 Au1'
_cell_volume   93.81564276
_cell_formula_units_Z   1
loop_
 _symmetry_equiv_pos_site_id
 _symmetry_equiv_pos_as_xyz
  1  'x, y, z'
loop_
 _atom_site_type_symbol
 _atom_site_label
 _atom_site_symmetry_multiplicity
 _atom_site_fract_x
 _atom_site_fract_y
 _atom_site_fract_z
 _atom_site_occupancy
  Yb  Yb0  1  0.999080  0.999080  0.002761  1
  Cu  Cu1  1  0.626783  0.127782  0.618651  1
  Cu  Cu2  1  0.127782  0.626783  0.618651  1
  Cu  Cu3  1  0.626783  0.626783  0.618651  1
  Pt  Pt4  1  0.627545  0.627545  0.117366  1
  Au  Au5  1  0.242027  0.242027  0.273919  1
