# generated using pymatgen
data_Pr5Si2SnO
_symmetry_space_group_name_H-M   'P 1'
_cell_length_a   9.13606421
_cell_length_b   9.13606403
_cell_length_c   9.13602300
_cell_angle_alpha   126.98800541
_cell_angle_beta   126.98799670
_cell_angle_gamma   78.27038708
_symmetry_Int_Tables_number   1
_chemical_formula_structural   Pr5Si2SnO
_chemical_formula_sum   'Pr10 Si4 Sn2 O2'
_cell_volume   471.24145364
_cell_formula_units_Z   2
loop_
 _symmetry_equiv_pos_site_id
 _symmetry_equiv_pos_as_xyz
  1  'x, y, z'
loop_
 _atom_site_type_symbol
 _atom_site_label
 _atom_site_symmetry_multiplicity
 _atom_site_fract_x
 _atom_site_fract_y
 _atom_site_fract_z
 _atom_site_occupancy
  Pr  Pr0  1  0.488373  0.301544  0.499998  1
  Pr  Pr1  1  0.801544  0.988373  0.499998  1
  Pr  Pr2  1  0.988371  0.488371  0.186827  1
  Pr  Pr3  1  0.301545  0.801545  0.813173  1
  Pr  Pr4  1  0.514239  0.701162  0.500002  1
  Pr  Pr5  1  0.201162  0.014239  0.500002  1
  Pr  Pr6  1  0.014241  0.514241  0.813079  1
  Pr  Pr7  1  0.701161  0.201161  0.186922  1
  Pr  Pr8  1  0.500853  0.500853  0.000000  1
  Pr  Pr9  1  0.000853  0.000853  0.000000  1
  Si  Si10  1  0.128832  0.373780  0.499999  1
  Si  Si11  1  0.873780  0.628832  0.499999  1
  Si  Si12  1  0.628831  0.128831  0.755050  1
  Si  Si13  1  0.373782  0.873782  0.244950  1
  Sn  Sn14  1  0.751401  0.751402  0.000000  1
  Sn  Sn15  1  0.251402  0.251401  0.000000  1
  O  O16  1  0.751233  0.251233  0.499997  1
  O  O17  1  0.251236  0.751236  0.500001  1
