# generated using pymatgen
data_Tb3Nd(ScPt)4
_symmetry_space_group_name_H-M   'P 1'
_cell_length_a   4.63948600
_cell_length_b   7.02691434
_cell_length_c   8.48458144
_cell_angle_alpha   90.18500158
_cell_angle_beta   90.00000000
_cell_angle_gamma   90.00000000
_symmetry_Int_Tables_number   1
_chemical_formula_structural   Tb3Nd(ScPt)4
_chemical_formula_sum   'Tb3 Nd1 Sc4 Pt4'
_cell_volume   276.60669433
_cell_formula_units_Z   1
loop_
 _symmetry_equiv_pos_site_id
 _symmetry_equiv_pos_as_xyz
  1  'x, y, z'
loop_
 _atom_site_type_symbol
 _atom_site_label
 _atom_site_symmetry_multiplicity
 _atom_site_fract_x
 _atom_site_fract_y
 _atom_site_fract_z
 _atom_site_occupancy
  Tb  Tb0  1  0.250000  0.984350  0.322490  1
  Tb  Tb1  1  0.750000  0.016621  0.675155  1
  Tb  Tb2  1  0.250000  0.483755  0.178898  1
  Nd  Nd3  1  0.750000  0.514731  0.822209  1
  Sc  Sc4  1  0.750000  0.640750  0.425370  1
  Sc  Sc5  1  0.250000  0.360439  0.570250  1
  Sc  Sc6  1  0.750000  0.139030  0.074678  1
  Sc  Sc7  1  0.250000  0.860177  0.926314  1
  Pt  Pt8  1  0.250000  0.239167  0.906793  1
  Pt  Pt9  1  0.750000  0.757985  0.100416  1
  Pt  Pt10  1  0.250000  0.746519  0.593304  1
  Pt  Pt11  1  0.750000  0.256476  0.404121  1
