# generated using pymatgen
data_K16Ti8AsP3(O4F9)4
_symmetry_space_group_name_H-M   'P 1'
_cell_length_a   11.16271500
_cell_length_b   5.93705218
_cell_length_c   20.49010500
_cell_angle_alpha   74.14203170
_cell_angle_beta   90.00000000
_cell_angle_gamma   90.00000000
_symmetry_Int_Tables_number   1
_chemical_formula_structural   K16Ti8AsP3(O4F9)4
_chemical_formula_sum   'K16 Ti8 As1 P3 O16 F36'
_cell_volume   1306.27250363
_cell_formula_units_Z   1
loop_
 _symmetry_equiv_pos_site_id
 _symmetry_equiv_pos_as_xyz
  1  'x, y, z'
loop_
 _atom_site_type_symbol
 _atom_site_label
 _atom_site_symmetry_multiplicity
 _atom_site_fract_x
 _atom_site_fract_y
 _atom_site_fract_z
 _atom_site_occupancy
  K  K0  1  0.045938  0.657717  0.832960  1
  K  K1  1  0.453405  0.657842  0.331584  1
  K  K2  1  0.271172  0.457192  0.515059  1
  K  K3  1  0.730194  0.546239  0.481749  1
  K  K4  1  0.756063  0.123773  0.861683  1
  K  K5  1  0.768357  0.542808  0.985459  1
  K  K6  1  0.454697  0.644458  0.848537  1
  K  K7  1  0.044553  0.645867  0.347006  1
  K  K8  1  0.244229  0.872207  0.140095  1
  K  K9  1  0.958777  0.362714  0.652926  1
  K  K10  1  0.544042  0.355226  0.152184  1
  K  K11  1  0.543875  0.346575  0.669261  1
  K  K12  1  0.256065  0.872548  0.640021  1
  K  K13  1  0.231587  0.456010  0.015757  1
  K  K14  1  0.743418  0.128078  0.359738  1
  K  K15  1  0.954475  0.341361  0.167480  1
  Ti  Ti16  1  0.003742  0.999040  0.499209  1
  Ti  Ti17  1  0.744665  0.713403  0.758530  1
  Ti  Ti18  1  0.253872  0.280951  0.244074  1
  Ti  Ti19  1  0.246498  0.280085  0.745194  1
  Ti  Ti20  1  0.499945  0.999959  0.000070  1
  Ti  Ti21  1  0.000086  0.000088  0.000049  1
  Ti  Ti22  1  0.753707  0.719851  0.254669  1
  Ti  Ti23  1  0.497294  0.002187  0.497819  1
  As  As24  1  0.753349  0.957794  0.592685  1
  P  P25  1  0.252322  0.043814  0.908533  1
  P  P26  1  0.747632  0.955850  0.091580  1
  P  P27  1  0.246742  0.046224  0.406875  1
  O  O28  1  0.160816  0.078890  0.962970  1
  O  O29  1  0.376809  0.118804  0.930854  1
  O  O30  1  0.749531  0.200484  0.100069  1
  O  O31  1  0.623186  0.880623  0.069286  1
  O  O32  1  0.839139  0.921925  0.036977  1
  O  O33  1  0.248794  0.800727  0.399198  1
  O  O34  1  0.335956  0.080977  0.462436  1
  O  O35  1  0.220317  0.234859  0.840936  1
  O  O36  1  0.708607  0.742786  0.664480  1
  O  O37  1  0.281366  0.235908  0.339613  1
  O  O38  1  0.121623  0.124233  0.427616  1
  O  O39  1  0.250163  0.798765  0.900378  1
  O  O40  1  0.661155  0.920486  0.528370  1
  O  O41  1  0.749922  0.229496  0.601924  1
  O  O42  1  0.891440  0.860427  0.573223  1
  O  O43  1  0.780045  0.764247  0.159003  1
  F  F44  1  0.960644  0.851540  0.931935  1
  F  F45  1  0.439362  0.716462  0.556874  1
  F  F46  1  0.772791  0.666959  0.853886  1
  F  F47  1  0.131756  0.055909  0.257192  1
  F  F48  1  0.127983  0.520820  0.724320  1
  F  F49  1  0.138080  0.521124  0.239147  1
  F  F50  1  0.039772  0.148280  0.068277  1
  F  F51  1  0.368352  0.055040  0.757818  1
  F  F52  1  0.898330  0.249379  0.459328  1
  F  F53  1  0.941028  0.286831  0.942478  1
  F  F54  1  0.464022  0.146255  0.567883  1
  F  F55  1  0.866167  0.940124  0.740284  1
  F  F56  1  0.372846  0.520417  0.222856  1
  F  F57  1  0.362333  0.520535  0.739868  1
  F  F58  1  0.930213  0.827028  0.443543  1
  F  F59  1  0.868898  0.945020  0.262029  1
  F  F60  1  0.729236  0.666165  0.350773  1
  F  F61  1  0.106204  0.746836  0.541222  1
  F  F62  1  0.075304  0.177084  0.553790  1
  F  F63  1  0.402087  0.742124  0.044280  1
  F  F64  1  0.533046  0.855025  0.428887  1
  F  F65  1  0.553923  0.292479  0.440469  1
  F  F66  1  0.631705  0.944775  0.242009  1
  F  F67  1  0.270698  0.334263  0.648958  1
  F  F68  1  0.428511  0.173056  0.055977  1
  F  F69  1  0.862051  0.475508  0.763559  1
  F  F70  1  0.130832  0.055745  0.737898  1
  F  F71  1  0.059081  0.713243  0.057763  1
  F  F72  1  0.228841  0.334992  0.147991  1
  F  F73  1  0.872775  0.480297  0.276144  1
  F  F74  1  0.631042  0.941785  0.765690  1
  F  F75  1  0.638099  0.479220  0.260047  1
  F  F76  1  0.597859  0.257684  0.956181  1
  F  F77  1  0.368733  0.055422  0.236501  1
  F  F78  1  0.571232  0.826401  0.944335  1
  F  F79  1  0.626593  0.472677  0.781686  1
