# generated using pymatgen
data_Np2Ag2OF11
_symmetry_space_group_name_H-M   'P 1'
_cell_length_a   5.32797808
_cell_length_b   5.32797817
_cell_length_c   9.98939000
_cell_angle_alpha   89.83882249
_cell_angle_beta   89.83882248
_cell_angle_gamma   91.60291935
_symmetry_Int_Tables_number   1
_chemical_formula_structural   Np2Ag2OF11
_chemical_formula_sum   'Np2 Ag2 O1 F11'
_cell_volume   283.45904727
_cell_formula_units_Z   1
loop_
 _symmetry_equiv_pos_site_id
 _symmetry_equiv_pos_as_xyz
  1  'x, y, z'
loop_
 _atom_site_type_symbol
 _atom_site_label
 _atom_site_symmetry_multiplicity
 _atom_site_fract_x
 _atom_site_fract_y
 _atom_site_fract_z
 _atom_site_occupancy
  Np  Np0  1  0.997780  0.997780  0.999731  1
  Np  Np1  1  0.010667  0.010667  0.492443  1
  Ag  Ag2  1  0.481194  0.481194  0.280629  1
  Ag  Ag3  1  0.490519  0.490519  0.771153  1
  O  O4  1  0.190261  0.190261  0.363776  1
  F  F5  1  0.275267  0.275267  0.996959  1
  F  F6  1  0.720890  0.720890  0.993692  1
  F  F7  1  0.734648  0.280873  0.492891  1
  F  F8  1  0.280873  0.734648  0.492891  1
  F  F9  1  0.812619  0.812619  0.633863  1
  F  F10  1  0.800795  0.800795  0.350094  1
  F  F11  1  0.800167  0.197760  0.852651  1
  F  F12  1  0.796851  0.199598  0.142040  1
  F  F13  1  0.210111  0.210111  0.642497  1
  F  F14  1  0.199598  0.796851  0.142040  1
  F  F15  1  0.197760  0.800167  0.852651  1
