# generated using pymatgen
data_Gd6TaOsO14
_symmetry_space_group_name_H-M   'P 1'
_cell_length_a   6.56299486
_cell_length_b   6.56299659
_cell_length_c   7.53801612
_cell_angle_alpha   89.88475979
_cell_angle_beta   90.11524257
_cell_angle_gamma   108.79798902
_symmetry_Int_Tables_number   1
_chemical_formula_structural   Gd6TaOsO14
_chemical_formula_sum   'Gd6 Ta1 Os1 O14'
_cell_volume   307.36489533
_cell_formula_units_Z   1
loop_
 _symmetry_equiv_pos_site_id
 _symmetry_equiv_pos_as_xyz
  1  'x, y, z'
loop_
 _atom_site_type_symbol
 _atom_site_label
 _atom_site_symmetry_multiplicity
 _atom_site_fract_x
 _atom_site_fract_y
 _atom_site_fract_z
 _atom_site_occupancy
  Gd  Gd0  1  0.463611  0.002052  0.257455  1
  Gd  Gd1  1  0.000496  0.531447  0.243270  1
  Gd  Gd2  1  0.465705  0.465705  0.000000  1
  Gd  Gd3  1  0.531534  0.531534  0.500000  1
  Gd  Gd4  1  0.531447  0.000496  0.756730  1
  Gd  Gd5  1  0.002052  0.463611  0.742545  1
  Ta  Ta6  1  0.996438  0.996438  0.000000  1
  Os  Os7  1  0.997600  0.997600  0.500000  1
  O  O8  1  0.934342  0.061213  0.747924  1
  O  O9  1  0.639399  0.362039  0.749598  1
  O  O10  1  0.305728  0.055326  0.537194  1
  O  O11  1  0.952466  0.693860  0.959402  1
  O  O12  1  0.629996  0.371816  0.250046  1
  O  O13  1  0.921388  0.676818  0.524855  1
  O  O14  1  0.325033  0.081691  0.976674  1
  O  O15  1  0.081691  0.325033  0.023326  1
  O  O16  1  0.676818  0.921388  0.475145  1
  O  O17  1  0.371816  0.629996  0.749954  1
  O  O18  1  0.693860  0.952466  0.040598  1
  O  O19  1  0.055326  0.305728  0.462806  1
  O  O20  1  0.362039  0.639399  0.250402  1
  O  O21  1  0.061213  0.934342  0.252076  1
