# generated using pymatgen
data_Ho19Th(Bi2Ru)4
_symmetry_space_group_name_H-M   'P 1'
_cell_length_a   7.99162916
_cell_length_b   8.97440349
_cell_length_c   12.44045599
_cell_angle_alpha   90.11236434
_cell_angle_beta   89.99309372
_cell_angle_gamma   90.02194950
_symmetry_Int_Tables_number   1
_chemical_formula_structural   Ho19Th(Bi2Ru)4
_chemical_formula_sum   'Ho19 Th1 Bi8 Ru4'
_cell_volume   892.22901751
_cell_formula_units_Z   1
loop_
 _symmetry_equiv_pos_site_id
 _symmetry_equiv_pos_as_xyz
  1  'x, y, z'
loop_
 _atom_site_type_symbol
 _atom_site_label
 _atom_site_symmetry_multiplicity
 _atom_site_fract_x
 _atom_site_fract_y
 _atom_site_fract_z
 _atom_site_occupancy
  Ho  Ho0  1  0.840034  0.749932  0.793596  1
  Ho  Ho1  1  0.159503  0.250075  0.206789  1
  Ho  Ho2  1  0.337609  0.251717  0.708699  1
  Ho  Ho3  1  0.660572  0.750149  0.292854  1
  Ho  Ho4  1  0.372510  0.748495  0.693640  1
  Ho  Ho5  1  0.623425  0.253256  0.306156  1
  Ho  Ho6  1  0.876142  0.249331  0.808096  1
  Ho  Ho7  1  0.124083  0.749454  0.191396  1
  Ho  Ho8  1  0.949712  0.748814  0.502835  1
  Ho  Ho9  1  0.054451  0.249552  0.497383  1
  Ho  Ho10  1  0.443709  0.250100  0.996874  1
  Ho  Ho11  1  0.554665  0.750005  0.003661  1
  Ho  Ho12  1  0.318242  0.954299  0.431394  1
  Ho  Ho13  1  0.173622  0.957418  0.935992  1
  Ho  Ho14  1  0.327242  0.542753  0.435498  1
  Ho  Ho15  1  0.826220  0.042586  0.064810  1
  Ho  Ho16  1  0.675511  0.457224  0.565167  1
  Ho  Ho17  1  0.826891  0.457564  0.064948  1
  Ho  Ho18  1  0.173906  0.542316  0.935168  1
  Th  Th19  1  0.673072  0.040122  0.560931  1
  Bi  Bi20  1  0.568248  0.491815  0.827624  1
  Bi  Bi21  1  0.432186  0.508435  0.172364  1
  Bi  Bi22  1  0.066891  0.507422  0.672578  1
  Bi  Bi23  1  0.432455  0.992173  0.172255  1
  Bi  Bi24  1  0.932996  0.492216  0.327171  1
  Bi  Bi25  1  0.566505  0.008003  0.828799  1
  Bi  Bi26  1  0.931117  0.008311  0.325848  1
  Bi  Bi27  1  0.072415  0.990637  0.673983  1
  Ru  Ru28  1  0.577337  0.759525  0.513797  1
  Ru  Ru29  1  0.428075  0.246268  0.490281  1
  Ru  Ru30  1  0.074452  0.249985  0.989055  1
  Ru  Ru31  1  0.926204  0.750051  0.010358  1
