# generated using pymatgen
data_Zr4MnAl3FeOs3
_symmetry_space_group_name_H-M   'P 1'
_cell_length_a   5.17694239
_cell_length_b   5.13763052
_cell_length_c   8.52059200
_cell_angle_alpha   90.00000000
_cell_angle_beta   90.00000000
_cell_angle_gamma   119.22406570
_symmetry_Int_Tables_number   1
_chemical_formula_structural   Zr4MnAl3FeOs3
_chemical_formula_sum   'Zr4 Mn1 Al3 Fe1 Os3'
_cell_volume   197.77866869
_cell_formula_units_Z   1
loop_
 _symmetry_equiv_pos_site_id
 _symmetry_equiv_pos_as_xyz
  1  'x, y, z'
loop_
 _atom_site_type_symbol
 _atom_site_label
 _atom_site_symmetry_multiplicity
 _atom_site_fract_x
 _atom_site_fract_y
 _atom_site_fract_z
 _atom_site_occupancy
  Zr  Zr0  1  0.659902  0.331518  0.684472  1
  Zr  Zr1  1  0.327223  0.667549  0.806718  1
  Zr  Zr2  1  0.327223  0.667549  0.193282  1
  Zr  Zr3  1  0.659902  0.331518  0.315528  1
  Mn  Mn4  1  0.845385  0.162364  0.000000  1
  Al  Al5  1  0.169478  0.828618  0.500000  1
  Al  Al6  1  0.347071  0.165334  0.000000  1
  Al  Al7  1  0.836819  0.658075  0.000000  1
  Fe  Fe8  1  0.165044  0.336567  0.500000  1
  Os  Os9  1  0.000644  0.008751  0.248737  1
  Os  Os10  1  0.000644  0.008751  0.751263  1
  Os  Os11  1  0.661223  0.832848  0.500000  1
