# generated using pymatgen
data_Y2HoU(Al3Ir)6
_symmetry_space_group_name_H-M   'P 1'
_cell_length_a   7.57192445
_cell_length_b   7.57183173
_cell_length_c   9.40499400
_cell_angle_alpha   90.00000000
_cell_angle_beta   90.00000000
_cell_angle_gamma   119.39303086
_symmetry_Int_Tables_number   1
_chemical_formula_structural   Y2HoU(Al3Ir)6
_chemical_formula_sum   'Y2 Ho1 U1 Al18 Ir6'
_cell_volume   469.80784186
_cell_formula_units_Z   1
loop_
 _symmetry_equiv_pos_site_id
 _symmetry_equiv_pos_as_xyz
  1  'x, y, z'
loop_
 _atom_site_type_symbol
 _atom_site_label
 _atom_site_symmetry_multiplicity
 _atom_site_fract_x
 _atom_site_fract_y
 _atom_site_fract_z
 _atom_site_occupancy
  Y  Y0  1  0.004389  0.327279  0.750000  1
  Y  Y1  1  0.328333  0.005549  0.750000  1
  Ho  Ho2  1  0.673984  0.992477  0.250000  1
  U  U3  1  0.000261  0.679012  0.250000  1
  Al  Al4  1  0.136006  0.134478  0.250000  1
  Al  Al5  1  0.871117  0.872956  0.750000  1
  Al  Al6  1  0.999166  0.334568  0.077238  1
  Al  Al7  1  0.998121  0.663353  0.923346  1
  Al  Al8  1  0.998121  0.663353  0.576654  1
  Al  Al9  1  0.340558  0.004210  0.422951  1
  Al  Al10  1  0.999166  0.334568  0.422762  1
  Al  Al11  1  0.664396  0.998529  0.574848  1
  Al  Al12  1  0.664396  0.998529  0.925152  1
  Al  Al13  1  0.340558  0.004210  0.077049  1
  Al  Al14  1  0.330824  0.331908  0.552254  1
  Al  Al15  1  0.663666  0.664503  0.448390  1
  Al  Al16  1  0.663666  0.664503  0.051610  1
  Al  Al17  1  0.330824  0.331908  0.947746  1
  Al  Al18  1  0.339492  0.548137  0.250000  1
  Al  Al19  1  0.657372  0.449168  0.750000  1
  Al  Al20  1  0.554139  0.345292  0.250000  1
  Al  Al21  1  0.447916  0.659602  0.750000  1
  Ir  Ir22  1  0.672728  0.328653  0.001340  1
  Ir  Ir23  1  0.325640  0.672103  0.003105  1
  Ir  Ir24  1  0.325640  0.672103  0.496895  1
  Ir  Ir25  1  0.672728  0.328653  0.498660  1
  Ir  Ir26  1  0.998396  0.995200  0.005297  1
  Ir  Ir27  1  0.998396  0.995200  0.494703  1
