# generated using pymatgen
data_Tb2Er2ScSi4
_symmetry_space_group_name_H-M   'P 1'
_cell_length_a   7.23229200
_cell_length_b   7.61254800
_cell_length_c   14.39114900
_cell_angle_alpha   90.00000000
_cell_angle_beta   90.00000000
_cell_angle_gamma   90.00000000
_symmetry_Int_Tables_number   1
_chemical_formula_structural   Tb2Er2ScSi4
_chemical_formula_sum   'Tb8 Er8 Sc4 Si16'
_cell_volume   792.32154584
_cell_formula_units_Z   4
loop_
 _symmetry_equiv_pos_site_id
 _symmetry_equiv_pos_as_xyz
  1  'x, y, z'
loop_
 _atom_site_type_symbol
 _atom_site_label
 _atom_site_symmetry_multiplicity
 _atom_site_fract_x
 _atom_site_fract_y
 _atom_site_fract_z
 _atom_site_occupancy
  Tb  Tb0  1  0.016317  0.181462  0.097690  1
  Tb  Tb1  1  0.983683  0.818538  0.902310  1
  Tb  Tb2  1  0.483683  0.681462  0.902310  1
  Tb  Tb3  1  0.983683  0.818538  0.597690  1
  Tb  Tb4  1  0.516317  0.318538  0.097690  1
  Tb  Tb5  1  0.016317  0.181462  0.402310  1
  Tb  Tb6  1  0.516317  0.318538  0.402310  1
  Tb  Tb7  1  0.483683  0.681462  0.597690  1
  Er  Er8  1  0.326390  0.177947  0.625381  1
  Er  Er9  1  0.673610  0.822053  0.374619  1
  Er  Er10  1  0.173610  0.677947  0.374619  1
  Er  Er11  1  0.673610  0.822053  0.125381  1
  Er  Er12  1  0.826390  0.322053  0.625381  1
  Er  Er13  1  0.326390  0.177947  0.874619  1
  Er  Er14  1  0.826390  0.322053  0.874619  1
  Er  Er15  1  0.173610  0.677947  0.125381  1
  Sc  Sc16  1  0.159068  0.513199  0.750000  1
  Sc  Sc17  1  0.840932  0.486801  0.250000  1
  Sc  Sc18  1  0.340932  0.013199  0.250000  1
  Sc  Sc19  1  0.659068  0.986801  0.750000  1
  Si  Si20  1  0.025272  0.098287  0.750000  1
  Si  Si21  1  0.974728  0.901713  0.250000  1
  Si  Si22  1  0.474728  0.598287  0.250000  1
  Si  Si23  1  0.525272  0.401713  0.750000  1
  Si  Si24  1  0.281720  0.866903  0.750000  1
  Si  Si25  1  0.718280  0.133097  0.250000  1
  Si  Si26  1  0.218280  0.366903  0.250000  1
  Si  Si27  1  0.781720  0.633097  0.750000  1
  Si  Si28  1  0.154855  0.469129  0.539095  1
  Si  Si29  1  0.845145  0.530871  0.460905  1
  Si  Si30  1  0.345145  0.969129  0.460905  1
  Si  Si31  1  0.845145  0.530871  0.039095  1
  Si  Si32  1  0.654855  0.030871  0.539095  1
  Si  Si33  1  0.154855  0.469129  0.960905  1
  Si  Si34  1  0.654855  0.030871  0.960905  1
  Si  Si35  1  0.345145  0.969129  0.039095  1
