# generated using pymatgen
data_Hf3Pt(SeO3)8
_symmetry_space_group_name_H-M   'P 1'
_cell_length_a   8.47993147
_cell_length_b   8.47993128
_cell_length_c   8.47993096
_cell_angle_alpha   90.34434404
_cell_angle_beta   89.65565492
_cell_angle_gamma   89.65564987
_symmetry_Int_Tables_number   1
_chemical_formula_structural   Hf3Pt(SeO3)8
_chemical_formula_sum   'Hf3 Pt1 Se8 O24'
_cell_volume   609.75218623
_cell_formula_units_Z   1
loop_
 _symmetry_equiv_pos_site_id
 _symmetry_equiv_pos_as_xyz
  1  'x, y, z'
loop_
 _atom_site_type_symbol
 _atom_site_label
 _atom_site_symmetry_multiplicity
 _atom_site_fract_x
 _atom_site_fract_y
 _atom_site_fract_z
 _atom_site_occupancy
  Hf  Hf0  1  0.500000  0.000000  0.500000  1
  Hf  Hf1  1  0.000000  0.000000  0.000000  1
  Hf  Hf2  1  0.000000  0.500000  0.500000  1
  Pt  Pt3  1  0.500000  0.500000  0.000000  1
  Se  Se4  1  0.822501  0.177499  0.677499  1
  Se  Se5  1  0.177499  0.822501  0.322501  1
  Se  Se6  1  0.667915  0.667135  0.701610  1
  Se  Se7  1  0.201610  0.667915  0.832865  1
  Se  Se8  1  0.332865  0.201610  0.832085  1
  Se  Se9  1  0.798390  0.332085  0.167135  1
  Se  Se10  1  0.667135  0.798390  0.167915  1
  Se  Se11  1  0.332085  0.332865  0.298390  1
  O  O12  1  0.230639  0.448708  0.432622  1
  O  O13  1  0.932622  0.230639  0.051292  1
  O  O14  1  0.035579  0.732649  0.436499  1
  O  O15  1  0.473508  0.262819  0.972901  1
  O  O16  1  0.267351  0.936499  0.464421  1
  O  O17  1  0.527099  0.526492  0.762819  1
  O  O18  1  0.936499  0.035579  0.767351  1
  O  O19  1  0.526492  0.737181  0.027099  1
  O  O20  1  0.551292  0.932622  0.269361  1
  O  O21  1  0.448708  0.067378  0.730639  1
  O  O22  1  0.772181  0.924689  0.050451  1
  O  O23  1  0.262819  0.527099  0.973508  1
  O  O24  1  0.075311  0.550451  0.727819  1
  O  O25  1  0.063501  0.964421  0.232649  1
  O  O26  1  0.227819  0.075311  0.949549  1
  O  O27  1  0.472901  0.473508  0.237181  1
  O  O28  1  0.769361  0.551292  0.567378  1
  O  O29  1  0.924689  0.449549  0.272181  1
  O  O30  1  0.067378  0.769361  0.948708  1
  O  O31  1  0.449549  0.227819  0.424689  1
  O  O32  1  0.550451  0.772181  0.575311  1
  O  O33  1  0.964421  0.267351  0.563501  1
  O  O34  1  0.732649  0.063501  0.535579  1
  O  O35  1  0.737181  0.472901  0.026492  1
