# generated using pymatgen
data_Na4Sr8Al3GaP12
_symmetry_space_group_name_H-M   'P 1'
_cell_length_a   8.14544596
_cell_length_b   8.14544297
_cell_length_c   11.55101434
_cell_angle_alpha   76.08613688
_cell_angle_beta   76.08607531
_cell_angle_gamma   67.75956068
_symmetry_Int_Tables_number   1
_chemical_formula_structural   Na4Sr8Al3GaP12
_chemical_formula_sum   'Na4 Sr8 Al3 Ga1 P12'
_cell_volume   678.96593683
_cell_formula_units_Z   1
loop_
 _symmetry_equiv_pos_site_id
 _symmetry_equiv_pos_as_xyz
  1  'x, y, z'
loop_
 _atom_site_type_symbol
 _atom_site_label
 _atom_site_symmetry_multiplicity
 _atom_site_fract_x
 _atom_site_fract_y
 _atom_site_fract_z
 _atom_site_occupancy
  Na  Na0  1  0.298667  0.701464  0.000400  1
  Na  Na1  1  0.355879  0.355878  0.231740  1
  Na  Na2  1  0.644508  0.644509  0.767905  1
  Na  Na3  1  0.701464  0.298667  0.000400  1
  Sr  Sr4  1  0.747941  0.192422  0.685884  1
  Sr  Sr5  1  0.250888  0.807789  0.314363  1
  Sr  Sr6  1  0.192422  0.747942  0.685884  1
  Sr  Sr7  1  0.499399  0.000660  0.500519  1
  Sr  Sr8  1  0.807789  0.250887  0.314363  1
  Sr  Sr9  1  0.999768  0.499962  0.000046  1
  Sr  Sr10  1  0.499962  0.999768  0.000046  1
  Sr  Sr11  1  0.000660  0.499399  0.500519  1
  Al  Al12  1  0.696795  0.696795  0.267997  1
  Al  Al13  1  0.090191  0.090191  0.881841  1
  Al  Al14  1  0.909115  0.909115  0.117928  1
  Ga  Ga15  1  0.305611  0.305611  0.730482  1
  P  P16  1  0.019956  0.611764  0.228983  1
  P  P17  1  0.589800  0.589800  0.137598  1
  P  P18  1  0.978096  0.386987  0.771825  1
  P  P19  1  0.087161  0.087161  0.487679  1
  P  P20  1  0.586870  0.586870  0.488221  1
  P  P21  1  0.909870  0.909870  0.905927  1
  P  P22  1  0.089484  0.089484  0.094135  1
  P  P23  1  0.411238  0.411238  0.864283  1
  P  P24  1  0.611764  0.019955  0.228984  1
  P  P25  1  0.912670  0.912670  0.513006  1
  P  P26  1  0.386987  0.978097  0.771824  1
  P  P27  1  0.415047  0.415047  0.507217  1
