# generated using pymatgen
data_Zr4TaNb(B2Ru5)2
_symmetry_space_group_name_H-M   'P 1'
_cell_length_a   9.50283800
_cell_length_b   9.50283800
_cell_length_c   3.12016200
_cell_angle_alpha   90.00000000
_cell_angle_beta   90.00000000
_cell_angle_gamma   90.00000000
_symmetry_Int_Tables_number   1
_chemical_formula_structural   Zr4TaNb(B2Ru5)2
_chemical_formula_sum   'Zr4 Ta1 Nb1 B4 Ru10'
_cell_volume   281.76289101
_cell_formula_units_Z   1
loop_
 _symmetry_equiv_pos_site_id
 _symmetry_equiv_pos_as_xyz
  1  'x, y, z'
loop_
 _atom_site_type_symbol
 _atom_site_label
 _atom_site_symmetry_multiplicity
 _atom_site_fract_x
 _atom_site_fract_y
 _atom_site_fract_z
 _atom_site_occupancy
  Zr  Zr0  1  0.824148  0.676167  0.000000  1
  Zr  Zr1  1  0.175852  0.323833  0.000000  1
  Zr  Zr2  1  0.323833  0.824148  0.000000  1
  Zr  Zr3  1  0.676167  0.175852  0.000000  1
  Ta  Ta4  1  0.000000  0.000000  0.000000  1
  Nb  Nb5  1  0.500000  0.500000  0.000000  1
  B  B6  1  0.621021  0.878834  0.000000  1
  B  B7  1  0.378979  0.121166  0.000000  1
  B  B8  1  0.121166  0.621021  0.000000  1
  B  B9  1  0.878834  0.378979  0.000000  1
  Ru  Ru10  1  0.570320  0.718552  0.500000  1
  Ru  Ru11  1  0.429680  0.281448  0.500000  1
  Ru  Ru12  1  0.070259  0.781722  0.500000  1
  Ru  Ru13  1  0.929741  0.218278  0.500000  1
  Ru  Ru14  1  0.281448  0.570320  0.500000  1
  Ru  Ru15  1  0.718552  0.429680  0.500000  1
  Ru  Ru16  1  0.218278  0.070259  0.500000  1
  Ru  Ru17  1  0.781722  0.929741  0.500000  1
  Ru  Ru18  1  0.500000  0.000000  0.500000  1
  Ru  Ru19  1  0.000000  0.500000  0.500000  1
