# generated using pymatgen
data_Dy9In(Co2Au)2
_symmetry_space_group_name_H-M   'P 1'
_cell_length_a   8.52820082
_cell_length_b   8.52820137
_cell_length_c   8.52820160
_cell_angle_alpha   128.96713886
_cell_angle_beta   128.96713544
_cell_angle_gamma   75.06345495
_symmetry_Int_Tables_number   1
_chemical_formula_structural   Dy9In(Co2Au)2
_chemical_formula_sum   'Dy9 In1 Co4 Au2'
_cell_volume   365.09432090
_cell_formula_units_Z   1
loop_
 _symmetry_equiv_pos_site_id
 _symmetry_equiv_pos_as_xyz
  1  'x, y, z'
loop_
 _atom_site_type_symbol
 _atom_site_label
 _atom_site_symmetry_multiplicity
 _atom_site_fract_x
 _atom_site_fract_y
 _atom_site_fract_z
 _atom_site_occupancy
  Dy  Dy0  1  0.500000  0.500000  0.000000  1
  Dy  Dy1  1  0.811747  0.292707  0.840847  1
  Dy  Dy2  1  0.188253  0.707293  0.159154  1
  Dy  Dy3  1  0.451861  0.970901  0.159154  1
  Dy  Dy4  1  0.292707  0.451861  0.480960  1
  Dy  Dy5  1  0.029099  0.188253  0.480960  1
  Dy  Dy6  1  0.548139  0.029099  0.840846  1
  Dy  Dy7  1  0.707293  0.548139  0.519040  1
  Dy  Dy8  1  0.970901  0.811747  0.519040  1
  In  In9  1  0.000000  0.000000  0.000000  1
  Co  Co10  1  0.125270  0.623088  0.748359  1
  Co  Co11  1  0.874730  0.376912  0.251641  1
  Co  Co12  1  0.623088  0.874730  0.497817  1
  Co  Co13  1  0.376912  0.125270  0.502183  1
  Au  Au14  1  0.259864  0.259864  0.000000  1
  Au  Au15  1  0.740136  0.740136  0.000000  1
