# generated using pymatgen
data_CeLu15(InRu)4
_symmetry_space_group_name_H-M   'P 1'
_cell_length_a   9.49907140
_cell_length_b   9.49907225
_cell_length_c   9.49907167
_cell_angle_alpha   59.76217633
_cell_angle_beta   59.76217526
_cell_angle_gamma   59.76217664
_symmetry_Int_Tables_number   1
_chemical_formula_structural   CeLu15(InRu)4
_chemical_formula_sum   'Ce1 Lu15 In4 Ru4'
_cell_volume   602.80512051
_cell_formula_units_Z   1
loop_
 _symmetry_equiv_pos_site_id
 _symmetry_equiv_pos_as_xyz
  1  'x, y, z'
loop_
 _atom_site_type_symbol
 _atom_site_label
 _atom_site_symmetry_multiplicity
 _atom_site_fract_x
 _atom_site_fract_y
 _atom_site_fract_z
 _atom_site_occupancy
  Ce  Ce0  1  0.593548  0.593548  0.593548  1
  Lu  Lu1  1  0.599999  0.599999  0.201370  1
  Lu  Lu2  1  0.599999  0.201370  0.599999  1
  Lu  Lu3  1  0.201370  0.599999  0.599999  1
  Lu  Lu4  1  0.060256  0.441318  0.441318  1
  Lu  Lu5  1  0.441109  0.057795  0.057795  1
  Lu  Lu6  1  0.441318  0.060256  0.441318  1
  Lu  Lu7  1  0.057795  0.441109  0.057795  1
  Lu  Lu8  1  0.441318  0.441318  0.060256  1
  Lu  Lu9  1  0.057795  0.057795  0.441109  1
  Lu  Lu10  1  0.190842  0.808733  0.808733  1
  Lu  Lu11  1  0.807623  0.194004  0.194004  1
  Lu  Lu12  1  0.808733  0.190842  0.808733  1
  Lu  Lu13  1  0.194004  0.807623  0.194004  1
  Lu  Lu14  1  0.808733  0.808733  0.190842  1
  Lu  Lu15  1  0.194004  0.194004  0.807623  1
  In  In16  1  0.833270  0.833270  0.833270  1
  In  In17  1  0.833992  0.833992  0.498130  1
  In  In18  1  0.833992  0.498130  0.833992  1
  In  In19  1  0.498130  0.833992  0.833992  1
  Ru  Ru20  1  0.389353  0.389353  0.389353  1
  Ru  Ru21  1  0.392485  0.392485  0.827848  1
  Ru  Ru22  1  0.392485  0.827848  0.392485  1
  Ru  Ru23  1  0.827848  0.392485  0.392485  1
