# generated using pymatgen
data_Ca2YbCd3Si2Sn
_symmetry_space_group_name_H-M   'P 1'
_cell_length_a   7.35318900
_cell_length_b   7.37070977
_cell_length_c   4.60851400
_cell_angle_alpha   90.00000000
_cell_angle_beta   90.00000000
_cell_angle_gamma   119.92139341
_symmetry_Int_Tables_number   1
_chemical_formula_structural   Ca2YbCd3Si2Sn
_chemical_formula_sum   'Ca2 Yb1 Cd3 Si2 Sn1'
_cell_volume   216.48112653
_cell_formula_units_Z   1
loop_
 _symmetry_equiv_pos_site_id
 _symmetry_equiv_pos_as_xyz
  1  'x, y, z'
loop_
 _atom_site_type_symbol
 _atom_site_label
 _atom_site_symmetry_multiplicity
 _atom_site_fract_x
 _atom_site_fract_y
 _atom_site_fract_z
 _atom_site_occupancy
  Ca  Ca0  1  0.000037  0.432065  0.500000  1
  Ca  Ca1  1  0.567972  0.567935  0.500000  1
  Yb  Yb2  1  0.432035  0.000000  0.500000  1
  Cd  Cd3  1  0.000788  0.734199  0.000000  1
  Cd  Cd4  1  0.266589  0.265801  0.000000  1
  Cd  Cd5  1  0.732166  0.000000  0.000000  1
  Si  Si6  1  0.333401  0.667212  0.000000  1
  Si  Si7  1  0.666190  0.332788  0.000000  1
  Sn  Sn8  1  0.000822  0.000000  0.500000  1
