# generated using pymatgen
data_Y3Er5Sc11Si16Mo
_symmetry_space_group_name_H-M   'P 1'
_cell_length_a   7.05762858
_cell_length_b   7.31135270
_cell_length_c   13.87114542
_cell_angle_alpha   90.17491715
_cell_angle_beta   89.67353902
_cell_angle_gamma   89.74376020
_symmetry_Int_Tables_number   1
_chemical_formula_structural   Y3Er5Sc11Si16Mo
_chemical_formula_sum   'Y3 Er5 Sc11 Si16 Mo1'
_cell_volume   715.74019568
_cell_formula_units_Z   1
loop_
 _symmetry_equiv_pos_site_id
 _symmetry_equiv_pos_as_xyz
  1  'x, y, z'
loop_
 _atom_site_type_symbol
 _atom_site_label
 _atom_site_symmetry_multiplicity
 _atom_site_fract_x
 _atom_site_fract_y
 _atom_site_fract_z
 _atom_site_occupancy
  Y  Y0  1  0.011534  0.174567  0.097262  1
  Y  Y1  1  0.989730  0.825631  0.898912  1
  Y  Y2  1  0.487993  0.677707  0.899507  1
  Er  Er3  1  0.993138  0.829091  0.595783  1
  Er  Er4  1  0.512790  0.322913  0.096863  1
  Er  Er5  1  0.009261  0.175217  0.403548  1
  Er  Er6  1  0.506798  0.322891  0.410178  1
  Er  Er7  1  0.487541  0.676760  0.595962  1
  Sc  Sc8  1  0.164060  0.495415  0.744545  1
  Sc  Sc9  1  0.837068  0.497712  0.252193  1
  Sc  Sc10  1  0.336328  0.003070  0.252862  1
  Sc  Sc11  1  0.658743  0.002304  0.746556  1
  Sc  Sc12  1  0.664738  0.825514  0.379182  1
  Sc  Sc13  1  0.168314  0.678472  0.378267  1
  Sc  Sc14  1  0.668646  0.823896  0.124914  1
  Sc  Sc15  1  0.833493  0.323131  0.623429  1
  Sc  Sc16  1  0.333555  0.177142  0.874739  1
  Sc  Sc17  1  0.830563  0.323192  0.871668  1
  Sc  Sc18  1  0.170043  0.676364  0.126308  1
  Si  Si19  1  0.043098  0.120147  0.744974  1
  Si  Si20  1  0.963019  0.885631  0.251764  1
  Si  Si21  1  0.466760  0.615445  0.251050  1
  Si  Si22  1  0.531783  0.375928  0.745235  1
  Si  Si23  1  0.287050  0.879645  0.745193  1
  Si  Si24  1  0.709848  0.128036  0.251310  1
  Si  Si25  1  0.215848  0.372420  0.251256  1
  Si  Si26  1  0.784425  0.624689  0.745753  1
  Si  Si27  1  0.175567  0.451446  0.540380  1
  Si  Si28  1  0.842332  0.531907  0.460793  1
  Si  Si29  1  0.332359  0.970124  0.471200  1
  Si  Si30  1  0.844510  0.534940  0.039038  1
  Si  Si31  1  0.648010  0.034881  0.544498  1
  Si  Si32  1  0.155285  0.465810  0.959485  1
  Si  Si33  1  0.660959  0.037081  0.959239  1
  Si  Si34  1  0.341518  0.963193  0.038472  1
  Mo  Mo35  1  0.333290  0.177689  0.627683  1
