# generated using pymatgen
data_Sr14Al8Sb3
_symmetry_space_group_name_H-M   'P 1'
_cell_length_a   15.45135359
_cell_length_b   15.45135398
_cell_length_c   15.45135400
_cell_angle_alpha   46.93146826
_cell_angle_beta   46.93146689
_cell_angle_gamma   46.93146974
_symmetry_Int_Tables_number   1
_chemical_formula_structural   Sr14Al8Sb3
_chemical_formula_sum   'Sr28 Al16 Sb6'
_cell_volume   1799.35688808
_cell_formula_units_Z   2
loop_
 _symmetry_equiv_pos_site_id
 _symmetry_equiv_pos_as_xyz
  1  'x, y, z'
loop_
 _atom_site_type_symbol
 _atom_site_label
 _atom_site_symmetry_multiplicity
 _atom_site_fract_x
 _atom_site_fract_y
 _atom_site_fract_z
 _atom_site_occupancy
  Sr  Sr0  1  0.680163  0.202226  0.211803  1
  Sr  Sr1  1  0.926735  0.610735  0.593167  1
  Sr  Sr2  1  0.788901  0.420275  0.156564  1
  Sr  Sr3  1  0.202226  0.211803  0.680163  1
  Sr  Sr4  1  0.406833  0.073265  0.389265  1
  Sr  Sr5  1  0.156564  0.788901  0.420275  1
  Sr  Sr6  1  0.389265  0.406833  0.073265  1
  Sr  Sr7  1  0.788197  0.319837  0.797774  1
  Sr  Sr8  1  0.420275  0.156564  0.788901  1
  Sr  Sr9  1  0.501419  0.198196  0.938167  1
  Sr  Sr10  1  0.801804  0.061833  0.498581  1
  Sr  Sr11  1  0.905488  0.905488  0.905488  1
  Sr  Sr12  1  0.094512  0.094512  0.094512  1
  Sr  Sr13  1  0.843436  0.211099  0.579725  1
  Sr  Sr14  1  0.797774  0.788197  0.319837  1
  Sr  Sr15  1  0.211099  0.579725  0.843436  1
  Sr  Sr16  1  0.579725  0.843436  0.211099  1
  Sr  Sr17  1  0.061833  0.498581  0.801804  1
  Sr  Sr18  1  0.498581  0.801804  0.061833  1
  Sr  Sr19  1  0.198196  0.938167  0.501419  1
  Sr  Sr20  1  0.073265  0.389265  0.406833  1
  Sr  Sr21  1  0.500000  0.500000  0.500000  1
  Sr  Sr22  1  0.610735  0.593167  0.926735  1
  Sr  Sr23  1  0.593167  0.926735  0.610735  1
  Sr  Sr24  1  0.000000  0.000000  0.000000  1
  Sr  Sr25  1  0.938167  0.501419  0.198196  1
  Sr  Sr26  1  0.319837  0.797774  0.788197  1
  Sr  Sr27  1  0.211803  0.680163  0.202226  1
  Al  Al28  1  0.527560  0.499817  0.731854  1
  Al  Al29  1  0.035108  0.175476  0.293354  1
  Al  Al30  1  0.500183  0.268146  0.472440  1
  Al  Al31  1  0.293354  0.035108  0.175476  1
  Al  Al32  1  0.268146  0.472440  0.500183  1
  Al  Al33  1  0.643499  0.643499  0.643499  1
  Al  Al34  1  0.731854  0.527560  0.499817  1
  Al  Al35  1  0.175476  0.293354  0.035108  1
  Al  Al36  1  0.356501  0.356501  0.356501  1
  Al  Al37  1  0.776959  0.776959  0.776959  1
  Al  Al38  1  0.472440  0.500183  0.268146  1
  Al  Al39  1  0.824524  0.706646  0.964892  1
  Al  Al40  1  0.964892  0.824524  0.706646  1
  Al  Al41  1  0.499817  0.731854  0.527560  1
  Al  Al42  1  0.706646  0.964892  0.824524  1
  Al  Al43  1  0.223041  0.223041  0.223041  1
  Sb  Sb44  1  0.674294  0.081886  0.092746  1
  Sb  Sb45  1  0.081886  0.092746  0.674294  1
  Sb  Sb46  1  0.325706  0.918114  0.907254  1
  Sb  Sb47  1  0.907254  0.325706  0.918114  1
  Sb  Sb48  1  0.918114  0.907254  0.325706  1
  Sb  Sb49  1  0.092746  0.674294  0.081886  1
