# generated using pymatgen
data_La15PrCd4Ir3Au
_symmetry_space_group_name_H-M   'P 1'
_cell_length_a   10.15365429
_cell_length_b   10.15365257
_cell_length_c   10.15421672
_cell_angle_alpha   60.24858048
_cell_angle_beta   60.24858758
_cell_angle_gamma   60.24142837
_symmetry_Int_Tables_number   1
_chemical_formula_structural   La15PrCd4Ir3Au
_chemical_formula_sum   'La15 Pr1 Cd4 Ir3 Au1'
_cell_volume   744.37159682
_cell_formula_units_Z   1
loop_
 _symmetry_equiv_pos_site_id
 _symmetry_equiv_pos_as_xyz
  1  'x, y, z'
loop_
 _atom_site_type_symbol
 _atom_site_label
 _atom_site_symmetry_multiplicity
 _atom_site_fract_x
 _atom_site_fract_y
 _atom_site_fract_z
 _atom_site_occupancy
  La  La0  1  0.345517  0.345517  0.345663  1
  La  La1  1  0.355787  0.355787  0.947374  1
  La  La2  1  0.355320  0.947338  0.356009  1
  La  La3  1  0.947338  0.355320  0.356009  1
  La  La4  1  0.798627  0.191244  0.191861  1
  La  La5  1  0.188806  0.810202  0.809778  1
  La  La6  1  0.191244  0.798627  0.191861  1
  La  La7  1  0.810202  0.188806  0.809778  1
  La  La8  1  0.191507  0.191507  0.798479  1
  La  La9  1  0.810141  0.810141  0.188945  1
  La  La10  1  0.941105  0.562729  0.562404  1
  La  La11  1  0.562827  0.939255  0.939068  1
  La  La12  1  0.562729  0.941105  0.562404  1
  La  La13  1  0.939255  0.562827  0.939068  1
  La  La14  1  0.562188  0.562188  0.941338  1
  Pr  Pr15  1  0.939339  0.939339  0.562159  1
  Cd  Cd16  1  0.580299  0.580299  0.580272  1
  Cd  Cd17  1  0.579625  0.579625  0.260401  1
  Cd  Cd18  1  0.579955  0.260154  0.579538  1
  Cd  Cd19  1  0.260154  0.579955  0.579538  1
  Ir  Ir20  1  0.140385  0.140385  0.573993  1
  Ir  Ir21  1  0.140235  0.574193  0.140261  1
  Ir  Ir22  1  0.574193  0.140235  0.140261  1
  Au  Au23  1  0.143222  0.143222  0.143537  1
