# generated using pymatgen
data_Pr4Y12Cd4OsPd3
_symmetry_space_group_name_H-M   'P 1'
_cell_length_a   9.83402314
_cell_length_b   9.82615554
_cell_length_c   9.82615791
_cell_angle_alpha   59.75993075
_cell_angle_beta   59.53507223
_cell_angle_gamma   59.53511951
_symmetry_Int_Tables_number   1
_chemical_formula_structural   Pr4Y12Cd4OsPd3
_chemical_formula_sum   'Pr4 Y12 Cd4 Os1 Pd3'
_cell_volume   665.44607992
_cell_formula_units_Z   1
loop_
 _symmetry_equiv_pos_site_id
 _symmetry_equiv_pos_as_xyz
  1  'x, y, z'
loop_
 _atom_site_type_symbol
 _atom_site_label
 _atom_site_symmetry_multiplicity
 _atom_site_fract_x
 _atom_site_fract_y
 _atom_site_fract_z
 _atom_site_occupancy
  Pr  Pr0  1  0.566453  0.933563  0.566881  1
  Pr  Pr1  1  0.937799  0.559031  0.935206  1
  Pr  Pr2  1  0.566453  0.566881  0.933564  1
  Pr  Pr3  1  0.937799  0.935206  0.559031  1
  Y  Y4  1  0.354982  0.352822  0.352822  1
  Y  Y5  1  0.347511  0.350605  0.950210  1
  Y  Y6  1  0.347511  0.950210  0.350605  1
  Y  Y7  1  0.947609  0.348500  0.348501  1
  Y  Y8  1  0.819610  0.185743  0.185742  1
  Y  Y9  1  0.187086  0.811214  0.811214  1
  Y  Y10  1  0.188022  0.817737  0.187417  1
  Y  Y11  1  0.810556  0.184590  0.810687  1
  Y  Y12  1  0.188022  0.187418  0.817737  1
  Y  Y13  1  0.810556  0.810687  0.184591  1
  Y  Y14  1  0.939406  0.558729  0.558729  1
  Y  Y15  1  0.551113  0.943747  0.943747  1
  Cd  Cd16  1  0.583680  0.577343  0.577343  1
  Cd  Cd17  1  0.577466  0.584196  0.258212  1
  Cd  Cd18  1  0.577467  0.258212  0.584195  1
  Cd  Cd19  1  0.258621  0.578455  0.578455  1
  Os  Os20  1  0.145957  0.142047  0.142047  1
  Pd  Pd21  1  0.142906  0.148311  0.571250  1
  Pd  Pd22  1  0.142906  0.571251  0.148311  1
  Pd  Pd23  1  0.570508  0.143501  0.143501  1
