# generated using pymatgen
data_Tb8Sc12Si15Sn
_symmetry_space_group_name_H-M   'P 1'
_cell_length_a   7.16050181
_cell_length_b   7.44084338
_cell_length_c   14.11706084
_cell_angle_alpha   89.99644565
_cell_angle_beta   89.62938144
_cell_angle_gamma   90.03644401
_symmetry_Int_Tables_number   1
_chemical_formula_structural   Tb8Sc12Si15Sn
_chemical_formula_sum   'Tb8 Sc12 Si15 Sn1'
_cell_volume   752.14354755
_cell_formula_units_Z   1
loop_
 _symmetry_equiv_pos_site_id
 _symmetry_equiv_pos_as_xyz
  1  'x, y, z'
loop_
 _atom_site_type_symbol
 _atom_site_label
 _atom_site_symmetry_multiplicity
 _atom_site_fract_x
 _atom_site_fract_y
 _atom_site_fract_z
 _atom_site_occupancy
  Tb  Tb0  1  0.012670  0.175419  0.097041  1
  Tb  Tb1  1  0.987474  0.825121  0.903735  1
  Tb  Tb2  1  0.488258  0.675540  0.903566  1
  Tb  Tb3  1  0.987358  0.831272  0.598461  1
  Tb  Tb4  1  0.512078  0.324455  0.097247  1
  Tb  Tb5  1  0.007339  0.169308  0.399126  1
  Tb  Tb6  1  0.513489  0.321649  0.399631  1
  Tb  Tb7  1  0.499928  0.682977  0.599896  1
  Sc  Sc8  1  0.161382  0.502029  0.755226  1
  Sc  Sc9  1  0.838535  0.498254  0.249290  1
  Sc  Sc10  1  0.338933  0.001976  0.249341  1
  Sc  Sc11  1  0.662315  0.997948  0.751411  1
  Sc  Sc12  1  0.341244  0.163010  0.630481  1
  Sc  Sc13  1  0.665286  0.824996  0.372902  1
  Sc  Sc14  1  0.165461  0.683082  0.369625  1
  Sc  Sc15  1  0.669180  0.823411  0.124338  1
  Sc  Sc16  1  0.821866  0.323012  0.626586  1
  Sc  Sc17  1  0.330085  0.175611  0.875306  1
  Sc  Sc18  1  0.830555  0.323502  0.875467  1
  Sc  Sc19  1  0.169390  0.676539  0.125113  1
  Si  Si20  1  0.034080  0.119933  0.751080  1
  Si  Si21  1  0.964393  0.883131  0.247416  1
  Si  Si22  1  0.466402  0.617524  0.248747  1
  Si  Si23  1  0.532422  0.383618  0.751682  1
  Si  Si24  1  0.285404  0.871843  0.751845  1
  Si  Si25  1  0.713175  0.125080  0.248043  1
  Si  Si26  1  0.212930  0.374550  0.249354  1
  Si  Si27  1  0.788686  0.625906  0.751170  1
  Si  Si28  1  0.831502  0.539142  0.458504  1
  Si  Si29  1  0.340577  0.964102  0.460089  1
  Si  Si30  1  0.843603  0.534961  0.039582  1
  Si  Si31  1  0.659172  0.037077  0.538177  1
  Si  Si32  1  0.156021  0.464635  0.961381  1
  Si  Si33  1  0.655899  0.035455  0.960647  1
  Si  Si34  1  0.343385  0.964837  0.039756  1
  Sn  Sn35  1  0.169524  0.459094  0.538739  1
