# generated using pymatgen
data_Lu8CdIn3
_symmetry_space_group_name_H-M   'P 1'
_cell_length_a   10.52486500
_cell_length_b   10.52486435
_cell_length_c   6.68731600
_cell_angle_alpha   90.00000000
_cell_angle_beta   90.00000000
_cell_angle_gamma   119.99999890
_symmetry_Int_Tables_number   1
_chemical_formula_structural   Lu8CdIn3
_chemical_formula_sum   'Lu16 Cd2 In6'
_cell_volume   641.52786267
_cell_formula_units_Z   2
loop_
 _symmetry_equiv_pos_site_id
 _symmetry_equiv_pos_as_xyz
  1  'x, y, z'
loop_
 _atom_site_type_symbol
 _atom_site_label
 _atom_site_symmetry_multiplicity
 _atom_site_fract_x
 _atom_site_fract_y
 _atom_site_fract_z
 _atom_site_occupancy
  Lu  Lu0  1  0.513167  0.026336  0.527871  1
  Lu  Lu1  1  0.973664  0.486833  0.527871  1
  Lu  Lu2  1  0.513167  0.486833  0.527871  1
  Lu  Lu3  1  0.486833  0.973664  0.027871  1
  Lu  Lu4  1  0.026336  0.513167  0.027871  1
  Lu  Lu5  1  0.486833  0.513167  0.027871  1
  Lu  Lu6  1  0.169001  0.338003  0.749677  1
  Lu  Lu7  1  0.661997  0.830999  0.749677  1
  Lu  Lu8  1  0.169001  0.830999  0.749677  1
  Lu  Lu9  1  0.830999  0.661997  0.249677  1
  Lu  Lu10  1  0.338003  0.169001  0.249677  1
  Lu  Lu11  1  0.830999  0.169001  0.249677  1
  Lu  Lu12  1  0.666667  0.333333  0.847384  1
  Lu  Lu13  1  0.333333  0.666667  0.347384  1
  Lu  Lu14  1  0.000000  0.000000  0.508963  1
  Lu  Lu15  1  0.000000  0.000000  0.008963  1
  Cd  Cd16  1  0.666667  0.333333  0.304259  1
  Cd  Cd17  1  0.333333  0.666667  0.804259  1
  In  In18  1  0.834089  0.668177  0.761530  1
  In  In19  1  0.331823  0.165911  0.761530  1
  In  In20  1  0.834089  0.165911  0.761530  1
  In  In21  1  0.165911  0.331823  0.261530  1
  In  In22  1  0.668177  0.834089  0.261530  1
  In  In23  1  0.165911  0.834089  0.261530  1
