# generated using pymatgen
data_Cs5K4Rb5Ta2(In3As5)2
_symmetry_space_group_name_H-M   'P 1'
_cell_length_a   8.45859185
_cell_length_b   9.42074783
_cell_length_c   14.85030500
_cell_angle_alpha   85.08119454
_cell_angle_beta   84.41617068
_cell_angle_gamma   88.04207727
_symmetry_Int_Tables_number   1
_chemical_formula_structural   Cs5K4Rb5Ta2(In3As5)2
_chemical_formula_sum   'Cs5 K4 Rb5 Ta2 In6 As10'
_cell_volume   1173.01473438
_cell_formula_units_Z   1
loop_
 _symmetry_equiv_pos_site_id
 _symmetry_equiv_pos_as_xyz
  1  'x, y, z'
loop_
 _atom_site_type_symbol
 _atom_site_label
 _atom_site_symmetry_multiplicity
 _atom_site_fract_x
 _atom_site_fract_y
 _atom_site_fract_z
 _atom_site_occupancy
  Cs  Cs0  1  0.305050  0.341245  0.599316  1
  Cs  Cs1  1  0.753698  0.981006  0.533583  1
  Cs  Cs2  1  0.246960  0.015088  0.465571  1
  Cs  Cs3  1  0.817509  0.361932  0.643280  1
  Cs  Cs4  1  0.177817  0.638400  0.356759  1
  K  K5  1  0.818432  0.807999  0.135500  1
  K  K6  1  0.182888  0.192764  0.864089  1
  K  K7  1  0.271973  0.258303  0.247064  1
  K  K8  1  0.729872  0.741554  0.753359  1
  Rb  Rb9  1  0.742048  0.505667  0.974857  1
  Rb  Rb10  1  0.259562  0.494726  0.025856  1
  Rb  Rb11  1  0.688103  0.077871  0.890838  1
  Rb  Rb12  1  0.311840  0.922647  0.109521  1
  Rb  Rb13  1  0.679128  0.658420  0.394012  1
  Ta  Ta14  1  0.650276  0.395477  0.221711  1
  Ta  Ta15  1  0.351762  0.605579  0.779073  1
  In  In16  1  0.914310  0.275572  0.370839  1
  In  In17  1  0.087888  0.724002  0.629564  1
  In  In18  1  0.948783  0.184162  0.124313  1
  In  In19  1  0.051345  0.815942  0.876056  1
  In  In20  1  0.633314  0.038779  0.294567  1
  In  In21  1  0.368501  0.961156  0.706581  1
  As  As22  1  0.491519  0.605669  0.182935  1
  As  As23  1  0.509576  0.395270  0.818269  1
  As  As24  1  0.938495  0.456434  0.204519  1
  As  As25  1  0.063437  0.543989  0.796120  1
  As  As26  1  0.577423  0.297974  0.384443  1
  As  As27  1  0.426782  0.703161  0.616330  1
  As  As28  1  0.613458  0.194739  0.121790  1
  As  As29  1  0.387173  0.805763  0.879392  1
  As  As30  1  0.976654  0.999837  0.290864  1
  As  As31  1  0.024424  0.998870  0.709032  1
