# generated using pymatgen
data_YTm(Hf2Fe9)2
_symmetry_space_group_name_H-M   'P 1'
_cell_length_a   4.98178100
_cell_length_b   4.98178183
_cell_length_c   15.85379800
_cell_angle_alpha   90.00000000
_cell_angle_beta   90.00000000
_cell_angle_gamma   120.00001438
_symmetry_Int_Tables_number   1
_chemical_formula_structural   YTm(Hf2Fe9)2
_chemical_formula_sum   'Y1 Tm1 Hf4 Fe18'
_cell_volume   340.74792968
_cell_formula_units_Z   1
loop_
 _symmetry_equiv_pos_site_id
 _symmetry_equiv_pos_as_xyz
  1  'x, y, z'
loop_
 _atom_site_type_symbol
 _atom_site_label
 _atom_site_symmetry_multiplicity
 _atom_site_fract_x
 _atom_site_fract_y
 _atom_site_fract_z
 _atom_site_occupancy
  Y  Y0  1  0.666667  0.333333  0.250000  1
  Tm  Tm1  1  0.333333  0.666667  0.750000  1
  Hf  Hf2  1  0.333333  0.666667  0.963270  1
  Hf  Hf3  1  0.666667  0.333333  0.036009  1
  Hf  Hf4  1  0.666667  0.333333  0.463991  1
  Hf  Hf5  1  0.333333  0.666667  0.536730  1
  Fe  Fe6  1  0.168063  0.831937  0.377529  1
  Fe  Fe7  1  0.168063  0.336126  0.377529  1
  Fe  Fe8  1  0.663874  0.831937  0.377529  1
  Fe  Fe9  1  0.832039  0.167961  0.623175  1
  Fe  Fe10  1  0.832039  0.664078  0.623175  1
  Fe  Fe11  1  0.335922  0.167961  0.623175  1
  Fe  Fe12  1  0.832039  0.167961  0.876825  1
  Fe  Fe13  1  0.832039  0.664078  0.876825  1
  Fe  Fe14  1  0.335922  0.167961  0.876825  1
  Fe  Fe15  1  0.168063  0.831937  0.122471  1
  Fe  Fe16  1  0.168063  0.336126  0.122471  1
  Fe  Fe17  1  0.663874  0.831937  0.122471  1
  Fe  Fe18  1  0.333333  0.666667  0.250000  1
  Fe  Fe19  1  0.666667  0.333333  0.750000  1
  Fe  Fe20  1  0.000000  0.000000  0.250000  1
  Fe  Fe21  1  0.000000  0.000000  0.750000  1
  Fe  Fe22  1  0.000000  0.000000  0.500164  1
  Fe  Fe23  1  0.000000  0.000000  0.999836  1
