# generated using pymatgen
data_TbDy3Ta5TiSi8
_symmetry_space_group_name_H-M   'P 1'
_cell_length_a   7.05044168
_cell_length_b   7.05128147
_cell_length_c   12.98789700
_cell_angle_alpha   89.94256959
_cell_angle_beta   90.05851587
_cell_angle_gamma   89.99170201
_symmetry_Int_Tables_number   1
_chemical_formula_structural   TbDy3Ta5TiSi8
_chemical_formula_sum   'Tb2 Dy6 Ta10 Ti2 Si16'
_cell_volume   645.68807015
_cell_formula_units_Z   2
loop_
 _symmetry_equiv_pos_site_id
 _symmetry_equiv_pos_as_xyz
  1  'x, y, z'
loop_
 _atom_site_type_symbol
 _atom_site_label
 _atom_site_symmetry_multiplicity
 _atom_site_fract_x
 _atom_site_fract_y
 _atom_site_fract_z
 _atom_site_occupancy
  Tb  Tb0  1  0.998101  0.658201  0.032495  1
  Tb  Tb1  1  0.002283  0.341004  0.531991  1
  Dy  Dy2  1  0.657918  0.998586  0.967461  1
  Dy  Dy3  1  0.159627  0.502865  0.782318  1
  Dy  Dy4  1  0.841271  0.498051  0.281909  1
  Dy  Dy5  1  0.502892  0.159515  0.217667  1
  Dy  Dy6  1  0.497998  0.841407  0.718036  1
  Dy  Dy7  1  0.341284  0.001820  0.467947  1
  Ta  Ta8  1  0.346427  0.508784  0.376006  1
  Ta  Ta9  1  0.847090  0.992279  0.374490  1
  Ta  Ta10  1  0.008269  0.153196  0.126375  1
  Ta  Ta11  1  0.992292  0.847099  0.625463  1
  Ta  Ta12  1  0.508623  0.346284  0.623947  1
  Ta  Ta13  1  0.153205  0.008251  0.873566  1
  Ta  Ta14  1  0.672058  0.672289  0.499997  1
  Ta  Ta15  1  0.829284  0.170315  0.750138  1
  Ta  Ta16  1  0.170449  0.829449  0.250059  1
  Ta  Ta17  1  0.326417  0.326165  0.999985  1
  Ti  Ti18  1  0.492508  0.652927  0.124033  1
  Ti  Ti19  1  0.652851  0.492404  0.875944  1
  Si  Si20  1  0.045591  0.706254  0.435881  1
  Si  Si21  1  0.952671  0.294326  0.935720  1
  Si  Si22  1  0.705540  0.045295  0.564003  1
  Si  Si23  1  0.208427  0.455019  0.185588  1
  Si  Si24  1  0.793340  0.545532  0.687529  1
  Si  Si25  1  0.455327  0.208182  0.814600  1
  Si  Si26  1  0.545245  0.793622  0.312673  1
  Si  Si27  1  0.295013  0.952976  0.064172  1
  Si  Si28  1  0.794682  0.865844  0.181941  1
  Si  Si29  1  0.296935  0.633591  0.568467  1
  Si  Si30  1  0.700980  0.368199  0.066369  1
  Si  Si31  1  0.632925  0.296629  0.431447  1
  Si  Si32  1  0.368898  0.701288  0.933542  1
  Si  Si33  1  0.133608  0.204102  0.317681  1
  Si  Si34  1  0.204522  0.133208  0.682408  1
  Si  Si35  1  0.865451  0.795046  0.818150  1
