# generated using pymatgen
data_Dy18InSnIr12
_symmetry_space_group_name_H-M   'P 1'
_cell_length_a   10.85192100
_cell_length_b   10.85192100
_cell_length_c   6.29321500
_cell_angle_alpha   90.00000000
_cell_angle_beta   90.00000000
_cell_angle_gamma   90.00000000
_symmetry_Int_Tables_number   1
_chemical_formula_structural   Dy18InSnIr12
_chemical_formula_sum   'Dy18 In1 Sn1 Ir12'
_cell_volume   741.11536313
_cell_formula_units_Z   1
loop_
 _symmetry_equiv_pos_site_id
 _symmetry_equiv_pos_as_xyz
  1  'x, y, z'
loop_
 _atom_site_type_symbol
 _atom_site_label
 _atom_site_symmetry_multiplicity
 _atom_site_fract_x
 _atom_site_fract_y
 _atom_site_fract_z
 _atom_site_occupancy
  Dy  Dy0  1  0.285414  0.085445  0.382306  1
  Dy  Dy1  1  0.292810  0.910742  0.881201  1
  Dy  Dy2  1  0.707190  0.089258  0.881201  1
  Dy  Dy3  1  0.714586  0.914555  0.382306  1
  Dy  Dy4  1  0.586205  0.784800  0.882008  1
  Dy  Dy5  1  0.588527  0.208064  0.380334  1
  Dy  Dy6  1  0.411473  0.791936  0.380334  1
  Dy  Dy7  1  0.413795  0.215200  0.882008  1
  Dy  Dy8  1  0.208064  0.411473  0.619666  1
  Dy  Dy9  1  0.215200  0.586205  0.117992  1
  Dy  Dy10  1  0.784800  0.413795  0.117992  1
  Dy  Dy11  1  0.791936  0.588527  0.619666  1
  Dy  Dy12  1  0.910742  0.707190  0.118799  1
  Dy  Dy13  1  0.914555  0.285414  0.617694  1
  Dy  Dy14  1  0.085445  0.714586  0.617694  1
  Dy  Dy15  1  0.089258  0.292810  0.118799  1
  Dy  Dy16  1  0.000000  0.000000  0.000000  1
  Dy  Dy17  1  0.500000  0.500000  0.500000  1
  In  In18  1  0.500000  0.500000  0.000000  1
  Sn  Sn19  1  0.000000  0.000000  0.500000  1
  Ir  Ir20  1  0.847775  0.156642  0.244834  1
  Ir  Ir21  1  0.843358  0.847775  0.755166  1
  Ir  Ir22  1  0.156642  0.152225  0.755166  1
  Ir  Ir23  1  0.152225  0.843358  0.244834  1
  Ir  Ir24  1  0.658204  0.346650  0.741609  1
  Ir  Ir25  1  0.653350  0.658204  0.258391  1
  Ir  Ir26  1  0.346650  0.341796  0.258391  1
  Ir  Ir27  1  0.341796  0.653350  0.741609  1
  Ir  Ir28  1  0.500000  0.000000  0.124131  1
  Ir  Ir29  1  0.500000  0.000000  0.623733  1
  Ir  Ir30  1  0.000000  0.500000  0.875869  1
  Ir  Ir31  1  0.000000  0.500000  0.376267  1
