# generated using pymatgen
data_Ho3Tm3(Si3Pt2)4
_symmetry_space_group_name_H-M   'P 1'
_cell_length_a   4.23309100
_cell_length_b   8.53218853
_cell_length_c   12.90569320
_cell_angle_alpha   80.25702180
_cell_angle_beta   90.00000000
_cell_angle_gamma   90.00000000
_symmetry_Int_Tables_number   1
_chemical_formula_structural   Ho3Tm3(Si3Pt2)4
_chemical_formula_sum   'Ho3 Tm3 Si12 Pt8'
_cell_volume   459.39880308
_cell_formula_units_Z   1
loop_
 _symmetry_equiv_pos_site_id
 _symmetry_equiv_pos_as_xyz
  1  'x, y, z'
loop_
 _atom_site_type_symbol
 _atom_site_label
 _atom_site_symmetry_multiplicity
 _atom_site_fract_x
 _atom_site_fract_y
 _atom_site_fract_z
 _atom_site_occupancy
  Ho  Ho0  1  0.750000  0.416456  0.813474  1
  Ho  Ho1  1  0.750000  0.926267  0.815640  1
  Ho  Ho2  1  0.250000  0.073479  0.184256  1
  Tm  Tm3  1  0.250000  0.766196  0.439260  1
  Tm  Tm4  1  0.250000  0.584066  0.186636  1
  Tm  Tm5  1  0.750000  0.233730  0.560693  1
  Si  Si6  1  0.750000  0.588933  0.571301  1
  Si  Si7  1  0.750000  0.126911  0.004699  1
  Si  Si8  1  0.750000  0.872649  0.573536  1
  Si  Si9  1  0.250000  0.696392  0.713537  1
  Si  Si10  1  0.750000  0.303623  0.286483  1
  Si  Si11  1  0.750000  0.805428  0.277341  1
  Si  Si12  1  0.250000  0.872889  0.995606  1
  Si  Si13  1  0.250000  0.194382  0.722669  1
  Si  Si14  1  0.250000  0.378690  0.001503  1
  Si  Si15  1  0.250000  0.127288  0.426466  1
  Si  Si16  1  0.750000  0.621464  0.998687  1
  Si  Si17  1  0.250000  0.411179  0.428596  1
  Pt  Pt18  1  0.750000  0.352400  0.099756  1
  Pt  Pt19  1  0.250000  0.971876  0.623515  1
  Pt  Pt20  1  0.750000  0.848557  0.089503  1
  Pt  Pt21  1  0.750000  0.028160  0.376293  1
  Pt  Pt22  1  0.250000  0.648220  0.900512  1
  Pt  Pt23  1  0.250000  0.150771  0.910834  1
  Pt  Pt24  1  0.750000  0.533512  0.375997  1
  Pt  Pt25  1  0.250000  0.466482  0.623205  1
