# generated using pymatgen
data_Er3TmCoCu3
_symmetry_space_group_name_H-M   'P 1'
_cell_length_a   4.33900600
_cell_length_b   5.38701528
_cell_length_c   7.00920405
_cell_angle_alpha   90.19928316
_cell_angle_beta   90.00000000
_cell_angle_gamma   90.00000000
_symmetry_Int_Tables_number   1
_chemical_formula_structural   Er3TmCoCu3
_chemical_formula_sum   'Er3 Tm1 Co1 Cu3'
_cell_volume   163.83418862
_cell_formula_units_Z   1
loop_
 _symmetry_equiv_pos_site_id
 _symmetry_equiv_pos_as_xyz
  1  'x, y, z'
loop_
 _atom_site_type_symbol
 _atom_site_label
 _atom_site_symmetry_multiplicity
 _atom_site_fract_x
 _atom_site_fract_y
 _atom_site_fract_z
 _atom_site_occupancy
  Er  Er0  1  0.000000  0.630778  0.325097  1
  Er  Er1  1  0.000000  0.872719  0.812441  1
  Er  Er2  1  0.500000  0.136548  0.193909  1
  Tm  Tm3  1  0.500000  0.357760  0.669813  1
  Co  Co4  1  0.000000  0.132721  0.468243  1
  Cu  Cu5  1  0.000000  0.376472  0.964136  1
  Cu  Cu6  1  0.500000  0.867471  0.536832  1
  Cu  Cu7  1  0.500000  0.625531  0.029530  1
