# generated using pymatgen
data_Ta4FeTcB4
_symmetry_space_group_name_H-M   'P 1'
_cell_length_a   5.96130700
_cell_length_b   5.96130700
_cell_length_c   3.29661600
_cell_angle_alpha   90.00000000
_cell_angle_beta   90.00000000
_cell_angle_gamma   90.00000000
_symmetry_Int_Tables_number   1
_chemical_formula_structural   Ta4FeTcB4
_chemical_formula_sum   'Ta4 Fe1 Tc1 B4'
_cell_volume   117.15243997
_cell_formula_units_Z   1
loop_
 _symmetry_equiv_pos_site_id
 _symmetry_equiv_pos_as_xyz
  1  'x, y, z'
loop_
 _atom_site_type_symbol
 _atom_site_label
 _atom_site_symmetry_multiplicity
 _atom_site_fract_x
 _atom_site_fract_y
 _atom_site_fract_z
 _atom_site_occupancy
  Ta  Ta0  1  0.683958  0.174151  0.500000  1
  Ta  Ta1  1  0.316042  0.825849  0.500000  1
  Ta  Ta2  1  0.174151  0.316042  0.500000  1
  Ta  Ta3  1  0.825849  0.683958  0.500000  1
  Fe  Fe4  1  0.000000  0.000000  0.000000  1
  Tc  Tc5  1  0.500000  0.500000  0.000000  1
  B  B6  1  0.110393  0.609233  0.000000  1
  B  B7  1  0.889607  0.390767  0.000000  1
  B  B8  1  0.609233  0.889607  0.000000  1
  B  B9  1  0.390767  0.110393  0.000000  1
