# generated using pymatgen
data_Cs6ScFeSe6
_symmetry_space_group_name_H-M   'P 1'
_cell_length_a   11.13326548
_cell_length_b   11.13326897
_cell_length_c   14.26258200
_cell_angle_alpha   90.00000000
_cell_angle_beta   90.00000000
_cell_angle_gamma   139.37845446
_symmetry_Int_Tables_number   1
_chemical_formula_structural   Cs6ScFeSe6
_chemical_formula_sum   'Cs12 Sc2 Fe2 Se12'
_cell_volume   1150.97059102
_cell_formula_units_Z   2
loop_
 _symmetry_equiv_pos_site_id
 _symmetry_equiv_pos_as_xyz
  1  'x, y, z'
loop_
 _atom_site_type_symbol
 _atom_site_label
 _atom_site_symmetry_multiplicity
 _atom_site_fract_x
 _atom_site_fract_y
 _atom_site_fract_z
 _atom_site_occupancy
  Cs  Cs0  1  0.868713  0.870573  0.683510  1
  Cs  Cs1  1  0.129427  0.131288  0.316490  1
  Cs  Cs2  1  0.629427  0.631288  0.183510  1
  Cs  Cs3  1  0.368713  0.370573  0.816490  1
  Cs  Cs4  1  0.166705  0.519845  0.125754  1
  Cs  Cs5  1  0.480155  0.833296  0.874246  1
  Cs  Cs6  1  0.980155  0.333296  0.625754  1
  Cs  Cs7  1  0.666705  0.019845  0.374246  1
  Cs  Cs8  1  0.829298  0.469785  0.873248  1
  Cs  Cs9  1  0.530214  0.170702  0.126752  1
  Cs  Cs10  1  0.030214  0.670702  0.373248  1
  Cs  Cs11  1  0.329298  0.969785  0.626752  1
  Sc  Sc12  1  0.078791  0.921208  0.000000  1
  Sc  Sc13  1  0.578791  0.421208  0.500000  1
  Fe  Fe14  1  0.919794  0.080207  0.999999  1
  Fe  Fe15  1  0.419794  0.580207  0.500001  1
  Se  Se16  1  0.276577  0.287267  0.564426  1
  Se  Se17  1  0.712733  0.723423  0.435574  1
  Se  Se18  1  0.212733  0.223423  0.064426  1
  Se  Se19  1  0.776577  0.787267  0.935574  1
  Se  Se20  1  0.725449  0.013603  0.119397  1
  Se  Se21  1  0.986397  0.274551  0.880603  1
  Se  Se22  1  0.486397  0.774551  0.619397  1
  Se  Se23  1  0.225449  0.513603  0.380603  1
  Se  Se24  1  0.291118  0.995371  0.874805  1
  Se  Se25  1  0.004628  0.708880  0.125194  1
  Se  Se26  1  0.504628  0.208880  0.374806  1
  Se  Se27  1  0.791118  0.495371  0.625195  1
