# generated using pymatgen
data_Ba2Ni2IrN2
_symmetry_space_group_name_H-M   'P 1'
_cell_length_a   6.46434768
_cell_length_b   6.46434766
_cell_length_c   7.38814517
_cell_angle_alpha   90.13830729
_cell_angle_beta   89.86169509
_cell_angle_gamma   110.66752449
_symmetry_Int_Tables_number   1
_chemical_formula_structural   Ba2Ni2IrN2
_chemical_formula_sum   'Ba4 Ni4 Ir2 N4'
_cell_volume   288.86418984
_cell_formula_units_Z   2
loop_
 _symmetry_equiv_pos_site_id
 _symmetry_equiv_pos_as_xyz
  1  'x, y, z'
loop_
 _atom_site_type_symbol
 _atom_site_label
 _atom_site_symmetry_multiplicity
 _atom_site_fract_x
 _atom_site_fract_y
 _atom_site_fract_z
 _atom_site_occupancy
  Ba  Ba0  1  0.669335  0.332436  0.403889  1
  Ba  Ba1  1  0.332436  0.669335  0.596111  1
  Ba  Ba2  1  0.833477  0.170411  0.904219  1
  Ba  Ba3  1  0.170411  0.833477  0.095781  1
  Ni  Ni4  1  0.832244  0.674325  0.748919  1
  Ni  Ni5  1  0.674325  0.832244  0.251081  1
  Ni  Ni6  1  0.029058  0.029058  0.500000  1
  Ni  Ni7  1  0.479449  0.479449  0.000000  1
  Ir  Ir8  1  0.179759  0.326680  0.249387  1
  Ir  Ir9  1  0.326680  0.179759  0.750613  1
  N  N10  1  0.918057  0.067954  0.273876  1
  N  N11  1  0.067954  0.918057  0.726124  1
  N  N12  1  0.589072  0.438745  0.773314  1
  N  N13  1  0.438745  0.589072  0.226686  1
