# generated using pymatgen
data_DyY3CdNi
_symmetry_space_group_name_H-M   'P 1'
_cell_length_a   9.63211004
_cell_length_b   9.63211020
_cell_length_c   9.63211000
_cell_angle_alpha   60.00000068
_cell_angle_beta   60.00000014
_cell_angle_gamma   59.99999865
_symmetry_Int_Tables_number   1
_chemical_formula_structural   DyY3CdNi
_chemical_formula_sum   'Dy4 Y12 Cd4 Ni4'
_cell_volume   631.90139206
_cell_formula_units_Z   4
loop_
 _symmetry_equiv_pos_site_id
 _symmetry_equiv_pos_as_xyz
  1  'x, y, z'
loop_
 _atom_site_type_symbol
 _atom_site_label
 _atom_site_symmetry_multiplicity
 _atom_site_fract_x
 _atom_site_fract_y
 _atom_site_fract_z
 _atom_site_occupancy
  Dy  Dy0  1  0.598492  0.598492  0.598492  1
  Dy  Dy1  1  0.598492  0.598492  0.204525  1
  Dy  Dy2  1  0.598492  0.204525  0.598492  1
  Dy  Dy3  1  0.204525  0.598492  0.598492  1
  Y  Y4  1  0.060815  0.439185  0.439185  1
  Y  Y5  1  0.439185  0.060815  0.060815  1
  Y  Y6  1  0.439185  0.060815  0.439185  1
  Y  Y7  1  0.060815  0.439185  0.060815  1
  Y  Y8  1  0.439185  0.439185  0.060815  1
  Y  Y9  1  0.060815  0.060815  0.439185  1
  Y  Y10  1  0.186723  0.813277  0.813277  1
  Y  Y11  1  0.813277  0.186723  0.186723  1
  Y  Y12  1  0.813277  0.186723  0.813277  1
  Y  Y13  1  0.186723  0.813277  0.186723  1
  Y  Y14  1  0.813277  0.813277  0.186723  1
  Y  Y15  1  0.186723  0.186723  0.813277  1
  Cd  Cd16  1  0.831034  0.831034  0.831034  1
  Cd  Cd17  1  0.831034  0.831034  0.506896  1
  Cd  Cd18  1  0.831034  0.506896  0.831034  1
  Cd  Cd19  1  0.506896  0.831034  0.831034  1
  Ni  Ni20  1  0.393298  0.393298  0.393298  1
  Ni  Ni21  1  0.393298  0.393298  0.820108  1
  Ni  Ni22  1  0.393298  0.820108  0.393298  1
  Ni  Ni23  1  0.820108  0.393298  0.393298  1
