# generated using pymatgen
data_Pr8MoW3C8
_symmetry_space_group_name_H-M   'P 1'
_cell_length_a   5.84835893
_cell_length_b   5.84835893
_cell_length_c   10.53977300
_cell_angle_alpha   90.00000000
_cell_angle_beta   90.00000000
_cell_angle_gamma   89.93537965
_symmetry_Int_Tables_number   1
_chemical_formula_structural   Pr8MoW3C8
_chemical_formula_sum   'Pr8 Mo1 W3 C8'
_cell_volume   360.49481148
_cell_formula_units_Z   1
loop_
 _symmetry_equiv_pos_site_id
 _symmetry_equiv_pos_as_xyz
  1  'x, y, z'
loop_
 _atom_site_type_symbol
 _atom_site_label
 _atom_site_symmetry_multiplicity
 _atom_site_fract_x
 _atom_site_fract_y
 _atom_site_fract_z
 _atom_site_occupancy
  Pr  Pr0  1  0.303516  0.696484  0.156610  1
  Pr  Pr1  1  0.696265  0.303735  0.843026  1
  Pr  Pr2  1  0.803657  0.802477  0.343459  1
  Pr  Pr3  1  0.197523  0.196343  0.656541  1
  Pr  Pr4  1  0.696265  0.303735  0.156974  1
  Pr  Pr5  1  0.303516  0.696484  0.843390  1
  Pr  Pr6  1  0.197523  0.196343  0.343459  1
  Pr  Pr7  1  0.803657  0.802477  0.656541  1
  Mo  Mo8  1  0.676785  0.323215  0.500000  1
  W  W9  1  0.324115  0.675885  0.500000  1
  W  W10  1  0.822763  0.823271  0.000000  1
  W  W11  1  0.176729  0.177237  0.000000  1
  C  C12  1  0.999888  0.000112  0.859647  1
  C  C13  1  0.498507  0.501493  0.640888  1
  C  C14  1  0.498507  0.501493  0.359112  1
  C  C15  1  0.500192  0.000011  0.000000  1
  C  C16  1  0.498649  0.997934  0.500000  1
  C  C17  1  0.999989  0.499808  0.000000  1
  C  C18  1  0.002066  0.501351  0.500000  1
  C  C19  1  0.999888  0.000112  0.140353  1
