# generated using pymatgen
data_Hf4Fe4Si3Ge
_symmetry_space_group_name_H-M   'P 1'
_cell_length_a   3.99734600
_cell_length_b   6.35778603
_cell_length_c   6.94830008
_cell_angle_alpha   90.21354701
_cell_angle_beta   90.00000000
_cell_angle_gamma   90.00000000
_symmetry_Int_Tables_number   1
_chemical_formula_structural   Hf4Fe4Si3Ge
_chemical_formula_sum   'Hf4 Fe4 Si3 Ge1'
_cell_volume   176.58475153
_cell_formula_units_Z   1
loop_
 _symmetry_equiv_pos_site_id
 _symmetry_equiv_pos_as_xyz
  1  'x, y, z'
loop_
 _atom_site_type_symbol
 _atom_site_label
 _atom_site_symmetry_multiplicity
 _atom_site_fract_x
 _atom_site_fract_y
 _atom_site_fract_z
 _atom_site_occupancy
  Hf  Hf0  1  0.250000  0.991221  0.298449  1
  Hf  Hf1  1  0.250000  0.493356  0.198272  1
  Hf  Hf2  1  0.750000  0.000620  0.700461  1
  Hf  Hf3  1  0.750000  0.508473  0.802428  1
  Fe  Fe4  1  0.250000  0.155471  0.944481  1
  Fe  Fe5  1  0.250000  0.663675  0.561492  1
  Fe  Fe6  1  0.750000  0.842992  0.060699  1
  Fe  Fe7  1  0.750000  0.348149  0.432435  1
  Si  Si8  1  0.250000  0.789464  0.894174  1
  Si  Si9  1  0.750000  0.710813  0.391602  1
  Si  Si10  1  0.750000  0.210125  0.107696  1
  Ge  Ge11  1  0.250000  0.285641  0.607811  1
