# generated using pymatgen
data_Zr10Ni2SnSb5
_symmetry_space_group_name_H-M   'P 1'
_cell_length_a   8.64121273
_cell_length_b   8.64121226
_cell_length_c   5.81659000
_cell_angle_alpha   90.00000000
_cell_angle_beta   90.00000000
_cell_angle_gamma   120.04694030
_symmetry_Int_Tables_number   1
_chemical_formula_structural   Zr10Ni2SnSb5
_chemical_formula_sum   'Zr10 Ni2 Sn1 Sb5'
_cell_volume   375.96103581
_cell_formula_units_Z   1
loop_
 _symmetry_equiv_pos_site_id
 _symmetry_equiv_pos_as_xyz
  1  'x, y, z'
loop_
 _atom_site_type_symbol
 _atom_site_label
 _atom_site_symmetry_multiplicity
 _atom_site_fract_x
 _atom_site_fract_y
 _atom_site_fract_z
 _atom_site_occupancy
  Zr  Zr0  1  0.745840  0.745840  0.750000  1
  Zr  Zr1  1  0.256030  0.999810  0.750000  1
  Zr  Zr2  1  0.999810  0.256030  0.750000  1
  Zr  Zr3  1  0.253565  0.253565  0.250000  1
  Zr  Zr4  1  0.744053  0.999386  0.250000  1
  Zr  Zr5  1  0.999386  0.744053  0.250000  1
  Zr  Zr6  1  0.667248  0.332952  0.999734  1
  Zr  Zr7  1  0.332952  0.667248  0.999734  1
  Zr  Zr8  1  0.332952  0.667248  0.500266  1
  Zr  Zr9  1  0.667248  0.332952  0.500266  1
  Ni  Ni10  1  0.001044  0.001044  0.999037  1
  Ni  Ni11  1  0.001044  0.001044  0.500963  1
  Sn  Sn12  1  0.389079  0.389079  0.750000  1
  Sb  Sb13  1  0.611324  0.999914  0.750000  1
  Sb  Sb14  1  0.999914  0.611324  0.750000  1
  Sb  Sb15  1  0.609145  0.609145  0.250000  1
  Sb  Sb16  1  0.388775  0.000591  0.250000  1
  Sb  Sb17  1  0.000591  0.388775  0.250000  1
