# generated using pymatgen
data_LaTbY3(FeB3)2
_symmetry_space_group_name_H-M   'P 1'
_cell_length_a   5.45266318
_cell_length_b   5.45266216
_cell_length_c   8.28517886
_cell_angle_alpha   70.78819815
_cell_angle_beta   70.78820021
_cell_angle_gamma   59.99999161
_symmetry_Int_Tables_number   1
_chemical_formula_structural   LaTbY3(FeB3)2
_chemical_formula_sum   'La1 Tb1 Y3 Fe2 B6'
_cell_volume   197.32925858
_cell_formula_units_Z   1
loop_
 _symmetry_equiv_pos_site_id
 _symmetry_equiv_pos_as_xyz
  1  'x, y, z'
loop_
 _atom_site_type_symbol
 _atom_site_label
 _atom_site_symmetry_multiplicity
 _atom_site_fract_x
 _atom_site_fract_y
 _atom_site_fract_z
 _atom_site_occupancy
  La  La0  1  0.000014  0.000014  0.999959  1
  Tb  Tb1  1  0.749526  0.749526  0.751424  1
  Y  Y2  1  0.250246  0.250246  0.249262  1
  Y  Y3  1  0.582670  0.582670  0.251991  1
  Y  Y4  1  0.417341  0.417341  0.747976  1
  Fe  Fe5  1  0.884361  0.884361  0.346915  1
  Fe  Fe6  1  0.115665  0.115665  0.653005  1
  B  B7  1  0.499941  0.167207  0.499911  1
  B  B8  1  0.832940  0.499941  0.499911  1
  B  B9  1  0.167207  0.832940  0.499911  1
  B  B10  1  0.167207  0.499941  0.499911  1
  B  B11  1  0.832940  0.167207  0.499911  1
  B  B12  1  0.499941  0.832940  0.499911  1
