# generated using pymatgen
data_Tb5Hg2Os
_symmetry_space_group_name_H-M   'P 1'
_cell_length_a   7.58015300
_cell_length_b   9.37198800
_cell_length_c   12.16165500
_cell_angle_alpha   90.00000000
_cell_angle_beta   90.00000000
_cell_angle_gamma   90.00000000
_symmetry_Int_Tables_number   1
_chemical_formula_structural   Tb5Hg2Os
_chemical_formula_sum   'Tb20 Hg8 Os4'
_cell_volume   863.97738495
_cell_formula_units_Z   4
loop_
 _symmetry_equiv_pos_site_id
 _symmetry_equiv_pos_as_xyz
  1  'x, y, z'
loop_
 _atom_site_type_symbol
 _atom_site_label
 _atom_site_symmetry_multiplicity
 _atom_site_fract_x
 _atom_site_fract_y
 _atom_site_fract_z
 _atom_site_occupancy
  Tb  Tb0  1  0.840410  0.750000  0.779273  1
  Tb  Tb1  1  0.159590  0.250000  0.220727  1
  Tb  Tb2  1  0.340410  0.250000  0.720727  1
  Tb  Tb3  1  0.659590  0.750000  0.279273  1
  Tb  Tb4  1  0.371751  0.750000  0.688723  1
  Tb  Tb5  1  0.628249  0.250000  0.311277  1
  Tb  Tb6  1  0.871751  0.250000  0.811277  1
  Tb  Tb7  1  0.128249  0.750000  0.188723  1
  Tb  Tb8  1  0.953915  0.750000  0.499270  1
  Tb  Tb9  1  0.046085  0.250000  0.500730  1
  Tb  Tb10  1  0.453915  0.250000  0.000730  1
  Tb  Tb11  1  0.546085  0.750000  0.999270  1
  Tb  Tb12  1  0.675036  0.031072  0.578938  1
  Tb  Tb13  1  0.324964  0.968928  0.421062  1
  Tb  Tb14  1  0.175036  0.968928  0.921062  1
  Tb  Tb15  1  0.324964  0.531072  0.421062  1
  Tb  Tb16  1  0.824964  0.031072  0.078938  1
  Tb  Tb17  1  0.675036  0.468928  0.578938  1
  Tb  Tb18  1  0.824964  0.468928  0.078938  1
  Tb  Tb19  1  0.175036  0.531072  0.921062  1
  Hg  Hg20  1  0.575804  0.493509  0.836312  1
  Hg  Hg21  1  0.424196  0.506491  0.163688  1
  Hg  Hg22  1  0.075804  0.506491  0.663688  1
  Hg  Hg23  1  0.424196  0.993509  0.163688  1
  Hg  Hg24  1  0.924196  0.493509  0.336312  1
  Hg  Hg25  1  0.575804  0.006491  0.836312  1
  Hg  Hg26  1  0.924196  0.006491  0.336312  1
  Hg  Hg27  1  0.075804  0.993509  0.663688  1
  Os  Os28  1  0.571559  0.750000  0.501661  1
  Os  Os29  1  0.428441  0.250000  0.498339  1
  Os  Os30  1  0.071559  0.250000  0.998339  1
  Os  Os31  1  0.928441  0.750000  0.001661  1
