# generated using pymatgen
data_LiLu(PSe3)2
_symmetry_space_group_name_H-M   'P 1'
_cell_length_a   6.84948554
_cell_length_b   6.84948562
_cell_length_c   13.65718567
_cell_angle_alpha   87.99414393
_cell_angle_beta   87.99414264
_cell_angle_gamma   115.19243875
_symmetry_Int_Tables_number   1
_chemical_formula_structural   LiLu(PSe3)2
_chemical_formula_sum   'Li2 Lu2 P4 Se12'
_cell_volume   578.55053410
_cell_formula_units_Z   2
loop_
 _symmetry_equiv_pos_site_id
 _symmetry_equiv_pos_as_xyz
  1  'x, y, z'
loop_
 _atom_site_type_symbol
 _atom_site_label
 _atom_site_symmetry_multiplicity
 _atom_site_fract_x
 _atom_site_fract_y
 _atom_site_fract_z
 _atom_site_occupancy
  Li  Li0  1  0.845816  0.154184  0.250000  1
  Li  Li1  1  0.154184  0.845816  0.750000  1
  Lu  Lu2  1  0.485989  0.514011  0.250000  1
  Lu  Lu3  1  0.514011  0.485989  0.750000  1
  P  P4  1  0.019112  0.695373  0.222357  1
  P  P5  1  0.304627  0.980888  0.277643  1
  P  P6  1  0.980888  0.304627  0.777643  1
  P  P7  1  0.695373  0.019112  0.722357  1
  Se  Se8  1  0.834817  0.821753  0.130599  1
  Se  Se9  1  0.178247  0.165183  0.369401  1
  Se  Se10  1  0.165183  0.178247  0.869401  1
  Se  Se11  1  0.821753  0.834817  0.630599  1
  Se  Se12  1  0.832003  0.509796  0.356379  1
  Se  Se13  1  0.490204  0.167997  0.143621  1
  Se  Se14  1  0.167997  0.490204  0.643621  1
  Se  Se15  1  0.509796  0.832003  0.856379  1
  Se  Se16  1  0.157840  0.519339  0.131582  1
  Se  Se17  1  0.480661  0.842160  0.368418  1
  Se  Se18  1  0.842160  0.480661  0.868418  1
  Se  Se19  1  0.519339  0.157840  0.631582  1
