# generated using pymatgen
data_TbPr9B2Br15
_symmetry_space_group_name_H-M   'P 1'
_cell_length_a   9.44867147
_cell_length_b   10.27327200
_cell_length_c   11.11738309
_cell_angle_alpha   91.21358184
_cell_angle_beta   114.47650120
_cell_angle_gamma   110.83332588
_symmetry_Int_Tables_number   1
_chemical_formula_structural   TbPr9B2Br15
_chemical_formula_sum   'Tb1 Pr9 B2 Br15'
_cell_volume   899.75629610
_cell_formula_units_Z   1
loop_
 _symmetry_equiv_pos_site_id
 _symmetry_equiv_pos_as_xyz
  1  'x, y, z'
loop_
 _atom_site_type_symbol
 _atom_site_label
 _atom_site_symmetry_multiplicity
 _atom_site_fract_x
 _atom_site_fract_y
 _atom_site_fract_z
 _atom_site_occupancy
  Tb  Tb0  1  0.283945  0.927167  0.953126  1
  Pr  Pr1  1  0.801034  0.409642  0.275898  1
  Pr  Pr2  1  0.195197  0.589144  0.722177  1
  Pr  Pr3  1  0.674460  0.745932  0.820647  1
  Pr  Pr4  1  0.322686  0.252878  0.179687  1
  Pr  Pr5  1  0.525582  0.704375  0.096891  1
  Pr  Pr6  1  0.473183  0.295072  0.902712  1
  Pr  Pr7  1  0.585496  0.037491  0.325600  1
  Pr  Pr8  1  0.410903  0.960952  0.673131  1
  Pr  Pr9  1  0.728443  0.075699  0.048618  1
  B  B10  1  0.463228  0.819213  0.875705  1
  B  B11  1  0.529330  0.177577  0.122091  1
  Br  Br12  1  0.006015  0.996471  0.997825  1
  Br  Br13  1  0.636927  0.882325  0.583656  1
  Br  Br14  1  0.361763  0.117071  0.416380  1
  Br  Br15  1  0.882877  0.298188  0.527884  1
  Br  Br16  1  0.115459  0.700578  0.470876  1
  Br  Br17  1  0.282662  0.766651  0.169993  1
  Br  Br18  1  0.710912  0.237792  0.819417  1
  Br  Br19  1  0.057343  0.344510  0.227573  1
  Br  Br20  1  0.160815  0.050172  0.711327  1
  Br  Br21  1  0.838003  0.943136  0.297492  1
  Br  Br22  1  0.229598  0.409563  0.943759  1
  Br  Br23  1  0.768828  0.589634  0.055844  1
  Br  Br24  1  0.407532  0.463542  0.659477  1
  Br  Br25  1  0.591532  0.536132  0.340520  1
  Br  Br26  1  0.956248  0.669092  0.781694  1
