# generated using pymatgen
data_Y4Ga18Ir4PdPt
_symmetry_space_group_name_H-M   'P 1'
_cell_length_a   7.61662561
_cell_length_b   7.61662830
_cell_length_c   9.49314500
_cell_angle_alpha   90.00117485
_cell_angle_beta   90.00117303
_cell_angle_gamma   119.79954235
_symmetry_Int_Tables_number   1
_chemical_formula_structural   Y4Ga18Ir4PdPt
_chemical_formula_sum   'Y4 Ga18 Ir4 Pd1 Pt1'
_cell_volume   477.90307816
_cell_formula_units_Z   1
loop_
 _symmetry_equiv_pos_site_id
 _symmetry_equiv_pos_as_xyz
  1  'x, y, z'
loop_
 _atom_site_type_symbol
 _atom_site_label
 _atom_site_symmetry_multiplicity
 _atom_site_fract_x
 _atom_site_fract_y
 _atom_site_fract_z
 _atom_site_occupancy
  Y  Y0  1  0.996458  0.670414  0.249837  1
  Y  Y1  1  0.003542  0.329586  0.750163  1
  Y  Y2  1  0.670414  0.996458  0.249837  1
  Y  Y3  1  0.329586  0.003542  0.750163  1
  Ga  Ga4  1  0.131425  0.131425  0.248562  1
  Ga  Ga5  1  0.868575  0.868575  0.751438  1
  Ga  Ga6  1  0.999105  0.337328  0.081057  1
  Ga  Ga7  1  0.000895  0.662672  0.918943  1
  Ga  Ga8  1  0.001210  0.661971  0.581061  1
  Ga  Ga9  1  0.338028  0.998789  0.418938  1
  Ga  Ga10  1  0.998790  0.338029  0.418939  1
  Ga  Ga11  1  0.661972  0.001211  0.581062  1
  Ga  Ga12  1  0.662672  0.000894  0.918943  1
  Ga  Ga13  1  0.337328  0.999106  0.081057  1
  Ga  Ga14  1  0.335728  0.335729  0.567525  1
  Ga  Ga15  1  0.664272  0.664271  0.432475  1
  Ga  Ga16  1  0.664856  0.664856  0.067710  1
  Ga  Ga17  1  0.335144  0.335144  0.932290  1
  Ga  Ga18  1  0.337092  0.546762  0.249913  1
  Ga  Ga19  1  0.662908  0.453238  0.750087  1
  Ga  Ga20  1  0.546761  0.337093  0.249914  1
  Ga  Ga21  1  0.453239  0.662907  0.750086  1
  Ir  Ir22  1  0.671270  0.328730  0.000000  1
  Ir  Ir23  1  0.328730  0.671270  0.000000  1
  Ir  Ir24  1  0.328793  0.671207  0.500000  1
  Ir  Ir25  1  0.671207  0.328793  0.500000  1
  Pd  Pd26  1  0.000000  0.000000  0.000000  1
  Pt  Pt27  1  0.000000  0.000000  0.500000  1
