# generated using pymatgen
data_Yb3Pr5(W2C3)4
_symmetry_space_group_name_H-M   'P 1'
_cell_length_a   6.67772471
_cell_length_b   5.98206107
_cell_length_c   11.98472846
_cell_angle_alpha   67.72669422
_cell_angle_beta   89.93668858
_cell_angle_gamma   90.12971771
_symmetry_Int_Tables_number   1
_chemical_formula_structural   Yb3Pr5(W2C3)4
_chemical_formula_sum   'Yb3 Pr5 W8 C12'
_cell_volume   443.02535054
_cell_formula_units_Z   1
loop_
 _symmetry_equiv_pos_site_id
 _symmetry_equiv_pos_as_xyz
  1  'x, y, z'
loop_
 _atom_site_type_symbol
 _atom_site_label
 _atom_site_symmetry_multiplicity
 _atom_site_fract_x
 _atom_site_fract_y
 _atom_site_fract_z
 _atom_site_occupancy
  Yb  Yb0  1  0.794296  0.687923  0.909937  1
  Yb  Yb1  1  0.291261  0.307319  0.592097  1
  Yb  Yb2  1  0.204424  0.312665  0.089983  1
  Pr  Pr3  1  0.713547  0.680231  0.408199  1
  Pr  Pr4  1  0.000994  0.723749  0.637914  1
  Pr  Pr5  1  0.496765  0.278065  0.864436  1
  Pr  Pr6  1  0.006437  0.274168  0.363602  1
  Pr  Pr7  1  0.498798  0.724339  0.132121  1
  W  W8  1  0.993827  0.821779  0.122061  1
  W  W9  1  0.495821  0.179545  0.378406  1
  W  W10  1  0.003158  0.178579  0.878198  1
  W  W11  1  0.504851  0.820579  0.621930  1
  W  W12  1  0.759603  0.177768  0.660481  1
  W  W13  1  0.240882  0.819769  0.341194  1
  W  W14  1  0.739769  0.182176  0.158245  1
  W  W15  1  0.258751  0.819310  0.841524  1
  C  C16  1  0.629231  0.504024  0.642167  1
  C  C17  1  0.128723  0.492900  0.858970  1
  C  C18  1  0.371712  0.494395  0.359003  1
  C  C19  1  0.867921  0.507529  0.142343  1
  C  C20  1  0.211689  0.928601  0.987826  1
  C  C21  1  0.715194  0.071564  0.511937  1
  C  C22  1  0.784762  0.072684  0.011660  1
  C  C23  1  0.285599  0.932759  0.488577  1
  C  C24  1  0.475929  0.034693  0.242722  1
  C  C25  1  0.022257  0.031074  0.744826  1
  C  C26  1  0.981932  0.976004  0.252752  1
  C  C27  1  0.521865  0.965807  0.756888  1
