# generated using pymatgen
data_Tb2Zn4Ru
_symmetry_space_group_name_H-M   'P 1'
_cell_length_a   6.98409600
_cell_length_b   6.98409600
_cell_length_c   5.33617100
_cell_angle_alpha   90.00000000
_cell_angle_beta   90.00000000
_cell_angle_gamma   90.00000000
_symmetry_Int_Tables_number   1
_chemical_formula_structural   Tb2Zn4Ru
_chemical_formula_sum   'Tb4 Zn8 Ru2'
_cell_volume   260.28559823
_cell_formula_units_Z   2
loop_
 _symmetry_equiv_pos_site_id
 _symmetry_equiv_pos_as_xyz
  1  'x, y, z'
loop_
 _atom_site_type_symbol
 _atom_site_label
 _atom_site_symmetry_multiplicity
 _atom_site_fract_x
 _atom_site_fract_y
 _atom_site_fract_z
 _atom_site_occupancy
  Tb  Tb0  1  0.000000  0.500000  0.767033  1
  Tb  Tb1  1  0.000000  0.000000  0.000000  1
  Tb  Tb2  1  0.500000  0.000000  0.232967  1
  Tb  Tb3  1  0.500000  0.500000  0.000000  1
  Zn  Zn4  1  0.187259  0.687259  0.292247  1
  Zn  Zn5  1  0.812741  0.687259  0.292247  1
  Zn  Zn6  1  0.812741  0.312741  0.292247  1
  Zn  Zn7  1  0.312741  0.187259  0.707753  1
  Zn  Zn8  1  0.187259  0.312741  0.292247  1
  Zn  Zn9  1  0.687259  0.187259  0.707753  1
  Zn  Zn10  1  0.687259  0.812741  0.707753  1
  Zn  Zn11  1  0.312741  0.812741  0.707753  1
  Ru  Ru12  1  0.500000  0.500000  0.500000  1
  Ru  Ru13  1  0.000000  0.000000  0.500000  1
