# generated using pymatgen
data_Pa4Al24IrPt8
_symmetry_space_group_name_H-M   'P 1'
_cell_length_a   7.57918801
_cell_length_b   7.59420048
_cell_length_c   13.13100765
_cell_angle_alpha   84.56374794
_cell_angle_beta   78.94921895
_cell_angle_gamma   59.90971994
_symmetry_Int_Tables_number   1
_chemical_formula_structural   Pa4Al24IrPt8
_chemical_formula_sum   'Pa4 Al24 Ir1 Pt8'
_cell_volume   641.81319089
_cell_formula_units_Z   1
loop_
 _symmetry_equiv_pos_site_id
 _symmetry_equiv_pos_as_xyz
  1  'x, y, z'
loop_
 _atom_site_type_symbol
 _atom_site_label
 _atom_site_symmetry_multiplicity
 _atom_site_fract_x
 _atom_site_fract_y
 _atom_site_fract_z
 _atom_site_occupancy
  Pa  Pa0  1  0.394532  0.168506  0.806268  1
  Pa  Pa1  1  0.605468  0.831494  0.193732  1
  Pa  Pa2  1  0.734415  0.498727  0.806208  1
  Pa  Pa3  1  0.265585  0.501273  0.193792  1
  Al  Al4  1  0.685778  0.830992  0.947072  1
  Al  Al5  1  0.314222  0.169008  0.052928  1
  Al  Al6  1  0.145777  0.833173  0.560894  1
  Al  Al7  1  0.854223  0.166827  0.439106  1
  Al  Al8  1  0.481365  0.166645  0.558083  1
  Al  Al9  1  0.518635  0.833355  0.441917  1
  Al  Al10  1  0.214653  0.165616  0.329828  1
  Al  Al11  1  0.785347  0.834384  0.670172  1
  Al  Al12  1  0.434909  0.509289  0.670336  1
  Al  Al13  1  0.565091  0.490711  0.329664  1
  Al  Al14  1  0.110013  0.157389  0.668315  1
  Al  Al15  1  0.889987  0.842611  0.331685  1
  Al  Al16  1  0.349443  0.499427  0.947201  1
  Al  Al17  1  0.650557  0.500573  0.052799  1
  Al  Al18  1  0.015153  0.170291  0.954220  1
  Al  Al19  1  0.984847  0.829709  0.045780  1
  Al  Al20  1  0.186599  0.499915  0.441954  1
  Al  Al21  1  0.813401  0.500085  0.558046  1
  Al  Al22  1  0.736310  0.163217  0.181973  1
  Al  Al23  1  0.263690  0.836783  0.818027  1
  Al  Al24  1  0.060430  0.631532  0.818119  1
  Al  Al25  1  0.939570  0.368468  0.181881  1
  Al  Al26  1  0.856876  0.040477  0.817555  1
  Al  Al27  1  0.143124  0.959523  0.182445  1
  Ir  Ir28  1  0.000000  0.500000  0.000000  1
  Pt  Pt29  1  0.119660  0.491542  0.640076  1
  Pt  Pt30  1  0.880340  0.508458  0.359924  1
  Pt  Pt31  1  0.658398  0.171016  0.999789  1
  Pt  Pt32  1  0.341602  0.828984  0.000211  1
  Pt  Pt33  1  0.537446  0.166899  0.360463  1
  Pt  Pt34  1  0.462554  0.833101  0.639537  1
  Pt  Pt35  1  0.778393  0.175287  0.638591  1
  Pt  Pt36  1  0.221607  0.824713  0.361409  1
