# generated using pymatgen
data_Yb7Hf(Si4Mo3)4
_symmetry_space_group_name_H-M   'P 1'
_cell_length_a   6.70259210
_cell_length_b   6.89348938
_cell_length_c   12.98429007
_cell_angle_alpha   89.77580097
_cell_angle_beta   89.96898188
_cell_angle_gamma   90.13825579
_symmetry_Int_Tables_number   1
_chemical_formula_structural   Yb7Hf(Si4Mo3)4
_chemical_formula_sum   'Yb7 Hf1 Si16 Mo12'
_cell_volume   599.92292150
_cell_formula_units_Z   1
loop_
 _symmetry_equiv_pos_site_id
 _symmetry_equiv_pos_as_xyz
  1  'x, y, z'
loop_
 _atom_site_type_symbol
 _atom_site_label
 _atom_site_symmetry_multiplicity
 _atom_site_fract_x
 _atom_site_fract_y
 _atom_site_fract_z
 _atom_site_occupancy
  Yb  Yb0  1  0.998006  0.166062  0.090925  1
  Yb  Yb1  1  0.002495  0.834171  0.908987  1
  Yb  Yb2  1  0.502435  0.665615  0.909922  1
  Yb  Yb3  1  0.002604  0.834558  0.589704  1
  Yb  Yb4  1  0.497801  0.332969  0.090707  1
  Yb  Yb5  1  0.999174  0.167675  0.409896  1
  Yb  Yb6  1  0.498491  0.330977  0.408566  1
  Hf  Hf7  1  0.501351  0.673928  0.598114  1
  Si  Si8  1  0.035560  0.131066  0.748227  1
  Si  Si9  1  0.963959  0.873629  0.250888  1
  Si  Si10  1  0.464134  0.624328  0.249319  1
  Si  Si11  1  0.535229  0.373310  0.748261  1
  Si  Si12  1  0.302122  0.865610  0.749507  1
  Si  Si13  1  0.699117  0.130863  0.250385  1
  Si  Si14  1  0.198398  0.367391  0.250204  1
  Si  Si15  1  0.801983  0.634665  0.749696  1
  Si  Si16  1  0.167367  0.461338  0.545771  1
  Si  Si17  1  0.836512  0.542396  0.456815  1
  Si  Si18  1  0.341305  0.953621  0.457536  1
  Si  Si19  1  0.841632  0.543090  0.045418  1
  Si  Si20  1  0.658081  0.039207  0.545401  1
  Si  Si21  1  0.158138  0.456149  0.953603  1
  Si  Si22  1  0.659002  0.043921  0.953918  1
  Si  Si23  1  0.341351  0.957244  0.045295  1
  Mo  Mo24  1  0.166127  0.497104  0.747300  1
  Mo  Mo25  1  0.837631  0.507854  0.251205  1
  Mo  Mo26  1  0.337965  0.990070  0.250915  1
  Mo  Mo27  1  0.663078  0.002935  0.747012  1
  Mo  Mo28  1  0.333833  0.165607  0.625199  1
  Mo  Mo29  1  0.661789  0.827673  0.375283  1
  Mo  Mo30  1  0.165732  0.667561  0.373734  1
  Mo  Mo31  1  0.664743  0.831615  0.128044  1
  Mo  Mo32  1  0.830187  0.337639  0.625229  1
  Mo  Mo33  1  0.334829  0.167190  0.870239  1
  Mo  Mo34  1  0.833491  0.333144  0.871188  1
  Mo  Mo35  1  0.164348  0.667827  0.127590  1
