# generated using pymatgen
data_Li2Pr5Nd3(Zn3Rh4)2
_symmetry_space_group_name_H-M   'P 1'
_cell_length_a   4.11504400
_cell_length_b   7.28103300
_cell_length_c   16.49168001
_cell_angle_alpha   89.99645063
_cell_angle_beta   90.00000000
_cell_angle_gamma   90.00000000
_symmetry_Int_Tables_number   1
_chemical_formula_structural   Li2Pr5Nd3(Zn3Rh4)2
_chemical_formula_sum   'Li2 Pr5 Nd3 Zn6 Rh8'
_cell_volume   494.11994174
_cell_formula_units_Z   1
loop_
 _symmetry_equiv_pos_site_id
 _symmetry_equiv_pos_as_xyz
  1  'x, y, z'
loop_
 _atom_site_type_symbol
 _atom_site_label
 _atom_site_symmetry_multiplicity
 _atom_site_fract_x
 _atom_site_fract_y
 _atom_site_fract_z
 _atom_site_occupancy
  Li  Li0  1  0.250000  0.992672  0.439034  1
  Li  Li1  1  0.750000  0.507566  0.939428  1
  Pr  Pr2  1  0.250000  0.044599  0.717497  1
  Pr  Pr3  1  0.250000  0.163589  0.940519  1
  Pr  Pr4  1  0.250000  0.544551  0.782259  1
  Pr  Pr5  1  0.750000  0.335350  0.439852  1
  Pr  Pr6  1  0.250000  0.667770  0.560590  1
  Nd  Nd7  1  0.750000  0.455173  0.217295  1
  Nd  Nd8  1  0.750000  0.954778  0.281850  1
  Nd  Nd9  1  0.750000  0.832400  0.061062  1
  Zn  Zn10  1  0.750000  0.003045  0.559411  1
  Zn  Zn11  1  0.250000  0.629756  0.350533  1
  Zn  Zn12  1  0.750000  0.373263  0.649251  1
  Zn  Zn13  1  0.750000  0.870478  0.851488  1
  Zn  Zn14  1  0.250000  0.498079  0.059936  1
  Zn  Zn15  1  0.250000  0.126256  0.149635  1
  Rh  Rh16  1  0.250000  0.244118  0.565621  1
  Rh  Rh17  1  0.750000  0.255547  0.066330  1
  Rh  Rh18  1  0.250000  0.250059  0.311020  1
  Rh  Rh19  1  0.750000  0.249716  0.811958  1
  Rh  Rh20  1  0.250000  0.750548  0.936812  1
  Rh  Rh21  1  0.750000  0.751470  0.686561  1
  Rh  Rh22  1  0.750000  0.750473  0.435432  1
  Rh  Rh23  1  0.250000  0.748745  0.186623  1
