# generated using pymatgen
data_LaTh2AlZn2Pt3
_symmetry_space_group_name_H-M   'P 1'
_cell_length_a   7.49392909
_cell_length_b   7.38167349
_cell_length_c   4.07094800
_cell_angle_alpha   90.00000000
_cell_angle_beta   90.00000000
_cell_angle_gamma   119.62557394
_symmetry_Int_Tables_number   1
_chemical_formula_structural   LaTh2AlZn2Pt3
_chemical_formula_sum   'La1 Th2 Al1 Zn2 Pt3'
_cell_volume   195.75679301
_cell_formula_units_Z   1
loop_
 _symmetry_equiv_pos_site_id
 _symmetry_equiv_pos_as_xyz
  1  'x, y, z'
loop_
 _atom_site_type_symbol
 _atom_site_label
 _atom_site_symmetry_multiplicity
 _atom_site_fract_x
 _atom_site_fract_y
 _atom_site_fract_z
 _atom_site_occupancy
  La  La0  1  0.415774  0.411608  0.500000  1
  Th  Th1  1  0.584277  0.995602  0.500000  1
  Th  Th2  1  0.999783  0.593943  0.500000  1
  Al  Al3  1  0.000926  0.230978  0.000000  1
  Zn  Zn4  1  0.759148  0.760580  0.000000  1
  Zn  Zn5  1  0.239402  0.002042  0.000000  1
  Pt  Pt6  1  0.687427  0.329600  0.000000  1
  Pt  Pt7  1  0.319737  0.664299  0.000000  1
  Pt  Pt8  1  0.993526  0.011350  0.500000  1
