# generated using pymatgen
data_Zr4MnP6Ir7
_symmetry_space_group_name_H-M   'P 1'
_cell_length_a   12.80482816
_cell_length_b   12.64394656
_cell_length_c   3.90489700
_cell_angle_alpha   90.00000000
_cell_angle_beta   90.00000000
_cell_angle_gamma   120.07434931
_symmetry_Int_Tables_number   1
_chemical_formula_structural   Zr4MnP6Ir7
_chemical_formula_sum   'Zr8 Mn2 P12 Ir14'
_cell_volume   547.10509941
_cell_formula_units_Z   2
loop_
 _symmetry_equiv_pos_site_id
 _symmetry_equiv_pos_as_xyz
  1  'x, y, z'
loop_
 _atom_site_type_symbol
 _atom_site_label
 _atom_site_symmetry_multiplicity
 _atom_site_fract_x
 _atom_site_fract_y
 _atom_site_fract_z
 _atom_site_occupancy
  Zr  Zr0  1  0.441813  0.446914  0.000000  1
  Zr  Zr1  1  0.555320  0.005885  0.000000  1
  Zr  Zr2  1  0.998750  0.551910  0.000000  1
  Zr  Zr3  1  0.665491  0.335360  0.000000  1
  Zr  Zr4  1  0.325136  0.660786  0.000000  1
  Zr  Zr5  1  0.816570  0.816802  0.500000  1
  Zr  Zr6  1  0.187222  0.996847  0.500000  1
  Zr  Zr7  1  0.005869  0.188540  0.500000  1
  Mn  Mn8  1  0.199756  0.374042  0.000000  1
  Mn  Mn9  1  0.175350  0.796477  0.000000  1
  P  P10  1  0.648861  0.649239  0.000000  1
  P  P11  1  0.334712  0.982721  0.000000  1
  P  P12  1  0.017643  0.351039  0.000000  1
  P  P13  1  0.481594  0.312317  0.500000  1
  P  P14  1  0.691826  0.172723  0.500000  1
  P  P15  1  0.827995  0.520840  0.500000  1
  P  P16  1  0.513200  0.831332  0.500000  1
  P  P17  1  0.169304  0.689395  0.500000  1
  P  P18  1  0.829036  0.000873  0.000000  1
  P  P19  1  0.016813  0.831276  0.000000  1
  P  P20  1  0.303539  0.475343  0.500000  1
  P  P21  1  0.172394  0.181511  0.000000  1
  Ir  Ir22  1  0.819967  0.631021  0.000000  1
  Ir  Ir23  1  0.820509  0.184172  0.000000  1
  Ir  Ir24  1  0.368720  0.183173  0.000000  1
  Ir  Ir25  1  0.123348  0.479058  0.500000  1
  Ir  Ir26  1  0.354729  0.873700  0.500000  1
  Ir  Ir27  1  0.499043  0.642796  0.500000  1
  Ir  Ir28  1  0.641056  0.509848  0.500000  1
  Ir  Ir29  1  0.858613  0.361180  0.500000  1
  Ir  Ir30  1  0.502316  0.142620  0.500000  1
  Ir  Ir31  1  0.002249  0.999891  0.000000  1
  Ir  Ir32  1  0.724822  0.001188  0.500000  1
  Ir  Ir33  1  0.998661  0.726031  0.500000  1
  Ir  Ir34  1  0.632322  0.822172  0.000000  1
  Ir  Ir35  1  0.275450  0.270977  0.500000  1
