# generated using pymatgen
data_LuPuB6Ru
_symmetry_space_group_name_H-M   'P 1'
_cell_length_a   3.61471000
_cell_length_b   9.09710400
_cell_length_c   11.49468200
_cell_angle_alpha   90.00000000
_cell_angle_beta   90.00000000
_cell_angle_gamma   90.00000000
_symmetry_Int_Tables_number   1
_chemical_formula_structural   LuPuB6Ru
_chemical_formula_sum   'Lu4 Pu4 B24 Ru4'
_cell_volume   377.98414332
_cell_formula_units_Z   4
loop_
 _symmetry_equiv_pos_site_id
 _symmetry_equiv_pos_as_xyz
  1  'x, y, z'
loop_
 _atom_site_type_symbol
 _atom_site_label
 _atom_site_symmetry_multiplicity
 _atom_site_fract_x
 _atom_site_fract_y
 _atom_site_fract_z
 _atom_site_occupancy
  Lu  Lu0  1  0.000000  0.944523  0.372864  1
  Lu  Lu1  1  0.000000  0.055477  0.627136  1
  Lu  Lu2  1  0.000000  0.444523  0.127136  1
  Lu  Lu3  1  0.000000  0.555477  0.872864  1
  Pu  Pu4  1  0.000000  0.323972  0.414093  1
  Pu  Pu5  1  0.000000  0.676028  0.585907  1
  Pu  Pu6  1  0.000000  0.823972  0.085907  1
  Pu  Pu7  1  0.000000  0.176028  0.914093  1
  B  B8  1  0.500000  0.554308  0.432398  1
  B  B9  1  0.500000  0.445692  0.567602  1
  B  B10  1  0.500000  0.054308  0.067602  1
  B  B11  1  0.500000  0.945692  0.932398  1
  B  B12  1  0.500000  0.750108  0.419563  1
  B  B13  1  0.500000  0.249892  0.580437  1
  B  B14  1  0.500000  0.250108  0.080437  1
  B  B15  1  0.500000  0.749892  0.919563  1
  B  B16  1  0.500000  0.793391  0.265509  1
  B  B17  1  0.500000  0.206609  0.734491  1
  B  B18  1  0.500000  0.293391  0.234491  1
  B  B19  1  0.500000  0.706609  0.765509  1
  B  B20  1  0.500000  0.632530  0.183393  1
  B  B21  1  0.500000  0.367470  0.816607  1
  B  B22  1  0.500000  0.132530  0.316607  1
  B  B23  1  0.500000  0.867470  0.683393  1
  B  B24  1  0.500000  0.983437  0.213639  1
  B  B25  1  0.500000  0.016563  0.786361  1
  B  B26  1  0.500000  0.483437  0.286361  1
  B  B27  1  0.500000  0.516563  0.713639  1
  B  B28  1  0.500000  0.604883  0.028428  1
  B  B29  1  0.500000  0.395117  0.971572  1
  B  B30  1  0.500000  0.104883  0.471572  1
  B  B31  1  0.500000  0.895117  0.528428  1
  Ru  Ru32  1  0.000000  0.640004  0.318996  1
  Ru  Ru33  1  0.000000  0.359996  0.681004  1
  Ru  Ru34  1  0.000000  0.140004  0.181004  1
  Ru  Ru35  1  0.000000  0.859996  0.818996  1
