# generated using pymatgen
data_YEr7Re2(B12Ru)2
_symmetry_space_group_name_H-M   'P 1'
_cell_length_a   3.64815700
_cell_length_b   9.11363925
_cell_length_c   11.49611600
_cell_angle_alpha   90.20533320
_cell_angle_beta   90.00000000
_cell_angle_gamma   90.00000000
_symmetry_Int_Tables_number   1
_chemical_formula_structural   YEr7Re2(B12Ru)2
_chemical_formula_sum   'Y1 Er7 Re2 B24 Ru2'
_cell_volume   382.22025896
_cell_formula_units_Z   1
loop_
 _symmetry_equiv_pos_site_id
 _symmetry_equiv_pos_as_xyz
  1  'x, y, z'
loop_
 _atom_site_type_symbol
 _atom_site_label
 _atom_site_symmetry_multiplicity
 _atom_site_fract_x
 _atom_site_fract_y
 _atom_site_fract_z
 _atom_site_occupancy
  Y  Y0  1  0.000000  0.320787  0.412551  1
  Er  Er1  1  0.000000  0.679248  0.587546  1
  Er  Er2  1  0.000000  0.824605  0.084409  1
  Er  Er3  1  0.000000  0.175373  0.915554  1
  Er  Er4  1  0.000000  0.942811  0.370591  1
  Er  Er5  1  0.000000  0.056886  0.629523  1
  Er  Er6  1  0.000000  0.443125  0.129066  1
  Er  Er7  1  0.000000  0.556951  0.870817  1
  Re  Re8  1  0.000000  0.138370  0.179418  1
  Re  Re9  1  0.000000  0.861437  0.820336  1
  B  B10  1  0.500000  0.554347  0.433265  1
  B  B11  1  0.500000  0.446285  0.567068  1
  B  B12  1  0.500000  0.053077  0.066524  1
  B  B13  1  0.500000  0.946888  0.933430  1
  B  B14  1  0.500000  0.749053  0.419195  1
  B  B15  1  0.500000  0.250878  0.581300  1
  B  B16  1  0.500000  0.249431  0.080663  1
  B  B17  1  0.500000  0.750588  0.919267  1
  B  B18  1  0.500000  0.791095  0.265619  1
  B  B19  1  0.500000  0.208907  0.734421  1
  B  B20  1  0.500000  0.292147  0.234612  1
  B  B21  1  0.500000  0.707706  0.765002  1
  B  B22  1  0.500000  0.631093  0.185643  1
  B  B23  1  0.500000  0.368974  0.814333  1
  B  B24  1  0.500000  0.130956  0.314926  1
  B  B25  1  0.500000  0.868636  0.684807  1
  B  B26  1  0.500000  0.982098  0.212387  1
  B  B27  1  0.500000  0.017806  0.787604  1
  B  B28  1  0.500000  0.483469  0.287864  1
  B  B29  1  0.500000  0.517038  0.711929  1
  B  B30  1  0.500000  0.602961  0.028623  1
  B  B31  1  0.500000  0.397067  0.971353  1
  B  B32  1  0.500000  0.102836  0.471691  1
  B  B33  1  0.500000  0.896618  0.528465  1
  Ru  Ru34  1  0.000000  0.638368  0.321398  1
  Ru  Ru35  1  0.000000  0.362086  0.678799  1
