# generated using pymatgen
data_Th2NbSb3O14
_symmetry_space_group_name_H-M   'P 1'
_cell_length_a   8.06286106
_cell_length_b   8.06285966
_cell_length_c   8.49634350
_cell_angle_alpha   85.24686707
_cell_angle_beta   85.24686862
_cell_angle_gamma   28.23062386
_symmetry_Int_Tables_number   1
_chemical_formula_structural   Th2NbSb3O14
_chemical_formula_sum   'Th2 Nb1 Sb3 O14'
_cell_volume   260.31570111
_cell_formula_units_Z   1
loop_
 _symmetry_equiv_pos_site_id
 _symmetry_equiv_pos_as_xyz
  1  'x, y, z'
loop_
 _atom_site_type_symbol
 _atom_site_label
 _atom_site_symmetry_multiplicity
 _atom_site_fract_x
 _atom_site_fract_y
 _atom_site_fract_z
 _atom_site_occupancy
  Th  Th0  1  0.315029  0.315029  0.667028  1
  Th  Th1  1  0.686871  0.686871  0.332318  1
  Nb  Nb2  1  0.926615  0.926615  0.369389  1
  Sb  Sb3  1  0.106588  0.106588  0.013825  1
  Sb  Sb4  1  0.893581  0.893581  0.986314  1
  Sb  Sb5  1  0.072665  0.072665  0.630372  1
  O  O6  1  0.013754  0.013754  0.859163  1
  O  O7  1  0.986685  0.986685  0.142132  1
  O  O8  1  0.054854  0.054854  0.390717  1
  O  O9  1  0.942810  0.942810  0.611127  1
  O  O10  1  0.390754  0.390754  0.933402  1
  O  O11  1  0.609345  0.609345  0.067151  1
  O  O12  1  0.589295  0.589295  0.601097  1
  O  O13  1  0.412384  0.412384  0.392543  1
  O  O14  1  0.804322  0.804322  0.500764  1
  O  O15  1  0.194895  0.194895  0.503104  1
  O  O16  1  0.806425  0.806425  0.832610  1
  O  O17  1  0.193449  0.193449  0.168441  1
  O  O18  1  0.830458  0.830458  0.198458  1
  O  O19  1  0.169220  0.169220  0.800046  1
