# generated using pymatgen
data_Nd9YB2Br15
_symmetry_space_group_name_H-M   'P 1'
_cell_length_a   9.37083107
_cell_length_b   10.14404371
_cell_length_c   11.02907666
_cell_angle_alpha   91.16690939
_cell_angle_beta   114.55445993
_cell_angle_gamma   110.79805039
_symmetry_Int_Tables_number   1
_chemical_formula_structural   Nd9YB2Br15
_chemical_formula_sum   'Nd9 Y1 B2 Br15'
_cell_volume   873.89843809
_cell_formula_units_Z   1
loop_
 _symmetry_equiv_pos_site_id
 _symmetry_equiv_pos_as_xyz
  1  'x, y, z'
loop_
 _atom_site_type_symbol
 _atom_site_label
 _atom_site_symmetry_multiplicity
 _atom_site_fract_x
 _atom_site_fract_y
 _atom_site_fract_z
 _atom_site_occupancy
  Nd  Nd0  1  0.800026  0.410002  0.275796  1
  Nd  Nd1  1  0.196658  0.588733  0.722703  1
  Nd  Nd2  1  0.673658  0.745352  0.820867  1
  Nd  Nd3  1  0.323839  0.253823  0.179338  1
  Nd  Nd4  1  0.525137  0.702338  0.096444  1
  Nd  Nd5  1  0.473244  0.296943  0.903066  1
  Nd  Nd6  1  0.585383  0.036830  0.325195  1
  Nd  Nd7  1  0.411496  0.961710  0.673725  1
  Nd  Nd8  1  0.727725  0.075839  0.048865  1
  Y  Y9  1  0.284164  0.926966  0.952913  1
  B  B10  1  0.463940  0.819190  0.875891  1
  B  B11  1  0.529728  0.177940  0.122081  1
  Br  Br12  1  0.005187  0.997193  0.997913  1
  Br  Br13  1  0.636365  0.882501  0.583817  1
  Br  Br14  1  0.362212  0.116874  0.416155  1
  Br  Br15  1  0.882531  0.297859  0.528119  1
  Br  Br16  1  0.115847  0.701130  0.470761  1
  Br  Br17  1  0.282550  0.764546  0.170589  1
  Br  Br18  1  0.711651  0.238942  0.820372  1
  Br  Br19  1  0.056421  0.344552  0.227420  1
  Br  Br20  1  0.160532  0.051457  0.709954  1
  Br  Br21  1  0.838137  0.942554  0.297504  1
  Br  Br22  1  0.227007  0.408393  0.942966  1
  Br  Br23  1  0.771509  0.590983  0.056664  1
  Br  Br24  1  0.407129  0.461855  0.657112  1
  Br  Br25  1  0.592027  0.537822  0.342798  1
  Br  Br26  1  0.955900  0.667673  0.780973  1
