# generated using pymatgen
data_HfThMn12P7
_symmetry_space_group_name_H-M   'P 1'
_cell_length_a   9.24519700
_cell_length_b   9.24519721
_cell_length_c   3.61416900
_cell_angle_alpha   90.00000000
_cell_angle_beta   90.00000000
_cell_angle_gamma   119.99999566
_symmetry_Int_Tables_number   1
_chemical_formula_structural   HfThMn12P7
_chemical_formula_sum   'Hf1 Th1 Mn12 P7'
_cell_volume   267.52936369
_cell_formula_units_Z   1
loop_
 _symmetry_equiv_pos_site_id
 _symmetry_equiv_pos_as_xyz
  1  'x, y, z'
loop_
 _atom_site_type_symbol
 _atom_site_label
 _atom_site_symmetry_multiplicity
 _atom_site_fract_x
 _atom_site_fract_y
 _atom_site_fract_z
 _atom_site_occupancy
  Hf  Hf0  1  0.333333  0.666667  0.000000  1
  Th  Th1  1  0.000000  0.000000  0.500000  1
  Mn  Mn2  1  0.046592  0.287299  0.000000  1
  Mn  Mn3  1  0.712701  0.759293  0.000000  1
  Mn  Mn4  1  0.240707  0.953408  0.000000  1
  Mn  Mn5  1  0.541314  0.053609  0.000000  1
  Mn  Mn6  1  0.946391  0.487705  0.000000  1
  Mn  Mn7  1  0.512295  0.458686  0.000000  1
  Mn  Mn8  1  0.615951  0.893234  0.500000  1
  Mn  Mn9  1  0.106766  0.722716  0.500000  1
  Mn  Mn10  1  0.277284  0.384049  0.500000  1
  Mn  Mn11  1  0.789200  0.230349  0.500000  1
  Mn  Mn12  1  0.769651  0.558852  0.500000  1
  Mn  Mn13  1  0.441148  0.210800  0.500000  1
  P  P14  1  0.780012  0.045035  0.000000  1
  P  P15  1  0.954965  0.734977  0.000000  1
  P  P16  1  0.265023  0.219988  0.000000  1
  P  P17  1  0.383301  0.919355  0.500000  1
  P  P18  1  0.080645  0.463946  0.500000  1
  P  P19  1  0.536054  0.616699  0.500000  1
  P  P20  1  0.666667  0.333333  0.000000  1
