# generated using pymatgen
data_Y2Er18Si15Pd
_symmetry_space_group_name_H-M   'P 1'
_cell_length_a   7.38327902
_cell_length_b   7.61649729
_cell_length_c   14.46275432
_cell_angle_alpha   90.26009560
_cell_angle_beta   90.49869947
_cell_angle_gamma   90.16272436
_symmetry_Int_Tables_number   1
_chemical_formula_structural   Y2Er18Si15Pd
_chemical_formula_sum   'Y2 Er18 Si15 Pd1'
_cell_volume   813.26644712
_cell_formula_units_Z   1
loop_
 _symmetry_equiv_pos_site_id
 _symmetry_equiv_pos_as_xyz
  1  'x, y, z'
loop_
 _atom_site_type_symbol
 _atom_site_label
 _atom_site_symmetry_multiplicity
 _atom_site_fract_x
 _atom_site_fract_y
 _atom_site_fract_z
 _atom_site_occupancy
  Y  Y0  1  0.025955  0.817813  0.600076  1
  Y  Y1  1  0.524965  0.679077  0.599134  1
  Er  Er2  1  0.319412  0.820232  0.121784  1
  Er  Er3  1  0.816519  0.679086  0.122542  1
  Er  Er4  1  0.852843  0.505955  0.749725  1
  Er  Er5  1  0.470395  0.317376  0.099111  1
  Er  Er6  1  0.029288  0.817012  0.901206  1
  Er  Er7  1  0.471170  0.319932  0.400623  1
  Er  Er8  1  0.651800  0.011600  0.254256  1
  Er  Er9  1  0.531198  0.682746  0.900037  1
  Er  Er10  1  0.681435  0.178901  0.877583  1
  Er  Er11  1  0.178376  0.321247  0.623850  1
  Er  Er12  1  0.184031  0.322918  0.876566  1
  Er  Er13  1  0.819992  0.682714  0.379312  1
  Er  Er14  1  0.320183  0.825511  0.377262  1
  Er  Er15  1  0.351908  0.990410  0.748032  1
  Er  Er16  1  0.682077  0.169132  0.620901  1
  Er  Er17  1  0.147955  0.490321  0.250831  1
  Er  Er18  1  0.970020  0.182723  0.098577  1
  Er  Er19  1  0.974124  0.180144  0.399934  1
  Si  Si20  1  0.233666  0.628241  0.751503  1
  Si  Si21  1  0.342762  0.029661  0.541375  1
  Si  Si22  1  0.024633  0.894133  0.247176  1
  Si  Si23  1  0.734115  0.869199  0.752584  1
  Si  Si24  1  0.267779  0.128834  0.246663  1
  Si  Si25  1  0.850571  0.469946  0.541494  1
  Si  Si26  1  0.481302  0.392385  0.749725  1
  Si  Si27  1  0.148333  0.530178  0.460573  1
  Si  Si28  1  0.145884  0.528121  0.040748  1
  Si  Si29  1  0.978354  0.104770  0.752440  1
  Si  Si30  1  0.767236  0.374755  0.249098  1
  Si  Si31  1  0.352272  0.029720  0.959453  1
  Si  Si32  1  0.855219  0.471402  0.958771  1
  Si  Si33  1  0.645463  0.971313  0.039851  1
  Si  Si34  1  0.521142  0.606196  0.248521  1
  Pd  Pd35  1  0.647621  0.976293  0.458679  1
