# generated using pymatgen
data_Y4TmGa2Sn
_symmetry_space_group_name_H-M   'P 1'
_cell_length_a   7.86374500
_cell_length_b   7.86374500
_cell_length_c   13.96056600
_cell_angle_alpha   90.00000000
_cell_angle_beta   90.00000000
_cell_angle_gamma   90.00000000
_symmetry_Int_Tables_number   1
_chemical_formula_structural   Y4TmGa2Sn
_chemical_formula_sum   'Y16 Tm4 Ga8 Sn4'
_cell_volume   863.30025712
_cell_formula_units_Z   4
loop_
 _symmetry_equiv_pos_site_id
 _symmetry_equiv_pos_as_xyz
  1  'x, y, z'
loop_
 _atom_site_type_symbol
 _atom_site_label
 _atom_site_symmetry_multiplicity
 _atom_site_fract_x
 _atom_site_fract_y
 _atom_site_fract_z
 _atom_site_occupancy
  Y  Y0  1  0.837229  0.836229  0.893148  1
  Y  Y1  1  0.163771  0.162771  0.606852  1
  Y  Y2  1  0.837229  0.163771  0.393148  1
  Y  Y3  1  0.162771  0.836229  0.393148  1
  Y  Y4  1  0.336229  0.337229  0.393148  1
  Y  Y5  1  0.836229  0.162771  0.106852  1
  Y  Y6  1  0.336229  0.662771  0.893148  1
  Y  Y7  1  0.163771  0.837229  0.106852  1
  Y  Y8  1  0.337229  0.663771  0.606852  1
  Y  Y9  1  0.662771  0.663771  0.106852  1
  Y  Y10  1  0.662771  0.336229  0.606852  1
  Y  Y11  1  0.836229  0.837229  0.606852  1
  Y  Y12  1  0.663771  0.337229  0.893148  1
  Y  Y13  1  0.162771  0.163771  0.893148  1
  Y  Y14  1  0.663771  0.662771  0.393148  1
  Y  Y15  1  0.337229  0.336229  0.106852  1
  Tm  Tm16  1  0.500000  0.000000  0.751442  1
  Tm  Tm17  1  0.000000  0.500000  0.248558  1
  Tm  Tm18  1  0.000000  0.500000  0.748558  1
  Tm  Tm19  1  0.500000  0.000000  0.251442  1
  Ga  Ga20  1  0.631266  0.368734  0.250000  1
  Ga  Ga21  1  0.368734  0.631266  0.250000  1
  Ga  Ga22  1  0.131266  0.131266  0.250000  1
  Ga  Ga23  1  0.368734  0.368734  0.750000  1
  Ga  Ga24  1  0.131266  0.868734  0.750000  1
  Ga  Ga25  1  0.868734  0.868734  0.250000  1
  Ga  Ga26  1  0.631266  0.631266  0.750000  1
  Ga  Ga27  1  0.868734  0.131266  0.750000  1
  Sn  Sn28  1  0.000000  0.500000  0.999862  1
  Sn  Sn29  1  0.500000  0.000000  0.000138  1
  Sn  Sn30  1  0.500000  0.000000  0.500138  1
  Sn  Sn31  1  0.000000  0.500000  0.499862  1
