# generated using pymatgen
data_Dy5Tc3GeP11Ir16
_symmetry_space_group_name_H-M   'P 1'
_cell_length_a   12.69615836
_cell_length_b   12.70141830
_cell_length_c   3.98259800
_cell_angle_alpha   90.00000000
_cell_angle_beta   90.00000000
_cell_angle_gamma   120.01370472
_symmetry_Int_Tables_number   1
_chemical_formula_structural   Dy5Tc3GeP11Ir16
_chemical_formula_sum   'Dy5 Tc3 Ge1 P11 Ir16'
_cell_volume   556.11122490
_cell_formula_units_Z   1
loop_
 _symmetry_equiv_pos_site_id
 _symmetry_equiv_pos_as_xyz
  1  'x, y, z'
loop_
 _atom_site_type_symbol
 _atom_site_label
 _atom_site_symmetry_multiplicity
 _atom_site_fract_x
 _atom_site_fract_y
 _atom_site_fract_z
 _atom_site_occupancy
  Dy  Dy0  1  0.332576  0.665795  0.500000  1
  Dy  Dy1  1  0.667424  0.333218  0.500000  1
  Dy  Dy2  1  0.000000  0.820216  0.000000  1
  Dy  Dy3  1  0.184654  0.183277  0.000000  1
  Dy  Dy4  1  0.815346  0.998623  0.000000  1
  Tc  Tc5  1  0.000000  0.446502  0.500000  1
  Tc  Tc6  1  0.540333  0.545701  0.500000  1
  Tc  Tc7  1  0.459667  0.005368  0.500000  1
  Ge  Ge8  1  0.000000  0.640552  0.500000  1
  P  P9  1  0.360608  0.360967  0.500000  1
  P  P10  1  0.639392  0.000359  0.500000  1
  P  P11  1  0.513249  0.685942  0.000000  1
  P  P12  1  0.314757  0.830338  0.000000  1
  P  P13  1  0.166203  0.481846  0.000000  1
  P  P14  1  0.486751  0.172694  0.000000  1
  P  P15  1  0.685243  0.515580  0.000000  1
  P  P16  1  0.833797  0.315644  0.000000  1
  P  P17  1  0.000000  0.173386  0.500000  1
  P  P18  1  0.820685  0.821684  0.500000  1
  P  P19  1  0.179315  0.000999  0.500000  1
  Ir  Ir20  1  0.510505  0.870921  0.000000  1
  Ir  Ir21  1  0.134159  0.641474  0.000000  1
  Ir  Ir22  1  0.355821  0.490688  0.000000  1
  Ir  Ir23  1  0.489495  0.360415  0.000000  1
  Ir  Ir24  1  0.865841  0.507314  0.000000  1
  Ir  Ir25  1  0.644179  0.134866  0.000000  1
  Ir  Ir26  1  0.000000  0.286049  0.000000  1
  Ir  Ir27  1  0.705814  0.709540  0.000000  1
  Ir  Ir28  1  0.294186  0.003726  0.000000  1
  Ir  Ir29  1  0.624966  0.806263  0.500000  1
  Ir  Ir30  1  0.206055  0.828007  0.500000  1
  Ir  Ir31  1  0.178357  0.370163  0.500000  1
  Ir  Ir32  1  0.375034  0.181297  0.500000  1
  Ir  Ir33  1  0.793945  0.621951  0.500000  1
  Ir  Ir34  1  0.821643  0.191806  0.500000  1
  Ir  Ir35  1  0.000000  0.996829  0.500000  1
