# generated using pymatgen
data_Sm6IO12
_symmetry_space_group_name_H-M   'P 1'
_cell_length_a   6.68226816
_cell_length_b   6.68226836
_cell_length_c   6.68226835
_cell_angle_alpha   98.55279101
_cell_angle_beta   98.55279240
_cell_angle_gamma   98.55278925
_symmetry_Int_Tables_number   1
_chemical_formula_structural   Sm6IO12
_chemical_formula_sum   'Sm6 I1 O12'
_cell_volume   287.29460671
_cell_formula_units_Z   1
loop_
 _symmetry_equiv_pos_site_id
 _symmetry_equiv_pos_as_xyz
  1  'x, y, z'
loop_
 _atom_site_type_symbol
 _atom_site_label
 _atom_site_symmetry_multiplicity
 _atom_site_fract_x
 _atom_site_fract_y
 _atom_site_fract_z
 _atom_site_occupancy
  Sm  Sm0  1  0.610686  0.315077  0.145620  1
  Sm  Sm1  1  0.145619  0.610687  0.315077  1
  Sm  Sm2  1  0.684922  0.854380  0.389313  1
  Sm  Sm3  1  0.315077  0.145619  0.610686  1
  Sm  Sm4  1  0.854381  0.389313  0.684923  1
  Sm  Sm5  1  0.389313  0.684923  0.854380  1
  I  I6  1  0.000000  0.000000  0.000000  1
  O  O7  1  0.700418  0.932056  0.036850  1
  O  O8  1  0.963150  0.299581  0.067943  1
  O  O9  1  0.435832  0.592509  0.177387  1
  O  O10  1  0.067943  0.963150  0.299582  1
  O  O11  1  0.822612  0.564169  0.407491  1
  O  O12  1  0.592509  0.177387  0.435831  1
  O  O13  1  0.407491  0.822612  0.564168  1
  O  O14  1  0.177387  0.435831  0.592509  1
  O  O15  1  0.932057  0.036850  0.700418  1
  O  O16  1  0.564168  0.407491  0.822613  1
  O  O17  1  0.036850  0.700418  0.932057  1
  O  O18  1  0.299581  0.067943  0.963149  1
