# generated using pymatgen
data_Er6VB14W
_symmetry_space_group_name_H-M   'P 1'
_cell_length_a   8.08290204
_cell_length_b   8.08290137
_cell_length_c   9.40200400
_cell_angle_alpha   90.00000000
_cell_angle_beta   90.00000000
_cell_angle_gamma   155.55248322
_symmetry_Int_Tables_number   1
_chemical_formula_structural   Er6VB14W
_chemical_formula_sum   'Er6 V1 B14 W1'
_cell_volume   254.21899493
_cell_formula_units_Z   1
loop_
 _symmetry_equiv_pos_site_id
 _symmetry_equiv_pos_as_xyz
  1  'x, y, z'
loop_
 _atom_site_type_symbol
 _atom_site_label
 _atom_site_symmetry_multiplicity
 _atom_site_fract_x
 _atom_site_fract_y
 _atom_site_fract_z
 _atom_site_occupancy
  Er  Er0  1  0.893701  0.106299  0.438098  1
  Er  Er1  1  0.106959  0.893041  0.557161  1
  Er  Er2  1  0.893701  0.106299  0.061902  1
  Er  Er3  1  0.106959  0.893041  0.942839  1
  Er  Er4  1  0.241996  0.758004  0.250000  1
  Er  Er5  1  0.754946  0.245054  0.750000  1
  V  V6  1  0.052201  0.947799  0.250000  1
  B  B7  1  0.727316  0.272684  0.466698  1
  B  B8  1  0.272439  0.727561  0.531783  1
  B  B9  1  0.727316  0.272684  0.033302  1
  B  B10  1  0.272439  0.727561  0.968217  1
  B  B11  1  0.632666  0.367334  0.149899  1
  B  B12  1  0.365140  0.634860  0.853944  1
  B  B13  1  0.632666  0.367334  0.350101  1
  B  B14  1  0.365140  0.634860  0.646056  1
  B  B15  1  0.520654  0.479346  0.095017  1
  B  B16  1  0.481070  0.518930  0.909680  1
  B  B17  1  0.520654  0.479346  0.404983  1
  B  B18  1  0.481070  0.518930  0.590320  1
  B  B19  1  0.457341  0.542659  0.250000  1
  B  B20  1  0.546441  0.453559  0.750000  1
  W  W21  1  0.947184  0.052816  0.750000  1
