# generated using pymatgen
data_TbDy6Co6Sn22Au
_symmetry_space_group_name_H-M   'P 1'
_cell_length_a   9.68966700
_cell_length_b   9.68966781
_cell_length_c   9.95750700
_cell_angle_alpha   90.00000000
_cell_angle_beta   90.00000000
_cell_angle_gamma   119.99999382
_symmetry_Int_Tables_number   1
_chemical_formula_structural   TbDy6Co6Sn22Au
_chemical_formula_sum   'Tb1 Dy6 Co6 Sn22 Au1'
_cell_volume   809.65316827
_cell_formula_units_Z   1
loop_
 _symmetry_equiv_pos_site_id
 _symmetry_equiv_pos_as_xyz
  1  'x, y, z'
loop_
 _atom_site_type_symbol
 _atom_site_label
 _atom_site_symmetry_multiplicity
 _atom_site_fract_x
 _atom_site_fract_y
 _atom_site_fract_z
 _atom_site_occupancy
  Tb  Tb0  1  0.000000  0.000000  0.000000  1
  Dy  Dy1  1  0.479007  0.520993  0.306437  1
  Dy  Dy2  1  0.520993  0.479007  0.693563  1
  Dy  Dy3  1  0.479007  0.958014  0.306437  1
  Dy  Dy4  1  0.520993  0.041986  0.693563  1
  Dy  Dy5  1  0.041986  0.520993  0.306437  1
  Dy  Dy6  1  0.958014  0.479007  0.693563  1
  Co  Co7  1  0.832207  0.167793  0.196575  1
  Co  Co8  1  0.167793  0.832207  0.803425  1
  Co  Co9  1  0.832207  0.664412  0.196575  1
  Co  Co10  1  0.167793  0.335588  0.803425  1
  Co  Co11  1  0.335588  0.167793  0.196575  1
  Co  Co12  1  0.664412  0.832207  0.803425  1
  Sn  Sn13  1  0.346267  0.000000  0.000000  1
  Sn  Sn14  1  0.653733  0.000000  0.000000  1
  Sn  Sn15  1  0.000000  0.346267  0.000000  1
  Sn  Sn16  1  0.000000  0.653733  0.000000  1
  Sn  Sn17  1  0.653733  0.653733  0.000000  1
  Sn  Sn18  1  0.346267  0.346267  0.000000  1
  Sn  Sn19  1  0.333333  0.666667  0.817025  1
  Sn  Sn20  1  0.666667  0.333333  0.182975  1
  Sn  Sn21  1  0.783029  0.216971  0.452826  1
  Sn  Sn22  1  0.216971  0.783029  0.547174  1
  Sn  Sn23  1  0.783029  0.566057  0.452826  1
  Sn  Sn24  1  0.216971  0.433943  0.547174  1
  Sn  Sn25  1  0.433943  0.216971  0.452826  1
  Sn  Sn26  1  0.566057  0.783029  0.547174  1
  Sn  Sn27  1  0.333333  0.666667  0.118942  1
  Sn  Sn28  1  0.666667  0.333333  0.881058  1
  Sn  Sn29  1  0.113596  0.886404  0.277952  1
  Sn  Sn30  1  0.886404  0.113596  0.722048  1
  Sn  Sn31  1  0.113596  0.227191  0.277952  1
  Sn  Sn32  1  0.886404  0.772809  0.722048  1
  Sn  Sn33  1  0.772809  0.886404  0.277952  1
  Sn  Sn34  1  0.227191  0.113596  0.722048  1
  Au  Au35  1  0.000000  0.000000  0.500000  1
