# generated using pymatgen
data_Zr4Nb2SiGe3Mo2
_symmetry_space_group_name_H-M   'P 1'
_cell_length_a   3.61199200
_cell_length_b   7.07797989
_cell_length_c   8.49884815
_cell_angle_alpha   90.28462304
_cell_angle_beta   90.00000000
_cell_angle_gamma   90.00000000
_symmetry_Int_Tables_number   1
_chemical_formula_structural   Zr4Nb2SiGe3Mo2
_chemical_formula_sum   'Zr4 Nb2 Si1 Ge3 Mo2'
_cell_volume   217.27552858
_cell_formula_units_Z   1
loop_
 _symmetry_equiv_pos_site_id
 _symmetry_equiv_pos_as_xyz
  1  'x, y, z'
loop_
 _atom_site_type_symbol
 _atom_site_label
 _atom_site_symmetry_multiplicity
 _atom_site_fract_x
 _atom_site_fract_y
 _atom_site_fract_z
 _atom_site_occupancy
  Zr  Zr0  1  0.250000  0.048445  0.334478  1
  Zr  Zr1  1  0.250000  0.548761  0.162581  1
  Zr  Zr2  1  0.750000  0.952346  0.671131  1
  Zr  Zr3  1  0.750000  0.460760  0.833255  1
  Nb  Nb4  1  0.250000  0.123865  0.939513  1
  Nb  Nb5  1  0.250000  0.627897  0.561400  1
  Si  Si6  1  0.250000  0.753867  0.863456  1
  Ge  Ge7  1  0.250000  0.251517  0.637433  1
  Ge  Ge8  1  0.750000  0.748066  0.357594  1
  Ge  Ge9  1  0.750000  0.247166  0.141838  1
  Mo  Mo10  1  0.750000  0.866532  0.057600  1
  Mo  Mo11  1  0.750000  0.370778  0.439722  1
