# generated using pymatgen
data_Cs2TaNb5PbBr18
_symmetry_space_group_name_H-M   'P 1'
_cell_length_a   11.06739983
_cell_length_b   11.06337198
_cell_length_c   11.06536216
_cell_angle_alpha   54.97250838
_cell_angle_beta   54.96349377
_cell_angle_gamma   54.97808052
_symmetry_Int_Tables_number   1
_chemical_formula_structural   Cs2TaNb5PbBr18
_chemical_formula_sum   'Cs2 Ta1 Nb5 Pb1 Br18'
_cell_volume   845.93512992
_cell_formula_units_Z   1
loop_
 _symmetry_equiv_pos_site_id
 _symmetry_equiv_pos_as_xyz
  1  'x, y, z'
loop_
 _atom_site_type_symbol
 _atom_site_label
 _atom_site_symmetry_multiplicity
 _atom_site_fract_x
 _atom_site_fract_y
 _atom_site_fract_z
 _atom_site_occupancy
  Cs  Cs0  1  0.276772  0.276656  0.276673  1
  Cs  Cs1  1  0.723015  0.723373  0.723303  1
  Ta  Ta2  1  0.309117  0.639115  0.423090  1
  Nb  Nb3  1  0.422792  0.308401  0.639587  1
  Nb  Nb4  1  0.360461  0.577228  0.691595  1
  Nb  Nb5  1  0.692023  0.360081  0.577454  1
  Nb  Nb6  1  0.639573  0.422775  0.308395  1
  Nb  Nb7  1  0.577237  0.691618  0.360395  1
  Pb  Pb8  1  0.999871  0.000327  0.999262  1
  Br  Br9  1  0.639039  0.094885  0.767700  1
  Br  Br10  1  0.767912  0.639163  0.094578  1
  Br  Br11  1  0.095303  0.767605  0.637608  1
  Br  Br12  1  0.826647  0.321807  0.042492  1
  Br  Br13  1  0.169446  0.436948  0.576122  1
  Br  Br14  1  0.678213  0.957504  0.173148  1
  Br  Br15  1  0.905077  0.232371  0.360908  1
  Br  Br16  1  0.564537  0.422862  0.830609  1
  Br  Br17  1  0.422845  0.830864  0.564636  1
  Br  Br18  1  0.957686  0.172969  0.678490  1
  Br  Br19  1  0.173038  0.678488  0.957408  1
  Br  Br20  1  0.044152  0.825575  0.322605  1
  Br  Br21  1  0.321441  0.042643  0.826855  1
  Br  Br22  1  0.232177  0.360775  0.905463  1
  Br  Br23  1  0.577229  0.169075  0.435391  1
  Br  Br24  1  0.433957  0.578047  0.170493  1
  Br  Br25  1  0.359871  0.904239  0.232925  1
  Br  Br26  1  0.830572  0.564605  0.422815  1
