# generated using pymatgen
data_Mn3Al11Ru
_symmetry_space_group_name_H-M   'P 1'
_cell_length_a   5.07104276
_cell_length_b   5.05513139
_cell_length_c   8.79221931
_cell_angle_alpha   105.13588840
_cell_angle_beta   90.33333437
_cell_angle_gamma   100.37499637
_symmetry_Int_Tables_number   1
_chemical_formula_structural   Mn3Al11Ru
_chemical_formula_sum   'Mn3 Al11 Ru1'
_cell_volume   213.67900366
_cell_formula_units_Z   1
loop_
 _symmetry_equiv_pos_site_id
 _symmetry_equiv_pos_as_xyz
  1  'x, y, z'
loop_
 _atom_site_type_symbol
 _atom_site_label
 _atom_site_symmetry_multiplicity
 _atom_site_fract_x
 _atom_site_fract_y
 _atom_site_fract_z
 _atom_site_occupancy
  Mn  Mn0  1  0.721108  0.847489  0.400905  1
  Mn  Mn1  1  0.664744  0.610765  0.866631  1
  Mn  Mn2  1  0.334500  0.386302  0.132201  1
  Al  Al3  1  0.999627  0.999867  0.999575  1
  Al  Al4  1  0.942863  0.806441  0.672831  1
  Al  Al5  1  0.048042  0.181685  0.321828  1
  Al  Al6  1  0.796100  0.260561  0.632928  1
  Al  Al7  1  0.843923  0.531964  0.128798  1
  Al  Al8  1  0.154115  0.473738  0.875224  1
  Al  Al9  1  0.494657  0.890626  0.125796  1
  Al  Al10  1  0.508999  0.110821  0.879812  1
  Al  Al11  1  0.568656  0.329407  0.372030  1
  Al  Al12  1  0.437878  0.681937  0.626632  1
  Al  Al13  1  0.204170  0.732757  0.363700  1
  Ru  Ru14  1  0.280616  0.155641  0.601109  1
