# generated using pymatgen
data_PaH3F8
_symmetry_space_group_name_H-M   'P 1'
_cell_length_a   4.61654286
_cell_length_b   5.23937220
_cell_length_c   9.18942281
_cell_angle_alpha   96.47732786
_cell_angle_beta   76.26325932
_cell_angle_gamma   65.01905815
_symmetry_Int_Tables_number   1
_chemical_formula_structural   PaH3F8
_chemical_formula_sum   'Pa1 H3 F8'
_cell_volume   189.89721859
_cell_formula_units_Z   1
loop_
 _symmetry_equiv_pos_site_id
 _symmetry_equiv_pos_as_xyz
  1  'x, y, z'
loop_
 _atom_site_type_symbol
 _atom_site_label
 _atom_site_symmetry_multiplicity
 _atom_site_fract_x
 _atom_site_fract_y
 _atom_site_fract_z
 _atom_site_occupancy
  Pa  Pa0  1  0.604890  0.001725  0.422225  1
  H  H1  1  0.746352  0.863040  0.840987  1
  H  H2  1  0.338448  0.892934  0.961814  1
  H  H3  1  0.934628  0.088430  0.919301  1
  F  F4  1  0.351943  0.277324  0.636624  1
  F  F5  1  0.580332  0.732543  0.917043  1
  F  F6  1  0.473802  0.350959  0.323591  1
  F  F7  1  0.023568  0.123405  0.006275  1
  F  F8  1  0.108415  0.000917  0.417222  1
  F  F9  1  0.853078  0.985962  0.798492  1
  F  F10  1  0.845600  0.727706  0.207237  1
  F  F11  1  0.725029  0.652630  0.522200  1
