# generated using pymatgen
data_Ru4Pb3O13
_symmetry_space_group_name_H-M   'P 1'
_cell_length_a   7.38493200
_cell_length_b   7.40426400
_cell_length_c   10.46485000
_cell_angle_alpha   90.00000000
_cell_angle_beta   90.00000000
_cell_angle_gamma   90.00000000
_symmetry_Int_Tables_number   1
_chemical_formula_structural   Ru4Pb3O13
_chemical_formula_sum   'Ru8 Pb6 O26'
_cell_volume   572.21785306
_cell_formula_units_Z   2
loop_
 _symmetry_equiv_pos_site_id
 _symmetry_equiv_pos_as_xyz
  1  'x, y, z'
loop_
 _atom_site_type_symbol
 _atom_site_label
 _atom_site_symmetry_multiplicity
 _atom_site_fract_x
 _atom_site_fract_y
 _atom_site_fract_z
 _atom_site_occupancy
  Ru  Ru0  1  0.753783  0.750000  0.251974  1
  Ru  Ru1  1  0.000000  0.000000  0.000000  1
  Ru  Ru2  1  0.246217  0.250000  0.748026  1
  Ru  Ru3  1  0.500000  0.000000  0.500000  1
  Ru  Ru4  1  0.500000  0.500000  0.500000  1
  Ru  Ru5  1  0.753783  0.250000  0.748026  1
  Ru  Ru6  1  0.000000  0.500000  0.000000  1
  Ru  Ru7  1  0.246217  0.750000  0.251974  1
  Pb  Pb8  1  0.751265  0.750000  0.734115  1
  Pb  Pb9  1  0.248735  0.750000  0.734115  1
  Pb  Pb10  1  0.248735  0.250000  0.265885  1
  Pb  Pb11  1  0.500000  0.000000  0.000000  1
  Pb  Pb12  1  0.500000  0.500000  0.000000  1
  Pb  Pb13  1  0.751265  0.250000  0.265885  1
  O  O14  1  0.315380  0.944213  0.371465  1
  O  O15  1  0.500000  0.750000  0.173840  1
  O  O16  1  0.500000  0.250000  0.143522  1
  O  O17  1  0.500000  0.750000  0.572512  1
  O  O18  1  0.684620  0.944213  0.371465  1
  O  O19  1  0.798712  0.451686  0.875957  1
  O  O20  1  0.798712  0.951686  0.124043  1
  O  O21  1  0.798712  0.048314  0.875957  1
  O  O22  1  0.000000  0.250000  0.704494  1
  O  O23  1  0.000000  0.750000  0.939529  1
  O  O24  1  0.000000  0.750000  0.295506  1
  O  O25  1  0.000000  0.250000  0.060471  1
  O  O26  1  0.201288  0.951686  0.124043  1
  O  O27  1  0.201288  0.451686  0.875957  1
  O  O28  1  0.201288  0.048314  0.875957  1
  O  O29  1  0.315380  0.444213  0.628535  1
  O  O30  1  0.315380  0.555787  0.371465  1
  O  O31  1  0.315380  0.055787  0.628535  1
  O  O32  1  0.500000  0.250000  0.427488  1
  O  O33  1  0.500000  0.250000  0.826160  1
  O  O34  1  0.500000  0.750000  0.856478  1
  O  O35  1  0.684620  0.055787  0.628535  1
  O  O36  1  0.684620  0.444213  0.628535  1
  O  O37  1  0.684620  0.555787  0.371465  1
  O  O38  1  0.798712  0.548314  0.124043  1
  O  O39  1  0.201288  0.548314  0.124043  1
