# generated using pymatgen
data_Sc6Nb4Ga12Os7
_symmetry_space_group_name_H-M   'P 1'
_cell_length_a   8.88680865
_cell_length_b   8.88672956
_cell_length_c   8.88674500
_cell_angle_alpha   59.99999842
_cell_angle_beta   59.99953515
_cell_angle_gamma   59.99984110
_symmetry_Int_Tables_number   1
_chemical_formula_structural   Sc6Nb4Ga12Os7
_chemical_formula_sum   'Sc6 Nb4 Ga12 Os7'
_cell_volume   496.26478808
_cell_formula_units_Z   1
loop_
 _symmetry_equiv_pos_site_id
 _symmetry_equiv_pos_as_xyz
  1  'x, y, z'
loop_
 _atom_site_type_symbol
 _atom_site_label
 _atom_site_symmetry_multiplicity
 _atom_site_fract_x
 _atom_site_fract_y
 _atom_site_fract_z
 _atom_site_occupancy
  Sc  Sc0  1  0.712494  0.712501  0.287506  1
  Sc  Sc1  1  0.287509  0.712496  0.287504  1
  Sc  Sc2  1  0.712487  0.287510  0.287512  1
  Sc  Sc3  1  0.287516  0.287513  0.712483  1
  Sc  Sc4  1  0.712477  0.287519  0.712487  1
  Sc  Sc5  1  0.287509  0.712488  0.712493  1
  Nb  Nb6  1  0.878144  0.878143  0.365574  1
  Nb  Nb7  1  0.878143  0.365569  0.878144  1
  Nb  Nb8  1  0.365575  0.878141  0.878144  1
  Nb  Nb9  1  0.878140  0.878144  0.878140  1
  Ga  Ga10  1  0.120035  0.120036  0.639891  1
  Ga  Ga11  1  0.120038  0.639888  0.120037  1
  Ga  Ga12  1  0.639890  0.120036  0.120036  1
  Ga  Ga13  1  0.120038  0.120036  0.120036  1
  Ga  Ga14  1  0.658311  0.658310  0.025070  1
  Ga  Ga15  1  0.658309  0.025072  0.658310  1
  Ga  Ga16  1  0.025066  0.658311  0.658312  1
  Ga  Ga17  1  0.658312  0.658311  0.658314  1
  Ga  Ga18  1  0.339195  0.339194  0.982413  1
  Ga  Ga19  1  0.339197  0.982410  0.339197  1
  Ga  Ga20  1  0.982413  0.339196  0.339195  1
  Ga  Ga21  1  0.339195  0.339193  0.339196  1
  Os  Os22  1  0.000002  0.999997  0.000001  1
  Os  Os23  1  0.997343  0.997340  0.502658  1
  Os  Os24  1  0.502659  0.997338  0.502660  1
  Os  Os25  1  0.997343  0.502656  0.502658  1
  Os  Os26  1  0.502659  0.502656  0.997344  1
  Os  Os27  1  0.997342  0.502657  0.997341  1
  Os  Os28  1  0.502658  0.997340  0.997343  1
