# generated using pymatgen
data_Eu4Ti3WO14
_symmetry_space_group_name_H-M   'P 1'
_cell_length_a   7.34527720
_cell_length_b   7.41800026
_cell_length_c   7.34527700
_cell_angle_alpha   60.32377915
_cell_angle_beta   60.00000541
_cell_angle_gamma   60.32377737
_symmetry_Int_Tables_number   1
_chemical_formula_structural   Eu4Ti3WO14
_chemical_formula_sum   'Eu4 Ti3 W1 O14'
_cell_volume   284.37825378
_cell_formula_units_Z   1
loop_
 _symmetry_equiv_pos_site_id
 _symmetry_equiv_pos_as_xyz
  1  'x, y, z'
loop_
 _atom_site_type_symbol
 _atom_site_label
 _atom_site_symmetry_multiplicity
 _atom_site_fract_x
 _atom_site_fract_y
 _atom_site_fract_z
 _atom_site_occupancy
  Eu  Eu0  1  0.125000  0.625000  0.125000  1
  Eu  Eu1  1  0.125000  0.125000  0.625000  1
  Eu  Eu2  1  0.625000  0.125000  0.125000  1
  Eu  Eu3  1  0.125000  0.125000  0.125000  1
  Ti  Ti4  1  0.625000  0.625000  0.125000  1
  Ti  Ti5  1  0.125000  0.625000  0.625000  1
  Ti  Ti6  1  0.625000  0.625000  0.625000  1
  W  W7  1  0.625000  0.125000  0.625000  1
  O  O8  1  0.693205  0.695460  0.305668  1
  O  O9  1  0.944332  0.554540  0.556795  1
  O  O10  1  0.556179  0.948261  0.939380  1
  O  O11  1  0.939380  0.948261  0.556179  1
  O  O12  1  0.944332  0.554540  0.944332  1
  O  O13  1  0.556179  0.948261  0.556179  1
  O  O14  1  0.305668  0.695460  0.305668  1
  O  O15  1  0.305668  0.695460  0.693205  1
  O  O16  1  0.693821  0.301739  0.310620  1
  O  O17  1  0.693821  0.301739  0.693821  1
  O  O18  1  0.556795  0.554540  0.944332  1
  O  O19  1  0.310620  0.301739  0.693821  1
  O  O20  1  0.249726  0.250822  0.249726  1
  O  O21  1  0.000274  0.999178  0.000274  1
