# generated using pymatgen
data_K4Ba2ZrSb4
_symmetry_space_group_name_H-M   'P 1'
_cell_length_a   11.23335801
_cell_length_b   11.23335797
_cell_length_c   8.61219899
_cell_angle_alpha   89.04802985
_cell_angle_beta   89.04802459
_cell_angle_gamma   119.85801159
_symmetry_Int_Tables_number   1
_chemical_formula_structural   K4Ba2ZrSb4
_chemical_formula_sum   'K8 Ba4 Zr2 Sb8'
_cell_volume   941.98636981
_cell_formula_units_Z   2
loop_
 _symmetry_equiv_pos_site_id
 _symmetry_equiv_pos_as_xyz
  1  'x, y, z'
loop_
 _atom_site_type_symbol
 _atom_site_label
 _atom_site_symmetry_multiplicity
 _atom_site_fract_x
 _atom_site_fract_y
 _atom_site_fract_z
 _atom_site_occupancy
  K  K0  1  0.055949  0.526186  0.622599  1
  K  K1  1  0.526186  0.055949  0.122599  1
  K  K2  1  0.277749  0.135940  0.820555  1
  K  K3  1  0.867727  0.723541  0.784570  1
  K  K4  1  0.860890  0.144799  0.803703  1
  K  K5  1  0.723541  0.867727  0.284570  1
  K  K6  1  0.135940  0.277749  0.320555  1
  K  K7  1  0.144799  0.860890  0.303703  1
  Ba  Ba8  1  0.469175  0.942134  0.617101  1
  Ba  Ba9  1  0.468716  0.523066  0.623835  1
  Ba  Ba10  1  0.942134  0.469175  0.117101  1
  Ba  Ba11  1  0.523066  0.468716  0.123835  1
  Zr  Zr12  1  0.668344  0.335435  0.512485  1
  Zr  Zr13  1  0.335435  0.668344  0.012485  1
  Sb  Sb14  1  0.608044  0.798255  0.888349  1
  Sb  Sb15  1  0.198006  0.389485  0.921032  1
  Sb  Sb16  1  0.193559  0.800192  0.908023  1
  Sb  Sb17  1  0.389485  0.198006  0.421032  1
  Sb  Sb18  1  0.798255  0.608044  0.388349  1
  Sb  Sb19  1  0.800192  0.193559  0.408023  1
  Sb  Sb20  1  0.667526  0.344842  0.843384  1
  Sb  Sb21  1  0.344842  0.667526  0.343384  1
