# generated using pymatgen
data_Sc2Mn4Fe3(CoP2)3
_symmetry_space_group_name_H-M   'P 1'
_cell_length_a   3.54911000
_cell_length_b   10.22584500
_cell_length_c   11.96195600
_cell_angle_alpha   90.00000000
_cell_angle_beta   90.00000000
_cell_angle_gamma   90.00000000
_symmetry_Int_Tables_number   1
_chemical_formula_structural   Sc2Mn4Fe3(CoP2)3
_chemical_formula_sum   'Sc4 Mn8 Fe6 Co6 P12'
_cell_volume   434.13106745
_cell_formula_units_Z   2
loop_
 _symmetry_equiv_pos_site_id
 _symmetry_equiv_pos_as_xyz
  1  'x, y, z'
loop_
 _atom_site_type_symbol
 _atom_site_label
 _atom_site_symmetry_multiplicity
 _atom_site_fract_x
 _atom_site_fract_y
 _atom_site_fract_z
 _atom_site_occupancy
  Sc  Sc0  1  0.250000  0.582823  0.709949  1
  Sc  Sc1  1  0.250000  0.917177  0.209949  1
  Sc  Sc2  1  0.750000  0.419393  0.289687  1
  Sc  Sc3  1  0.750000  0.080607  0.789687  1
  Mn  Mn4  1  0.250000  0.711313  0.991674  1
  Mn  Mn5  1  0.250000  0.788687  0.491674  1
  Mn  Mn6  1  0.750000  0.288020  0.009267  1
  Mn  Mn7  1  0.750000  0.211980  0.509267  1
  Mn  Mn8  1  0.250000  0.409108  0.490128  1
  Mn  Mn9  1  0.250000  0.090892  0.990128  1
  Mn  Mn10  1  0.750000  0.592681  0.510445  1
  Mn  Mn11  1  0.750000  0.907319  0.010445  1
  Fe  Fe12  1  0.250000  0.221437  0.175680  1
  Fe  Fe13  1  0.250000  0.278564  0.675680  1
  Fe  Fe14  1  0.750000  0.779702  0.826404  1
  Fe  Fe15  1  0.750000  0.720298  0.326404  1
  Fe  Fe16  1  0.250000  0.880818  0.695352  1
  Fe  Fe17  1  0.250000  0.619182  0.195352  1
  Co  Co18  1  0.750000  0.117807  0.303590  1
  Co  Co19  1  0.750000  0.382193  0.803590  1
  Co  Co20  1  0.250000  0.462389  0.932940  1
  Co  Co21  1  0.250000  0.037611  0.432940  1
  Co  Co22  1  0.750000  0.535558  0.064321  1
  Co  Co23  1  0.750000  0.964442  0.564321  1
  P  P24  1  0.250000  0.421000  0.115176  1
  P  P25  1  0.250000  0.079000  0.615176  1
  P  P26  1  0.750000  0.580564  0.884986  1
  P  P27  1  0.750000  0.919436  0.384986  1
  P  P28  1  0.250000  0.263121  0.863447  1
  P  P29  1  0.250000  0.236879  0.363447  1
  P  P30  1  0.750000  0.733572  0.138259  1
  P  P31  1  0.750000  0.766428  0.638259  1
  P  P32  1  0.250000  0.597113  0.378710  1
  P  P33  1  0.250000  0.902887  0.878710  1
  P  P34  1  0.750000  0.403268  0.619985  1
  P  P35  1  0.750000  0.096732  0.119985  1
