# generated using pymatgen
data_Ca11Pr8ErPb16
_symmetry_space_group_name_H-M   'P 1'
_cell_length_a   8.10949829
_cell_length_b   8.68613074
_cell_length_c   16.32916239
_cell_angle_alpha   90.05640666
_cell_angle_beta   90.09293496
_cell_angle_gamma   89.95425243
_symmetry_Int_Tables_number   1
_chemical_formula_structural   Ca11Pr8ErPb16
_chemical_formula_sum   'Ca11 Pr8 Er1 Pb16'
_cell_volume   1150.22641507
_cell_formula_units_Z   1
loop_
 _symmetry_equiv_pos_site_id
 _symmetry_equiv_pos_as_xyz
  1  'x, y, z'
loop_
 _atom_site_type_symbol
 _atom_site_label
 _atom_site_symmetry_multiplicity
 _atom_site_fract_x
 _atom_site_fract_y
 _atom_site_fract_z
 _atom_site_occupancy
  Ca  Ca0  1  0.164503  0.332185  0.877196  1
  Ca  Ca1  1  0.335707  0.831905  0.122978  1
  Ca  Ca2  1  0.836298  0.667811  0.377199  1
  Ca  Ca3  1  0.335219  0.831664  0.376904  1
  Ca  Ca4  1  0.835867  0.668026  0.122965  1
  Ca  Ca5  1  0.663908  0.168048  0.877101  1
  Ca  Ca6  1  0.164295  0.331811  0.622527  1
  Ca  Ca7  1  0.833259  0.497455  0.750053  1
  Ca  Ca8  1  0.332963  0.002380  0.750116  1
  Ca  Ca9  1  0.166967  0.502498  0.249950  1
  Ca  Ca10  1  0.667040  0.997735  0.249991  1
  Pr  Pr11  1  0.500075  0.685637  0.595281  1
  Pr  Pr12  1  0.000962  0.813024  0.905268  1
  Pr  Pr13  1  0.499592  0.313047  0.095422  1
  Pr  Pr14  1  0.999968  0.187274  0.404267  1
  Pr  Pr15  1  0.499037  0.313534  0.404620  1
  Pr  Pr16  1  0.999727  0.187062  0.095368  1
  Pr  Pr17  1  0.500228  0.686388  0.904859  1
  Pr  Pr18  1  0.000289  0.812980  0.594753  1
  Er  Er19  1  0.664206  0.169393  0.623422  1
  Pb  Pb20  1  0.680414  0.965012  0.461894  1
  Pb  Pb21  1  0.179628  0.536324  0.039862  1
  Pb  Pb22  1  0.320975  0.036135  0.960012  1
  Pb  Pb23  1  0.817249  0.460680  0.540854  1
  Pb  Pb24  1  0.323792  0.037535  0.541098  1
  Pb  Pb25  1  0.820494  0.463728  0.959864  1
  Pb  Pb26  1  0.679150  0.963714  0.039872  1
  Pb  Pb27  1  0.180381  0.536583  0.460092  1
  Pb  Pb28  1  0.467308  0.391120  0.749107  1
  Pb  Pb29  1  0.963018  0.107357  0.748053  1
  Pb  Pb30  1  0.534235  0.606241  0.250056  1
  Pb  Pb31  1  0.034245  0.894237  0.249908  1
  Pb  Pb32  1  0.701222  0.853730  0.748858  1
  Pb  Pb33  1  0.201585  0.647757  0.749702  1
  Pb  Pb34  1  0.297951  0.147677  0.250272  1
  Pb  Pb35  1  0.798244  0.352312  0.250256  1
