# generated using pymatgen
data_Tb7Co6AgSn22
_symmetry_space_group_name_H-M   'P 1'
_cell_length_a   9.67513500
_cell_length_b   9.67513465
_cell_length_c   9.97232000
_cell_angle_alpha   90.00000000
_cell_angle_beta   90.00000000
_cell_angle_gamma   120.00000462
_symmetry_Int_Tables_number   1
_chemical_formula_structural   Tb7Co6AgSn22
_chemical_formula_sum   'Tb7 Co6 Ag1 Sn22'
_cell_volume   808.42711007
_cell_formula_units_Z   1
loop_
 _symmetry_equiv_pos_site_id
 _symmetry_equiv_pos_as_xyz
  1  'x, y, z'
loop_
 _atom_site_type_symbol
 _atom_site_label
 _atom_site_symmetry_multiplicity
 _atom_site_fract_x
 _atom_site_fract_y
 _atom_site_fract_z
 _atom_site_occupancy
  Tb  Tb0  1  0.000000  0.000000  0.000000  1
  Tb  Tb1  1  0.478742  0.521258  0.306421  1
  Tb  Tb2  1  0.521258  0.478742  0.693579  1
  Tb  Tb3  1  0.478742  0.957483  0.306421  1
  Tb  Tb4  1  0.521258  0.042517  0.693579  1
  Tb  Tb5  1  0.042517  0.521258  0.306421  1
  Tb  Tb6  1  0.957483  0.478742  0.693579  1
  Co  Co7  1  0.831981  0.168019  0.196220  1
  Co  Co8  1  0.168019  0.831981  0.803780  1
  Co  Co9  1  0.831981  0.663963  0.196220  1
  Co  Co10  1  0.168019  0.336037  0.803780  1
  Co  Co11  1  0.336037  0.168019  0.196220  1
  Co  Co12  1  0.663963  0.831981  0.803780  1
  Ag  Ag13  1  0.000000  0.000000  0.500000  1
  Sn  Sn14  1  0.346209  0.000000  0.000000  1
  Sn  Sn15  1  0.653791  0.000000  0.000000  1
  Sn  Sn16  1  0.000000  0.346209  0.000000  1
  Sn  Sn17  1  0.000000  0.653791  0.000000  1
  Sn  Sn18  1  0.653791  0.653791  0.000000  1
  Sn  Sn19  1  0.346209  0.346209  0.000000  1
  Sn  Sn20  1  0.333333  0.666667  0.816026  1
  Sn  Sn21  1  0.666667  0.333333  0.183974  1
  Sn  Sn22  1  0.783830  0.216170  0.453090  1
  Sn  Sn23  1  0.216170  0.783830  0.546910  1
  Sn  Sn24  1  0.783830  0.567659  0.453090  1
  Sn  Sn25  1  0.216170  0.432341  0.546910  1
  Sn  Sn26  1  0.432341  0.216170  0.453090  1
  Sn  Sn27  1  0.567659  0.783830  0.546910  1
  Sn  Sn28  1  0.333333  0.666667  0.117724  1
  Sn  Sn29  1  0.666667  0.333333  0.882276  1
  Sn  Sn30  1  0.113404  0.886596  0.277271  1
  Sn  Sn31  1  0.886596  0.113404  0.722729  1
  Sn  Sn32  1  0.113404  0.226809  0.277271  1
  Sn  Sn33  1  0.886596  0.773191  0.722729  1
  Sn  Sn34  1  0.773191  0.886596  0.277271  1
  Sn  Sn35  1  0.226809  0.113404  0.722729  1
