# generated using pymatgen
data_Tb15Dy5(Bi2Rh)4
_symmetry_space_group_name_H-M   'P 1'
_cell_length_a   8.05715802
_cell_length_b   9.03372907
_cell_length_c   12.50786708
_cell_angle_alpha   90.01261399
_cell_angle_beta   89.99586435
_cell_angle_gamma   90.00663112
_symmetry_Int_Tables_number   1
_chemical_formula_structural   Tb15Dy5(Bi2Rh)4
_chemical_formula_sum   'Tb15 Dy5 Bi8 Rh4'
_cell_volume   910.39986716
_cell_formula_units_Z   1
loop_
 _symmetry_equiv_pos_site_id
 _symmetry_equiv_pos_as_xyz
  1  'x, y, z'
loop_
 _atom_site_type_symbol
 _atom_site_label
 _atom_site_symmetry_multiplicity
 _atom_site_fract_x
 _atom_site_fract_y
 _atom_site_fract_z
 _atom_site_occupancy
  Tb  Tb0  1  0.841319  0.749973  0.793838  1
  Tb  Tb1  1  0.158640  0.250017  0.206174  1
  Tb  Tb2  1  0.341310  0.250033  0.706185  1
  Tb  Tb3  1  0.658701  0.749975  0.293811  1
  Tb  Tb4  1  0.374942  0.749961  0.693991  1
  Tb  Tb5  1  0.625067  0.250039  0.305996  1
  Tb  Tb6  1  0.874929  0.250016  0.806038  1
  Tb  Tb7  1  0.125010  0.749971  0.193974  1
  Tb  Tb8  1  0.954011  0.749955  0.501257  1
  Tb  Tb9  1  0.045984  0.250038  0.498741  1
  Tb  Tb10  1  0.454035  0.250020  0.998746  1
  Tb  Tb11  1  0.546041  0.749979  0.001265  1
  Tb  Tb12  1  0.678126  0.040757  0.566030  1
  Tb  Tb13  1  0.321878  0.959228  0.433975  1
  Tb  Tb14  1  0.178041  0.959250  0.934003  1
  Dy  Dy15  1  0.322152  0.540761  0.434027  1
  Dy  Dy16  1  0.822103  0.040769  0.065999  1
  Dy  Dy17  1  0.677845  0.459243  0.565970  1
  Dy  Dy18  1  0.822167  0.459220  0.065977  1
  Dy  Dy19  1  0.177845  0.540739  0.934029  1
  Bi  Bi20  1  0.569337  0.491637  0.826317  1
  Bi  Bi21  1  0.430662  0.508365  0.173682  1
  Bi  Bi22  1  0.069332  0.508365  0.673686  1
  Bi  Bi23  1  0.430670  0.991638  0.173662  1
  Bi  Bi24  1  0.930663  0.491636  0.326323  1
  Bi  Bi25  1  0.569379  0.008373  0.826318  1
  Bi  Bi26  1  0.930585  0.008376  0.326288  1
  Bi  Bi27  1  0.069393  0.991632  0.673681  1
  Rh  Rh28  1  0.570253  0.749851  0.510190  1
  Rh  Rh29  1  0.429765  0.250177  0.489790  1
  Rh  Rh30  1  0.070128  0.250074  0.989819  1
  Rh  Rh31  1  0.929684  0.749932  0.010220  1
