# generated using pymatgen
data_KNd3BiSb3Au4
_symmetry_space_group_name_H-M   'P 1'
_cell_length_a   4.73010600
_cell_length_b   4.73010567
_cell_length_c   17.64092000
_cell_angle_alpha   90.00000000
_cell_angle_beta   90.00000000
_cell_angle_gamma   120.00001630
_symmetry_Int_Tables_number   1
_chemical_formula_structural   KNd3BiSb3Au4
_chemical_formula_sum   'K1 Nd3 Bi1 Sb3 Au4'
_cell_volume   341.81688100
_cell_formula_units_Z   1
loop_
 _symmetry_equiv_pos_site_id
 _symmetry_equiv_pos_as_xyz
  1  'x, y, z'
loop_
 _atom_site_type_symbol
 _atom_site_label
 _atom_site_symmetry_multiplicity
 _atom_site_fract_x
 _atom_site_fract_y
 _atom_site_fract_z
 _atom_site_occupancy
  K  K0  1  0.000000  0.000000  0.241788  1
  Nd  Nd1  1  0.000000  0.000000  0.516976  1
  Nd  Nd2  1  0.000000  0.000000  0.985246  1
  Nd  Nd3  1  0.000000  0.000000  0.750858  1
  Bi  Bi4  1  0.333333  0.666667  0.388064  1
  Sb  Sb5  1  0.666667  0.333333  0.620511  1
  Sb  Sb6  1  0.666667  0.333333  0.880462  1
  Sb  Sb7  1  0.333333  0.666667  0.103742  1
  Au  Au8  1  0.666667  0.333333  0.434482  1
  Au  Au9  1  0.333333  0.666667  0.666163  1
  Au  Au10  1  0.333333  0.666667  0.834767  1
  Au  Au11  1  0.666667  0.333333  0.076941  1
