# generated using pymatgen
data_DyCo2(AsRu)3
_symmetry_space_group_name_H-M   'P 1'
_cell_length_a   3.89044300
_cell_length_b   11.03464900
_cell_length_c   12.52117000
_cell_angle_alpha   90.00000000
_cell_angle_beta   90.00000000
_cell_angle_gamma   90.00000000
_symmetry_Int_Tables_number   1
_chemical_formula_structural   DyCo2(AsRu)3
_chemical_formula_sum   'Dy4 Co8 As12 Ru12'
_cell_volume   537.52973317
_cell_formula_units_Z   4
loop_
 _symmetry_equiv_pos_site_id
 _symmetry_equiv_pos_as_xyz
  1  'x, y, z'
loop_
 _atom_site_type_symbol
 _atom_site_label
 _atom_site_symmetry_multiplicity
 _atom_site_fract_x
 _atom_site_fract_y
 _atom_site_fract_z
 _atom_site_occupancy
  Dy  Dy0  1  0.250000  0.585172  0.704343  1
  Dy  Dy1  1  0.250000  0.914828  0.204343  1
  Dy  Dy2  1  0.750000  0.414828  0.295657  1
  Dy  Dy3  1  0.750000  0.085172  0.795657  1
  Co  Co4  1  0.250000  0.886114  0.694610  1
  Co  Co5  1  0.250000  0.613886  0.194610  1
  Co  Co6  1  0.750000  0.113886  0.305390  1
  Co  Co7  1  0.750000  0.386114  0.805390  1
  Co  Co8  1  0.250000  0.465417  0.934426  1
  Co  Co9  1  0.250000  0.034583  0.434426  1
  Co  Co10  1  0.750000  0.534583  0.065574  1
  Co  Co11  1  0.750000  0.965417  0.565574  1
  As  As12  1  0.250000  0.424016  0.114150  1
  As  As13  1  0.250000  0.075984  0.614150  1
  As  As14  1  0.750000  0.575984  0.885850  1
  As  As15  1  0.750000  0.924016  0.385850  1
  As  As16  1  0.250000  0.271692  0.872301  1
  As  As17  1  0.250000  0.228308  0.372301  1
  As  As18  1  0.750000  0.728308  0.127699  1
  As  As19  1  0.750000  0.771692  0.627699  1
  As  As20  1  0.250000  0.599341  0.384938  1
  As  As21  1  0.250000  0.900659  0.884938  1
  As  As22  1  0.750000  0.400659  0.615062  1
  As  As23  1  0.750000  0.099341  0.115062  1
  Ru  Ru24  1  0.250000  0.705185  0.986063  1
  Ru  Ru25  1  0.250000  0.794815  0.486063  1
  Ru  Ru26  1  0.750000  0.294815  0.013937  1
  Ru  Ru27  1  0.750000  0.205185  0.513937  1
  Ru  Ru28  1  0.250000  0.406025  0.486512  1
  Ru  Ru29  1  0.250000  0.093975  0.986512  1
  Ru  Ru30  1  0.750000  0.593975  0.513488  1
  Ru  Ru31  1  0.750000  0.906025  0.013488  1
  Ru  Ru32  1  0.250000  0.221079  0.179666  1
  Ru  Ru33  1  0.250000  0.278921  0.679666  1
  Ru  Ru34  1  0.750000  0.778921  0.820334  1
  Ru  Ru35  1  0.750000  0.721079  0.320334  1
