# generated using pymatgen
data_Na2LiB2Pt5
_symmetry_space_group_name_H-M   'P 1'
_cell_length_a   5.58560947
_cell_length_b   5.76469981
_cell_length_c   5.55136600
_cell_angle_alpha   90.00000000
_cell_angle_beta   90.00000000
_cell_angle_gamma   121.06640575
_symmetry_Int_Tables_number   1
_chemical_formula_structural   Na2LiB2Pt5
_chemical_formula_sum   'Na2 Li1 B2 Pt5'
_cell_volume   153.11223009
_cell_formula_units_Z   1
loop_
 _symmetry_equiv_pos_site_id
 _symmetry_equiv_pos_as_xyz
  1  'x, y, z'
loop_
 _atom_site_type_symbol
 _atom_site_label
 _atom_site_symmetry_multiplicity
 _atom_site_fract_x
 _atom_site_fract_y
 _atom_site_fract_z
 _atom_site_occupancy
  Na  Na0  1  0.000000  0.000000  0.494865  1
  Na  Na1  1  0.000000  0.000000  0.004873  1
  Li  Li2  1  0.000000  0.500000  0.795747  1
  B  B3  1  0.624986  0.312492  0.485857  1
  B  B4  1  0.375014  0.687508  0.485857  1
  Pt  Pt5  1  0.500000  0.500000  0.744605  1
  Pt  Pt6  1  0.500000  0.000000  0.744605  1
  Pt  Pt7  1  0.000000  0.500000  0.286325  1
  Pt  Pt8  1  0.500000  0.500000  0.228632  1
  Pt  Pt9  1  0.500000  0.000000  0.228632  1
