# generated using pymatgen
data_Th3InHg2Pd3
_symmetry_space_group_name_H-M   'P 1'
_cell_length_a   7.76064800
_cell_length_b   7.89675915
_cell_length_c   3.96614800
_cell_angle_alpha   90.00000000
_cell_angle_beta   90.00000000
_cell_angle_gamma   119.43144610
_symmetry_Int_Tables_number   1
_chemical_formula_structural   Th3InHg2Pd3
_chemical_formula_sum   'Th3 In1 Hg2 Pd3'
_cell_volume   211.69283153
_cell_formula_units_Z   1
loop_
 _symmetry_equiv_pos_site_id
 _symmetry_equiv_pos_as_xyz
  1  'x, y, z'
loop_
 _atom_site_type_symbol
 _atom_site_label
 _atom_site_symmetry_multiplicity
 _atom_site_fract_x
 _atom_site_fract_y
 _atom_site_fract_z
 _atom_site_occupancy
  Th  Th0  1  0.997438  0.593773  0.000000  1
  Th  Th1  1  0.403666  0.406227  0.000000  1
  Th  Th2  1  0.604474  0.000000  0.000000  1
  In  In3  1  0.257326  0.000000  0.500000  1
  Hg  Hg4  1  0.736896  0.733495  0.500000  1
  Hg  Hg5  1  0.003401  0.266505  0.500000  1
  Pd  Pd6  1  0.331514  0.675428  0.500000  1
  Pd  Pd7  1  0.009196  0.000000  0.000000  1
  Pd  Pd8  1  0.656088  0.324572  0.500000  1
