# generated using pymatgen
data_La5Mg(In5Ni3)2
_symmetry_space_group_name_H-M   'P 1'
_cell_length_a   10.47522496
_cell_length_b   10.47522509
_cell_length_c   4.46048600
_cell_angle_alpha   90.00000000
_cell_angle_beta   90.00000000
_cell_angle_gamma   90.64348825
_symmetry_Int_Tables_number   1
_chemical_formula_structural   La5Mg(In5Ni3)2
_chemical_formula_sum   'La5 Mg1 In10 Ni6'
_cell_volume   489.41977405
_cell_formula_units_Z   1
loop_
 _symmetry_equiv_pos_site_id
 _symmetry_equiv_pos_as_xyz
  1  'x, y, z'
loop_
 _atom_site_type_symbol
 _atom_site_label
 _atom_site_symmetry_multiplicity
 _atom_site_fract_x
 _atom_site_fract_y
 _atom_site_fract_z
 _atom_site_occupancy
  La  La0  1  0.038100  0.313301  0.000000  1
  La  La1  1  0.961645  0.686202  0.000000  1
  La  La2  1  0.686699  0.961900  0.000000  1
  La  La3  1  0.313798  0.038355  0.000000  1
  La  La4  1  0.499038  0.500962  0.500000  1
  Mg  Mg5  1  0.695420  0.304580  0.000000  1
  In  In6  1  0.153865  0.537118  0.500000  1
  In  In7  1  0.839155  0.457728  0.500000  1
  In  In8  1  0.462882  0.846135  0.500000  1
  In  In9  1  0.542272  0.160845  0.500000  1
  In  In10  1  0.305388  0.694612  0.000000  1
  In  In11  1  0.161140  0.838860  0.500000  1
  In  In12  1  0.839186  0.160814  0.500000  1
  In  In13  1  0.274349  0.274337  0.500000  1
  In  In14  1  0.725663  0.725651  0.500000  1
  In  In15  1  0.997685  0.002315  0.000000  1
  Ni  Ni16  1  0.278321  0.443316  0.000000  1
  Ni  Ni17  1  0.723704  0.557969  0.000000  1
  Ni  Ni18  1  0.556684  0.721679  0.000000  1
  Ni  Ni19  1  0.442031  0.276296  0.000000  1
  Ni  Ni20  1  0.093252  0.090279  0.500000  1
  Ni  Ni21  1  0.909721  0.906748  0.500000  1
