# generated using pymatgen
data_Lu4CdRh
_symmetry_space_group_name_H-M   'P 1'
_cell_length_a   9.42789648
_cell_length_b   9.42789637
_cell_length_c   9.42789600
_cell_angle_alpha   60.00000130
_cell_angle_beta   60.00000170
_cell_angle_gamma   59.99999668
_symmetry_Int_Tables_number   1
_chemical_formula_structural   Lu4CdRh
_chemical_formula_sum   'Lu16 Cd4 Rh4'
_cell_volume   592.55598617
_cell_formula_units_Z   4
loop_
 _symmetry_equiv_pos_site_id
 _symmetry_equiv_pos_as_xyz
  1  'x, y, z'
loop_
 _atom_site_type_symbol
 _atom_site_label
 _atom_site_symmetry_multiplicity
 _atom_site_fract_x
 _atom_site_fract_y
 _atom_site_fract_z
 _atom_site_occupancy
  Lu  Lu0  1  0.350470  0.350470  0.350470  1
  Lu  Lu1  1  0.350470  0.350470  0.948589  1
  Lu  Lu2  1  0.350470  0.948589  0.350470  1
  Lu  Lu3  1  0.948589  0.350470  0.350470  1
  Lu  Lu4  1  0.810741  0.189259  0.189259  1
  Lu  Lu5  1  0.189259  0.810741  0.810741  1
  Lu  Lu6  1  0.189259  0.810741  0.189259  1
  Lu  Lu7  1  0.810741  0.189259  0.810741  1
  Lu  Lu8  1  0.189259  0.189259  0.810741  1
  Lu  Lu9  1  0.810741  0.810741  0.189259  1
  Lu  Lu10  1  0.936198  0.563802  0.563802  1
  Lu  Lu11  1  0.563802  0.936198  0.936198  1
  Lu  Lu12  1  0.563802  0.936198  0.563802  1
  Lu  Lu13  1  0.936198  0.563802  0.936198  1
  Lu  Lu14  1  0.563802  0.563802  0.936198  1
  Lu  Lu15  1  0.936198  0.936198  0.563802  1
  Cd  Cd16  1  0.581573  0.581573  0.581573  1
  Cd  Cd17  1  0.581573  0.581573  0.255282  1
  Cd  Cd18  1  0.581573  0.255282  0.581573  1
  Cd  Cd19  1  0.255282  0.581573  0.581573  1
  Rh  Rh20  1  0.142741  0.142741  0.142741  1
  Rh  Rh21  1  0.142741  0.142741  0.571777  1
  Rh  Rh22  1  0.142741  0.571777  0.142741  1
  Rh  Rh23  1  0.571777  0.142741  0.142741  1
