# generated using pymatgen
data_Y2Er6AlPd24
_symmetry_space_group_name_H-M   'P 1'
_cell_length_a   8.33425900
_cell_length_b   8.33371132
_cell_length_c   8.33371100
_cell_angle_alpha   89.98417333
_cell_angle_beta   90.00000000
_cell_angle_gamma   90.00000000
_symmetry_Int_Tables_number   1
_chemical_formula_structural   Y2Er6AlPd24
_chemical_formula_sum   'Y2 Er6 Al1 Pd24'
_cell_volume   578.82044683
_cell_formula_units_Z   1
loop_
 _symmetry_equiv_pos_site_id
 _symmetry_equiv_pos_as_xyz
  1  'x, y, z'
loop_
 _atom_site_type_symbol
 _atom_site_label
 _atom_site_symmetry_multiplicity
 _atom_site_fract_x
 _atom_site_fract_y
 _atom_site_fract_z
 _atom_site_occupancy
  Y  Y0  1  0.251470  0.251537  0.748463  1
  Y  Y1  1  0.251470  0.748463  0.251537  1
  Er  Er2  1  0.748587  0.251509  0.251509  1
  Er  Er3  1  0.748587  0.748491  0.748491  1
  Er  Er4  1  0.748244  0.748314  0.251686  1
  Er  Er5  1  0.748244  0.251686  0.748314  1
  Er  Er6  1  0.251596  0.748285  0.748285  1
  Er  Er7  1  0.251596  0.251715  0.251715  1
  Al  Al8  1  0.000190  0.000000  0.000000  1
  Pd  Pd9  1  0.501324  0.501028  0.747429  1
  Pd  Pd10  1  0.501324  0.252571  0.498972  1
  Pd  Pd11  1  0.252329  0.500000  0.500000  1
  Pd  Pd12  1  0.501324  0.498972  0.252571  1
  Pd  Pd13  1  0.501324  0.747429  0.501028  1
  Pd  Pd14  1  0.747530  0.500000  0.500000  1
  Pd  Pd15  1  0.998888  0.998970  0.711695  1
  Pd  Pd16  1  0.998888  0.288305  0.001030  1
  Pd  Pd17  1  0.288680  0.000000  0.000000  1
  Pd  Pd18  1  0.998888  0.001030  0.288305  1
  Pd  Pd19  1  0.998888  0.711695  0.998970  1
  Pd  Pd20  1  0.712165  0.000000  0.000000  1
  Pd  Pd21  1  0.998583  0.500705  0.740442  1
  Pd  Pd22  1  0.501151  0.259552  0.001273  1
  Pd  Pd23  1  0.259292  0.000000  0.500000  1
  Pd  Pd24  1  0.998583  0.259558  0.499295  1
  Pd  Pd25  1  0.501151  0.998727  0.740448  1
  Pd  Pd26  1  0.259292  0.500000  0.000000  1
  Pd  Pd27  1  0.998583  0.499295  0.259558  1
  Pd  Pd28  1  0.501151  0.740448  0.998727  1
  Pd  Pd29  1  0.998583  0.740442  0.500705  1
  Pd  Pd30  1  0.501151  0.001273  0.259552  1
  Pd  Pd31  1  0.740474  0.000000  0.500000  1
  Pd  Pd32  1  0.740474  0.500000  0.000000  1
