# generated using pymatgen
data_La9Ho11Sn16
_symmetry_space_group_name_H-M   'P 1'
_cell_length_a   7.98335200
_cell_length_b   8.48830355
_cell_length_c   15.96474500
_cell_angle_alpha   90.00000000
_cell_angle_beta   90.00000000
_cell_angle_gamma   89.86793000
_symmetry_Int_Tables_number   1
_chemical_formula_structural   La9Ho11Sn16
_chemical_formula_sum   'La9 Ho11 Sn16'
_cell_volume   1081.84990878
_cell_formula_units_Z   1
loop_
 _symmetry_equiv_pos_site_id
 _symmetry_equiv_pos_as_xyz
  1  'x, y, z'
loop_
 _atom_site_type_symbol
 _atom_site_label
 _atom_site_symmetry_multiplicity
 _atom_site_fract_x
 _atom_site_fract_y
 _atom_site_fract_z
 _atom_site_occupancy
  La  La0  1  0.498915  0.677789  0.597425  1
  La  La1  1  0.998673  0.821339  0.902505  1
  La  La2  1  0.499656  0.320926  0.095976  1
  La  La3  1  0.999079  0.181173  0.405270  1
  La  La4  1  0.499656  0.320926  0.404024  1
  La  La5  1  0.999079  0.181173  0.094730  1
  La  La6  1  0.498915  0.677789  0.902575  1
  La  La7  1  0.998673  0.821339  0.597495  1
  La  La8  1  0.674138  0.001856  0.250000  1
  Ho  Ho9  1  0.664730  0.164720  0.626177  1
  Ho  Ho10  1  0.164567  0.335001  0.875217  1
  Ho  Ho11  1  0.335991  0.833427  0.122906  1
  Ho  Ho12  1  0.836455  0.666365  0.377400  1
  Ho  Ho13  1  0.335991  0.833427  0.377094  1
  Ho  Ho14  1  0.836455  0.666365  0.122600  1
  Ho  Ho15  1  0.664730  0.164720  0.873823  1
  Ho  Ho16  1  0.164567  0.335001  0.624783  1
  Ho  Ho17  1  0.828812  0.499244  0.750000  1
  Ho  Ho18  1  0.329240  0.001796  0.750000  1
  Ho  Ho19  1  0.173232  0.499518  0.250000  1
  Sn  Sn20  1  0.678442  0.958590  0.462333  1
  Sn  Sn21  1  0.178985  0.540444  0.041121  1
  Sn  Sn22  1  0.321352  0.040115  0.957237  1
  Sn  Sn23  1  0.820186  0.458528  0.542715  1
  Sn  Sn24  1  0.321352  0.040115  0.542763  1
  Sn  Sn25  1  0.820186  0.458528  0.957285  1
  Sn  Sn26  1  0.678442  0.958590  0.037667  1
  Sn  Sn27  1  0.178985  0.540444  0.458879  1
  Sn  Sn28  1  0.467060  0.373330  0.750000  1
  Sn  Sn29  1  0.968808  0.129244  0.750000  1
  Sn  Sn30  1  0.533540  0.626341  0.250000  1
  Sn  Sn31  1  0.041742  0.861973  0.250000  1
  Sn  Sn32  1  0.694977  0.856897  0.750000  1
  Sn  Sn33  1  0.195089  0.642350  0.750000  1
  Sn  Sn34  1  0.295147  0.141610  0.250000  1
  Sn  Sn35  1  0.804153  0.369004  0.250000  1
