# generated using pymatgen
data_Sr10ZrTcN10
_symmetry_space_group_name_H-M   'P 1'
_cell_length_a   7.37857628
_cell_length_b   7.37857648
_cell_length_c   9.51052100
_cell_angle_alpha   80.41715190
_cell_angle_beta   80.41715163
_cell_angle_gamma   59.29801775
_symmetry_Int_Tables_number   1
_chemical_formula_structural   Sr10ZrTcN10
_chemical_formula_sum   'Sr10 Zr1 Tc1 N10'
_cell_volume   436.96517203
_cell_formula_units_Z   1
loop_
 _symmetry_equiv_pos_site_id
 _symmetry_equiv_pos_as_xyz
  1  'x, y, z'
loop_
 _atom_site_type_symbol
 _atom_site_label
 _atom_site_symmetry_multiplicity
 _atom_site_fract_x
 _atom_site_fract_y
 _atom_site_fract_z
 _atom_site_occupancy
  Sr  Sr0  1  0.874419  0.353486  0.833167  1
  Sr  Sr1  1  0.872401  0.872401  0.822612  1
  Sr  Sr2  1  0.737942  0.737942  0.530509  1
  Sr  Sr3  1  0.746309  0.251446  0.507462  1
  Sr  Sr4  1  0.630698  0.135518  0.147797  1
  Sr  Sr5  1  0.353486  0.874419  0.833167  1
  Sr  Sr6  1  0.251446  0.746309  0.507462  1
  Sr  Sr7  1  0.241878  0.241878  0.500721  1
  Sr  Sr8  1  0.140563  0.140563  0.158640  1
  Sr  Sr9  1  0.135518  0.630698  0.147797  1
  Zr  Zr10  1  0.368076  0.368076  0.778502  1
  Tc  Tc11  1  0.634764  0.634764  0.228174  1
  N  N12  1  0.890331  0.482123  0.313363  1
  N  N13  1  0.996965  0.996965  0.013572  1
  N  N14  1  0.679753  0.679753  0.035594  1
  N  N15  1  0.534984  0.534984  0.693289  1
  N  N16  1  0.482123  0.890331  0.313363  1
  N  N17  1  0.536922  0.083316  0.675811  1
  N  N18  1  0.487872  0.487872  0.285185  1
  N  N19  1  0.319077  0.319077  0.001126  1
  N  N20  1  0.063443  0.063443  0.642684  1
  N  N21  1  0.083316  0.536922  0.675811  1
