# generated using pymatgen
data_Pr7LuThPd24
_symmetry_space_group_name_H-M   'P 1'
_cell_length_a   8.57515931
_cell_length_b   8.57515952
_cell_length_c   8.57515900
_cell_angle_alpha   89.86930112
_cell_angle_beta   89.86930112
_cell_angle_gamma   89.86929731
_symmetry_Int_Tables_number   1
_chemical_formula_structural   Pr7LuThPd24
_chemical_formula_sum   'Pr7 Lu1 Th1 Pd24'
_cell_volume   630.55533094
_cell_formula_units_Z   1
loop_
 _symmetry_equiv_pos_site_id
 _symmetry_equiv_pos_as_xyz
  1  'x, y, z'
loop_
 _atom_site_type_symbol
 _atom_site_label
 _atom_site_symmetry_multiplicity
 _atom_site_fract_x
 _atom_site_fract_y
 _atom_site_fract_z
 _atom_site_occupancy
  Pr  Pr0  1  0.747221  0.747200  0.747235  1
  Pr  Pr1  1  0.747553  0.747536  0.252273  1
  Pr  Pr2  1  0.747560  0.252313  0.747577  1
  Pr  Pr3  1  0.252330  0.252351  0.748878  1
  Pr  Pr4  1  0.252333  0.748833  0.252309  1
  Pr  Pr5  1  0.252290  0.747539  0.747577  1
  Pr  Pr6  1  0.748857  0.252351  0.252312  1
  Lu  Lu7  1  0.998613  0.998619  0.998609  1
  Th  Th8  1  0.254021  0.254054  0.253996  1
  Pd  Pd9  1  0.267219  0.498308  0.003735  1
  Pd  Pd10  1  0.732772  0.499335  0.000051  1
  Pd  Pd11  1  0.003747  0.267057  0.498300  1
  Pd  Pd12  1  0.498295  0.267206  0.003749  1
  Pd  Pd13  1  0.000056  0.732926  0.499340  1
  Pd  Pd14  1  0.499334  0.732782  0.000052  1
  Pd  Pd15  1  0.498341  0.003689  0.267103  1
  Pd  Pd16  1  0.267004  0.003724  0.498310  1
  Pd  Pd17  1  0.499332  0.000053  0.732872  1
  Pd  Pd18  1  0.732959  0.000057  0.499334  1
  Pd  Pd19  1  0.003700  0.498344  0.267161  1
  Pd  Pd20  1  0.000058  0.499340  0.732824  1
  Pd  Pd21  1  0.255091  0.497882  0.497886  1
  Pd  Pd22  1  0.745545  0.499513  0.499516  1
  Pd  Pd23  1  0.497881  0.255157  0.497889  1
  Pd  Pd24  1  0.499505  0.745481  0.499511  1
  Pd  Pd25  1  0.497871  0.497869  0.255000  1
  Pd  Pd26  1  0.499512  0.499516  0.745629  1
  Pd  Pd27  1  0.314111  0.001740  0.001758  1
  Pd  Pd28  1  0.683758  0.999794  0.999804  1
  Pd  Pd29  1  0.001744  0.314113  0.001742  1
  Pd  Pd30  1  0.999795  0.683762  0.999797  1
  Pd  Pd31  1  0.001779  0.001762  0.314158  1
  Pd  Pd32  1  0.999814  0.999794  0.683715  1
