# generated using pymatgen
data_Sc7S8
_symmetry_space_group_name_H-M   'P 1'
_cell_length_a   7.35417600
_cell_length_b   7.35417620
_cell_length_c   7.35417600
_cell_angle_alpha   119.99999911
_cell_angle_beta   90.00000000
_cell_angle_gamma   119.99999911
_symmetry_Int_Tables_number   1
_chemical_formula_structural   Sc7S8
_chemical_formula_sum   'Sc7 S8'
_cell_volume   281.24647190
_cell_formula_units_Z   1
loop_
 _symmetry_equiv_pos_site_id
 _symmetry_equiv_pos_as_xyz
  1  'x, y, z'
loop_
 _atom_site_type_symbol
 _atom_site_label
 _atom_site_symmetry_multiplicity
 _atom_site_fract_x
 _atom_site_fract_y
 _atom_site_fract_z
 _atom_site_occupancy
  Sc  Sc0  1  0.249940  0.000000  0.249940  1
  Sc  Sc1  1  0.249940  0.499880  0.249940  1
  Sc  Sc2  1  0.750060  0.000000  0.249941  1
  Sc  Sc3  1  0.250001  0.500001  0.750002  1
  Sc  Sc4  1  0.249941  0.000000  0.750060  1
  Sc  Sc5  1  0.750060  0.000000  0.750060  1
  Sc  Sc6  1  0.750060  0.500119  0.750060  1
  S  S7  1  0.000000  0.000000  0.000000  1
  S  S8  1  0.500000  0.000000  0.500000  1
  S  S9  1  0.998892  0.997785  0.498894  1
  S  S10  1  0.998892  0.500001  0.498894  1
  S  S11  1  0.501109  0.500001  0.498894  1
  S  S12  1  0.998894  0.500001  0.001108  1
  S  S13  1  0.501107  0.500001  0.001108  1
  S  S14  1  0.501107  0.002214  0.001108  1
