# generated using pymatgen
data_La3Y2P12Ru13Rh6
_symmetry_space_group_name_H-M   'P 1'
_cell_length_a   12.68424200
_cell_length_b   12.68424254
_cell_length_c   4.00379900
_cell_angle_alpha   90.00000000
_cell_angle_beta   90.00000000
_cell_angle_gamma   119.99999338
_symmetry_Int_Tables_number   1
_chemical_formula_structural   La3Y2P12Ru13Rh6
_chemical_formula_sum   'La3 Y2 P12 Ru13 Rh6'
_cell_volume   557.86868588
_cell_formula_units_Z   1
loop_
 _symmetry_equiv_pos_site_id
 _symmetry_equiv_pos_as_xyz
  1  'x, y, z'
loop_
 _atom_site_type_symbol
 _atom_site_label
 _atom_site_symmetry_multiplicity
 _atom_site_fract_x
 _atom_site_fract_y
 _atom_site_fract_z
 _atom_site_occupancy
  La  La0  1  0.999866  0.182155  0.500000  1
  La  La1  1  0.817845  0.817712  0.500000  1
  La  La2  1  0.182288  0.000134  0.500000  1
  Y  Y3  1  0.666667  0.333333  0.000000  1
  Y  Y4  1  0.333333  0.666667  0.000000  1
  P  P5  1  0.002899  0.811827  0.000000  1
  P  P6  1  0.188173  0.191071  0.000000  1
  P  P7  1  0.808929  0.997101  0.000000  1
  P  P8  1  0.690832  0.174420  0.500000  1
  P  P9  1  0.825580  0.516413  0.500000  1
  P  P10  1  0.483587  0.309168  0.500000  1
  P  P11  1  0.178962  0.697651  0.500000  1
  P  P12  1  0.518688  0.821038  0.500000  1
  P  P13  1  0.302349  0.481312  0.500000  1
  P  P14  1  0.004163  0.375237  0.000000  1
  P  P15  1  0.624763  0.628926  0.000000  1
  P  P16  1  0.371074  0.995837  0.000000  1
  Ru  Ru17  1  0.998916  0.707775  0.500000  1
  Ru  Ru18  1  0.292225  0.291140  0.500000  1
  Ru  Ru19  1  0.708860  0.001084  0.500000  1
  Ru  Ru20  1  0.184272  0.800107  0.000000  1
  Ru  Ru21  1  0.615836  0.815728  0.000000  1
  Ru  Ru22  1  0.199893  0.384164  0.000000  1
  Ru  Ru23  1  0.871812  0.362907  0.500000  1
  Ru  Ru24  1  0.637093  0.508905  0.500000  1
  Ru  Ru25  1  0.491095  0.128188  0.500000  1
  Ru  Ru26  1  0.370371  0.876982  0.500000  1
  Ru  Ru27  1  0.506611  0.629629  0.500000  1
  Ru  Ru28  1  0.123018  0.493389  0.500000  1
  Ru  Ru29  1  0.000000  0.000000  0.000000  1
  Rh  Rh30  1  0.992725  0.547975  0.000000  1
  Rh  Rh31  1  0.452025  0.444751  0.000000  1
  Rh  Rh32  1  0.555249  0.007275  0.000000  1
  Rh  Rh33  1  0.806143  0.185808  0.000000  1
  Rh  Rh34  1  0.814192  0.620336  0.000000  1
  Rh  Rh35  1  0.379664  0.193857  0.000000  1
