# generated using pymatgen
data_Tb7Sm(AlRu)8
_symmetry_space_group_name_H-M   'P 1'
_cell_length_a   4.09610300
_cell_length_b   7.03674576
_cell_length_c   16.03009552
_cell_angle_alpha   90.04345915
_cell_angle_beta   90.00000000
_cell_angle_gamma   90.00000000
_symmetry_Int_Tables_number   1
_chemical_formula_structural   Tb7Sm(AlRu)8
_chemical_formula_sum   'Tb7 Sm1 Al8 Ru8'
_cell_volume   462.03908438
_cell_formula_units_Z   1
loop_
 _symmetry_equiv_pos_site_id
 _symmetry_equiv_pos_as_xyz
  1  'x, y, z'
loop_
 _atom_site_type_symbol
 _atom_site_label
 _atom_site_symmetry_multiplicity
 _atom_site_fract_x
 _atom_site_fract_y
 _atom_site_fract_z
 _atom_site_occupancy
  Tb  Tb0  1  0.750000  0.964606  0.219620  1
  Tb  Tb1  1  0.250000  0.161363  0.562265  1
  Tb  Tb2  1  0.750000  0.842572  0.436838  1
  Tb  Tb3  1  0.750000  0.464595  0.280879  1
  Tb  Tb4  1  0.750000  0.338740  0.063082  1
  Tb  Tb5  1  0.250000  0.657203  0.937718  1
  Tb  Tb6  1  0.250000  0.034976  0.780829  1
  Sm  Sm7  1  0.250000  0.535045  0.720018  1
  Al  Al8  1  0.750000  0.503260  0.563935  1
  Al  Al9  1  0.750000  0.360544  0.850633  1
  Al  Al10  1  0.750000  0.997089  0.935091  1
  Al  Al11  1  0.750000  0.868424  0.649953  1
  Al  Al12  1  0.250000  0.501519  0.434578  1
  Al  Al13  1  0.250000  0.997566  0.065687  1
  Al  Al14  1  0.250000  0.634579  0.151035  1
  Al  Al15  1  0.250000  0.136841  0.349113  1
  Ru  Ru16  1  0.750000  0.747327  0.812713  1
  Ru  Ru17  1  0.250000  0.231366  0.936926  1
  Ru  Ru18  1  0.750000  0.267048  0.436114  1
  Ru  Ru19  1  0.250000  0.753989  0.311918  1
  Ru  Ru20  1  0.750000  0.764027  0.064212  1
  Ru  Ru21  1  0.750000  0.246155  0.686682  1
  Ru  Ru22  1  0.250000  0.253184  0.187521  1
  Ru  Ru23  1  0.250000  0.737982  0.562642  1
