# generated using pymatgen
data_CsVW2O9
_symmetry_space_group_name_H-M   'P 1'
_cell_length_a   3.95752279
_cell_length_b   12.86856127
_cell_length_c   12.79396890
_cell_angle_alpha   59.44873559
_cell_angle_beta   89.89746816
_cell_angle_gamma   90.02056898
_symmetry_Int_Tables_number   1
_chemical_formula_structural   CsVW2O9
_chemical_formula_sum   'Cs3 V3 W6 O27'
_cell_volume   561.11103188
_cell_formula_units_Z   3
loop_
 _symmetry_equiv_pos_site_id
 _symmetry_equiv_pos_as_xyz
  1  'x, y, z'
loop_
 _atom_site_type_symbol
 _atom_site_label
 _atom_site_symmetry_multiplicity
 _atom_site_fract_x
 _atom_site_fract_y
 _atom_site_fract_z
 _atom_site_occupancy
  Cs  Cs0  1  0.973884  0.833367  0.829927  1
  Cs  Cs1  1  0.971325  0.168670  0.170245  1
  Cs  Cs2  1  0.921740  0.496495  0.501379  1
  V  V3  1  0.529293  0.669243  0.669909  1
  V  V4  1  0.528540  0.328091  0.338862  1
  V  V5  1  0.379587  0.172255  0.659211  1
  W  W6  1  0.494266  0.001354  0.504561  1
  W  W7  1  0.492982  0.495308  0.002638  1
  W  W8  1  0.500939  0.001897  0.993646  1
  W  W9  1  0.410546  0.832807  0.337648  1
  W  W10  1  0.411918  0.337812  0.824291  1
  W  W11  1  0.410688  0.660720  0.170845  1
  O  O12  1  0.458946  0.832098  0.623371  1
  O  O13  1  0.459267  0.168439  0.377785  1
  O  O14  1  0.456156  0.378157  0.169736  1
  O  O15  1  0.457116  0.620518  0.832049  1
  O  O16  1  0.964338  0.167911  0.665320  1
  O  O17  1  0.944457  0.833221  0.333865  1
  O  O18  1  0.945249  0.334554  0.830852  1
  O  O19  1  0.944469  0.665613  0.167427  1
  O  O20  1  0.961749  0.999969  0.500658  1
  O  O21  1  0.959869  0.498281  0.000849  1
  O  O22  1  0.453408  0.044709  0.624356  1
  O  O23  1  0.450285  0.959509  0.375105  1
  O  O24  1  0.450974  0.374090  0.958015  1
  O  O25  1  0.450854  0.624249  0.041547  1
  O  O26  1  0.944113  0.667577  0.667386  1
  O  O27  1  0.943642  0.333144  0.334858  1
  O  O28  1  0.450407  0.713043  0.502921  1
  O  O29  1  0.452620  0.284257  0.499921  1
  O  O30  1  0.449788  0.497069  0.290109  1
  O  O31  1  0.452976  0.503168  0.709767  1
  O  O32  1  0.447699  0.291257  0.706142  1
  O  O33  1  0.447230  0.707616  0.292619  1
  O  O34  1  0.461864  0.049136  0.829068  1
  O  O35  1  0.456232  0.954574  0.166218  1
  O  O36  1  0.457328  0.167595  0.955236  1
  O  O37  1  0.456799  0.832422  0.043175  1
  O  O38  1  0.966258  0.999806  0.998482  1
