# generated using pymatgen
data_YbDy4(Cd2Pt)2
_symmetry_space_group_name_H-M   'P 1'
_cell_length_a   3.70247600
_cell_length_b   7.96495600
_cell_length_c   18.23094900
_cell_angle_alpha   90.00000000
_cell_angle_beta   90.00000000
_cell_angle_gamma   90.00000000
_symmetry_Int_Tables_number   1
_chemical_formula_structural   YbDy4(Cd2Pt)2
_chemical_formula_sum   'Yb2 Dy8 Cd8 Pt4'
_cell_volume   537.63175126
_cell_formula_units_Z   2
loop_
 _symmetry_equiv_pos_site_id
 _symmetry_equiv_pos_as_xyz
  1  'x, y, z'
loop_
 _atom_site_type_symbol
 _atom_site_label
 _atom_site_symmetry_multiplicity
 _atom_site_fract_x
 _atom_site_fract_y
 _atom_site_fract_z
 _atom_site_occupancy
  Yb  Yb0  1  0.000000  0.000000  0.000000  1
  Yb  Yb1  1  0.000000  0.500000  0.500000  1
  Dy  Dy2  1  0.000000  0.114091  0.414948  1
  Dy  Dy3  1  0.000000  0.885909  0.585052  1
  Dy  Dy4  1  0.000000  0.385909  0.914948  1
  Dy  Dy5  1  0.000000  0.614091  0.085052  1
  Dy  Dy6  1  0.000000  0.242462  0.218551  1
  Dy  Dy7  1  0.000000  0.757538  0.781449  1
  Dy  Dy8  1  0.000000  0.257538  0.718551  1
  Dy  Dy9  1  0.000000  0.742462  0.281449  1
  Cd  Cd10  1  0.500000  0.426764  0.352473  1
  Cd  Cd11  1  0.500000  0.573236  0.647527  1
  Cd  Cd12  1  0.500000  0.073236  0.852473  1
  Cd  Cd13  1  0.500000  0.926764  0.147527  1
  Cd  Cd14  1  0.500000  0.288343  0.065651  1
  Cd  Cd15  1  0.500000  0.711657  0.934349  1
  Cd  Cd16  1  0.500000  0.211657  0.565651  1
  Cd  Cd17  1  0.500000  0.788343  0.434349  1
  Pt  Pt18  1  0.500000  0.029922  0.303956  1
  Pt  Pt19  1  0.500000  0.970078  0.696044  1
  Pt  Pt20  1  0.500000  0.470078  0.803956  1
  Pt  Pt21  1  0.500000  0.529922  0.196044  1
