# generated using pymatgen
data_Dy4Tm8Tc3Pt
_symmetry_space_group_name_H-M   'P 1'
_cell_length_a   6.25776963
_cell_length_b   7.36581923
_cell_length_c   9.04924500
_cell_angle_alpha   90.00000000
_cell_angle_beta   90.00000000
_cell_angle_gamma   89.96014772
_symmetry_Int_Tables_number   1
_chemical_formula_structural   Dy4Tm8Tc3Pt
_chemical_formula_sum   'Dy4 Tm8 Tc3 Pt1'
_cell_volume   417.11217694
_cell_formula_units_Z   1
loop_
 _symmetry_equiv_pos_site_id
 _symmetry_equiv_pos_as_xyz
  1  'x, y, z'
loop_
 _atom_site_type_symbol
 _atom_site_label
 _atom_site_symmetry_multiplicity
 _atom_site_fract_x
 _atom_site_fract_y
 _atom_site_fract_z
 _atom_site_occupancy
  Dy  Dy0  1  0.875072  0.542091  0.250000  1
  Dy  Dy1  1  0.621014  0.037117  0.250000  1
  Dy  Dy2  1  0.126970  0.456235  0.750000  1
  Dy  Dy3  1  0.373293  0.964972  0.750000  1
  Tm  Tm4  1  0.331440  0.675798  0.066570  1
  Tm  Tm5  1  0.162626  0.177298  0.436231  1
  Tm  Tm6  1  0.664965  0.318685  0.558769  1
  Tm  Tm7  1  0.839139  0.828186  0.940116  1
  Tm  Tm8  1  0.664965  0.318685  0.941231  1
  Tm  Tm9  1  0.839139  0.828186  0.559884  1
  Tm  Tm10  1  0.331440  0.675798  0.433430  1
  Tm  Tm11  1  0.162626  0.177298  0.063769  1
  Tc  Tc12  1  0.039192  0.884441  0.250000  1
  Tc  Tc13  1  0.462821  0.386015  0.250000  1
  Tc  Tc14  1  0.956689  0.115600  0.750000  1
  Pt  Pt15  1  0.548606  0.613596  0.750000  1
