# generated using pymatgen
data_Pr2HoEr5(WO6)4
_symmetry_space_group_name_H-M   'P 1'
_cell_length_a   5.43463300
_cell_length_b   7.75672563
_cell_length_c   11.51902862
_cell_angle_alpha   75.47717594
_cell_angle_beta   90.00000000
_cell_angle_gamma   90.00000000
_symmetry_Int_Tables_number   1
_chemical_formula_structural   Pr2HoEr5(WO6)4
_chemical_formula_sum   'Pr2 Ho1 Er5 W4 O24'
_cell_volume   470.06868631
_cell_formula_units_Z   1
loop_
 _symmetry_equiv_pos_site_id
 _symmetry_equiv_pos_as_xyz
  1  'x, y, z'
loop_
 _atom_site_type_symbol
 _atom_site_label
 _atom_site_symmetry_multiplicity
 _atom_site_fract_x
 _atom_site_fract_y
 _atom_site_fract_z
 _atom_site_occupancy
  Pr  Pr0  1  0.685961  0.500000  0.250000  1
  Pr  Pr1  1  0.313972  0.500000  0.750000  1
  Ho  Ho2  1  0.743028  0.000000  0.250000  1
  Er  Er3  1  0.185390  0.202488  0.423107  1
  Er  Er4  1  0.185390  0.797512  0.076893  1
  Er  Er5  1  0.814672  0.797560  0.576990  1
  Er  Er6  1  0.814672  0.202440  0.923010  1
  Er  Er7  1  0.257043  0.000000  0.750000  1
  W  W8  1  0.254303  0.271350  0.115857  1
  W  W9  1  0.254303  0.728650  0.384143  1
  W  W10  1  0.745670  0.728821  0.884062  1
  W  W11  1  0.745670  0.271179  0.615938  1
  O  O12  1  0.455043  0.203114  0.273978  1
  O  O13  1  0.455043  0.796886  0.226022  1
  O  O14  1  0.544369  0.797320  0.726045  1
  O  O15  1  0.544369  0.202680  0.773955  1
  O  O16  1  0.043180  0.057787  0.103747  1
  O  O17  1  0.043180  0.942213  0.396253  1
  O  O18  1  0.957449  0.942325  0.895955  1
  O  O19  1  0.957449  0.057675  0.604045  1
  O  O20  1  0.986750  0.278425  0.231267  1
  O  O21  1  0.986750  0.721575  0.268733  1
  O  O22  1  0.013388  0.721828  0.768713  1
  O  O23  1  0.013388  0.278172  0.731287  1
  O  O24  1  0.855782  0.357653  0.454549  1
  O  O25  1  0.855782  0.642347  0.045451  1
  O  O26  1  0.144148  0.642268  0.545465  1
  O  O27  1  0.144148  0.357732  0.954535  1
  O  O28  1  0.653716  0.506817  0.612505  1
  O  O29  1  0.653716  0.493183  0.887495  1
  O  O30  1  0.346340  0.493137  0.387534  1
  O  O31  1  0.346340  0.506863  0.112466  1
  O  O32  1  0.463115  0.155089  0.569699  1
  O  O33  1  0.463115  0.844911  0.930301  1
  O  O34  1  0.536682  0.844678  0.430547  1
  O  O35  1  0.536682  0.155322  0.069453  1
