# generated using pymatgen
data_Ti2GaPt2Rh3
_symmetry_space_group_name_H-M   'P 1'
_cell_length_a   4.04546300
_cell_length_b   5.43329500
_cell_length_c   10.76492500
_cell_angle_alpha   90.00000000
_cell_angle_beta   90.00000000
_cell_angle_gamma   90.00000000
_symmetry_Int_Tables_number   1
_chemical_formula_structural   Ti2GaPt2Rh3
_chemical_formula_sum   'Ti4 Ga2 Pt4 Rh6'
_cell_volume   236.61513872
_cell_formula_units_Z   2
loop_
 _symmetry_equiv_pos_site_id
 _symmetry_equiv_pos_as_xyz
  1  'x, y, z'
loop_
 _atom_site_type_symbol
 _atom_site_label
 _atom_site_symmetry_multiplicity
 _atom_site_fract_x
 _atom_site_fract_y
 _atom_site_fract_z
 _atom_site_occupancy
  Ti  Ti0  1  0.500000  0.320751  0.133996  1
  Ti  Ti1  1  0.500000  0.679249  0.866004  1
  Ti  Ti2  1  0.500000  0.820751  0.366004  1
  Ti  Ti3  1  0.500000  0.179249  0.633996  1
  Ga  Ga4  1  0.000000  0.000000  0.000000  1
  Ga  Ga5  1  0.000000  0.500000  0.500000  1
  Pt  Pt6  1  0.000000  0.066047  0.244417  1
  Pt  Pt7  1  0.000000  0.933953  0.755583  1
  Pt  Pt8  1  0.000000  0.566047  0.255583  1
  Pt  Pt9  1  0.000000  0.433953  0.744417  1
  Rh  Rh10  1  0.000000  0.000000  0.500000  1
  Rh  Rh11  1  0.000000  0.500000  0.000000  1
  Rh  Rh12  1  0.500000  0.301610  0.387859  1
  Rh  Rh13  1  0.500000  0.698390  0.612141  1
  Rh  Rh14  1  0.500000  0.801610  0.112141  1
  Rh  Rh15  1  0.500000  0.198390  0.887859  1
