# generated using pymatgen
data_Dy16CdHg3Rh4
_symmetry_space_group_name_H-M   'P 1'
_cell_length_a   9.60740543
_cell_length_b   9.59827955
_cell_length_c   9.60740500
_cell_angle_alpha   59.96854141
_cell_angle_beta   59.99999803
_cell_angle_gamma   59.96854207
_symmetry_Int_Tables_number   1
_chemical_formula_structural   Dy16CdHg3Rh4
_chemical_formula_sum   'Dy16 Cd1 Hg3 Rh4'
_cell_volume   626.15800952
_cell_formula_units_Z   1
loop_
 _symmetry_equiv_pos_site_id
 _symmetry_equiv_pos_as_xyz
  1  'x, y, z'
loop_
 _atom_site_type_symbol
 _atom_site_label
 _atom_site_symmetry_multiplicity
 _atom_site_fract_x
 _atom_site_fract_y
 _atom_site_fract_z
 _atom_site_occupancy
  Dy  Dy0  1  0.563082  0.565290  0.935814  1
  Dy  Dy1  1  0.148743  0.553773  0.148743  1
  Dy  Dy2  1  0.688262  0.312239  0.311237  1
  Dy  Dy3  1  0.935814  0.565290  0.563082  1
  Dy  Dy4  1  0.935814  0.565290  0.935814  1
  Dy  Dy5  1  0.688885  0.688941  0.311087  1
  Dy  Dy6  1  0.563965  0.936131  0.935938  1
  Dy  Dy7  1  0.149620  0.148662  0.149620  1
  Dy  Dy8  1  0.311087  0.688941  0.311087  1
  Dy  Dy9  1  0.552098  0.148662  0.149620  1
  Dy  Dy10  1  0.311237  0.312239  0.688262  1
  Dy  Dy11  1  0.311087  0.688941  0.688885  1
  Dy  Dy12  1  0.149620  0.148662  0.552098  1
  Dy  Dy13  1  0.688262  0.312239  0.688262  1
  Dy  Dy14  1  0.935938  0.936131  0.563965  1
  Dy  Dy15  1  0.563965  0.936131  0.563965  1
  Cd  Cd16  1  0.919649  0.241053  0.919649  1
  Hg  Hg17  1  0.915194  0.917309  0.915194  1
  Hg  Hg18  1  0.252302  0.917309  0.915194  1
  Hg  Hg19  1  0.915194  0.917309  0.252302  1
  Rh  Rh20  1  0.357167  0.357049  0.928616  1
  Rh  Rh21  1  0.357167  0.357049  0.357167  1
  Rh  Rh22  1  0.928616  0.357049  0.357167  1
  Rh  Rh23  1  0.357230  0.928309  0.357230  1
