# generated using pymatgen
data_Ho6ScV(Co4P3)4
_symmetry_space_group_name_H-M   'P 1'
_cell_length_a   3.70705000
_cell_length_b   10.60736600
_cell_length_c   12.28472900
_cell_angle_alpha   90.00000000
_cell_angle_beta   90.00000000
_cell_angle_gamma   90.00000000
_symmetry_Int_Tables_number   1
_chemical_formula_structural   Ho6ScV(Co4P3)4
_chemical_formula_sum   'Ho6 Sc1 V1 Co16 P12'
_cell_volume   483.06055759
_cell_formula_units_Z   1
loop_
 _symmetry_equiv_pos_site_id
 _symmetry_equiv_pos_as_xyz
  1  'x, y, z'
loop_
 _atom_site_type_symbol
 _atom_site_label
 _atom_site_symmetry_multiplicity
 _atom_site_fract_x
 _atom_site_fract_y
 _atom_site_fract_z
 _atom_site_occupancy
  Ho  Ho0  1  0.000000  0.500000  0.527907  1
  Ho  Ho1  1  0.500000  0.000000  0.476618  1
  Ho  Ho2  1  0.500000  0.822234  0.205144  1
  Ho  Ho3  1  0.500000  0.177766  0.205144  1
  Ho  Ho4  1  0.000000  0.681457  0.795524  1
  Ho  Ho5  1  0.000000  0.318543  0.795524  1
  Sc  Sc6  1  0.500000  0.500000  0.154201  1
  V  V7  1  0.000000  0.000000  0.843104  1
  Co  Co8  1  0.000000  0.500000  0.984800  1
  Co  Co9  1  0.500000  0.000000  0.010638  1
  Co  Co10  1  0.500000  0.294420  0.434020  1
  Co  Co11  1  0.500000  0.705580  0.434020  1
  Co  Co12  1  0.000000  0.203108  0.569657  1
  Co  Co13  1  0.000000  0.796892  0.569657  1
  Co  Co14  1  0.500000  0.879458  0.706286  1
  Co  Co15  1  0.500000  0.120542  0.706286  1
  Co  Co16  1  0.000000  0.623031  0.297162  1
  Co  Co17  1  0.000000  0.376969  0.297162  1
  Co  Co18  1  0.500000  0.327645  0.990648  1
  Co  Co19  1  0.500000  0.672355  0.990648  1
  Co  Co20  1  0.000000  0.164106  0.003277  1
  Co  Co21  1  0.000000  0.835894  0.003277  1
  Co  Co22  1  0.500000  0.500000  0.702876  1
  Co  Co23  1  0.000000  0.000000  0.297064  1
  P  P24  1  0.500000  0.309766  0.617108  1
  P  P25  1  0.500000  0.690234  0.617108  1
  P  P26  1  0.000000  0.188718  0.385306  1
  P  P27  1  0.000000  0.811282  0.385306  1
  P  P28  1  0.500000  0.500000  0.883136  1
  P  P29  1  0.000000  0.000000  0.116192  1
  P  P30  1  0.500000  0.847401  0.888585  1
  P  P31  1  0.500000  0.152599  0.888585  1
  P  P32  1  0.000000  0.662158  0.104174  1
  P  P33  1  0.000000  0.337842  0.104174  1
  P  P34  1  0.500000  0.500000  0.358683  1
  P  P35  1  0.000000  0.000000  0.650996  1
