# generated using pymatgen
data_La3Sm2Pb3Se
_symmetry_space_group_name_H-M   'P 1'
_cell_length_a   9.64147900
_cell_length_b   9.64147191
_cell_length_c   7.06494600
_cell_angle_alpha   90.00000000
_cell_angle_beta   90.00000000
_cell_angle_gamma   119.99998340
_symmetry_Int_Tables_number   1
_chemical_formula_structural   La3Sm2Pb3Se
_chemical_formula_sum   'La6 Sm4 Pb6 Se2'
_cell_volume   568.75673308
_cell_formula_units_Z   2
loop_
 _symmetry_equiv_pos_site_id
 _symmetry_equiv_pos_as_xyz
  1  'x, y, z'
loop_
 _atom_site_type_symbol
 _atom_site_label
 _atom_site_symmetry_multiplicity
 _atom_site_fract_x
 _atom_site_fract_y
 _atom_site_fract_z
 _atom_site_occupancy
  La  La0  1  0.748021  0.748035  0.750000  1
  La  La1  1  0.251979  0.000015  0.750000  1
  La  La2  1  0.000000  0.251960  0.750000  1
  La  La3  1  0.251979  0.251965  0.250000  1
  La  La4  1  0.748021  0.999985  0.250000  1
  La  La5  1  0.000000  0.748040  0.250000  1
  Sm  Sm6  1  0.666648  0.333323  0.000000  1
  Sm  Sm7  1  0.333352  0.666677  0.000000  1
  Sm  Sm8  1  0.333352  0.666677  0.500000  1
  Sm  Sm9  1  0.666648  0.333323  0.500000  1
  Pb  Pb10  1  0.396879  0.396878  0.750000  1
  Pb  Pb11  1  0.603121  0.999999  0.750000  1
  Pb  Pb12  1  0.000000  0.603125  0.750000  1
  Pb  Pb13  1  0.603121  0.603122  0.250000  1
  Pb  Pb14  1  0.396879  0.000001  0.250000  1
  Pb  Pb15  1  0.000000  0.396875  0.250000  1
  Se  Se16  1  0.000000  0.000000  0.000000  1
  Se  Se17  1  0.000000  0.000000  0.500000  1
