# generated using pymatgen
data_Tb4Pd2RuPtO14
_symmetry_space_group_name_H-M   'P 1'
_cell_length_a   7.30344689
_cell_length_b   7.25911626
_cell_length_c   7.25911625
_cell_angle_alpha   59.93739886
_cell_angle_beta   60.15649521
_cell_angle_gamma   60.15649021
_symmetry_Int_Tables_number   1
_chemical_formula_structural   Tb4Pd2RuPtO14
_chemical_formula_sum   'Tb4 Pd2 Ru1 Pt1 O14'
_cell_volume   272.64451294
_cell_formula_units_Z   1
loop_
 _symmetry_equiv_pos_site_id
 _symmetry_equiv_pos_as_xyz
  1  'x, y, z'
loop_
 _atom_site_type_symbol
 _atom_site_label
 _atom_site_symmetry_multiplicity
 _atom_site_fract_x
 _atom_site_fract_y
 _atom_site_fract_z
 _atom_site_occupancy
  Tb  Tb0  1  0.625000  0.625000  0.125000  1
  Tb  Tb1  1  0.625000  0.125000  0.625000  1
  Tb  Tb2  1  0.125000  0.625000  0.625000  1
  Tb  Tb3  1  0.625000  0.625000  0.625000  1
  Pd  Pd4  1  0.125000  0.125000  0.625000  1
  Pd  Pd5  1  0.125000  0.625000  0.125000  1
  Ru  Ru6  1  0.625000  0.125000  0.125000  1
  Pt  Pt7  1  0.125000  0.125000  0.125000  1
  O  O8  1  0.749562  0.750262  0.750262  1
  O  O9  1  0.500438  0.499738  0.499738  1
  O  O10  1  0.031717  0.465139  0.035771  1
  O  O11  1  0.785826  0.210811  0.792364  1
  O  O12  1  0.031717  0.035771  0.465139  1
  O  O13  1  0.461953  0.038864  0.038864  1
  O  O14  1  0.031861  0.466184  0.466184  1
  O  O15  1  0.464174  0.457636  0.039189  1
  O  O16  1  0.464174  0.039189  0.457636  1
  O  O17  1  0.218139  0.783816  0.783816  1
  O  O18  1  0.788047  0.211136  0.211136  1
  O  O19  1  0.218283  0.784861  0.214229  1
  O  O20  1  0.785826  0.792364  0.210811  1
  O  O21  1  0.218283  0.214229  0.784861  1
