# generated using pymatgen
data_Hf15Ta(Rh2N)4
_symmetry_space_group_name_H-M   'P 1'
_cell_length_a   8.70906380
_cell_length_b   8.66497040
_cell_length_c   8.66497200
_cell_angle_alpha   60.00000152
_cell_angle_beta   60.16734113
_cell_angle_gamma   60.16734212
_symmetry_Int_Tables_number   1
_chemical_formula_structural   Hf15Ta(Rh2N)4
_chemical_formula_sum   'Hf15 Ta1 Rh8 N4'
_cell_volume   463.53720583
_cell_formula_units_Z   1
loop_
 _symmetry_equiv_pos_site_id
 _symmetry_equiv_pos_as_xyz
  1  'x, y, z'
loop_
 _atom_site_type_symbol
 _atom_site_label
 _atom_site_symmetry_multiplicity
 _atom_site_fract_x
 _atom_site_fract_y
 _atom_site_fract_z
 _atom_site_occupancy
  Hf  Hf0  1  0.625000  0.125000  0.625000  1
  Hf  Hf1  1  0.625000  0.625000  0.125000  1
  Hf  Hf2  1  0.625000  0.625000  0.625000  1
  Hf  Hf3  1  0.816666  0.817127  0.183103  1
  Hf  Hf4  1  0.183346  0.185569  0.815543  1
  Hf  Hf5  1  0.816666  0.183103  0.817127  1
  Hf  Hf6  1  0.183346  0.815543  0.185569  1
  Hf  Hf7  1  0.183346  0.815543  0.815543  1
  Hf  Hf8  1  0.816666  0.183103  0.183103  1
  Hf  Hf9  1  0.433334  0.432873  0.066897  1
  Hf  Hf10  1  0.066654  0.064431  0.434457  1
  Hf  Hf11  1  0.433334  0.066897  0.432873  1
  Hf  Hf12  1  0.066654  0.434457  0.064431  1
  Hf  Hf13  1  0.066654  0.434457  0.434457  1
  Hf  Hf14  1  0.433334  0.066897  0.066897  1
  Ta  Ta15  1  0.125000  0.625000  0.625000  1
  Rh  Rh16  1  0.773931  0.408690  0.408690  1
  Rh  Rh17  1  0.405301  0.767610  0.413544  1
  Rh  Rh18  1  0.405301  0.413544  0.767610  1
  Rh  Rh19  1  0.405301  0.413544  0.413544  1
  Rh  Rh20  1  0.476069  0.841310  0.841310  1
  Rh  Rh21  1  0.844699  0.482390  0.836456  1
  Rh  Rh22  1  0.844699  0.836456  0.482390  1
  Rh  Rh23  1  0.844699  0.836456  0.836456  1
  N  N24  1  0.625000  0.125000  0.125000  1
  N  N25  1  0.125000  0.625000  0.125000  1
  N  N26  1  0.125000  0.125000  0.625000  1
  N  N27  1  0.125000  0.125000  0.125000  1
