# generated using pymatgen
data_DyPu3S4
_symmetry_space_group_name_H-M   'P 1'
_cell_length_a   3.95546700
_cell_length_b   5.58759600
_cell_length_c   7.87164200
_cell_angle_alpha   90.00000000
_cell_angle_beta   90.00000000
_cell_angle_gamma   90.00000000
_symmetry_Int_Tables_number   1
_chemical_formula_structural   DyPu3S4
_chemical_formula_sum   'Dy1 Pu3 S4'
_cell_volume   173.97550174
_cell_formula_units_Z   1
loop_
 _symmetry_equiv_pos_site_id
 _symmetry_equiv_pos_as_xyz
  1  'x, y, z'
loop_
 _atom_site_type_symbol
 _atom_site_label
 _atom_site_symmetry_multiplicity
 _atom_site_fract_x
 _atom_site_fract_y
 _atom_site_fract_z
 _atom_site_occupancy
  Dy  Dy0  1  0.000000  0.000000  0.000000  1
  Pu  Pu1  1  0.500000  0.500000  0.248988  1
  Pu  Pu2  1  0.000000  0.000000  0.500000  1
  Pu  Pu3  1  0.500000  0.500000  0.751012  1
  S  S4  1  0.000000  0.500000  0.500000  1
  S  S5  1  0.500000  0.000000  0.752389  1
  S  S6  1  0.000000  0.500000  0.000000  1
  S  S7  1  0.500000  0.000000  0.247611  1
