# generated using pymatgen
data_Rb3Li2NbAs3
_symmetry_space_group_name_H-M   'P 1'
_cell_length_a   10.22213274
_cell_length_b   10.22213312
_cell_length_c   16.13940300
_cell_angle_alpha   90.00000000
_cell_angle_beta   90.00000000
_cell_angle_gamma   142.50238280
_symmetry_Int_Tables_number   1
_chemical_formula_structural   Rb3Li2NbAs3
_chemical_formula_sum   'Rb12 Li8 Nb4 As12'
_cell_volume   1026.58308346
_cell_formula_units_Z   4
loop_
 _symmetry_equiv_pos_site_id
 _symmetry_equiv_pos_as_xyz
  1  'x, y, z'
loop_
 _atom_site_type_symbol
 _atom_site_label
 _atom_site_symmetry_multiplicity
 _atom_site_fract_x
 _atom_site_fract_y
 _atom_site_fract_z
 _atom_site_occupancy
  Rb  Rb0  1  0.607567  0.945920  0.829323  1
  Rb  Rb1  1  0.284194  0.284194  0.318297  1
  Rb  Rb2  1  0.215806  0.215806  0.818297  1
  Rb  Rb3  1  0.715806  0.715806  0.681703  1
  Rb  Rb4  1  0.445920  0.107567  0.670677  1
  Rb  Rb5  1  0.892433  0.554080  0.329323  1
  Rb  Rb6  1  0.054080  0.392433  0.170677  1
  Rb  Rb7  1  0.392433  0.054080  0.170677  1
  Rb  Rb8  1  0.554080  0.892433  0.329323  1
  Rb  Rb9  1  0.107567  0.445920  0.670677  1
  Rb  Rb10  1  0.945920  0.607567  0.829323  1
  Rb  Rb11  1  0.784194  0.784194  0.181703  1
  Li  Li12  1  0.082120  0.917880  0.000000  1
  Li  Li13  1  0.582120  0.417880  0.500000  1
  Li  Li14  1  0.917880  0.082120  0.000000  1
  Li  Li15  1  0.749399  0.250601  0.000000  1
  Li  Li16  1  0.750601  0.249399  0.500000  1
  Li  Li17  1  0.250601  0.749399  0.000000  1
  Li  Li18  1  0.249399  0.750601  0.500000  1
  Li  Li19  1  0.417880  0.582120  0.500000  1
  Nb  Nb20  1  0.082738  0.917262  0.500000  1
  Nb  Nb21  1  0.417262  0.582738  0.000000  1
  Nb  Nb22  1  0.917262  0.082738  0.500000  1
  Nb  Nb23  1  0.582738  0.417262  0.000000  1
  As  As24  1  0.066707  0.385549  0.413532  1
  As  As25  1  0.885549  0.566707  0.086468  1
  As  As26  1  0.433293  0.114451  0.913532  1
  As  As27  1  0.614451  0.933293  0.586468  1
  As  As28  1  0.933293  0.614451  0.586468  1
  As  As29  1  0.114451  0.433293  0.913532  1
  As  As30  1  0.566707  0.885549  0.086468  1
  As  As31  1  0.385549  0.066707  0.413532  1
  As  As32  1  0.224790  0.224790  0.587205  1
  As  As33  1  0.724790  0.724790  0.912795  1
  As  As34  1  0.275210  0.275210  0.087205  1
  As  As35  1  0.775210  0.775210  0.412795  1
