# generated using pymatgen
data_Nd4Sc6Ga5Si3
_symmetry_space_group_name_H-M   'P 1'
_cell_length_a   7.36457981
_cell_length_b   7.56668726
_cell_length_c   14.54295250
_cell_angle_alpha   89.98209885
_cell_angle_beta   89.90174978
_cell_angle_gamma   89.89507210
_symmetry_Int_Tables_number   1
_chemical_formula_structural   Nd4Sc6Ga5Si3
_chemical_formula_sum   'Nd8 Sc12 Ga10 Si6'
_cell_volume   810.41030608
_cell_formula_units_Z   2
loop_
 _symmetry_equiv_pos_site_id
 _symmetry_equiv_pos_as_xyz
  1  'x, y, z'
loop_
 _atom_site_type_symbol
 _atom_site_label
 _atom_site_symmetry_multiplicity
 _atom_site_fract_x
 _atom_site_fract_y
 _atom_site_fract_z
 _atom_site_occupancy
  Nd  Nd0  1  0.988642  0.675951  0.599200  1
  Nd  Nd1  1  0.010932  0.324696  0.401627  1
  Nd  Nd2  1  0.510314  0.175743  0.401152  1
  Nd  Nd3  1  0.013223  0.326498  0.097207  1
  Nd  Nd4  1  0.489112  0.826444  0.600345  1
  Nd  Nd5  1  0.989798  0.677027  0.902253  1
  Nd  Nd6  1  0.487953  0.825073  0.901067  1
  Nd  Nd7  1  0.510757  0.177302  0.097976  1
  Sc  Sc8  1  0.166921  0.997131  0.749821  1
  Sc  Sc9  1  0.837378  0.004431  0.249740  1
  Sc  Sc10  1  0.336329  0.495005  0.248245  1
  Sc  Sc11  1  0.662545  0.500816  0.749704  1
  Sc  Sc12  1  0.333731  0.326920  0.626446  1
  Sc  Sc13  1  0.669790  0.670618  0.375984  1
  Sc  Sc14  1  0.169239  0.829067  0.375558  1
  Sc  Sc15  1  0.666022  0.671480  0.123712  1
  Sc  Sc16  1  0.825948  0.170970  0.625824  1
  Sc  Sc17  1  0.332413  0.326891  0.875276  1
  Sc  Sc18  1  0.825943  0.170016  0.874588  1
  Sc  Sc19  1  0.174016  0.826590  0.122689  1
  Ga  Ga20  1  0.033560  0.377095  0.750806  1
  Ga  Ga21  1  0.966068  0.622393  0.249549  1
  Ga  Ga22  1  0.466804  0.878830  0.249551  1
  Ga  Ga23  1  0.156417  0.041064  0.541295  1
  Ga  Ga24  1  0.842632  0.961399  0.459533  1
  Ga  Ga25  1  0.342260  0.539102  0.459580  1
  Ga  Ga26  1  0.842648  0.961947  0.041320  1
  Ga  Ga27  1  0.656852  0.460941  0.541021  1
  Ga  Ga28  1  0.155013  0.039833  0.958770  1
  Ga  Ga29  1  0.655486  0.461636  0.959493  1
  Si  Si30  1  0.535312  0.120856  0.750423  1
  Si  Si31  1  0.287568  0.618030  0.750578  1
  Si  Si32  1  0.713325  0.381729  0.249241  1
  Si  Si33  1  0.212244  0.118059  0.249455  1
  Si  Si34  1  0.786202  0.881435  0.750582  1
  Si  Si35  1  0.346602  0.536981  0.040386  1
