# generated using pymatgen
data_NdY(ScBi)3
_symmetry_space_group_name_H-M   'P 1'
_cell_length_a   8.03092900
_cell_length_b   9.18059100
_cell_length_c   12.00901100
_cell_angle_alpha   90.00000000
_cell_angle_beta   90.00000000
_cell_angle_gamma   90.00000000
_symmetry_Int_Tables_number   1
_chemical_formula_structural   NdY(ScBi)3
_chemical_formula_sum   'Nd4 Y4 Sc12 Bi12'
_cell_volume   885.40846307
_cell_formula_units_Z   4
loop_
 _symmetry_equiv_pos_site_id
 _symmetry_equiv_pos_as_xyz
  1  'x, y, z'
loop_
 _atom_site_type_symbol
 _atom_site_label
 _atom_site_symmetry_multiplicity
 _atom_site_fract_x
 _atom_site_fract_y
 _atom_site_fract_z
 _atom_site_occupancy
  Nd  Nd0  1  0.182542  0.750000  0.721143  1
  Nd  Nd1  1  0.682542  0.750000  0.778857  1
  Nd  Nd2  1  0.817458  0.250000  0.278857  1
  Nd  Nd3  1  0.317458  0.250000  0.221143  1
  Y  Y4  1  0.348980  0.750000  0.218976  1
  Y  Y5  1  0.848980  0.750000  0.281024  1
  Y  Y6  1  0.651020  0.250000  0.781024  1
  Y  Y7  1  0.151020  0.250000  0.718976  1
  Sc  Sc8  1  0.018380  0.750000  0.989783  1
  Sc  Sc9  1  0.518380  0.750000  0.510217  1
  Sc  Sc10  1  0.981620  0.250000  0.010217  1
  Sc  Sc11  1  0.481620  0.250000  0.489783  1
  Sc  Sc12  1  0.308541  0.432319  0.942032  1
  Sc  Sc13  1  0.808541  0.067681  0.557968  1
  Sc  Sc14  1  0.691459  0.932319  0.057968  1
  Sc  Sc15  1  0.191459  0.567681  0.442032  1
  Sc  Sc16  1  0.691459  0.567681  0.057968  1
  Sc  Sc17  1  0.191459  0.932319  0.442032  1
  Sc  Sc18  1  0.308541  0.067681  0.942032  1
  Sc  Sc19  1  0.808541  0.432319  0.557968  1
  Bi  Bi20  1  0.437553  0.007642  0.663215  1
  Bi  Bi21  1  0.937553  0.492358  0.836785  1
  Bi  Bi22  1  0.562447  0.507642  0.336785  1
  Bi  Bi23  1  0.062447  0.992358  0.163215  1
  Bi  Bi24  1  0.562447  0.992358  0.336785  1
  Bi  Bi25  1  0.062447  0.507642  0.163215  1
  Bi  Bi26  1  0.437553  0.492358  0.663215  1
  Bi  Bi27  1  0.937553  0.007642  0.836785  1
  Bi  Bi28  1  0.402099  0.750000  0.963758  1
  Bi  Bi29  1  0.902099  0.750000  0.536242  1
  Bi  Bi30  1  0.597901  0.250000  0.036242  1
  Bi  Bi31  1  0.097901  0.250000  0.463758  1
