# generated using pymatgen
data_Y4Ho3Sn23Rh6
_symmetry_space_group_name_H-M   'P 1'
_cell_length_a   9.86612700
_cell_length_b   9.86612708
_cell_length_c   10.10500200
_cell_angle_alpha   90.00000000
_cell_angle_beta   90.00000000
_cell_angle_gamma   119.99999638
_symmetry_Int_Tables_number   1
_chemical_formula_structural   Y4Ho3Sn23Rh6
_chemical_formula_sum   'Y4 Ho3 Sn23 Rh6'
_cell_volume   851.84476335
_cell_formula_units_Z   1
loop_
 _symmetry_equiv_pos_site_id
 _symmetry_equiv_pos_as_xyz
  1  'x, y, z'
loop_
 _atom_site_type_symbol
 _atom_site_label
 _atom_site_symmetry_multiplicity
 _atom_site_fract_x
 _atom_site_fract_y
 _atom_site_fract_z
 _atom_site_occupancy
  Y  Y0  1  0.000000  0.000000  0.000921  1
  Y  Y1  1  0.521340  0.478660  0.691852  1
  Y  Y2  1  0.521340  0.042680  0.691852  1
  Y  Y3  1  0.957320  0.478660  0.691852  1
  Ho  Ho4  1  0.040979  0.520490  0.307348  1
  Ho  Ho5  1  0.479510  0.959021  0.307348  1
  Ho  Ho6  1  0.479510  0.520490  0.307348  1
  Sn  Sn7  1  0.666667  0.333333  0.179415  1
  Sn  Sn8  1  0.666667  0.333333  0.879866  1
  Sn  Sn9  1  0.333333  0.666667  0.122511  1
  Sn  Sn10  1  0.351207  0.351180  0.000084  1
  Sn  Sn11  1  0.999974  0.648793  0.000084  1
  Sn  Sn12  1  0.648820  0.000026  0.000084  1
  Sn  Sn13  1  0.648820  0.648793  0.000084  1
  Sn  Sn14  1  0.333333  0.666667  0.820798  1
  Sn  Sn15  1  0.444083  0.222042  0.454768  1
  Sn  Sn16  1  0.222435  0.777565  0.544463  1
  Sn  Sn17  1  0.222435  0.444869  0.544463  1
  Sn  Sn18  1  0.555131  0.777565  0.544463  1
  Sn  Sn19  1  0.120128  0.879872  0.281676  1
  Sn  Sn20  1  0.777958  0.555917  0.454768  1
  Sn  Sn21  1  0.777958  0.222042  0.454768  1
  Sn  Sn22  1  0.351207  0.000026  0.000084  1
  Sn  Sn23  1  0.120128  0.240256  0.281676  1
  Sn  Sn24  1  0.759744  0.879872  0.281676  1
  Sn  Sn25  1  0.238361  0.119180  0.718570  1
  Sn  Sn26  1  0.880820  0.761639  0.718570  1
  Sn  Sn27  1  0.880820  0.119180  0.718570  1
  Sn  Sn28  1  0.000000  0.000000  0.499310  1
  Sn  Sn29  1  0.999974  0.351180  0.000084  1
  Rh  Rh30  1  0.168523  0.831477  0.801863  1
  Rh  Rh31  1  0.168523  0.337047  0.801863  1
  Rh  Rh32  1  0.662953  0.831477  0.801863  1
  Rh  Rh33  1  0.336858  0.168429  0.198353  1
  Rh  Rh34  1  0.831571  0.663142  0.198353  1
  Rh  Rh35  1  0.831571  0.168429  0.198353  1
