# generated using pymatgen
data_LiTb16Cd3Pd4
_symmetry_space_group_name_H-M   'P 1'
_cell_length_a   9.74270874
_cell_length_b   9.74270825
_cell_length_c   9.74270861
_cell_angle_alpha   59.85555011
_cell_angle_beta   59.85555419
_cell_angle_gamma   59.85554900
_symmetry_Int_Tables_number   1
_chemical_formula_structural   LiTb16Cd3Pd4
_chemical_formula_sum   'Li1 Tb16 Cd3 Pd4'
_cell_volume   651.77573022
_cell_formula_units_Z   1
loop_
 _symmetry_equiv_pos_site_id
 _symmetry_equiv_pos_as_xyz
  1  'x, y, z'
loop_
 _atom_site_type_symbol
 _atom_site_label
 _atom_site_symmetry_multiplicity
 _atom_site_fract_x
 _atom_site_fract_y
 _atom_site_fract_z
 _atom_site_occupancy
  Li  Li0  1  0.573101  0.573101  0.573101  1
  Tb  Tb1  1  0.351149  0.351149  0.351149  1
  Tb  Tb2  1  0.354271  0.354271  0.938831  1
  Tb  Tb3  1  0.354271  0.938831  0.354271  1
  Tb  Tb4  1  0.938831  0.354271  0.354271  1
  Tb  Tb5  1  0.809932  0.192429  0.192429  1
  Tb  Tb6  1  0.188077  0.812911  0.812911  1
  Tb  Tb7  1  0.192429  0.809932  0.192429  1
  Tb  Tb8  1  0.812911  0.188077  0.812911  1
  Tb  Tb9  1  0.192429  0.192429  0.809932  1
  Tb  Tb10  1  0.812911  0.812911  0.188077  1
  Tb  Tb11  1  0.935135  0.565988  0.565988  1
  Tb  Tb12  1  0.563984  0.935130  0.935130  1
  Tb  Tb13  1  0.565988  0.935135  0.565988  1
  Tb  Tb14  1  0.935130  0.563984  0.935130  1
  Tb  Tb15  1  0.565988  0.565988  0.935135  1
  Tb  Tb16  1  0.935130  0.935130  0.563984  1
  Cd  Cd17  1  0.582059  0.582059  0.253963  1
  Cd  Cd18  1  0.582059  0.253963  0.582059  1
  Cd  Cd19  1  0.253963  0.582059  0.582059  1
  Pd  Pd20  1  0.145685  0.145685  0.145685  1
  Pd  Pd21  1  0.143451  0.143451  0.567665  1
  Pd  Pd22  1  0.143451  0.567665  0.143451  1
  Pd  Pd23  1  0.567665  0.143451  0.143451  1
