# generated using pymatgen
data_Li7Nd8ZnSn8
_symmetry_space_group_name_H-M   'P 1'
_cell_length_a   9.54745800
_cell_length_b   9.54870162
_cell_length_c   7.63575714
_cell_angle_alpha   89.98120245
_cell_angle_beta   90.00000000
_cell_angle_gamma   119.99569180
_symmetry_Int_Tables_number   1
_chemical_formula_structural   Li7Nd8ZnSn8
_chemical_formula_sum   'Li7 Nd8 Zn1 Sn8'
_cell_volume   602.88383396
_cell_formula_units_Z   1
loop_
 _symmetry_equiv_pos_site_id
 _symmetry_equiv_pos_as_xyz
  1  'x, y, z'
loop_
 _atom_site_type_symbol
 _atom_site_label
 _atom_site_symmetry_multiplicity
 _atom_site_fract_x
 _atom_site_fract_y
 _atom_site_fract_z
 _atom_site_occupancy
  Li  Li0  1  0.165415  0.832287  0.288816  1
  Li  Li1  1  0.666872  0.832287  0.288816  1
  Li  Li2  1  0.833055  0.666109  0.787619  1
  Li  Li3  1  0.832495  0.166502  0.787936  1
  Li  Li4  1  0.334007  0.166502  0.787936  1
  Li  Li5  1  0.334028  0.668058  0.672627  1
  Li  Li6  1  0.667781  0.335562  0.170467  1
  Nd  Nd7  1  0.511867  0.023735  0.497755  1
  Nd  Nd8  1  0.511400  0.488270  0.494582  1
  Nd  Nd9  1  0.976869  0.488270  0.494582  1
  Nd  Nd10  1  0.488508  0.977015  0.991780  1
  Nd  Nd11  1  0.487884  0.511209  0.993903  1
  Nd  Nd12  1  0.023326  0.511209  0.993903  1
  Nd  Nd13  1  0.999558  0.999117  0.498885  1
  Nd  Nd14  1  0.000373  0.000746  0.998027  1
  Zn  Zn15  1  0.166826  0.333653  0.293076  1
  Sn  Sn16  1  0.166418  0.332838  0.727552  1
  Sn  Sn17  1  0.165961  0.833032  0.729287  1
  Sn  Sn18  1  0.667070  0.833032  0.729287  1
  Sn  Sn19  1  0.833597  0.667193  0.229729  1
  Sn  Sn20  1  0.832826  0.166070  0.228086  1
  Sn  Sn21  1  0.333245  0.166070  0.228086  1
  Sn  Sn22  1  0.333767  0.667535  0.263640  1
  Sn  Sn23  1  0.666852  0.333702  0.765595  1
