# generated using pymatgen
data_Eu4Ga18(IrRh)3
_symmetry_space_group_name_H-M   'P 1'
_cell_length_a   7.60399962
_cell_length_b   7.60399970
_cell_length_c   9.78511702
_cell_angle_alpha   89.99633252
_cell_angle_beta   89.99632767
_cell_angle_gamma   119.24247378
_symmetry_Int_Tables_number   1
_chemical_formula_structural   Eu4Ga18(IrRh)3
_chemical_formula_sum   'Eu4 Ga18 Ir3 Rh3'
_cell_volume   493.68006351
_cell_formula_units_Z   1
loop_
 _symmetry_equiv_pos_site_id
 _symmetry_equiv_pos_as_xyz
  1  'x, y, z'
loop_
 _atom_site_type_symbol
 _atom_site_label
 _atom_site_symmetry_multiplicity
 _atom_site_fract_x
 _atom_site_fract_y
 _atom_site_fract_z
 _atom_site_occupancy
  Eu  Eu0  1  0.002647  0.330536  0.750257  1
  Eu  Eu1  1  0.997878  0.669835  0.249557  1
  Eu  Eu2  1  0.330165  0.002122  0.750443  1
  Eu  Eu3  1  0.669464  0.997353  0.249743  1
  Ga  Ga4  1  0.666220  0.665564  0.441260  1
  Ga  Ga5  1  0.333969  0.333945  0.941424  1
  Ga  Ga6  1  0.666055  0.666031  0.058576  1
  Ga  Ga7  1  0.334436  0.333780  0.558740  1
  Ga  Ga8  1  0.002972  0.334781  0.424982  1
  Ga  Ga9  1  0.996867  0.665267  0.925369  1
  Ga  Ga10  1  0.334733  0.003133  0.074631  1
  Ga  Ga11  1  0.665219  0.997028  0.575018  1
  Ga  Ga12  1  0.996031  0.664953  0.574673  1
  Ga  Ga13  1  0.002769  0.334608  0.074846  1
  Ga  Ga14  1  0.665392  0.997231  0.925154  1
  Ga  Ga15  1  0.335047  0.003969  0.425327  1
  Ga  Ga16  1  0.128237  0.128336  0.250014  1
  Ga  Ga17  1  0.871664  0.871763  0.749986  1
  Ga  Ga18  1  0.663379  0.455797  0.749274  1
  Ga  Ga19  1  0.336831  0.543620  0.249952  1
  Ga  Ga20  1  0.456380  0.663169  0.750048  1
  Ga  Ga21  1  0.544203  0.336621  0.250726  1
  Ir  Ir22  1  0.329127  0.670873  0.000000  1
  Ir  Ir23  1  0.329279  0.670721  0.500000  1
  Ir  Ir24  1  0.670623  0.329377  0.000000  1
  Rh  Rh25  1  0.000107  0.999893  0.500000  1
  Rh  Rh26  1  0.999896  0.000104  0.000000  1
  Rh  Rh27  1  0.670410  0.329590  0.500000  1
