# generated using pymatgen
data_Ti4In2Pt3Au
_symmetry_space_group_name_H-M   'P 1'
_cell_length_a   7.33301042
_cell_length_b   7.33301109
_cell_length_c   6.59944100
_cell_angle_alpha   90.00000000
_cell_angle_beta   90.00000000
_cell_angle_gamma   90.42488689
_symmetry_Int_Tables_number   1
_chemical_formula_structural   Ti4In2Pt3Au
_chemical_formula_sum   'Ti8 In4 Pt6 Au2'
_cell_volume   354.86229147
_cell_formula_units_Z   2
loop_
 _symmetry_equiv_pos_site_id
 _symmetry_equiv_pos_as_xyz
  1  'x, y, z'
loop_
 _atom_site_type_symbol
 _atom_site_label
 _atom_site_symmetry_multiplicity
 _atom_site_fract_x
 _atom_site_fract_y
 _atom_site_fract_z
 _atom_site_occupancy
  Ti  Ti0  1  0.130838  0.165741  0.000000  1
  Ti  Ti1  1  0.834259  0.869162  0.000000  1
  Ti  Ti2  1  0.649206  0.350794  0.500000  1
  Ti  Ti3  1  0.366585  0.633415  0.500000  1
  Ti  Ti4  1  0.686897  0.313103  0.000000  1
  Ti  Ti5  1  0.329312  0.670688  0.000000  1
  Ti  Ti6  1  0.803299  0.814768  0.500000  1
  Ti  Ti7  1  0.185232  0.196701  0.500000  1
  In  In8  1  0.500267  0.000386  0.250155  1
  In  In9  1  0.500267  0.000386  0.749845  1
  In  In10  1  0.999614  0.499733  0.250155  1
  In  In11  1  0.999614  0.499733  0.749845  1
  Pt  Pt12  1  0.369277  0.364608  0.214711  1
  Pt  Pt13  1  0.635392  0.630723  0.785289  1
  Pt  Pt14  1  0.635392  0.630723  0.214711  1
  Pt  Pt15  1  0.868556  0.131444  0.713865  1
  Pt  Pt16  1  0.868556  0.131444  0.286135  1
  Pt  Pt17  1  0.369277  0.364608  0.785289  1
  Au  Au18  1  0.134080  0.865920  0.280483  1
  Au  Au19  1  0.134080  0.865920  0.719517  1
