# generated using pymatgen
data_Th(Mo3S4)2
_symmetry_space_group_name_H-M   'P 1'
_cell_length_a   6.51648407
_cell_length_b   6.51822140
_cell_length_c   6.51457043
_cell_angle_alpha   88.72948052
_cell_angle_beta   88.93296571
_cell_angle_gamma   88.96120673
_symmetry_Int_Tables_number   1
_chemical_formula_structural   Th(Mo3S4)2
_chemical_formula_sum   'Th1 Mo6 S8'
_cell_volume   276.55270069
_cell_formula_units_Z   1
loop_
 _symmetry_equiv_pos_site_id
 _symmetry_equiv_pos_as_xyz
  1  'x, y, z'
loop_
 _atom_site_type_symbol
 _atom_site_label
 _atom_site_symmetry_multiplicity
 _atom_site_fract_x
 _atom_site_fract_y
 _atom_site_fract_z
 _atom_site_occupancy
  Th  Th0  1  0.000076  0.999458  0.000564  1
  Mo  Mo1  1  0.775256  0.437449  0.578677  1
  Mo  Mo2  1  0.438035  0.578155  0.775129  1
  Mo  Mo3  1  0.578867  0.775373  0.437512  1
  Mo  Mo4  1  0.224784  0.562678  0.421290  1
  Mo  Mo5  1  0.561938  0.421961  0.224786  1
  Mo  Mo6  1  0.421184  0.224809  0.562408  1
  S  S7  1  0.630867  0.246134  0.873380  1
  S  S8  1  0.752521  0.127884  0.369064  1
  S  S9  1  0.127459  0.368241  0.753083  1
  S  S10  1  0.369369  0.753869  0.126718  1
  S  S11  1  0.759113  0.757592  0.758111  1
  S  S12  1  0.240945  0.242499  0.241808  1
  S  S13  1  0.246925  0.872245  0.631142  1
  S  S14  1  0.872661  0.631652  0.246328  1
