# generated using pymatgen
data_Sc4Ti2B4Ir7Ru3
_symmetry_space_group_name_H-M   'P 1'
_cell_length_a   9.50591536
_cell_length_b   9.50193236
_cell_length_c   3.03542500
_cell_angle_alpha   90.00000000
_cell_angle_beta   90.00000000
_cell_angle_gamma   90.03134292
_symmetry_Int_Tables_number   1
_chemical_formula_structural   Sc4Ti2B4Ir7Ru3
_chemical_formula_sum   'Sc4 Ti2 B4 Ir7 Ru3'
_cell_volume   274.17340074
_cell_formula_units_Z   1
loop_
 _symmetry_equiv_pos_site_id
 _symmetry_equiv_pos_as_xyz
  1  'x, y, z'
loop_
 _atom_site_type_symbol
 _atom_site_label
 _atom_site_symmetry_multiplicity
 _atom_site_fract_x
 _atom_site_fract_y
 _atom_site_fract_z
 _atom_site_occupancy
  Sc  Sc0  1  0.672948  0.173372  0.000000  1
  Sc  Sc1  1  0.174406  0.322403  0.000000  1
  Sc  Sc2  1  0.826681  0.673923  0.000000  1
  Sc  Sc3  1  0.324606  0.830225  0.000000  1
  Ti  Ti4  1  0.005805  0.001941  0.000000  1
  Ti  Ti5  1  0.499207  0.499581  0.000000  1
  B  B6  1  0.374114  0.118323  0.000000  1
  B  B7  1  0.879452  0.378740  0.000000  1
  B  B8  1  0.120078  0.620622  0.000000  1
  B  B9  1  0.621407  0.881016  0.000000  1
  Ir  Ir10  1  0.926655  0.215900  0.500000  1
  Ir  Ir11  1  0.429678  0.283742  0.500000  1
  Ir  Ir12  1  0.715967  0.429679  0.500000  1
  Ir  Ir13  1  0.283642  0.571635  0.500000  1
  Ir  Ir14  1  0.571518  0.716457  0.500000  1
  Ir  Ir15  1  0.070819  0.783014  0.500000  1
  Ir  Ir16  1  0.785293  0.928148  0.500000  1
  Ru  Ru17  1  0.501001  0.000424  0.500000  1
  Ru  Ru18  1  0.216364  0.071943  0.500000  1
  Ru  Ru19  1  0.000362  0.498916  0.500000  1
