# generated using pymatgen
data_Co3SeBrO8
_symmetry_space_group_name_H-M   'P 1'
_cell_length_a   5.71937561
_cell_length_b   6.87659050
_cell_length_c   5.71898000
_cell_angle_alpha   66.67210518
_cell_angle_beta   120.11349918
_cell_angle_gamma   88.93494240
_symmetry_Int_Tables_number   1
_chemical_formula_structural   Co3SeBrO8
_chemical_formula_sum   'Co3 Se1 Br1 O8'
_cell_volume   171.85036872
_cell_formula_units_Z   1
loop_
 _symmetry_equiv_pos_site_id
 _symmetry_equiv_pos_as_xyz
  1  'x, y, z'
loop_
 _atom_site_type_symbol
 _atom_site_label
 _atom_site_symmetry_multiplicity
 _atom_site_fract_x
 _atom_site_fract_y
 _atom_site_fract_z
 _atom_site_occupancy
  Co  Co0  1  0.000000  0.000000  0.500000  1
  Co  Co1  1  0.000000  0.000000  0.000000  1
  Co  Co2  1  0.500000  0.000000  0.000000  1
  Se  Se3  1  0.500000  0.000000  0.500000  1
  Br  Br4  1  0.000000  0.500000  0.500000  1
  O  O5  1  0.392833  0.841005  0.766244  1
  O  O6  1  0.607167  0.158995  0.233756  1
  O  O7  1  0.888645  0.840696  0.270692  1
  O  O8  1  0.111355  0.159304  0.729308  1
  O  O9  1  0.881118  0.841104  0.766329  1
  O  O10  1  0.392603  0.841116  0.277810  1
  O  O11  1  0.118882  0.158896  0.233671  1
  O  O12  1  0.607397  0.158884  0.722190  1
