# generated using pymatgen
data_Sr2VGaF10
_symmetry_space_group_name_H-M   'P 1'
_cell_length_a   5.81533535
_cell_length_b   5.78903768
_cell_length_c   7.94149357
_cell_angle_alpha   70.35127668
_cell_angle_beta   70.15618661
_cell_angle_gamma   71.55896662
_symmetry_Int_Tables_number   1
_chemical_formula_structural   Sr2VGaF10
_chemical_formula_sum   'Sr2 V1 Ga1 F10'
_cell_volume   230.58276523
_cell_formula_units_Z   1
loop_
 _symmetry_equiv_pos_site_id
 _symmetry_equiv_pos_as_xyz
  1  'x, y, z'
loop_
 _atom_site_type_symbol
 _atom_site_label
 _atom_site_symmetry_multiplicity
 _atom_site_fract_x
 _atom_site_fract_y
 _atom_site_fract_z
 _atom_site_occupancy
  Sr  Sr0  1  0.550249  0.457059  0.246204  1
  Sr  Sr1  1  0.449751  0.542941  0.753796  1
  V  V2  1  0.000000  0.000000  0.500000  1
  Ga  Ga3  1  0.000000  0.000000  0.000000  1
  F  F4  1  0.069552  0.929988  0.753869  1
  F  F5  1  0.930448  0.070012  0.246131  1
  F  F6  1  0.202586  0.230819  0.891121  1
  F  F7  1  0.761239  0.790677  0.611808  1
  F  F8  1  0.720908  0.297071  0.528798  1
  F  F9  1  0.709487  0.273687  0.969160  1
  F  F10  1  0.279092  0.702929  0.471202  1
  F  F11  1  0.290513  0.726313  0.030840  1
  F  F12  1  0.238761  0.209323  0.388192  1
  F  F13  1  0.797414  0.769181  0.108879  1
