# generated using pymatgen
data_Pa4ReSn2Pd3
_symmetry_space_group_name_H-M   'P 1'
_cell_length_a   7.79530332
_cell_length_b   7.79530332
_cell_length_c   3.66011900
_cell_angle_alpha   90.00000000
_cell_angle_beta   90.00000000
_cell_angle_gamma   89.36069033
_symmetry_Int_Tables_number   1
_chemical_formula_structural   Pa4ReSn2Pd3
_chemical_formula_sum   'Pa4 Re1 Sn2 Pd3'
_cell_volume   222.39970477
_cell_formula_units_Z   1
loop_
 _symmetry_equiv_pos_site_id
 _symmetry_equiv_pos_as_xyz
  1  'x, y, z'
loop_
 _atom_site_type_symbol
 _atom_site_label
 _atom_site_symmetry_multiplicity
 _atom_site_fract_x
 _atom_site_fract_y
 _atom_site_fract_z
 _atom_site_occupancy
  Pa  Pa0  1  0.670161  0.170161  0.500000  1
  Pa  Pa1  1  0.317759  0.817759  0.500000  1
  Pa  Pa2  1  0.175783  0.340288  0.500000  1
  Pa  Pa3  1  0.840288  0.675783  0.500000  1
  Re  Re4  1  0.128759  0.628759  0.000000  1
  Sn  Sn5  1  0.001842  0.001007  0.000000  1
  Sn  Sn6  1  0.501007  0.501842  0.000000  1
  Pd  Pd7  1  0.864529  0.364529  0.000000  1
  Pd  Pd8  1  0.628013  0.871858  0.000000  1
  Pd  Pd9  1  0.371858  0.128013  0.000000  1
