# generated using pymatgen
data_Dy9Lu(Sn3P)2
_symmetry_space_group_name_H-M   'P 1'
_cell_length_a   9.06275900
_cell_length_b   9.06275916
_cell_length_c   6.65803200
_cell_angle_alpha   90.00000000
_cell_angle_beta   90.00000000
_cell_angle_gamma   119.99999575
_symmetry_Int_Tables_number   1
_chemical_formula_structural   Dy9Lu(Sn3P)2
_chemical_formula_sum   'Dy9 Lu1 Sn6 P2'
_cell_volume   473.58441153
_cell_formula_units_Z   1
loop_
 _symmetry_equiv_pos_site_id
 _symmetry_equiv_pos_as_xyz
  1  'x, y, z'
loop_
 _atom_site_type_symbol
 _atom_site_label
 _atom_site_symmetry_multiplicity
 _atom_site_fract_x
 _atom_site_fract_y
 _atom_site_fract_z
 _atom_site_occupancy
  Dy  Dy0  1  0.333333  0.666667  0.000000  1
  Dy  Dy1  1  0.333333  0.666667  0.500000  1
  Dy  Dy2  1  0.666667  0.333333  0.500000  1
  Dy  Dy3  1  0.758340  0.757853  0.750404  1
  Dy  Dy4  1  0.242147  0.000486  0.750404  1
  Dy  Dy5  1  0.999514  0.241660  0.750404  1
  Dy  Dy6  1  0.242147  0.241660  0.249596  1
  Dy  Dy7  1  0.758340  0.000486  0.249596  1
  Dy  Dy8  1  0.999514  0.757853  0.249596  1
  Lu  Lu9  1  0.666667  0.333333  0.000000  1
  Sn  Sn10  1  0.399829  0.398505  0.751634  1
  Sn  Sn11  1  0.601495  0.001324  0.751634  1
  Sn  Sn12  1  0.998676  0.600171  0.751634  1
  Sn  Sn13  1  0.601495  0.600171  0.248366  1
  Sn  Sn14  1  0.399829  0.001324  0.248366  1
  Sn  Sn15  1  0.998676  0.398505  0.248366  1
  P  P16  1  0.000000  0.000000  0.000000  1
  P  P17  1  0.000000  0.000000  0.500000  1
