# generated using pymatgen
data_Gd3YV2(WO7)2
_symmetry_space_group_name_H-M   'P 1'
_cell_length_a   7.34495033
_cell_length_b   7.28993474
_cell_length_c   7.34403722
_cell_angle_alpha   60.30909045
_cell_angle_beta   60.68701714
_cell_angle_gamma   60.19248047
_symmetry_Int_Tables_number   1
_chemical_formula_structural   Gd3YV2(WO7)2
_chemical_formula_sum   'Gd3 Y1 V2 W2 O14'
_cell_volume   280.53614586
_cell_formula_units_Z   1
loop_
 _symmetry_equiv_pos_site_id
 _symmetry_equiv_pos_as_xyz
  1  'x, y, z'
loop_
 _atom_site_type_symbol
 _atom_site_label
 _atom_site_symmetry_multiplicity
 _atom_site_fract_x
 _atom_site_fract_y
 _atom_site_fract_z
 _atom_site_occupancy
  Gd  Gd0  1  0.000000  0.500000  0.500000  1
  Gd  Gd1  1  0.500000  0.000000  0.500000  1
  Gd  Gd2  1  0.500000  0.500000  0.000000  1
  Y  Y3  1  0.500000  0.500000  0.500000  1
  V  V4  1  0.000000  0.500000  0.000000  1
  V  V5  1  0.000000  0.000000  0.000000  1
  W  W6  1  0.500000  0.000000  0.000000  1
  W  W7  1  0.000000  0.000000  0.500000  1
  O  O8  1  0.377468  0.375114  0.376814  1
  O  O9  1  0.622532  0.624886  0.623186  1
  O  O10  1  0.088281  0.672619  0.656453  1
  O  O11  1  0.342509  0.917315  0.913832  1
  O  O12  1  0.668852  0.081965  0.669128  1
  O  O13  1  0.092562  0.074846  0.663706  1
  O  O14  1  0.663585  0.668071  0.094333  1
  O  O15  1  0.087075  0.662953  0.087305  1
  O  O16  1  0.657491  0.082685  0.086168  1
  O  O17  1  0.336415  0.331929  0.905667  1
  O  O18  1  0.907438  0.925154  0.336294  1
  O  O19  1  0.911719  0.327381  0.343547  1
  O  O20  1  0.912925  0.337047  0.912695  1
  O  O21  1  0.331148  0.918035  0.330872  1
