# generated using pymatgen
data_Tb6MnCo16ReP12
_symmetry_space_group_name_H-M   'P 1'
_cell_length_a   3.72434400
_cell_length_b   10.56521700
_cell_length_c   12.26034200
_cell_angle_alpha   90.00000000
_cell_angle_beta   90.00000000
_cell_angle_gamma   90.00000000
_symmetry_Int_Tables_number   1
_chemical_formula_structural   Tb6MnCo16ReP12
_chemical_formula_sum   'Tb6 Mn1 Co16 Re1 P12'
_cell_volume   482.42609836
_cell_formula_units_Z   1
loop_
 _symmetry_equiv_pos_site_id
 _symmetry_equiv_pos_as_xyz
  1  'x, y, z'
loop_
 _atom_site_type_symbol
 _atom_site_label
 _atom_site_symmetry_multiplicity
 _atom_site_fract_x
 _atom_site_fract_y
 _atom_site_fract_z
 _atom_site_occupancy
  Tb  Tb0  1  0.000000  0.500000  0.524137  1
  Tb  Tb1  1  0.500000  0.000000  0.478356  1
  Tb  Tb2  1  0.500000  0.818259  0.205826  1
  Tb  Tb3  1  0.500000  0.181741  0.205826  1
  Tb  Tb4  1  0.000000  0.682128  0.794935  1
  Tb  Tb5  1  0.000000  0.317872  0.794935  1
  Mn  Mn6  1  0.000000  0.000000  0.841439  1
  Co  Co7  1  0.500000  0.500000  0.702253  1
  Co  Co8  1  0.000000  0.000000  0.296910  1
  Co  Co9  1  0.000000  0.500000  0.988297  1
  Co  Co10  1  0.500000  0.000000  0.013832  1
  Co  Co11  1  0.500000  0.332815  0.991171  1
  Co  Co12  1  0.500000  0.667185  0.991171  1
  Co  Co13  1  0.000000  0.167229  0.006014  1
  Co  Co14  1  0.000000  0.832771  0.006014  1
  Co  Co15  1  0.500000  0.296318  0.430608  1
  Co  Co16  1  0.500000  0.703682  0.430608  1
  Co  Co17  1  0.000000  0.203562  0.569248  1
  Co  Co18  1  0.000000  0.796438  0.569248  1
  Co  Co19  1  0.500000  0.878941  0.709155  1
  Co  Co20  1  0.500000  0.121059  0.709155  1
  Co  Co21  1  0.000000  0.620209  0.291325  1
  Co  Co22  1  0.000000  0.379791  0.291325  1
  Re  Re23  1  0.500000  0.500000  0.156577  1
  P  P24  1  0.500000  0.500000  0.881505  1
  P  P25  1  0.000000  0.000000  0.116397  1
  P  P26  1  0.500000  0.500000  0.348498  1
  P  P27  1  0.000000  0.000000  0.655971  1
  P  P28  1  0.500000  0.310079  0.616041  1
  P  P29  1  0.500000  0.689921  0.616041  1
  P  P30  1  0.000000  0.189134  0.384520  1
  P  P31  1  0.000000  0.810866  0.384520  1
  P  P32  1  0.500000  0.848747  0.892476  1
  P  P33  1  0.500000  0.151253  0.892476  1
  P  P34  1  0.000000  0.655215  0.106597  1
  P  P35  1  0.000000  0.344785  0.106597  1
