# generated using pymatgen
data_TbTm7Sc12Si15Ag
_symmetry_space_group_name_H-M   'P 1'
_cell_length_a   7.09578545
_cell_length_b   7.34033341
_cell_length_c   14.01663215
_cell_angle_alpha   89.90724328
_cell_angle_beta   89.53480121
_cell_angle_gamma   90.17322925
_symmetry_Int_Tables_number   1
_chemical_formula_structural   TbTm7Sc12Si15Ag
_chemical_formula_sum   'Tb1 Tm7 Sc12 Si15 Ag1'
_cell_volume   730.03394050
_cell_formula_units_Z   1
loop_
 _symmetry_equiv_pos_site_id
 _symmetry_equiv_pos_as_xyz
  1  'x, y, z'
loop_
 _atom_site_type_symbol
 _atom_site_label
 _atom_site_symmetry_multiplicity
 _atom_site_fract_x
 _atom_site_fract_y
 _atom_site_fract_z
 _atom_site_occupancy
  Tb  Tb0  1  0.011532  0.175157  0.096849  1
  Tm  Tm1  1  0.988032  0.825213  0.903829  1
  Tm  Tm2  1  0.487642  0.677847  0.903712  1
  Tm  Tm3  1  0.989641  0.830312  0.597622  1
  Tm  Tm4  1  0.511819  0.323026  0.096321  1
  Tm  Tm5  1  0.007956  0.171895  0.398712  1
  Tm  Tm6  1  0.510961  0.321826  0.400703  1
  Tm  Tm7  1  0.494509  0.679069  0.599801  1
  Sc  Sc8  1  0.164041  0.502687  0.753126  1
  Sc  Sc9  1  0.836646  0.498330  0.251262  1
  Sc  Sc10  1  0.336721  0.000330  0.249079  1
  Sc  Sc11  1  0.665974  0.995513  0.751298  1
  Sc  Sc12  1  0.343117  0.173392  0.626959  1
  Sc  Sc13  1  0.663381  0.823014  0.373753  1
  Sc  Sc14  1  0.166286  0.675091  0.371770  1
  Sc  Sc15  1  0.668931  0.823877  0.124930  1
  Sc  Sc16  1  0.827021  0.325842  0.625481  1
  Sc  Sc17  1  0.329364  0.175446  0.876016  1
  Sc  Sc18  1  0.830844  0.323277  0.875926  1
  Sc  Sc19  1  0.168695  0.675891  0.125279  1
  Si  Si20  1  0.036740  0.119456  0.749994  1
  Si  Si21  1  0.964352  0.884074  0.248873  1
  Si  Si22  1  0.466352  0.612604  0.248124  1
  Si  Si23  1  0.534499  0.388207  0.752360  1
  Si  Si24  1  0.285904  0.871935  0.751050  1
  Si  Si25  1  0.711087  0.129124  0.248979  1
  Si  Si26  1  0.214829  0.369219  0.248859  1
  Si  Si27  1  0.788918  0.630062  0.752599  1
  Si  Si28  1  0.833167  0.536674  0.459457  1
  Si  Si29  1  0.334613  0.962138  0.461100  1
  Si  Si30  1  0.841643  0.535993  0.038810  1
  Si  Si31  1  0.662109  0.035745  0.537696  1
  Si  Si32  1  0.157224  0.466335  0.961472  1
  Si  Si33  1  0.658223  0.034477  0.960654  1
  Si  Si34  1  0.343089  0.964094  0.039614  1
  Ag  Ag35  1  0.164138  0.462824  0.537932  1
