# generated using pymatgen
data_TmLu2Fe8CoP6
_symmetry_space_group_name_H-M   'P 1'
_cell_length_a   3.67853200
_cell_length_b   10.42632400
_cell_length_c   12.10035200
_cell_angle_alpha   90.00000000
_cell_angle_beta   90.00000000
_cell_angle_gamma   90.00000000
_symmetry_Int_Tables_number   1
_chemical_formula_structural   TmLu2Fe8CoP6
_chemical_formula_sum   'Tm2 Lu4 Fe16 Co2 P12'
_cell_volume   464.09165482
_cell_formula_units_Z   2
loop_
 _symmetry_equiv_pos_site_id
 _symmetry_equiv_pos_as_xyz
  1  'x, y, z'
loop_
 _atom_site_type_symbol
 _atom_site_label
 _atom_site_symmetry_multiplicity
 _atom_site_fract_x
 _atom_site_fract_y
 _atom_site_fract_z
 _atom_site_occupancy
  Tm  Tm0  1  0.000000  0.500000  0.526393  1
  Tm  Tm1  1  0.500000  0.000000  0.473607  1
  Lu  Lu2  1  0.500000  0.820445  0.207154  1
  Lu  Lu3  1  0.500000  0.179555  0.207154  1
  Lu  Lu4  1  0.000000  0.679555  0.792846  1
  Lu  Lu5  1  0.000000  0.320445  0.792846  1
  Fe  Fe6  1  0.500000  0.500000  0.153288  1
  Fe  Fe7  1  0.000000  0.000000  0.846712  1
  Fe  Fe8  1  0.000000  0.500000  0.988467  1
  Fe  Fe9  1  0.500000  0.000000  0.011533  1
  Fe  Fe10  1  0.500000  0.327477  0.996254  1
  Fe  Fe11  1  0.500000  0.672523  0.996254  1
  Fe  Fe12  1  0.000000  0.172523  0.003746  1
  Fe  Fe13  1  0.000000  0.827477  0.003746  1
  Fe  Fe14  1  0.500000  0.298912  0.429850  1
  Fe  Fe15  1  0.500000  0.701088  0.429850  1
  Fe  Fe16  1  0.000000  0.201088  0.570150  1
  Fe  Fe17  1  0.000000  0.798912  0.570150  1
  Fe  Fe18  1  0.500000  0.881508  0.708403  1
  Fe  Fe19  1  0.500000  0.118492  0.708403  1
  Fe  Fe20  1  0.000000  0.618492  0.291597  1
  Fe  Fe21  1  0.000000  0.381508  0.291597  1
  Co  Co22  1  0.500000  0.500000  0.700523  1
  Co  Co23  1  0.000000  0.000000  0.299477  1
  P  P24  1  0.500000  0.500000  0.882930  1
  P  P25  1  0.000000  0.000000  0.117070  1
  P  P26  1  0.500000  0.500000  0.342171  1
  P  P27  1  0.000000  0.000000  0.657829  1
  P  P28  1  0.500000  0.307541  0.615001  1
  P  P29  1  0.500000  0.692459  0.615001  1
  P  P30  1  0.000000  0.192459  0.384999  1
  P  P31  1  0.000000  0.807541  0.384999  1
  P  P32  1  0.500000  0.850308  0.887366  1
  P  P33  1  0.500000  0.149692  0.887366  1
  P  P34  1  0.000000  0.649692  0.112634  1
  P  P35  1  0.000000  0.350308  0.112634  1
