# generated using pymatgen
data_Ce11Pr9Pt16
_symmetry_space_group_name_H-M   'P 1'
_cell_length_a   7.80438634
_cell_length_b   7.90526205
_cell_length_c   15.26266900
_cell_angle_alpha   89.88544840
_cell_angle_beta   89.94703118
_cell_angle_gamma   90.10869813
_symmetry_Int_Tables_number   1
_chemical_formula_structural   Ce11Pr9Pt16
_chemical_formula_sum   'Ce11 Pr9 Pt16'
_cell_volume   941.63735780
_cell_formula_units_Z   1
loop_
 _symmetry_equiv_pos_site_id
 _symmetry_equiv_pos_as_xyz
  1  'x, y, z'
loop_
 _atom_site_type_symbol
 _atom_site_label
 _atom_site_symmetry_multiplicity
 _atom_site_fract_x
 _atom_site_fract_y
 _atom_site_fract_z
 _atom_site_occupancy
  Ce  Ce0  1  0.684871  0.981074  0.250626  1
  Ce  Ce1  1  0.182468  0.519804  0.250544  1
  Ce  Ce2  1  0.815602  0.478870  0.749927  1
  Ce  Ce3  1  0.316709  0.021512  0.749567  1
  Ce  Ce4  1  0.659627  0.838452  0.620984  1
  Ce  Ce5  1  0.161614  0.661661  0.878429  1
  Ce  Ce6  1  0.838781  0.338538  0.378306  1
  Ce  Ce7  1  0.339888  0.160944  0.121983  1
  Ce  Ce8  1  0.339883  0.160447  0.378803  1
  Ce  Ce9  1  0.840105  0.338745  0.122488  1
  Ce  Ce10  1  0.160420  0.661143  0.620260  1
  Pr  Pr11  1  0.660733  0.839230  0.880016  1
  Pr  Pr12  1  0.997607  0.821260  0.405243  1
  Pr  Pr13  1  0.497077  0.678976  0.096483  1
  Pr  Pr14  1  0.501774  0.322072  0.593027  1
  Pr  Pr15  1  0.004615  0.181791  0.906079  1
  Pr  Pr16  1  0.002272  0.178728  0.593120  1
  Pr  Pr17  1  0.503313  0.320488  0.906579  1
  Pr  Pr18  1  0.497985  0.678683  0.404537  1
  Pr  Pr19  1  0.998093  0.821517  0.094770  1
  Pt  Pt20  1  0.814623  0.633270  0.250323  1
  Pt  Pt21  1  0.314791  0.867123  0.250497  1
  Pt  Pt22  1  0.685164  0.135836  0.746708  1
  Pt  Pt23  1  0.182806  0.366842  0.749887  1
  Pt  Pt24  1  0.547151  0.370402  0.250889  1
  Pt  Pt25  1  0.047356  0.130033  0.250775  1
  Pt  Pt26  1  0.956601  0.872600  0.746338  1
  Pt  Pt27  1  0.449926  0.626444  0.746763  1
  Pt  Pt28  1  0.820398  0.536916  0.542430  1
  Pt  Pt29  1  0.311250  0.963938  0.958845  1
  Pt  Pt30  1  0.680807  0.036982  0.455886  1
  Pt  Pt31  1  0.182732  0.464146  0.043375  1
  Pt  Pt32  1  0.179863  0.462838  0.455878  1
  Pt  Pt33  1  0.677491  0.038127  0.049767  1
  Pt  Pt34  1  0.319714  0.962892  0.542720  1
  Pt  Pt35  1  0.825891  0.527680  0.957155  1
