# generated using pymatgen
data_ErMn2(FeP)3
_symmetry_space_group_name_H-M   'P 1'
_cell_length_a   3.64032900
_cell_length_b   10.25425100
_cell_length_c   12.11393700
_cell_angle_alpha   90.00000000
_cell_angle_beta   90.00000000
_cell_angle_gamma   90.00000000
_symmetry_Int_Tables_number   1
_chemical_formula_structural   ErMn2(FeP)3
_chemical_formula_sum   'Er4 Mn8 Fe12 P12'
_cell_volume   452.19930434
_cell_formula_units_Z   4
loop_
 _symmetry_equiv_pos_site_id
 _symmetry_equiv_pos_as_xyz
  1  'x, y, z'
loop_
 _atom_site_type_symbol
 _atom_site_label
 _atom_site_symmetry_multiplicity
 _atom_site_fract_x
 _atom_site_fract_y
 _atom_site_fract_z
 _atom_site_occupancy
  Er  Er0  1  0.250000  0.580690  0.710426  1
  Er  Er1  1  0.250000  0.919310  0.210426  1
  Er  Er2  1  0.750000  0.419310  0.289574  1
  Er  Er3  1  0.750000  0.080690  0.789574  1
  Mn  Mn4  1  0.250000  0.706183  0.991527  1
  Mn  Mn5  1  0.250000  0.793817  0.491527  1
  Mn  Mn6  1  0.750000  0.293817  0.008473  1
  Mn  Mn7  1  0.750000  0.206183  0.508473  1
  Mn  Mn8  1  0.250000  0.408477  0.490676  1
  Mn  Mn9  1  0.250000  0.091523  0.990676  1
  Mn  Mn10  1  0.750000  0.591523  0.509324  1
  Mn  Mn11  1  0.750000  0.908477  0.009324  1
  Fe  Fe12  1  0.250000  0.220231  0.172414  1
  Fe  Fe13  1  0.250000  0.279769  0.672414  1
  Fe  Fe14  1  0.750000  0.779769  0.827586  1
  Fe  Fe15  1  0.750000  0.720231  0.327586  1
  Fe  Fe16  1  0.250000  0.877068  0.695560  1
  Fe  Fe17  1  0.250000  0.622932  0.195560  1
  Fe  Fe18  1  0.750000  0.122932  0.304440  1
  Fe  Fe19  1  0.750000  0.377068  0.804440  1
  Fe  Fe20  1  0.250000  0.462651  0.936022  1
  Fe  Fe21  1  0.250000  0.037349  0.436022  1
  Fe  Fe22  1  0.750000  0.537349  0.063978  1
  Fe  Fe23  1  0.750000  0.962651  0.563978  1
  P  P24  1  0.250000  0.423035  0.113710  1
  P  P25  1  0.250000  0.076965  0.613710  1
  P  P26  1  0.750000  0.576965  0.886290  1
  P  P27  1  0.750000  0.923035  0.386290  1
  P  P28  1  0.250000  0.268132  0.861536  1
  P  P29  1  0.250000  0.231868  0.361536  1
  P  P30  1  0.750000  0.731868  0.138464  1
  P  P31  1  0.750000  0.768132  0.638464  1
  P  P32  1  0.250000  0.602242  0.380645  1
  P  P33  1  0.250000  0.897758  0.880645  1
  P  P34  1  0.750000  0.397758  0.619355  1
  P  P35  1  0.750000  0.102242  0.119355  1
