# generated using pymatgen
data_Yb8IrRhO12
_symmetry_space_group_name_H-M   'P 1'
_cell_length_a   6.44904484
_cell_length_b   6.44904443
_cell_length_c   6.44904505
_cell_angle_alpha   90.52039000
_cell_angle_beta   90.52038253
_cell_angle_gamma   90.52040887
_symmetry_Int_Tables_number   1
_chemical_formula_structural   Yb8IrRhO12
_chemical_formula_sum   'Yb8 Ir1 Rh1 O12'
_cell_volume   268.18353205
_cell_formula_units_Z   1
loop_
 _symmetry_equiv_pos_site_id
 _symmetry_equiv_pos_as_xyz
  1  'x, y, z'
loop_
 _atom_site_type_symbol
 _atom_site_label
 _atom_site_symmetry_multiplicity
 _atom_site_fract_x
 _atom_site_fract_y
 _atom_site_fract_z
 _atom_site_occupancy
  Yb  Yb0  1  0.881273  0.613264  0.257062  1
  Yb  Yb1  1  0.118727  0.386736  0.742938  1
  Yb  Yb2  1  0.257062  0.881273  0.613264  1
  Yb  Yb3  1  0.613264  0.257062  0.881273  1
  Yb  Yb4  1  0.747880  0.747880  0.747880  1
  Yb  Yb5  1  0.386736  0.742938  0.118727  1
  Yb  Yb6  1  0.252120  0.252120  0.252120  1
  Yb  Yb7  1  0.742938  0.118727  0.386736  1
  Ir  Ir8  1  0.000000  0.000000  0.000000  1
  Rh  Rh9  1  0.500000  0.500000  0.500000  1
  O  O10  1  0.440388  0.580847  0.801563  1
  O  O11  1  0.580847  0.801563  0.440388  1
  O  O12  1  0.944928  0.299140  0.071062  1
  O  O13  1  0.559612  0.419153  0.198437  1
  O  O14  1  0.198437  0.559612  0.419153  1
  O  O15  1  0.055072  0.700860  0.928938  1
  O  O16  1  0.801563  0.440388  0.580847  1
  O  O17  1  0.700860  0.928938  0.055072  1
  O  O18  1  0.071062  0.944928  0.299140  1
  O  O19  1  0.928938  0.055072  0.700860  1
  O  O20  1  0.419153  0.198437  0.559612  1
  O  O21  1  0.299140  0.071062  0.944928  1
