# generated using pymatgen
data_Ta3Ti3Co2(BRu2)4
_symmetry_space_group_name_H-M   'P 1'
_cell_length_a   9.15542809
_cell_length_b   9.15543809
_cell_length_c   3.01912100
_cell_angle_alpha   90.00000000
_cell_angle_beta   90.00000000
_cell_angle_gamma   89.89169700
_symmetry_Int_Tables_number   1
_chemical_formula_structural   Ta3Ti3Co2(BRu2)4
_chemical_formula_sum   'Ta3 Ti3 Co2 B4 Ru8'
_cell_volume   253.06817264
_cell_formula_units_Z   1
loop_
 _symmetry_equiv_pos_site_id
 _symmetry_equiv_pos_as_xyz
  1  'x, y, z'
loop_
 _atom_site_type_symbol
 _atom_site_label
 _atom_site_symmetry_multiplicity
 _atom_site_fract_x
 _atom_site_fract_y
 _atom_site_fract_z
 _atom_site_occupancy
  Ta  Ta0  1  0.175836  0.324166  0.000000  1
  Ta  Ta1  1  0.323286  0.822732  0.000000  1
  Ta  Ta2  1  0.677269  0.176714  0.000000  1
  Ti  Ti3  1  0.823633  0.676365  0.000000  1
  Ti  Ti4  1  0.501597  0.500862  0.000000  1
  Ti  Ti5  1  0.999137  0.998404  0.000000  1
  Co  Co6  1  0.499831  0.000170  0.500000  1
  Co  Co7  1  0.999585  0.500415  0.500000  1
  B  B8  1  0.614363  0.885637  0.000000  1
  B  B9  1  0.387047  0.112953  0.000000  1
  B  B10  1  0.112096  0.613517  0.000000  1
  B  B11  1  0.886484  0.387905  0.000000  1
  Ru  Ru12  1  0.564364  0.722275  0.500000  1
  Ru  Ru13  1  0.435779  0.278222  0.500000  1
  Ru  Ru14  1  0.062918  0.777320  0.500000  1
  Ru  Ru15  1  0.936893  0.222300  0.500000  1
  Ru  Ru16  1  0.277700  0.563106  0.500000  1
  Ru  Ru17  1  0.722679  0.437081  0.500000  1
  Ru  Ru18  1  0.221778  0.064221  0.500000  1
  Ru  Ru19  1  0.777725  0.935636  0.500000  1
