# generated using pymatgen
data_Pr6YP12Rh17
_symmetry_space_group_name_H-M   'P 1'
_cell_length_a   3.98826600
_cell_length_b   11.33577200
_cell_length_c   13.06100200
_cell_angle_alpha   90.00000000
_cell_angle_beta   90.00000000
_cell_angle_gamma   90.00000000
_symmetry_Int_Tables_number   1
_chemical_formula_structural   Pr6YP12Rh17
_chemical_formula_sum   'Pr6 Y1 P12 Rh17'
_cell_volume   590.48886760
_cell_formula_units_Z   1
loop_
 _symmetry_equiv_pos_site_id
 _symmetry_equiv_pos_as_xyz
  1  'x, y, z'
loop_
 _atom_site_type_symbol
 _atom_site_label
 _atom_site_symmetry_multiplicity
 _atom_site_fract_x
 _atom_site_fract_y
 _atom_site_fract_z
 _atom_site_occupancy
  Pr  Pr0  1  0.000000  0.500000  0.522925  1
  Pr  Pr1  1  0.500000  0.000000  0.477957  1
  Pr  Pr2  1  0.500000  0.819045  0.206879  1
  Pr  Pr3  1  0.500000  0.180955  0.206879  1
  Pr  Pr4  1  0.000000  0.683039  0.796490  1
  Pr  Pr5  1  0.000000  0.316961  0.796490  1
  Y  Y6  1  0.500000  0.500000  0.155476  1
  P  P7  1  0.500000  0.500000  0.880816  1
  P  P8  1  0.000000  0.000000  0.117366  1
  P  P9  1  0.500000  0.500000  0.361252  1
  P  P10  1  0.000000  0.000000  0.651787  1
  P  P11  1  0.500000  0.310944  0.617774  1
  P  P12  1  0.500000  0.689056  0.617774  1
  P  P13  1  0.000000  0.188599  0.386173  1
  P  P14  1  0.000000  0.811401  0.386173  1
  P  P15  1  0.500000  0.852575  0.889056  1
  P  P16  1  0.500000  0.147425  0.889056  1
  P  P17  1  0.000000  0.663793  0.101376  1
  P  P18  1  0.000000  0.336207  0.101376  1
  Rh  Rh19  1  0.000000  0.000000  0.828539  1
  Rh  Rh20  1  0.500000  0.500000  0.702289  1
  Rh  Rh21  1  0.000000  0.000000  0.297167  1
  Rh  Rh22  1  0.000000  0.500000  0.982213  1
  Rh  Rh23  1  0.500000  0.000000  0.017399  1
  Rh  Rh24  1  0.500000  0.327008  0.988009  1
  Rh  Rh25  1  0.500000  0.672992  0.988009  1
  Rh  Rh26  1  0.000000  0.161673  0.002627  1
  Rh  Rh27  1  0.000000  0.838327  0.002627  1
  Rh  Rh28  1  0.500000  0.287491  0.435921  1
  Rh  Rh29  1  0.500000  0.712509  0.435921  1
  Rh  Rh30  1  0.000000  0.203705  0.572693  1
  Rh  Rh31  1  0.000000  0.796295  0.572693  1
  Rh  Rh32  1  0.500000  0.876960  0.709291  1
  Rh  Rh33  1  0.500000  0.123040  0.709291  1
  Rh  Rh34  1  0.000000  0.626604  0.296117  1
  Rh  Rh35  1  0.000000  0.373396  0.296117  1
