# generated using pymatgen
data_Nd2Dy4TaMoO14
_symmetry_space_group_name_H-M   'P 1'
_cell_length_a   6.49849614
_cell_length_b   6.49849624
_cell_length_c   7.60875870
_cell_angle_alpha   89.78479064
_cell_angle_beta   90.21520810
_cell_angle_gamma   109.22392285
_symmetry_Int_Tables_number   1
_chemical_formula_structural   Nd2Dy4TaMoO14
_chemical_formula_sum   'Nd2 Dy4 Ta1 Mo1 O14'
_cell_volume   303.40089807
_cell_formula_units_Z   1
loop_
 _symmetry_equiv_pos_site_id
 _symmetry_equiv_pos_as_xyz
  1  'x, y, z'
loop_
 _atom_site_type_symbol
 _atom_site_label
 _atom_site_symmetry_multiplicity
 _atom_site_fract_x
 _atom_site_fract_y
 _atom_site_fract_z
 _atom_site_occupancy
  Nd  Nd0  1  0.500000  0.500000  0.500000  1
  Nd  Nd1  1  0.500000  0.500000  0.000000  1
  Dy  Dy2  1  0.000785  0.534431  0.248937  1
  Dy  Dy3  1  0.999215  0.465569  0.751063  1
  Dy  Dy4  1  0.534431  0.000785  0.751063  1
  Dy  Dy5  1  0.465569  0.999215  0.248937  1
  Ta  Ta6  1  0.000000  0.000000  0.000000  1
  Mo  Mo7  1  0.000000  0.000000  0.500000  1
  O  O8  1  0.933764  0.066236  0.750877  1
  O  O9  1  0.066236  0.933764  0.249123  1
  O  O10  1  0.358176  0.641824  0.250276  1
  O  O11  1  0.641824  0.358176  0.749724  1
  O  O12  1  0.363760  0.636240  0.749888  1
  O  O13  1  0.636240  0.363760  0.250112  1
  O  O14  1  0.320512  0.069228  0.968262  1
  O  O15  1  0.679648  0.929114  0.470861  1
  O  O16  1  0.320352  0.070886  0.529139  1
  O  O17  1  0.679488  0.930772  0.031738  1
  O  O18  1  0.070886  0.320352  0.470861  1
  O  O19  1  0.930772  0.679488  0.968262  1
  O  O20  1  0.929114  0.679648  0.529139  1
  O  O21  1  0.069228  0.320512  0.031738  1
