# generated using pymatgen
data_Tb4Ga4Ir3Pt
_symmetry_space_group_name_H-M   'P 1'
_cell_length_a   4.37902800
_cell_length_b   6.86390450
_cell_length_c   7.80137466
_cell_angle_alpha   89.79607864
_cell_angle_beta   90.00000000
_cell_angle_gamma   90.00000000
_symmetry_Int_Tables_number   1
_chemical_formula_structural   Tb4Ga4Ir3Pt
_chemical_formula_sum   'Tb4 Ga4 Ir3 Pt1'
_cell_volume   234.48622713
_cell_formula_units_Z   1
loop_
 _symmetry_equiv_pos_site_id
 _symmetry_equiv_pos_as_xyz
  1  'x, y, z'
loop_
 _atom_site_type_symbol
 _atom_site_label
 _atom_site_symmetry_multiplicity
 _atom_site_fract_x
 _atom_site_fract_y
 _atom_site_fract_z
 _atom_site_occupancy
  Tb  Tb0  1  0.750000  0.523069  0.810645  1
  Tb  Tb1  1  0.250000  0.971445  0.310448  1
  Tb  Tb2  1  0.250000  0.476749  0.186066  1
  Tb  Tb3  1  0.750000  0.022429  0.693122  1
  Ga  Ga4  1  0.750000  0.660242  0.430673  1
  Ga  Ga5  1  0.250000  0.348002  0.570804  1
  Ga  Ga6  1  0.750000  0.152729  0.067411  1
  Ga  Ga7  1  0.250000  0.844131  0.930599  1
  Ir  Ir8  1  0.250000  0.731950  0.609730  1
  Ir  Ir9  1  0.250000  0.230632  0.890391  1
  Ir  Ir10  1  0.750000  0.767720  0.109799  1
  Pt  Pt11  1  0.750000  0.270901  0.390314  1
