# generated using pymatgen
data_Pr4ReCl4
_symmetry_space_group_name_H-M   'P 1'
_cell_length_a   9.08879373
_cell_length_b   9.08879471
_cell_length_c   6.74948823
_cell_angle_alpha   90.09879560
_cell_angle_beta   90.09879962
_cell_angle_gamma   89.66761811
_symmetry_Int_Tables_number   1
_chemical_formula_structural   Pr4ReCl4
_chemical_formula_sum   'Pr8 Re2 Cl8'
_cell_volume   557.53841212
_cell_formula_units_Z   2
loop_
 _symmetry_equiv_pos_site_id
 _symmetry_equiv_pos_as_xyz
  1  'x, y, z'
loop_
 _atom_site_type_symbol
 _atom_site_label
 _atom_site_symmetry_multiplicity
 _atom_site_fract_x
 _atom_site_fract_y
 _atom_site_fract_z
 _atom_site_occupancy
  Pr  Pr0  1  0.105111  0.742162  0.986712  1
  Pr  Pr1  1  0.257838  0.894889  0.513288  1
  Pr  Pr2  1  0.894889  0.257838  0.013288  1
  Pr  Pr3  1  0.742162  0.105111  0.486712  1
  Pr  Pr4  1  0.743310  0.895481  0.000628  1
  Pr  Pr5  1  0.104519  0.256690  0.499372  1
  Pr  Pr6  1  0.256690  0.104519  0.999372  1
  Pr  Pr7  1  0.895481  0.743310  0.500628  1
  Re  Re8  1  0.004551  0.995449  0.250000  1
  Re  Re9  1  0.995449  0.004551  0.750000  1
  Cl  Cl10  1  0.412805  0.823412  0.921589  1
  Cl  Cl11  1  0.176588  0.587195  0.578411  1
  Cl  Cl12  1  0.587195  0.176588  0.078411  1
  Cl  Cl13  1  0.823412  0.412805  0.421589  1
  Cl  Cl14  1  0.821473  0.588216  0.918485  1
  Cl  Cl15  1  0.411784  0.178527  0.581515  1
  Cl  Cl16  1  0.178527  0.411784  0.081515  1
  Cl  Cl17  1  0.588216  0.821473  0.418485  1
