# generated using pymatgen
data_CsCr2Rh3Se8
_symmetry_space_group_name_H-M   'P 1'
_cell_length_a   9.94814047
_cell_length_b   9.94814090
_cell_length_c   8.95294731
_cell_angle_alpha   74.32578673
_cell_angle_beta   74.32578554
_cell_angle_gamma   21.87464163
_symmetry_Int_Tables_number   1
_chemical_formula_structural   CsCr2Rh3Se8
_chemical_formula_sum   'Cs1 Cr2 Rh3 Se8'
_cell_volume   317.37209089
_cell_formula_units_Z   1
loop_
 _symmetry_equiv_pos_site_id
 _symmetry_equiv_pos_as_xyz
  1  'x, y, z'
loop_
 _atom_site_type_symbol
 _atom_site_label
 _atom_site_symmetry_multiplicity
 _atom_site_fract_x
 _atom_site_fract_y
 _atom_site_fract_z
 _atom_site_occupancy
  Cs  Cs0  1  0.500000  0.500000  0.500000  1
  Cr  Cr1  1  0.295914  0.295914  0.329081  1
  Cr  Cr2  1  0.704086  0.704086  0.670919  1
  Rh  Rh3  1  0.000000  0.000000  0.000000  1
  Rh  Rh4  1  0.662871  0.662871  0.008635  1
  Rh  Rh5  1  0.337129  0.337129  0.991365  1
  Se  Se6  1  0.574416  0.574416  0.858174  1
  Se  Se7  1  0.425584  0.425584  0.141826  1
  Se  Se8  1  0.909217  0.909217  0.846384  1
  Se  Se9  1  0.090783  0.090783  0.153616  1
  Se  Se10  1  0.826373  0.826373  0.485290  1
  Se  Se11  1  0.173627  0.173627  0.514710  1
  Se  Se12  1  0.240140  0.240140  0.846863  1
  Se  Se13  1  0.759860  0.759860  0.153137  1
