# generated using pymatgen
data_Nd3Sm2Zr3(Ni4As3)4
_symmetry_space_group_name_H-M   'P 1'
_cell_length_a   12.87817500
_cell_length_b   12.87540858
_cell_length_c   4.00517300
_cell_angle_alpha   90.00000000
_cell_angle_beta   90.00000000
_cell_angle_gamma   119.99942991
_symmetry_Int_Tables_number   1
_chemical_formula_structural   Nd3Sm2Zr3(Ni4As3)4
_chemical_formula_sum   'Nd3 Sm2 Zr3 Ni16 As12'
_cell_volume   575.13493507
_cell_formula_units_Z   1
loop_
 _symmetry_equiv_pos_site_id
 _symmetry_equiv_pos_as_xyz
  1  'x, y, z'
loop_
 _atom_site_type_symbol
 _atom_site_label
 _atom_site_symmetry_multiplicity
 _atom_site_fract_x
 _atom_site_fract_y
 _atom_site_fract_z
 _atom_site_occupancy
  Nd  Nd0  1  0.666692  0.333283  0.000000  1
  Nd  Nd1  1  0.333518  0.666804  0.000000  1
  Nd  Nd2  1  0.186499  0.000004  0.500001  1
  Sm  Sm3  1  0.999727  0.186758  0.500001  1
  Sm  Sm4  1  0.812922  0.813168  0.500001  1
  Zr  Zr5  1  0.568003  0.999996  0.000000  1
  Zr  Zr6  1  0.432731  0.432879  0.000000  1
  Zr  Zr7  1  0.999826  0.567184  0.000000  1
  Ni  Ni8  1  0.999484  0.000008  0.000000  1
  Ni  Ni9  1  0.807499  0.184955  0.000000  1
  Ni  Ni10  1  0.378250  0.193250  0.000000  1
  Ni  Ni11  1  0.192564  0.377759  0.000000  1
  Ni  Ni12  1  0.814760  0.622254  0.000000  1
  Ni  Ni13  1  0.185020  0.806738  0.000000  1
  Ni  Ni14  1  0.622583  0.815057  0.000000  1
  Ni  Ni15  1  0.725408  0.000006  0.500001  1
  Ni  Ni16  1  0.484771  0.119141  0.500001  1
  Ni  Ni17  1  0.274897  0.275618  0.500001  1
  Ni  Ni18  1  0.881076  0.365270  0.500001  1
  Ni  Ni19  1  0.119039  0.484335  0.500001  1
  Ni  Ni20  1  0.634684  0.515676  0.500001  1
  Ni  Ni21  1  0.515783  0.634733  0.500001  1
  Ni  Ni22  1  0.999307  0.724417  0.500001  1
  Ni  Ni23  1  0.365618  0.880874  0.500001  1
  As  As24  1  0.361563  0.999986  0.000000  1
  As  As25  1  0.820894  0.999995  0.000000  1
  As  As26  1  0.178672  0.179847  0.000000  1
  As  As27  1  0.999956  0.360323  0.000000  1
  As  As28  1  0.639607  0.639646  0.000000  1
  As  As29  1  0.998819  0.820135  0.000000  1
  As  As30  1  0.696696  0.171369  0.500001  1
  As  As31  1  0.474683  0.303437  0.500001  1
  As  As32  1  0.303549  0.475128  0.500001  1
  As  As33  1  0.828420  0.524873  0.500001  1
  As  As34  1  0.171270  0.696571  0.500001  1
  As  As35  1  0.525346  0.828660  0.500001  1
