# generated using pymatgen
data_KCr2F6
_symmetry_space_group_name_H-M   'P 1'
_cell_length_a   10.21734300
_cell_length_b   7.09909739
_cell_length_c   7.50266847
_cell_angle_alpha   86.90645089
_cell_angle_beta   90.00000000
_cell_angle_gamma   90.00000000
_symmetry_Int_Tables_number   1
_chemical_formula_structural   KCr2F6
_chemical_formula_sum   'K4 Cr8 F24'
_cell_volume   543.40487167
_cell_formula_units_Z   4
loop_
 _symmetry_equiv_pos_site_id
 _symmetry_equiv_pos_as_xyz
  1  'x, y, z'
loop_
 _atom_site_type_symbol
 _atom_site_label
 _atom_site_symmetry_multiplicity
 _atom_site_fract_x
 _atom_site_fract_y
 _atom_site_fract_z
 _atom_site_occupancy
  K  K0  1  0.113035  0.498891  0.243722  1
  K  K1  1  0.613035  0.001109  0.756278  1
  K  K2  1  0.886965  0.501109  0.756278  1
  K  K3  1  0.386965  0.998891  0.243722  1
  Cr  Cr4  1  0.000000  0.000000  0.500000  1
  Cr  Cr5  1  0.500000  0.500000  0.500000  1
  Cr  Cr6  1  0.000000  0.000000  0.000000  1
  Cr  Cr7  1  0.500000  0.500000  0.000000  1
  Cr  Cr8  1  0.736427  0.181623  0.252553  1
  Cr  Cr9  1  0.236427  0.318377  0.747447  1
  Cr  Cr10  1  0.263573  0.818377  0.747447  1
  Cr  Cr11  1  0.763573  0.681623  0.252553  1
  F  F12  1  0.833481  0.127716  0.973999  1
  F  F13  1  0.333481  0.372284  0.026001  1
  F  F14  1  0.166519  0.872284  0.026001  1
  F  F15  1  0.666519  0.627716  0.973999  1
  F  F16  1  0.179820  0.908361  0.503400  1
  F  F17  1  0.679820  0.591639  0.496600  1
  F  F18  1  0.820180  0.091639  0.496600  1
  F  F19  1  0.320180  0.408361  0.503400  1
  F  F20  1  0.660427  0.922221  0.245663  1
  F  F21  1  0.160427  0.577779  0.754337  1
  F  F22  1  0.339573  0.077779  0.754337  1
  F  F23  1  0.839573  0.422221  0.245663  1
  F  F24  1  0.986146  0.918610  0.753885  1
  F  F25  1  0.486146  0.581390  0.246115  1
  F  F26  1  0.013854  0.081390  0.246115  1
  F  F27  1  0.513854  0.418610  0.753885  1
  F  F28  1  0.912757  0.763653  0.069158  1
  F  F29  1  0.412757  0.736347  0.930842  1
  F  F30  1  0.087243  0.236347  0.930842  1
  F  F31  1  0.587243  0.263653  0.069158  1
  F  F32  1  0.440770  0.749176  0.554261  1
  F  F33  1  0.940770  0.750824  0.445739  1
  F  F34  1  0.559230  0.250824  0.445739  1
  F  F35  1  0.059230  0.249176  0.554261  1
