# generated using pymatgen
data_La2PaCo2
_symmetry_space_group_name_H-M   'P 1'
_cell_length_a   6.20264760
_cell_length_b   6.20264729
_cell_length_c   6.20264804
_cell_angle_alpha   146.10820378
_cell_angle_beta   119.69298655
_cell_angle_gamma   71.00748832
_symmetry_Int_Tables_number   1
_chemical_formula_structural   La2PaCo2
_chemical_formula_sum   'La2 Pa1 Co2'
_cell_volume   113.77006031
_cell_formula_units_Z   1
loop_
 _symmetry_equiv_pos_site_id
 _symmetry_equiv_pos_as_xyz
  1  'x, y, z'
loop_
 _atom_site_type_symbol
 _atom_site_label
 _atom_site_symmetry_multiplicity
 _atom_site_fract_x
 _atom_site_fract_y
 _atom_site_fract_z
 _atom_site_occupancy
  La  La0  1  0.692773  0.192773  0.500000  1
  La  La1  1  0.307227  0.807227  0.500000  1
  Pa  Pa2  1  0.000000  0.000000  0.000000  1
  Co  Co3  1  0.276693  0.500000  0.776693  1
  Co  Co4  1  0.723307  0.500000  0.223307  1
