# generated using pymatgen
data_Tb(HoSe2)2
_symmetry_space_group_name_H-M   'P 1'
_cell_length_a   4.06290300
_cell_length_b   6.99100666
_cell_length_c   6.99711912
_cell_angle_alpha   71.56898054
_cell_angle_beta   90.00000000
_cell_angle_gamma   90.00000000
_symmetry_Int_Tables_number   1
_chemical_formula_structural   Tb(HoSe2)2
_chemical_formula_sum   'Tb1 Ho2 Se4'
_cell_volume   188.55003558
_cell_formula_units_Z   1
loop_
 _symmetry_equiv_pos_site_id
 _symmetry_equiv_pos_as_xyz
  1  'x, y, z'
loop_
 _atom_site_type_symbol
 _atom_site_label
 _atom_site_symmetry_multiplicity
 _atom_site_fract_x
 _atom_site_fract_y
 _atom_site_fract_z
 _atom_site_occupancy
  Tb  Tb0  1  0.000000  0.500000  0.500000  1
  Ho  Ho1  1  0.000000  0.000000  0.000000  1
  Ho  Ho2  1  0.500000  0.500000  0.000000  1
  Se  Se3  1  0.500000  0.757012  0.252595  1
  Se  Se4  1  0.000000  0.253330  0.244524  1
  Se  Se5  1  0.500000  0.242988  0.747405  1
  Se  Se6  1  0.000000  0.746670  0.755476  1
