# generated using pymatgen
data_PrSi(AsRu2)3
_symmetry_space_group_name_H-M   'P 1'
_cell_length_a   7.18045800
_cell_length_b   7.18045747
_cell_length_c   3.86710500
_cell_angle_alpha   90.00000000
_cell_angle_beta   90.00000000
_cell_angle_gamma   119.99999324
_symmetry_Int_Tables_number   1
_chemical_formula_structural   PrSi(AsRu2)3
_chemical_formula_sum   'Pr1 Si1 As3 Ru6'
_cell_volume   172.67158906
_cell_formula_units_Z   1
loop_
 _symmetry_equiv_pos_site_id
 _symmetry_equiv_pos_as_xyz
  1  'x, y, z'
loop_
 _atom_site_type_symbol
 _atom_site_label
 _atom_site_symmetry_multiplicity
 _atom_site_fract_x
 _atom_site_fract_y
 _atom_site_fract_z
 _atom_site_occupancy
  Pr  Pr0  1  0.000000  0.000000  0.000000  1
  Si  Si1  1  0.333333  0.666667  0.000000  1
  As  As2  1  0.807072  0.192928  0.500000  1
  As  As3  1  0.807072  0.614143  0.500000  1
  As  As4  1  0.385857  0.192928  0.500000  1
  Ru  Ru5  1  0.534594  0.465406  0.000000  1
  Ru  Ru6  1  0.534594  0.069187  0.000000  1
  Ru  Ru7  1  0.930813  0.465406  0.000000  1
  Ru  Ru8  1  0.204411  0.795589  0.500000  1
  Ru  Ru9  1  0.204411  0.408821  0.500000  1
  Ru  Ru10  1  0.591179  0.795589  0.500000  1
