# generated using pymatgen
data_Ho3Tm5Re(TcB8)3
_symmetry_space_group_name_H-M   'P 1'
_cell_length_a   3.65159100
_cell_length_b   9.10863386
_cell_length_c   11.48161402
_cell_angle_alpha   90.02140873
_cell_angle_beta   90.00000000
_cell_angle_gamma   90.00000000
_symmetry_Int_Tables_number   1
_chemical_formula_structural   Ho3Tm5Re(TcB8)3
_chemical_formula_sum   'Ho3 Tm5 Re1 Tc3 B24'
_cell_volume   381.88999959
_cell_formula_units_Z   1
loop_
 _symmetry_equiv_pos_site_id
 _symmetry_equiv_pos_as_xyz
  1  'x, y, z'
loop_
 _atom_site_type_symbol
 _atom_site_label
 _atom_site_symmetry_multiplicity
 _atom_site_fract_x
 _atom_site_fract_y
 _atom_site_fract_z
 _atom_site_occupancy
  Ho  Ho0  1  0.000000  0.323738  0.414053  1
  Ho  Ho1  1  0.000000  0.676471  0.585904  1
  Ho  Ho2  1  0.000000  0.823594  0.086063  1
  Tm  Tm3  1  0.000000  0.176589  0.914225  1
  Tm  Tm4  1  0.000000  0.942989  0.369260  1
  Tm  Tm5  1  0.000000  0.057661  0.629890  1
  Tm  Tm6  1  0.000000  0.442821  0.130513  1
  Tm  Tm7  1  0.000000  0.555941  0.869887  1
  Re  Re8  1  0.000000  0.861331  0.820440  1
  Tc  Tc9  1  0.000000  0.639303  0.320024  1
  Tc  Tc10  1  0.000000  0.360485  0.680248  1
  Tc  Tc11  1  0.000000  0.139308  0.179545  1
  B  B12  1  0.500000  0.553574  0.432893  1
  B  B13  1  0.500000  0.446471  0.567239  1
  B  B14  1  0.500000  0.053741  0.066797  1
  B  B15  1  0.500000  0.947122  0.933164  1
  B  B16  1  0.500000  0.749996  0.418623  1
  B  B17  1  0.500000  0.250217  0.581441  1
  B  B18  1  0.500000  0.249832  0.080794  1
  B  B19  1  0.500000  0.749775  0.918798  1
  B  B20  1  0.500000  0.792585  0.265101  1
  B  B21  1  0.500000  0.207203  0.735136  1
  B  B22  1  0.500000  0.292535  0.234765  1
  B  B23  1  0.500000  0.707120  0.765247  1
  B  B24  1  0.500000  0.630391  0.185050  1
  B  B25  1  0.500000  0.368985  0.815276  1
  B  B26  1  0.500000  0.130530  0.314866  1
  B  B27  1  0.500000  0.869843  0.684983  1
  B  B28  1  0.500000  0.982025  0.211872  1
  B  B29  1  0.500000  0.018947  0.788051  1
  B  B30  1  0.500000  0.481863  0.287921  1
  B  B31  1  0.500000  0.517876  0.712238  1
  B  B32  1  0.500000  0.598901  0.027662  1
  B  B33  1  0.500000  0.399986  0.972381  1
  B  B34  1  0.500000  0.099200  0.472170  1
  B  B35  1  0.500000  0.901052  0.527479  1
