# generated using pymatgen
data_Tb2Lu2Tc3Os5
_symmetry_space_group_name_H-M   'P 1'
_cell_length_a   5.26038746
_cell_length_b   5.30075152
_cell_length_c   8.99294720
_cell_angle_alpha   89.99999862
_cell_angle_beta   89.97903460
_cell_angle_gamma   120.25413352
_symmetry_Int_Tables_number   1
_chemical_formula_structural   Tb2Lu2Tc3Os5
_chemical_formula_sum   'Tb2 Lu2 Tc3 Os5'
_cell_volume   216.60574025
_cell_formula_units_Z   1
loop_
 _symmetry_equiv_pos_site_id
 _symmetry_equiv_pos_as_xyz
  1  'x, y, z'
loop_
 _atom_site_type_symbol
 _atom_site_label
 _atom_site_symmetry_multiplicity
 _atom_site_fract_x
 _atom_site_fract_y
 _atom_site_fract_z
 _atom_site_occupancy
  Tb  Tb0  1  0.335745  0.667873  0.434192  1
  Tb  Tb1  1  0.667043  0.333521  0.563250  1
  Lu  Lu2  1  0.666860  0.333429  0.938045  1
  Lu  Lu3  1  0.336209  0.668105  0.065042  1
  Tc  Tc4  1  0.166030  0.339381  0.753144  1
  Tc  Tc5  1  0.166030  0.826650  0.753144  1
  Tc  Tc6  1  0.336131  0.168065  0.247347  1
  Os  Os7  1  0.825270  0.654837  0.246318  1
  Os  Os8  1  0.652177  0.826089  0.753515  1
  Os  Os9  1  0.011726  0.005863  0.000566  1
  Os  Os10  1  0.825270  0.170432  0.246318  1
  Os  Os11  1  0.011513  0.005756  0.499119  1
