# generated using pymatgen
data_KPr(PS3)2
_symmetry_space_group_name_H-M   'P 1'
_cell_length_a   7.57184200
_cell_length_b   6.66050702
_cell_length_c   10.19006556
_cell_angle_alpha   87.06926643
_cell_angle_beta   90.00000000
_cell_angle_gamma   90.00000000
_symmetry_Int_Tables_number   1
_chemical_formula_structural   KPr(PS3)2
_chemical_formula_sum   'K2 Pr2 P4 S12'
_cell_volume   513.23635876
_cell_formula_units_Z   2
loop_
 _symmetry_equiv_pos_site_id
 _symmetry_equiv_pos_as_xyz
  1  'x, y, z'
loop_
 _atom_site_type_symbol
 _atom_site_label
 _atom_site_symmetry_multiplicity
 _atom_site_fract_x
 _atom_site_fract_y
 _atom_site_fract_z
 _atom_site_occupancy
  K  K0  1  0.473946  0.696023  0.500056  1
  K  K1  1  0.973946  0.303977  0.499944  1
  Pr  Pr2  1  0.194615  0.212544  0.996345  1
  Pr  Pr3  1  0.694615  0.787456  0.003655  1
  P  P4  1  0.685252  0.324444  0.830484  1
  P  P5  1  0.964064  0.797913  0.290243  1
  P  P6  1  0.185252  0.675556  0.169516  1
  P  P7  1  0.464064  0.202087  0.709757  1
  S  S8  1  0.771632  0.589617  0.751190  1
  S  S9  1  0.548865  0.172128  0.527629  1
  S  S10  1  0.767067  0.596756  0.268346  1
  S  S11  1  0.573932  0.357799  0.012924  1
  S  S12  1  0.395312  0.947687  0.823601  1
  S  S13  1  0.267067  0.403244  0.731654  1
  S  S14  1  0.073932  0.642201  0.987076  1
  S  S15  1  0.895312  0.052313  0.176399  1
  S  S16  1  0.048865  0.827872  0.472371  1
  S  S17  1  0.374206  0.899298  0.167860  1
  S  S18  1  0.874206  0.100702  0.832140  1
  S  S19  1  0.271632  0.410383  0.248810  1
