# generated using pymatgen
data_Nd7DySc12Si15Rh
_symmetry_space_group_name_H-M   'P 1'
_cell_length_a   7.19472959
_cell_length_b   7.55583208
_cell_length_c   14.11961710
_cell_angle_alpha   89.89453584
_cell_angle_beta   90.04493852
_cell_angle_gamma   90.17314463
_symmetry_Int_Tables_number   1
_chemical_formula_structural   Nd7DySc12Si15Rh
_chemical_formula_sum   'Nd7 Dy1 Sc12 Si15 Rh1'
_cell_volume   767.56796765
_cell_formula_units_Z   1
loop_
 _symmetry_equiv_pos_site_id
 _symmetry_equiv_pos_as_xyz
  1  'x, y, z'
loop_
 _atom_site_type_symbol
 _atom_site_label
 _atom_site_symmetry_multiplicity
 _atom_site_fract_x
 _atom_site_fract_y
 _atom_site_fract_z
 _atom_site_occupancy
  Nd  Nd0  1  0.011102  0.176775  0.096213  1
  Nd  Nd1  1  0.991718  0.826084  0.903576  1
  Nd  Nd2  1  0.489633  0.674300  0.904589  1
  Nd  Nd3  1  0.991645  0.825425  0.595715  1
  Nd  Nd4  1  0.510634  0.325600  0.096067  1
  Nd  Nd5  1  0.011700  0.176796  0.404289  1
  Nd  Nd6  1  0.510584  0.325201  0.404702  1
  Dy  Dy7  1  0.489237  0.677568  0.597321  1
  Sc  Sc8  1  0.158816  0.501008  0.749455  1
  Sc  Sc9  1  0.839127  0.498657  0.249985  1
  Sc  Sc10  1  0.339171  0.002128  0.250131  1
  Sc  Sc11  1  0.667575  0.000794  0.749482  1
  Sc  Sc12  1  0.319941  0.172126  0.627820  1
  Sc  Sc13  1  0.670447  0.825528  0.373857  1
  Sc  Sc14  1  0.171515  0.676515  0.374160  1
  Sc  Sc15  1  0.671053  0.826554  0.126601  1
  Sc  Sc16  1  0.833637  0.322206  0.627490  1
  Sc  Sc17  1  0.319787  0.171463  0.871503  1
  Sc  Sc18  1  0.833255  0.322369  0.871834  1
  Sc  Sc19  1  0.170893  0.676629  0.126232  1
  Si  Si20  1  0.967906  0.878739  0.250107  1
  Si  Si21  1  0.467664  0.620056  0.250106  1
  Si  Si22  1  0.529680  0.384979  0.748769  1
  Si  Si23  1  0.290918  0.873218  0.748533  1
  Si  Si24  1  0.711347  0.121882  0.250100  1
  Si  Si25  1  0.211616  0.378751  0.250076  1
  Si  Si26  1  0.780192  0.621327  0.748272  1
  Si  Si27  1  0.158811  0.467896  0.539277  1
  Si  Si28  1  0.846557  0.537417  0.461812  1
  Si  Si29  1  0.349547  0.960991  0.461523  1
  Si  Si30  1  0.847673  0.537525  0.038757  1
  Si  Si31  1  0.652176  0.033300  0.539907  1
  Si  Si32  1  0.154563  0.465592  0.961634  1
  Si  Si33  1  0.653339  0.036725  0.960941  1
  Si  Si34  1  0.348810  0.964123  0.039475  1
  Rh  Rh35  1  0.027726  0.113753  0.749689  1
