# generated using pymatgen
data_Tb3Y3Mn2(VC6)2
_symmetry_space_group_name_H-M   'P 1'
_cell_length_a   8.18344600
_cell_length_b   8.18337457
_cell_length_c   4.97973300
_cell_angle_alpha   90.00000000
_cell_angle_beta   90.00000000
_cell_angle_gamma   120.00010878
_symmetry_Int_Tables_number   1
_chemical_formula_structural   Tb3Y3Mn2(VC6)2
_chemical_formula_sum   'Tb3 Y3 Mn2 V2 C12'
_cell_volume   288.80510430
_cell_formula_units_Z   1
loop_
 _symmetry_equiv_pos_site_id
 _symmetry_equiv_pos_as_xyz
  1  'x, y, z'
loop_
 _atom_site_type_symbol
 _atom_site_label
 _atom_site_symmetry_multiplicity
 _atom_site_fract_x
 _atom_site_fract_y
 _atom_site_fract_z
 _atom_site_occupancy
  Tb  Tb0  1  0.318057  0.939014  0.750000  1
  Tb  Tb1  1  0.061003  0.378957  0.750000  1
  Tb  Tb2  1  0.379040  0.318026  0.250000  1
  Y  Y3  1  0.621305  0.682253  0.750000  1
  Y  Y4  1  0.939045  0.621227  0.250000  1
  Y  Y5  1  0.682289  0.060975  0.250000  1
  Mn  Mn6  1  0.666647  0.333338  0.750000  1
  Mn  Mn7  1  0.333320  0.666674  0.250000  1
  V  V8  1  0.999999  0.999979  0.499961  1
  V  V9  1  0.999999  0.999979  0.000039  1
  C  C10  1  0.961430  0.766540  0.750000  1
  C  C11  1  0.194799  0.961406  0.250000  1
  C  C12  1  0.766465  0.804858  0.250000  1
  C  C13  1  0.233321  0.194772  0.750000  1
  C  C14  1  0.804881  0.038347  0.750000  1
  C  C15  1  0.038374  0.233399  0.250000  1
  C  C16  1  0.863835  0.573303  0.750000  1
  C  C17  1  0.290548  0.863798  0.250000  1
  C  C18  1  0.573231  0.709497  0.250000  1
  C  C19  1  0.426760  0.290624  0.750000  1
  C  C20  1  0.136238  0.426837  0.250000  1
  C  C21  1  0.709415  0.136196  0.750000  1
