# generated using pymatgen
data_Er5ScFeTe2
_symmetry_space_group_name_H-M   'P 1'
_cell_length_a   8.11902914
_cell_length_b   8.27919905
_cell_length_c   3.94544200
_cell_angle_alpha   90.00000000
_cell_angle_beta   90.00000000
_cell_angle_gamma   120.65475614
_symmetry_Int_Tables_number   1
_chemical_formula_structural   Er5ScFeTe2
_chemical_formula_sum   'Er5 Sc1 Fe1 Te2'
_cell_volume   228.14732003
_cell_formula_units_Z   1
loop_
 _symmetry_equiv_pos_site_id
 _symmetry_equiv_pos_as_xyz
  1  'x, y, z'
loop_
 _atom_site_type_symbol
 _atom_site_label
 _atom_site_symmetry_multiplicity
 _atom_site_fract_x
 _atom_site_fract_y
 _atom_site_fract_z
 _atom_site_occupancy
  Er  Er0  1  0.230629  0.996309  0.500000  1
  Er  Er1  1  0.769371  0.765681  0.500000  1
  Er  Er2  1  0.618449  0.002362  0.000000  1
  Er  Er3  1  0.381551  0.383913  0.000000  1
  Er  Er4  1  0.000000  0.598069  0.000000  1
  Sc  Sc5  1  0.000000  0.230873  0.500000  1
  Fe  Fe6  1  0.000000  0.029048  0.000000  1
  Te  Te7  1  0.329203  0.661475  0.500000  1
  Te  Te8  1  0.670797  0.332271  0.500000  1
