# generated using pymatgen
data_SmY2In3Ag2Ir
_symmetry_space_group_name_H-M   'P 1'
_cell_length_a   7.97449205
_cell_length_b   7.96260528
_cell_length_c   3.82009200
_cell_angle_alpha   90.00000000
_cell_angle_beta   90.00000000
_cell_angle_gamma   119.85628778
_symmetry_Int_Tables_number   1
_chemical_formula_structural   SmY2In3Ag2Ir
_chemical_formula_sum   'Sm1 Y2 In3 Ag2 Ir1'
_cell_volume   210.37288863
_cell_formula_units_Z   1
loop_
 _symmetry_equiv_pos_site_id
 _symmetry_equiv_pos_as_xyz
  1  'x, y, z'
loop_
 _atom_site_type_symbol
 _atom_site_label
 _atom_site_symmetry_multiplicity
 _atom_site_fract_x
 _atom_site_fract_y
 _atom_site_fract_z
 _atom_site_occupancy
  Sm  Sm0  1  0.028902  0.420134  0.000000  1
  Y  Y1  1  0.580151  0.610947  0.000000  1
  Y  Y2  1  0.389854  0.968791  0.000000  1
  In  In3  1  0.993415  0.728297  0.500000  1
  In  In4  1  0.275093  0.266601  0.500000  1
  In  In5  1  0.731091  0.004272  0.500000  1
  Ag  Ag6  1  0.000269  0.000048  0.000000  1
  Ag  Ag7  1  0.664845  0.332641  0.500000  1
  Ir  Ir8  1  0.336379  0.668270  0.500000  1
