# generated using pymatgen
data_CsSm2(FeH6)2
_symmetry_space_group_name_H-M   'P 1'
_cell_length_a   4.98150100
_cell_length_b   4.98150176
_cell_length_c   9.48423400
_cell_angle_alpha   90.00000000
_cell_angle_beta   90.00000000
_cell_angle_gamma   120.00000162
_symmetry_Int_Tables_number   1
_chemical_formula_structural   CsSm2(FeH6)2
_chemical_formula_sum   'Cs1 Sm2 Fe2 H12'
_cell_volume   203.82309636
_cell_formula_units_Z   1
loop_
 _symmetry_equiv_pos_site_id
 _symmetry_equiv_pos_as_xyz
  1  'x, y, z'
loop_
 _atom_site_type_symbol
 _atom_site_label
 _atom_site_symmetry_multiplicity
 _atom_site_fract_x
 _atom_site_fract_y
 _atom_site_fract_z
 _atom_site_occupancy
  Cs  Cs0  1  0.000000  0.000000  0.000000  1
  Sm  Sm1  1  0.666667  0.333333  0.373769  1
  Sm  Sm2  1  0.333333  0.666667  0.626231  1
  Fe  Fe3  1  0.666667  0.333333  0.691575  1
  Fe  Fe4  1  0.333333  0.666667  0.308425  1
  H  H5  1  0.178491  0.821509  0.401119  1
  H  H6  1  0.643019  0.821509  0.401119  1
  H  H7  1  0.178491  0.356981  0.401119  1
  H  H8  1  0.821509  0.178491  0.598881  1
  H  H9  1  0.356981  0.178491  0.598881  1
  H  H10  1  0.821509  0.643019  0.598881  1
  H  H11  1  0.524507  0.049014  0.797079  1
  H  H12  1  0.524507  0.475493  0.797079  1
  H  H13  1  0.950986  0.475493  0.797079  1
  H  H14  1  0.475493  0.950986  0.202921  1
  H  H15  1  0.475493  0.524507  0.202921  1
  H  H16  1  0.049014  0.524507  0.202921  1
