# generated using pymatgen
data_Tb3Ho4Er3(In2Pd)4
_symmetry_space_group_name_H-M   'P 1'
_cell_length_a   3.61415500
_cell_length_b   8.15316609
_cell_length_c   18.25428728
_cell_angle_alpha   89.96476529
_cell_angle_beta   90.00000000
_cell_angle_gamma   90.00000000
_symmetry_Int_Tables_number   1
_chemical_formula_structural   Tb3Ho4Er3(In2Pd)4
_chemical_formula_sum   'Tb3 Ho4 Er3 In8 Pd4'
_cell_volume   537.89543998
_cell_formula_units_Z   1
loop_
 _symmetry_equiv_pos_site_id
 _symmetry_equiv_pos_as_xyz
  1  'x, y, z'
loop_
 _atom_site_type_symbol
 _atom_site_label
 _atom_site_symmetry_multiplicity
 _atom_site_fract_x
 _atom_site_fract_y
 _atom_site_fract_z
 _atom_site_occupancy
  Tb  Tb0  1  0.000000  0.500016  0.500115  1
  Tb  Tb1  1  0.000000  0.999738  0.999828  1
  Tb  Tb2  1  0.000000  0.738950  0.281233  1
  Ho  Ho3  1  0.000000  0.261022  0.718843  1
  Ho  Ho4  1  0.000000  0.761063  0.781006  1
  Ho  Ho5  1  0.000000  0.239295  0.219184  1
  Ho  Ho6  1  0.000000  0.617263  0.083442  1
  Er  Er7  1  0.000000  0.382614  0.916222  1
  Er  Er8  1  0.000000  0.882758  0.583696  1
  Er  Er9  1  0.000000  0.117206  0.416361  1
  In  In10  1  0.500000  0.707103  0.932622  1
  In  In11  1  0.500000  0.291989  0.067186  1
  In  In12  1  0.500000  0.793067  0.433125  1
  In  In13  1  0.500000  0.207005  0.566990  1
  In  In14  1  0.500000  0.581883  0.650432  1
  In  In15  1  0.500000  0.417814  0.349888  1
  In  In16  1  0.500000  0.919532  0.150339  1
  In  In17  1  0.500000  0.081752  0.849446  1
  Pd  Pd18  1  0.500000  0.522196  0.195623  1
  Pd  Pd19  1  0.500000  0.476596  0.804398  1
  Pd  Pd20  1  0.500000  0.976818  0.695372  1
  Pd  Pd21  1  0.500000  0.024321  0.304645  1
