# generated using pymatgen
data_SrCaCrO4
_symmetry_space_group_name_H-M   'P 1'
_cell_length_a   5.39399500
_cell_length_b   7.05596800
_cell_length_c   12.02504100
_cell_angle_alpha   90.00000000
_cell_angle_beta   90.00000000
_cell_angle_gamma   90.00000000
_symmetry_Int_Tables_number   1
_chemical_formula_structural   SrCaCrO4
_chemical_formula_sum   'Sr4 Ca4 Cr4 O16'
_cell_volume   457.67133020
_cell_formula_units_Z   4
loop_
 _symmetry_equiv_pos_site_id
 _symmetry_equiv_pos_as_xyz
  1  'x, y, z'
loop_
 _atom_site_type_symbol
 _atom_site_label
 _atom_site_symmetry_multiplicity
 _atom_site_fract_x
 _atom_site_fract_y
 _atom_site_fract_z
 _atom_site_occupancy
  Sr  Sr0  1  0.012681  0.750000  0.720276  1
  Sr  Sr1  1  0.987319  0.250000  0.279724  1
  Sr  Sr2  1  0.512681  0.250000  0.779724  1
  Sr  Sr3  1  0.487319  0.750000  0.220276  1
  Ca  Ca4  1  0.500000  0.500000  0.500000  1
  Ca  Ca5  1  0.000000  0.000000  0.000000  1
  Ca  Ca6  1  0.000000  0.500000  0.000000  1
  Ca  Ca7  1  0.500000  0.000000  0.500000  1
  Cr  Cr8  1  0.426327  0.250000  0.088350  1
  Cr  Cr9  1  0.926327  0.750000  0.411650  1
  Cr  Cr10  1  0.573673  0.750000  0.911650  1
  Cr  Cr11  1  0.073673  0.250000  0.588350  1
  O  O12  1  0.767862  0.750000  0.546147  1
  O  O13  1  0.778062  0.549014  0.345886  1
  O  O14  1  0.721938  0.549014  0.845886  1
  O  O15  1  0.741171  0.250000  0.584118  1
  O  O16  1  0.732138  0.750000  0.046147  1
  O  O17  1  0.278062  0.450986  0.154114  1
  O  O18  1  0.221938  0.450986  0.654114  1
  O  O19  1  0.258829  0.750000  0.415882  1
  O  O20  1  0.778062  0.950986  0.345886  1
  O  O21  1  0.241171  0.750000  0.915882  1
  O  O22  1  0.232138  0.250000  0.453853  1
  O  O23  1  0.721938  0.950986  0.845886  1
  O  O24  1  0.221938  0.049014  0.654114  1
  O  O25  1  0.267862  0.250000  0.953853  1
  O  O26  1  0.278062  0.049014  0.154114  1
  O  O27  1  0.758829  0.250000  0.084118  1
