# generated using pymatgen
data_K6LuVF12
_symmetry_space_group_name_H-M   'P 1'
_cell_length_a   6.49280130
_cell_length_b   6.25390147
_cell_length_c   10.93642830
_cell_angle_alpha   55.31420808
_cell_angle_beta   89.79342801
_cell_angle_gamma   90.09555181
_symmetry_Int_Tables_number   1
_chemical_formula_structural   K6LuVF12
_chemical_formula_sum   'K6 Lu1 V1 F12'
_cell_volume   365.15214591
_cell_formula_units_Z   1
loop_
 _symmetry_equiv_pos_site_id
 _symmetry_equiv_pos_as_xyz
  1  'x, y, z'
loop_
 _atom_site_type_symbol
 _atom_site_label
 _atom_site_symmetry_multiplicity
 _atom_site_fract_x
 _atom_site_fract_y
 _atom_site_fract_z
 _atom_site_occupancy
  K  K0  1  0.500000  0.500000  0.000000  1
  K  K1  1  0.000000  0.500000  0.500000  1
  K  K2  1  0.054164  0.739683  0.745741  1
  K  K3  1  0.945836  0.260317  0.254259  1
  K  K4  1  0.549128  0.275239  0.738214  1
  K  K5  1  0.450872  0.724761  0.261786  1
  Lu  Lu6  1  0.000000  0.000000  0.000000  1
  V  V7  1  0.500000  0.000000  0.500000  1
  F  F8  1  0.751166  0.780924  0.559246  1
  F  F9  1  0.248834  0.219076  0.440754  1
  F  F10  1  0.270698  0.232167  0.933602  1
  F  F11  1  0.729302  0.767833  0.066398  1
  F  F12  1  0.453806  0.889417  0.709495  1
  F  F13  1  0.546194  0.110583  0.290505  1
  F  F14  1  0.949749  0.117764  0.776850  1
  F  F15  1  0.050251  0.882236  0.223150  1
  F  F16  1  0.328619  0.699284  0.542062  1
  F  F17  1  0.671381  0.300716  0.457938  1
  F  F18  1  0.828007  0.327304  0.951009  1
  F  F19  1  0.171993  0.672696  0.048991  1
