# generated using pymatgen
data_Sm10GaGe2Se7
_symmetry_space_group_name_H-M   'P 1'
_cell_length_a   11.11725288
_cell_length_b   11.11725154
_cell_length_c   7.33053747
_cell_angle_alpha   83.62806342
_cell_angle_beta   83.62807451
_cell_angle_gamma   141.92976366
_symmetry_Int_Tables_number   1
_chemical_formula_structural   Sm10GaGe2Se7
_chemical_formula_sum   'Sm10 Ga1 Ge2 Se7'
_cell_volume   525.32803393
_cell_formula_units_Z   1
loop_
 _symmetry_equiv_pos_site_id
 _symmetry_equiv_pos_as_xyz
  1  'x, y, z'
loop_
 _atom_site_type_symbol
 _atom_site_label
 _atom_site_symmetry_multiplicity
 _atom_site_fract_x
 _atom_site_fract_y
 _atom_site_fract_z
 _atom_site_occupancy
  Sm  Sm0  1  0.254049  0.254049  0.757465  1
  Sm  Sm1  1  0.851172  0.651798  0.749997  1
  Sm  Sm2  1  0.745951  0.745951  0.242535  1
  Sm  Sm3  1  0.452106  0.047655  0.739162  1
  Sm  Sm4  1  0.348202  0.148828  0.250003  1
  Sm  Sm5  1  0.047655  0.452106  0.739162  1
  Sm  Sm6  1  0.952345  0.547894  0.260838  1
  Sm  Sm7  1  0.651798  0.851172  0.749997  1
  Sm  Sm8  1  0.547894  0.952345  0.260838  1
  Sm  Sm9  1  0.148828  0.348202  0.250003  1
  Ga  Ga10  1  0.500000  0.500000  0.000000  1
  Ge  Ge11  1  0.198602  0.801398  0.500000  1
  Ge  Ge12  1  0.801398  0.198602  0.500000  1
  Se  Se13  1  0.899118  0.100882  0.000000  1
  Se  Se14  1  0.400642  0.599358  0.500000  1
  Se  Se15  1  0.000000  0.000000  0.500000  1
  Se  Se16  1  0.599358  0.400642  0.500000  1
  Se  Se17  1  0.100882  0.899118  0.000000  1
  Se  Se18  1  0.700426  0.299574  0.000000  1
  Se  Se19  1  0.299574  0.700426  0.000000  1
