# generated using pymatgen
data_Gd2AlAg6
_symmetry_space_group_name_H-M   'P 1'
_cell_length_a   5.43127839
_cell_length_b   5.43127768
_cell_length_c   14.18472900
_cell_angle_alpha   90.00000000
_cell_angle_beta   90.00000000
_cell_angle_gamma   117.66358546
_symmetry_Int_Tables_number   1
_chemical_formula_structural   Gd2AlAg6
_chemical_formula_sum   'Gd4 Al2 Ag12'
_cell_volume   370.60075997
_cell_formula_units_Z   2
loop_
 _symmetry_equiv_pos_site_id
 _symmetry_equiv_pos_as_xyz
  1  'x, y, z'
loop_
 _atom_site_type_symbol
 _atom_site_label
 _atom_site_symmetry_multiplicity
 _atom_site_fract_x
 _atom_site_fract_y
 _atom_site_fract_z
 _atom_site_occupancy
  Gd  Gd0  1  0.320014  0.320014  0.117142  1
  Gd  Gd1  1  0.679986  0.679986  0.617142  1
  Gd  Gd2  1  0.320014  0.320014  0.382858  1
  Gd  Gd3  1  0.679986  0.679986  0.882858  1
  Al  Al4  1  0.824722  0.824722  0.250000  1
  Al  Al5  1  0.175278  0.175278  0.750000  1
  Ag  Ag6  1  0.827166  0.330355  0.250000  1
  Ag  Ag7  1  0.172834  0.669645  0.750000  1
  Ag  Ag8  1  0.330355  0.827166  0.250000  1
  Ag  Ag9  1  0.669645  0.172834  0.750000  1
  Ag  Ag10  1  0.983782  0.665853  0.075704  1
  Ag  Ag11  1  0.016218  0.334147  0.575704  1
  Ag  Ag12  1  0.665853  0.983782  0.424296  1
  Ag  Ag13  1  0.334147  0.016218  0.924296  1
  Ag  Ag14  1  0.016218  0.334147  0.924296  1
  Ag  Ag15  1  0.983782  0.665853  0.424296  1
  Ag  Ag16  1  0.334147  0.016218  0.575704  1
  Ag  Ag17  1  0.665853  0.983782  0.075704  1
