# generated using pymatgen
data_TbY2Ho2Pb3
_symmetry_space_group_name_H-M   'P 1'
_cell_length_a   9.06379628
_cell_length_b   9.06769369
_cell_length_c   6.64434000
_cell_angle_alpha   90.00000000
_cell_angle_beta   90.00000000
_cell_angle_gamma   120.01422425
_symmetry_Int_Tables_number   1
_chemical_formula_structural   TbY2Ho2Pb3
_chemical_formula_sum   'Tb2 Y4 Ho4 Pb6'
_cell_volume   472.85413328
_cell_formula_units_Z   2
loop_
 _symmetry_equiv_pos_site_id
 _symmetry_equiv_pos_as_xyz
  1  'x, y, z'
loop_
 _atom_site_type_symbol
 _atom_site_label
 _atom_site_symmetry_multiplicity
 _atom_site_fract_x
 _atom_site_fract_y
 _atom_site_fract_z
 _atom_site_occupancy
  Tb  Tb0  1  0.238245  0.000029  0.250000  1
  Tb  Tb1  1  0.238245  0.238216  0.750000  1
  Y  Y2  1  0.000021  0.761747  0.750000  1
  Y  Y3  1  0.000021  0.238274  0.250000  1
  Y  Y4  1  0.761807  0.761832  0.250000  1
  Y  Y5  1  0.761807  0.999975  0.750000  1
  Ho  Ho6  1  0.333323  0.666662  0.000000  1
  Ho  Ho7  1  0.666716  0.333358  0.500000  1
  Ho  Ho8  1  0.666716  0.333358  0.000000  1
  Ho  Ho9  1  0.333323  0.666662  0.500000  1
  Pb  Pb10  1  0.604803  0.999968  0.250000  1
  Pb  Pb11  1  0.604803  0.604835  0.750000  1
  Pb  Pb12  1  0.999871  0.395299  0.750000  1
  Pb  Pb13  1  0.999871  0.604572  0.250000  1
  Pb  Pb14  1  0.395213  0.395313  0.250000  1
  Pb  Pb15  1  0.395213  0.999900  0.750000  1
