# generated using pymatgen
data_TbCeTmSi2
_symmetry_space_group_name_H-M   'P 1'
_cell_length_a   7.50758529
_cell_length_b   7.50758529
_cell_length_c   4.26085600
_cell_angle_alpha   90.00000000
_cell_angle_beta   90.00000000
_cell_angle_gamma   89.30447141
_symmetry_Int_Tables_number   1
_chemical_formula_structural   TbCeTmSi2
_chemical_formula_sum   'Tb2 Ce2 Tm2 Si4'
_cell_volume   240.14049779
_cell_formula_units_Z   2
loop_
 _symmetry_equiv_pos_site_id
 _symmetry_equiv_pos_as_xyz
  1  'x, y, z'
loop_
 _atom_site_type_symbol
 _atom_site_label
 _atom_site_symmetry_multiplicity
 _atom_site_fract_x
 _atom_site_fract_y
 _atom_site_fract_z
 _atom_site_occupancy
  Tb  Tb0  1  0.174385  0.325615  0.500000  1
  Tb  Tb1  1  0.825615  0.674385  0.500000  1
  Ce  Ce2  1  0.678760  0.178760  0.500000  1
  Ce  Ce3  1  0.321240  0.821240  0.500000  1
  Tm  Tm4  1  0.000000  0.000000  0.000000  1
  Tm  Tm5  1  0.500000  0.500000  0.000000  1
  Si  Si6  1  0.117292  0.617292  0.000000  1
  Si  Si7  1  0.882708  0.382708  0.000000  1
  Si  Si8  1  0.618325  0.881675  0.000000  1
  Si  Si9  1  0.381675  0.118325  0.000000  1
