# generated using pymatgen
data_YbSm2Dy3(CoSn6)2
_symmetry_space_group_name_H-M   'P 1'
_cell_length_a   8.49049519
_cell_length_b   8.49049629
_cell_length_c   13.21610847
_cell_angle_alpha   89.98938502
_cell_angle_beta   90.01061541
_cell_angle_gamma   148.45658338
_symmetry_Int_Tables_number   1
_chemical_formula_structural   YbSm2Dy3(CoSn6)2
_chemical_formula_sum   'Yb1 Sm2 Dy3 Co2 Sn12'
_cell_volume   498.41529155
_cell_formula_units_Z   1
loop_
 _symmetry_equiv_pos_site_id
 _symmetry_equiv_pos_as_xyz
  1  'x, y, z'
loop_
 _atom_site_type_symbol
 _atom_site_label
 _atom_site_symmetry_multiplicity
 _atom_site_fract_x
 _atom_site_fract_y
 _atom_site_fract_z
 _atom_site_occupancy
  Yb  Yb0  1  0.899154  0.100846  0.403244  1
  Sm  Sm1  1  0.899477  0.100523  0.093688  1
  Sm  Sm2  1  0.100618  0.899382  0.594589  1
  Dy  Dy3  1  0.900507  0.099493  0.752373  1
  Dy  Dy4  1  0.100742  0.899258  0.906660  1
  Dy  Dy5  1  0.100131  0.899869  0.249500  1
  Co  Co6  1  0.298383  0.701617  0.249966  1
  Co  Co7  1  0.700565  0.299435  0.749826  1
  Sn  Sn8  1  0.757824  0.242176  0.572412  1
  Sn  Sn9  1  0.428343  0.571657  0.577021  1
  Sn  Sn10  1  0.572848  0.427152  0.422444  1
  Sn  Sn11  1  0.733860  0.266140  0.249070  1
  Sn  Sn12  1  0.265742  0.734258  0.750827  1
  Sn  Sn13  1  0.242731  0.757269  0.071399  1
  Sn  Sn14  1  0.244468  0.755532  0.428286  1
  Sn  Sn15  1  0.572075  0.427925  0.075413  1
  Sn  Sn16  1  0.454426  0.545574  0.249418  1
  Sn  Sn17  1  0.545718  0.454282  0.752107  1
  Sn  Sn18  1  0.755100  0.244900  0.927959  1
  Sn  Sn19  1  0.427288  0.572712  0.923798  1
