# generated using pymatgen
data_Y3Ga6Ni8Ru
_symmetry_space_group_name_H-M   'P 1'
_cell_length_a   4.12173500
_cell_length_b   8.89151774
_cell_length_c   8.89151600
_cell_angle_alpha   58.81191459
_cell_angle_beta   90.00000000
_cell_angle_gamma   90.00000000
_symmetry_Int_Tables_number   1
_chemical_formula_structural   Y3Ga6Ni8Ru
_chemical_formula_sum   'Y3 Ga6 Ni8 Ru1'
_cell_volume   278.76456086
_cell_formula_units_Z   1
loop_
 _symmetry_equiv_pos_site_id
 _symmetry_equiv_pos_as_xyz
  1  'x, y, z'
loop_
 _atom_site_type_symbol
 _atom_site_label
 _atom_site_symmetry_multiplicity
 _atom_site_fract_x
 _atom_site_fract_y
 _atom_site_fract_z
 _atom_site_occupancy
  Y  Y0  1  0.500000  0.333702  0.333613  1
  Y  Y1  1  0.500000  0.666387  0.666298  1
  Y  Y2  1  0.000000  0.008796  0.991204  1
  Ga  Ga3  1  0.500000  0.730780  0.269220  1
  Ga  Ga4  1  0.500000  0.273232  0.003804  1
  Ga  Ga5  1  0.500000  0.996196  0.726768  1
  Ga  Ga6  1  0.000000  0.476687  0.523313  1
  Ga  Ga7  1  0.000000  0.519507  0.008221  1
  Ga  Ga8  1  0.000000  0.991779  0.480493  1
  Ni  Ni9  1  0.000000  0.197234  0.175724  1
  Ni  Ni10  1  0.000000  0.167505  0.614715  1
  Ni  Ni11  1  0.000000  0.632416  0.197728  1
  Ni  Ni12  1  0.000000  0.824275  0.802766  1
  Ni  Ni13  1  0.000000  0.385285  0.832495  1
  Ni  Ni14  1  0.000000  0.802272  0.367584  1
  Ni  Ni15  1  0.500000  0.706719  0.003815  1
  Ni  Ni16  1  0.500000  0.996185  0.293281  1
  Ru  Ru17  1  0.500000  0.290945  0.709055  1
