# generated using pymatgen
data_YHo2Si5N9O
_symmetry_space_group_name_H-M   'P 1'
_cell_length_a   5.00136100
_cell_length_b   10.69569700
_cell_length_c   16.24650500
_cell_angle_alpha   90.00000000
_cell_angle_beta   90.00000000
_cell_angle_gamma   90.00000000
_symmetry_Int_Tables_number   1
_chemical_formula_structural   YHo2Si5N9O
_chemical_formula_sum   'Y4 Ho8 Si20 N36 O4'
_cell_volume   869.07497178
_cell_formula_units_Z   4
loop_
 _symmetry_equiv_pos_site_id
 _symmetry_equiv_pos_as_xyz
  1  'x, y, z'
loop_
 _atom_site_type_symbol
 _atom_site_label
 _atom_site_symmetry_multiplicity
 _atom_site_fract_x
 _atom_site_fract_y
 _atom_site_fract_z
 _atom_site_occupancy
  Y  Y0  1  0.703354  0.750000  0.795896  1
  Y  Y1  1  0.296646  0.250000  0.204104  1
  Y  Y2  1  0.296646  0.750000  0.295896  1
  Y  Y3  1  0.703354  0.250000  0.704104  1
  Ho  Ho4  1  0.662799  0.929038  0.599880  1
  Ho  Ho5  1  0.337201  0.070962  0.400120  1
  Ho  Ho6  1  0.337201  0.429038  0.400120  1
  Ho  Ho7  1  0.337201  0.570962  0.099880  1
  Ho  Ho8  1  0.662799  0.570962  0.599880  1
  Ho  Ho9  1  0.662799  0.429038  0.900120  1
  Ho  Ho10  1  0.662799  0.070962  0.900120  1
  Ho  Ho11  1  0.337201  0.929038  0.099880  1
  Si  Si12  1  0.251622  0.750000  0.669350  1
  Si  Si13  1  0.748378  0.250000  0.330650  1
  Si  Si14  1  0.748378  0.750000  0.169350  1
  Si  Si15  1  0.251622  0.250000  0.830650  1
  Si  Si16  1  0.895558  0.896755  0.423656  1
  Si  Si17  1  0.104442  0.103245  0.576344  1
  Si  Si18  1  0.104442  0.396755  0.576344  1
  Si  Si19  1  0.104442  0.603245  0.923656  1
  Si  Si20  1  0.895558  0.603245  0.423656  1
  Si  Si21  1  0.895558  0.396755  0.076344  1
  Si  Si22  1  0.895558  0.103245  0.076344  1
  Si  Si23  1  0.104442  0.896755  0.923656  1
  Si  Si24  1  0.609660  0.750000  0.972669  1
  Si  Si25  1  0.390340  0.250000  0.027331  1
  Si  Si26  1  0.390340  0.750000  0.472669  1
  Si  Si27  1  0.609660  0.250000  0.527331  1
  Si  Si28  1  0.182079  0.000000  0.750000  1
  Si  Si29  1  0.817921  0.000000  0.250000  1
  Si  Si30  1  0.817921  0.500000  0.250000  1
  Si  Si31  1  0.182079  0.500000  0.750000  1
  N  N32  1  0.975019  0.944491  0.829406  1
  N  N33  1  0.024981  0.055509  0.170594  1
  N  N34  1  0.024981  0.444491  0.170594  1
  N  N35  1  0.024981  0.555509  0.329406  1
  N  N36  1  0.975019  0.555509  0.829406  1
  N  N37  1  0.975019  0.444491  0.670594  1
  N  N38  1  0.975019  0.055509  0.670594  1
  N  N39  1  0.024981  0.944491  0.329406  1
  N  N40  1  0.941627  0.750000  0.937036  1
  N  N41  1  0.058373  0.250000  0.062964  1
  N  N42  1  0.058373  0.750000  0.437036  1
  N  N43  1  0.941627  0.250000  0.562964  1
  N  N44  1  0.407679  0.750000  0.575473  1
  N  N45  1  0.592321  0.250000  0.424527  1
  N  N46  1  0.592321  0.750000  0.075473  1
  N  N47  1  0.407679  0.250000  0.924527  1
  N  N48  1  0.448427  0.880714  0.931810  1
  N  N49  1  0.551573  0.119286  0.068190  1
  N  N50  1  0.551573  0.380714  0.068190  1
  N  N51  1  0.551573  0.619286  0.431810  1
  N  N52  1  0.448427  0.619286  0.931810  1
  N  N53  1  0.448427  0.380714  0.568190  1
  N  N54  1  0.448427  0.119286  0.568190  1
  N  N55  1  0.551573  0.880714  0.431810  1
  N  N56  1  0.000000  0.000000  0.000000  1
  N  N57  1  0.000000  0.500000  0.000000  1
  N  N58  1  0.000000  0.500000  0.500000  1
  N  N59  1  0.000000  0.000000  0.500000  1
  N  N60  1  0.390487  0.879539  0.716868  1
  N  N61  1  0.609513  0.120461  0.283132  1
  N  N62  1  0.609513  0.379539  0.283132  1
  N  N63  1  0.609513  0.620461  0.216868  1
  N  N64  1  0.390487  0.620461  0.716868  1
  N  N65  1  0.390487  0.379539  0.783132  1
  N  N66  1  0.390487  0.120461  0.783132  1
  N  N67  1  0.609513  0.879539  0.216868  1
  O  O68  1  0.917151  0.750000  0.666210  1
  O  O69  1  0.082849  0.250000  0.333790  1
  O  O70  1  0.082849  0.750000  0.166210  1
  O  O71  1  0.917151  0.250000  0.833790  1
