# generated using pymatgen
data_Y3Ho5Sc11Si16Ag
_symmetry_space_group_name_H-M   'P 1'
_cell_length_a   7.02283512
_cell_length_b   7.38352943
_cell_length_c   13.99907425
_cell_angle_alpha   90.01744995
_cell_angle_beta   90.01265722
_cell_angle_gamma   89.91725434
_symmetry_Int_Tables_number   1
_chemical_formula_structural   Y3Ho5Sc11Si16Ag
_chemical_formula_sum   'Y3 Ho5 Sc11 Si16 Ag1'
_cell_volume   725.89752530
_cell_formula_units_Z   1
loop_
 _symmetry_equiv_pos_site_id
 _symmetry_equiv_pos_as_xyz
  1  'x, y, z'
loop_
 _atom_site_type_symbol
 _atom_site_label
 _atom_site_symmetry_multiplicity
 _atom_site_fract_x
 _atom_site_fract_y
 _atom_site_fract_z
 _atom_site_occupancy
  Y  Y0  1  0.011081  0.175544  0.096377  1
  Y  Y1  1  0.990376  0.815636  0.901249  1
  Y  Y2  1  0.484628  0.673571  0.901768  1
  Ho  Ho3  1  0.990233  0.815366  0.598828  1
  Ho  Ho4  1  0.510690  0.323509  0.096507  1
  Ho  Ho5  1  0.011305  0.175853  0.403549  1
  Ho  Ho6  1  0.510717  0.323521  0.403646  1
  Ho  Ho7  1  0.484460  0.673923  0.598370  1
  Sc  Sc8  1  0.838379  0.497311  0.250087  1
  Sc  Sc9  1  0.340125  0.003174  0.250091  1
  Sc  Sc10  1  0.657692  0.997754  0.749829  1
  Sc  Sc11  1  0.326292  0.182304  0.626555  1
  Sc  Sc12  1  0.670984  0.823576  0.374961  1
  Sc  Sc13  1  0.170588  0.678605  0.374114  1
  Sc  Sc14  1  0.670966  0.823536  0.125200  1
  Sc  Sc15  1  0.835461  0.327041  0.626421  1
  Sc  Sc16  1  0.326398  0.182335  0.873318  1
  Sc  Sc17  1  0.835436  0.327026  0.873422  1
  Sc  Sc18  1  0.170617  0.678461  0.126034  1
  Si  Si19  1  0.028232  0.100009  0.749807  1
  Si  Si20  1  0.968954  0.887539  0.250153  1
  Si  Si21  1  0.467526  0.616392  0.250026  1
  Si  Si22  1  0.536881  0.385014  0.749828  1
  Si  Si23  1  0.288173  0.882987  0.749625  1
  Si  Si24  1  0.713557  0.128138  0.250162  1
  Si  Si25  1  0.213279  0.372183  0.250228  1
  Si  Si26  1  0.776757  0.629133  0.749583  1
  Si  Si27  1  0.161463  0.460406  0.531942  1
  Si  Si28  1  0.842636  0.535422  0.461996  1
  Si  Si29  1  0.344200  0.965529  0.462580  1
  Si  Si30  1  0.842548  0.535431  0.038120  1
  Si  Si31  1  0.658035  0.033846  0.540154  1
  Si  Si32  1  0.161191  0.460039  0.968156  1
  Si  Si33  1  0.657535  0.034472  0.959938  1
  Si  Si34  1  0.344741  0.965588  0.037519  1
  Ag  Ag35  1  0.157861  0.509830  0.749856  1
