# generated using pymatgen
data_Ho11Er5(ZrIr3)4
_symmetry_space_group_name_H-M   'P 1'
_cell_length_a   10.80267500
_cell_length_b   10.79889299
_cell_length_c   6.23373003
_cell_angle_alpha   90.00668093
_cell_angle_beta   90.00903708
_cell_angle_gamma   89.95149814
_symmetry_Int_Tables_number   1
_chemical_formula_structural   Ho11Er5(ZrIr3)4
_chemical_formula_sum   'Ho11 Er5 Zr4 Ir12'
_cell_volume   727.20754129
_cell_formula_units_Z   1
loop_
 _symmetry_equiv_pos_site_id
 _symmetry_equiv_pos_as_xyz
  1  'x, y, z'
loop_
 _atom_site_type_symbol
 _atom_site_label
 _atom_site_symmetry_multiplicity
 _atom_site_fract_x
 _atom_site_fract_y
 _atom_site_fract_z
 _atom_site_occupancy
  Ho  Ho0  1  0.289414  0.086976  0.369989  1
  Ho  Ho1  1  0.289550  0.912863  0.870223  1
  Ho  Ho2  1  0.710320  0.087102  0.869995  1
  Ho  Ho3  1  0.710356  0.913115  0.370110  1
  Ho  Ho4  1  0.587142  0.789888  0.869946  1
  Ho  Ho5  1  0.586620  0.210032  0.370300  1
  Ho  Ho6  1  0.413292  0.790073  0.369912  1
  Ho  Ho7  1  0.413073  0.210112  0.870001  1
  Ho  Ho8  1  0.209987  0.413622  0.629364  1
  Ho  Ho9  1  0.209948  0.586394  0.129133  1
  Ho  Ho10  1  0.790005  0.413662  0.129634  1
  Er  Er11  1  0.790520  0.586056  0.629220  1
  Er  Er12  1  0.913932  0.709695  0.129385  1
  Er  Er13  1  0.914100  0.290304  0.629342  1
  Er  Er14  1  0.085617  0.709717  0.629232  1
  Er  Er15  1  0.085827  0.290110  0.129096  1
  Zr  Zr16  1  0.999830  0.999977  0.501478  1
  Zr  Zr17  1  0.999745  0.999766  0.001412  1
  Zr  Zr18  1  0.500211  0.500124  0.000206  1
  Zr  Zr19  1  0.500402  0.500225  0.500179  1
  Ir  Ir20  1  0.854635  0.146462  0.250868  1
  Ir  Ir21  1  0.854526  0.853016  0.750662  1
  Ir  Ir22  1  0.145271  0.146237  0.751145  1
  Ir  Ir23  1  0.145089  0.853538  0.250993  1
  Ir  Ir24  1  0.646556  0.354830  0.749359  1
  Ir  Ir25  1  0.646770  0.645848  0.250423  1
  Ir  Ir26  1  0.353699  0.354272  0.249582  1
  Ir  Ir27  1  0.354087  0.645742  0.749831  1
  Ir  Ir28  1  0.499901  0.000147  0.114597  1
  Ir  Ir29  1  0.499858  0.000023  0.614890  1
  Ir  Ir30  1  0.999827  0.500037  0.884793  1
  Ir  Ir31  1  0.999891  0.500034  0.384700  1
