# generated using pymatgen
data_Ac5PS4
_symmetry_space_group_name_H-M   'P 1'
_cell_length_a   7.51157135
_cell_length_b   7.51157161
_cell_length_c   7.51157219
_cell_angle_alpha   99.62070869
_cell_angle_beta   99.62070691
_cell_angle_gamma   131.73987698
_symmetry_Int_Tables_number   1
_chemical_formula_structural   Ac5PS4
_chemical_formula_sum   'Ac5 P1 S4'
_cell_volume   288.61775218
_cell_formula_units_Z   1
loop_
 _symmetry_equiv_pos_site_id
 _symmetry_equiv_pos_as_xyz
  1  'x, y, z'
loop_
 _atom_site_type_symbol
 _atom_site_label
 _atom_site_symmetry_multiplicity
 _atom_site_fract_x
 _atom_site_fract_y
 _atom_site_fract_z
 _atom_site_occupancy
  Ac  Ac0  1  0.401147  0.798311  0.199459  1
  Ac  Ac1  1  0.000000  0.000000  0.000000  1
  Ac  Ac2  1  0.598853  0.201689  0.800541  1
  Ac  Ac3  1  0.201689  0.401147  0.602836  1
  Ac  Ac4  1  0.798311  0.598853  0.397164  1
  P  P5  1  0.500000  0.500000  0.000000  1
  S  S6  1  0.101428  0.700226  0.801653  1
  S  S7  1  0.700226  0.898572  0.598798  1
  S  S8  1  0.299774  0.101428  0.401202  1
  S  S9  1  0.898572  0.299774  0.198347  1
