# generated using pymatgen
data_Ac5TlTe8
_symmetry_space_group_name_H-M   'P 1'
_cell_length_a   8.69083604
_cell_length_b   8.69083653
_cell_length_c   8.69083630
_cell_angle_alpha   109.34807182
_cell_angle_beta   109.34807547
_cell_angle_gamma   109.71779646
_symmetry_Int_Tables_number   1
_chemical_formula_structural   Ac5TlTe8
_chemical_formula_sum   'Ac5 Tl1 Te8'
_cell_volume   505.30870593
_cell_formula_units_Z   1
loop_
 _symmetry_equiv_pos_site_id
 _symmetry_equiv_pos_as_xyz
  1  'x, y, z'
loop_
 _atom_site_type_symbol
 _atom_site_label
 _atom_site_symmetry_multiplicity
 _atom_site_fract_x
 _atom_site_fract_y
 _atom_site_fract_z
 _atom_site_occupancy
  Ac  Ac0  1  0.991167  0.368798  0.118016  1
  Ac  Ac1  1  0.500000  0.500000  0.000000  1
  Ac  Ac2  1  0.631202  0.749218  0.622368  1
  Ac  Ac3  1  0.250782  0.873151  0.881984  1
  Ac  Ac4  1  0.126849  0.008833  0.377631  1
  Tl  Tl5  1  0.750000  0.250000  0.500000  1
  Te  Te6  1  0.519628  0.120346  0.753629  1
  Te  Te7  1  0.369573  0.280776  0.245631  1
  Te  Te8  1  0.234001  0.480372  0.600719  1
  Te  Te9  1  0.366718  0.765999  0.246371  1
  Te  Te10  1  0.876058  0.630427  0.911202  1
  Te  Te11  1  0.879654  0.633282  0.399281  1
  Te  Te12  1  0.719224  0.964856  0.088798  1
  Te  Te13  1  0.035144  0.123942  0.754369  1
