# generated using pymatgen
data_TbY5Al24(Ru3Au)2
_symmetry_space_group_name_H-M   'P 1'
_cell_length_a   8.89152196
_cell_length_b   8.83514869
_cell_length_c   9.59200453
_cell_angle_alpha   90.01203436
_cell_angle_beta   89.88038084
_cell_angle_gamma   119.80467687
_symmetry_Int_Tables_number   1
_chemical_formula_structural   TbY5Al24(Ru3Au)2
_chemical_formula_sum   'Tb1 Y5 Al24 Ru6 Au2'
_cell_volume   653.85319680
_cell_formula_units_Z   1
loop_
 _symmetry_equiv_pos_site_id
 _symmetry_equiv_pos_as_xyz
  1  'x, y, z'
loop_
 _atom_site_type_symbol
 _atom_site_label
 _atom_site_symmetry_multiplicity
 _atom_site_fract_x
 _atom_site_fract_y
 _atom_site_fract_z
 _atom_site_occupancy
  Tb  Tb0  1  0.191043  0.384566  0.753139  1
  Y  Y1  1  0.383662  0.191848  0.252206  1
  Y  Y2  1  0.808788  0.193837  0.246893  1
  Y  Y3  1  0.808804  0.615037  0.246923  1
  Y  Y4  1  0.616384  0.808115  0.747797  1
  Y  Y5  1  0.191127  0.806142  0.753075  1
  Al  Al6  1  0.435725  0.872070  0.242863  1
  Al  Al7  1  0.120767  0.560374  0.250380  1
  Al  Al8  1  0.435740  0.563591  0.242834  1
  Al  Al9  1  0.564272  0.127809  0.757197  1
  Al  Al10  1  0.879023  0.439596  0.749536  1
  Al  Al11  1  0.564420  0.436389  0.757142  1
  Al  Al12  1  0.151939  0.828562  0.419378  1
  Al  Al13  1  0.151960  0.323419  0.419414  1
  Al  Al14  1  0.681671  0.840832  0.416050  1
  Al  Al15  1  0.847997  0.171414  0.580592  1
  Al  Al16  1  0.848071  0.676628  0.580527  1
  Al  Al17  1  0.318298  0.159164  0.583931  1
  Al  Al18  1  0.836182  0.163523  0.924640  1
  Al  Al19  1  0.836304  0.672646  0.924710  1
  Al  Al20  1  0.326434  0.163107  0.928455  1
  Al  Al21  1  0.163698  0.836368  0.075376  1
  Al  Al22  1  0.163760  0.327360  0.075426  1
  Al  Al23  1  0.673553  0.836791  0.071609  1
  Al  Al24  1  0.321120  0.660623  0.529036  1
  Al  Al25  1  0.678905  0.339501  0.470825  1
  Al  Al26  1  0.666486  0.333290  0.025876  1
  Al  Al27  1  0.333624  0.666885  0.974265  1
  Al  Al28  1  0.002974  0.001514  0.249039  1
  Al  Al29  1  0.997053  0.998604  0.751001  1
  Ru  Ru30  1  0.999992  0.999996  0.500011  1
  Ru  Ru31  1  0.999969  0.999942  0.000002  1
  Ru  Ru32  1  0.999964  0.500061  0.499938  1
  Ru  Ru33  1  0.500030  0.000116  0.000016  1
  Ru  Ru34  1  0.000047  0.499996  0.999920  1
  Ru  Ru35  1  0.500118  0.500103  0.999995  1
  Au  Au36  1  0.500037  0.000122  0.500007  1
  Au  Au37  1  0.500057  0.500060  0.499975  1
