# generated using pymatgen
data_Tm4Co17Cu(P6Ru)2
_symmetry_space_group_name_H-M   'P 1'
_cell_length_a   3.66892000
_cell_length_b   10.30067043
_cell_length_c   11.76439388
_cell_angle_alpha   89.90672913
_cell_angle_beta   90.00000000
_cell_angle_gamma   90.00000000
_symmetry_Int_Tables_number   1
_chemical_formula_structural   Tm4Co17Cu(P6Ru)2
_chemical_formula_sum   'Tm4 Co17 Cu1 P12 Ru2'
_cell_volume   444.60333422
_cell_formula_units_Z   1
loop_
 _symmetry_equiv_pos_site_id
 _symmetry_equiv_pos_as_xyz
  1  'x, y, z'
loop_
 _atom_site_type_symbol
 _atom_site_label
 _atom_site_symmetry_multiplicity
 _atom_site_fract_x
 _atom_site_fract_y
 _atom_site_fract_z
 _atom_site_occupancy
  Tm  Tm0  1  0.250000  0.582319  0.702059  1
  Tm  Tm1  1  0.250000  0.918593  0.202685  1
  Tm  Tm2  1  0.750000  0.414953  0.296998  1
  Tm  Tm3  1  0.750000  0.084107  0.794005  1
  Co  Co4  1  0.750000  0.216983  0.507608  1
  Co  Co5  1  0.250000  0.406445  0.486165  1
  Co  Co6  1  0.250000  0.093674  0.985094  1
  Co  Co7  1  0.750000  0.590812  0.511244  1
  Co  Co8  1  0.750000  0.908076  0.011646  1
  Co  Co9  1  0.250000  0.221137  0.179210  1
  Co  Co10  1  0.250000  0.280412  0.673477  1
  Co  Co11  1  0.750000  0.778239  0.823002  1
  Co  Co12  1  0.750000  0.721542  0.323180  1
  Co  Co13  1  0.250000  0.886746  0.702395  1
  Co  Co14  1  0.250000  0.615161  0.202405  1
  Co  Co15  1  0.750000  0.115226  0.301566  1
  Co  Co16  1  0.750000  0.383111  0.799886  1
  Co  Co17  1  0.250000  0.462612  0.932840  1
  Co  Co18  1  0.250000  0.034951  0.432496  1
  Co  Co19  1  0.750000  0.534085  0.069681  1
  Co  Co20  1  0.750000  0.966789  0.569419  1
  Cu  Cu21  1  0.750000  0.286693  0.010225  1
  P  P22  1  0.250000  0.420160  0.116031  1
  P  P23  1  0.250000  0.082687  0.612070  1
  P  P24  1  0.750000  0.578358  0.886446  1
  P  P25  1  0.750000  0.920924  0.387002  1
  P  P26  1  0.250000  0.269003  0.862435  1
  P  P27  1  0.250000  0.230011  0.369287  1
  P  P28  1  0.750000  0.731228  0.133096  1
  P  P29  1  0.750000  0.769912  0.633356  1
  P  P30  1  0.250000  0.594618  0.390023  1
  P  P31  1  0.250000  0.905332  0.890506  1
  P  P32  1  0.750000  0.398278  0.607781  1
  P  P33  1  0.750000  0.099439  0.110554  1
  Ru  Ru34  1  0.250000  0.713564  0.991643  1
  Ru  Ru35  1  0.250000  0.783820  0.492481  1
