# generated using pymatgen
data_Er5(CoB3)2
_symmetry_space_group_name_H-M   'P 1'
_cell_length_a   5.39119380
_cell_length_b   5.39119383
_cell_length_c   8.29427873
_cell_angle_alpha   71.03475308
_cell_angle_beta   71.03474895
_cell_angle_gamma   59.99999006
_symmetry_Int_Tables_number   1
_chemical_formula_structural   Er5(CoB3)2
_chemical_formula_sum   'Er5 Co2 B6'
_cell_volume   193.51694369
_cell_formula_units_Z   1
loop_
 _symmetry_equiv_pos_site_id
 _symmetry_equiv_pos_as_xyz
  1  'x, y, z'
loop_
 _atom_site_type_symbol
 _atom_site_label
 _atom_site_symmetry_multiplicity
 _atom_site_fract_x
 _atom_site_fract_y
 _atom_site_fract_z
 _atom_site_occupancy
  Er  Er0  1  0.000000  0.000000  0.000000  1
  Er  Er1  1  0.251019  0.251019  0.246943  1
  Er  Er2  1  0.748981  0.748981  0.753057  1
  Er  Er3  1  0.416616  0.416616  0.750152  1
  Er  Er4  1  0.583384  0.583384  0.249848  1
  Co  Co5  1  0.118963  0.118963  0.643112  1
  Co  Co6  1  0.881037  0.881037  0.356888  1
  B  B7  1  0.168781  0.831219  0.500000  1
  B  B8  1  0.831219  0.500000  0.500000  1
  B  B9  1  0.500000  0.168781  0.500000  1
  B  B10  1  0.168781  0.500000  0.500000  1
  B  B11  1  0.500000  0.831219  0.500000  1
  B  B12  1  0.831219  0.168781  0.500000  1
