# generated using pymatgen
data_Ca20CuIr2Pd
_symmetry_space_group_name_H-M   'P 1'
_cell_length_a   6.89055147
_cell_length_b   7.57869901
_cell_length_c   16.03238100
_cell_angle_alpha   90.00000000
_cell_angle_beta   90.00000000
_cell_angle_gamma   89.87935996
_symmetry_Int_Tables_number   1
_chemical_formula_structural   Ca20CuIr2Pd
_chemical_formula_sum   'Ca20 Cu1 Ir2 Pd1'
_cell_volume   837.23177604
_cell_formula_units_Z   1
loop_
 _symmetry_equiv_pos_site_id
 _symmetry_equiv_pos_as_xyz
  1  'x, y, z'
loop_
 _atom_site_type_symbol
 _atom_site_label
 _atom_site_symmetry_multiplicity
 _atom_site_fract_x
 _atom_site_fract_y
 _atom_site_fract_z
 _atom_site_occupancy
  Ca  Ca0  1  0.145753  0.092880  0.250000  1
  Ca  Ca1  1  0.854052  0.190060  0.560489  1
  Ca  Ca2  1  0.837525  0.903028  0.750000  1
  Ca  Ca3  1  0.831384  0.469853  0.142756  1
  Ca  Ca4  1  0.178519  0.544126  0.643740  1
  Ca  Ca5  1  0.353000  0.310350  0.059508  1
  Ca  Ca6  1  0.336759  0.601574  0.250000  1
  Ca  Ca7  1  0.831384  0.469853  0.357244  1
  Ca  Ca8  1  0.328918  0.031067  0.856364  1
  Ca  Ca9  1  0.145971  0.811699  0.066453  1
  Ca  Ca10  1  0.645160  0.687714  0.566375  1
  Ca  Ca11  1  0.678114  0.952800  0.357372  1
  Ca  Ca12  1  0.645160  0.687714  0.933625  1
  Ca  Ca13  1  0.328918  0.031067  0.643636  1
  Ca  Ca14  1  0.145971  0.811699  0.433547  1
  Ca  Ca15  1  0.647756  0.406156  0.750000  1
  Ca  Ca16  1  0.178519  0.544126  0.856260  1
  Ca  Ca17  1  0.353000  0.310350  0.440492  1
  Ca  Ca18  1  0.678114  0.952800  0.142628  1
  Ca  Ca19  1  0.854052  0.190060  0.939511  1
  Cu  Cu20  1  0.540101  0.258732  0.250000  1
  Ir  Ir21  1  0.462215  0.738645  0.750000  1
  Ir  Ir22  1  0.960074  0.762198  0.250000  1
  Pd  Pd23  1  0.039580  0.241445  0.750000  1
