# generated using pymatgen
data_Cu2SbIrO8
_symmetry_space_group_name_H-M   'P 1'
_cell_length_a   4.59617369
_cell_length_b   5.57865162
_cell_length_c   5.57865159
_cell_angle_alpha   68.34500715
_cell_angle_beta   91.64622410
_cell_angle_gamma   91.64623367
_symmetry_Int_Tables_number   1
_chemical_formula_structural   Cu2SbIrO8
_chemical_formula_sum   'Cu2 Sb1 Ir1 O8'
_cell_volume   132.86366563
_cell_formula_units_Z   1
loop_
 _symmetry_equiv_pos_site_id
 _symmetry_equiv_pos_as_xyz
  1  'x, y, z'
loop_
 _atom_site_type_symbol
 _atom_site_label
 _atom_site_symmetry_multiplicity
 _atom_site_fract_x
 _atom_site_fract_y
 _atom_site_fract_z
 _atom_site_occupancy
  Cu  Cu0  1  0.500000  0.499998  0.000000  1
  Cu  Cu1  1  0.500000  0.999998  0.500002  1
  Sb  Sb2  1  0.000000  0.500001  0.500000  1
  Ir  Ir3  1  0.000000  0.000001  0.000000  1
  O  O4  1  0.286791  0.144597  0.144600  1
  O  O5  1  0.314597  0.655510  0.655506  1
  O  O6  1  0.685402  0.344491  0.344493  1
  O  O7  1  0.713209  0.855404  0.855401  1
  O  O8  1  0.807376  0.851243  0.341110  1
  O  O9  1  0.807375  0.341111  0.851242  1
  O  O10  1  0.192624  0.148758  0.658889  1
  O  O11  1  0.192625  0.658890  0.148757  1
