# generated using pymatgen
data_CaNdB8Ru7
_symmetry_space_group_name_H-M   'P 1'
_cell_length_a   6.46454227
_cell_length_b   6.46828127
_cell_length_c   10.08187900
_cell_angle_alpha   90.00000000
_cell_angle_beta   90.00000000
_cell_angle_gamma   89.96688823
_symmetry_Int_Tables_number   1
_chemical_formula_structural   CaNdB8Ru7
_chemical_formula_sum   'Ca2 Nd2 B16 Ru14'
_cell_volume   421.56843406
_cell_formula_units_Z   2
loop_
 _symmetry_equiv_pos_site_id
 _symmetry_equiv_pos_as_xyz
  1  'x, y, z'
loop_
 _atom_site_type_symbol
 _atom_site_label
 _atom_site_symmetry_multiplicity
 _atom_site_fract_x
 _atom_site_fract_y
 _atom_site_fract_z
 _atom_site_occupancy
  Ca  Ca0  1  0.734941  0.879189  0.000000  1
  Ca  Ca1  1  0.121629  0.736394  0.500000  1
  Nd  Nd2  1  0.882085  0.268051  0.500000  1
  Nd  Nd3  1  0.265278  0.119810  0.000000  1
  B  B4  1  0.498707  0.999816  0.588913  1
  B  B5  1  0.498707  0.999816  0.411087  1
  B  B6  1  0.898619  0.274026  0.168684  1
  B  B7  1  0.101827  0.725230  0.831619  1
  B  B8  1  0.501326  0.500018  0.341162  1
  B  B9  1  0.501287  0.499961  0.841077  1
  B  B10  1  0.272861  0.101159  0.668089  1
  B  B11  1  0.101827  0.725230  0.168381  1
  B  B12  1  0.272861  0.101159  0.331911  1
  B  B13  1  0.898619  0.274026  0.831316  1
  B  B14  1  0.501326  0.500018  0.658838  1
  B  B15  1  0.501287  0.499961  0.158923  1
  B  B16  1  0.000725  0.500152  0.911020  1
  B  B17  1  0.723836  0.897625  0.669247  1
  B  B18  1  0.723836  0.897625  0.330753  1
  B  B19  1  0.000725  0.500152  0.088980  1
  Ru  Ru20  1  0.205561  0.396792  0.753890  1
  Ru  Ru21  1  0.401658  0.287186  0.500000  1
  Ru  Ru22  1  0.395781  0.794998  0.254671  1
  Ru  Ru23  1  0.205561  0.396792  0.246110  1
  Ru  Ru24  1  0.595171  0.712258  0.500000  1
  Ru  Ru25  1  0.603352  0.204976  0.746112  1
  Ru  Ru26  1  0.288570  0.598228  0.000000  1
  Ru  Ru27  1  0.713740  0.404098  0.000000  1
  Ru  Ru28  1  0.795771  0.603691  0.246033  1
  Ru  Ru29  1  0.795771  0.603691  0.753967  1
  Ru  Ru30  1  0.395781  0.794998  0.745329  1
  Ru  Ru31  1  0.998812  0.998949  0.250036  1
  Ru  Ru32  1  0.603352  0.204976  0.253888  1
  Ru  Ru33  1  0.998812  0.998949  0.749964  1
