# generated using pymatgen
data_K3Ba3TmBi4
_symmetry_space_group_name_H-M   'P 1'
_cell_length_a   11.62836200
_cell_length_b   11.62836346
_cell_length_c   8.76162000
_cell_angle_alpha   90.00000000
_cell_angle_beta   90.00000000
_cell_angle_gamma   120.00000155
_symmetry_Int_Tables_number   1
_chemical_formula_structural   K3Ba3TmBi4
_chemical_formula_sum   'K6 Ba6 Tm2 Bi8'
_cell_volume   1026.01138345
_cell_formula_units_Z   2
loop_
 _symmetry_equiv_pos_site_id
 _symmetry_equiv_pos_as_xyz
  1  'x, y, z'
loop_
 _atom_site_type_symbol
 _atom_site_label
 _atom_site_symmetry_multiplicity
 _atom_site_fract_x
 _atom_site_fract_y
 _atom_site_fract_z
 _atom_site_occupancy
  K  K0  1  0.135692  0.864308  0.170412  1
  K  K1  1  0.271385  0.135692  0.670412  1
  K  K2  1  0.864308  0.728615  0.670412  1
  K  K3  1  0.135692  0.271385  0.170412  1
  K  K4  1  0.728615  0.864308  0.170412  1
  K  K5  1  0.864308  0.135692  0.670412  1
  Ba  Ba6  1  0.471411  0.942821  0.498548  1
  Ba  Ba7  1  0.528589  0.057179  0.998548  1
  Ba  Ba8  1  0.942821  0.471411  0.998548  1
  Ba  Ba9  1  0.471411  0.528589  0.498548  1
  Ba  Ba10  1  0.528589  0.471411  0.998548  1
  Ba  Ba11  1  0.057179  0.528589  0.498548  1
  Tm  Tm12  1  0.333333  0.666667  0.887620  1
  Tm  Tm13  1  0.666667  0.333333  0.387620  1
  Bi  Bi14  1  0.192187  0.807813  0.769989  1
  Bi  Bi15  1  0.384375  0.192187  0.269989  1
  Bi  Bi16  1  0.807813  0.615625  0.269989  1
  Bi  Bi17  1  0.192187  0.384375  0.769989  1
  Bi  Bi18  1  0.615625  0.807813  0.769989  1
  Bi  Bi19  1  0.807813  0.192187  0.269989  1
  Bi  Bi20  1  0.333333  0.666667  0.236216  1
  Bi  Bi21  1  0.666667  0.333333  0.736216  1
