# generated using pymatgen
data_TbY9Sn8
_symmetry_space_group_name_H-M   'P 1'
_cell_length_a   8.05296900
_cell_length_b   8.20939304
_cell_length_c   15.50259807
_cell_angle_alpha   90.01092484
_cell_angle_beta   90.00000000
_cell_angle_gamma   90.00000000
_symmetry_Int_Tables_number   1
_chemical_formula_structural   TbY9Sn8
_chemical_formula_sum   'Tb2 Y18 Sn16'
_cell_volume   1024.87654817
_cell_formula_units_Z   2
loop_
 _symmetry_equiv_pos_site_id
 _symmetry_equiv_pos_as_xyz
  1  'x, y, z'
loop_
 _atom_site_type_symbol
 _atom_site_label
 _atom_site_symmetry_multiplicity
 _atom_site_fract_x
 _atom_site_fract_y
 _atom_site_fract_z
 _atom_site_occupancy
  Tb  Tb0  1  0.520324  0.319877  0.597719  1
  Tb  Tb1  1  0.020324  0.180123  0.902281  1
  Y  Y2  1  0.367578  0.835691  0.878366  1
  Y  Y3  1  0.867578  0.664309  0.621634  1
  Y  Y4  1  0.632403  0.164231  0.378349  1
  Y  Y5  1  0.132403  0.335769  0.121651  1
  Y  Y6  1  0.632400  0.164188  0.121688  1
  Y  Y7  1  0.132400  0.335812  0.378312  1
  Y  Y8  1  0.367531  0.835756  0.621655  1
  Y  Y9  1  0.867531  0.664244  0.878345  1
  Y  Y10  1  0.520578  0.319992  0.902209  1
  Y  Y11  1  0.020578  0.180008  0.597791  1
  Y  Y12  1  0.479513  0.680048  0.402243  1
  Y  Y13  1  0.979513  0.819952  0.097757  1
  Y  Y14  1  0.479518  0.680076  0.097735  1
  Y  Y15  1  0.979518  0.819924  0.402265  1
  Y  Y16  1  0.198453  0.502198  0.750050  1
  Y  Y17  1  0.698453  0.997802  0.749950  1
  Y  Y18  1  0.801609  0.497834  0.250031  1
  Y  Y19  1  0.301609  0.002166  0.249969  1
  Sn  Sn20  1  0.292236  0.034060  0.041994  1
  Sn  Sn21  1  0.792236  0.465940  0.458006  1
  Sn  Sn22  1  0.708005  0.965819  0.541954  1
  Sn  Sn23  1  0.208005  0.534181  0.958046  1
  Sn  Sn24  1  0.707844  0.965774  0.958077  1
  Sn  Sn25  1  0.207844  0.534226  0.541923  1
  Sn  Sn26  1  0.292113  0.034213  0.458086  1
  Sn  Sn27  1  0.792113  0.465787  0.041914  1
  Sn  Sn28  1  0.565048  0.619014  0.749915  1
  Sn  Sn29  1  0.065048  0.880986  0.750085  1
  Sn  Sn30  1  0.434929  0.381007  0.249967  1
  Sn  Sn31  1  0.934929  0.118993  0.250033  1
  Sn  Sn32  1  0.328391  0.145617  0.750044  1
  Sn  Sn33  1  0.828391  0.354383  0.749956  1
  Sn  Sn34  1  0.671525  0.854312  0.249997  1
  Sn  Sn35  1  0.171525  0.645688  0.250003  1
