# generated using pymatgen
data_Yb4Al6SO12
_symmetry_space_group_name_H-M   'P 1'
_cell_length_a   7.83999367
_cell_length_b   7.83999383
_cell_length_c   7.83999400
_cell_angle_alpha   109.47121849
_cell_angle_beta   109.47121890
_cell_angle_gamma   109.47122562
_symmetry_Int_Tables_number   1
_chemical_formula_structural   Yb4Al6SO12
_chemical_formula_sum   'Yb4 Al6 S1 O12'
_cell_volume   370.95844866
_cell_formula_units_Z   1
loop_
 _symmetry_equiv_pos_site_id
 _symmetry_equiv_pos_as_xyz
  1  'x, y, z'
loop_
 _atom_site_type_symbol
 _atom_site_label
 _atom_site_symmetry_multiplicity
 _atom_site_fract_x
 _atom_site_fract_y
 _atom_site_fract_z
 _atom_site_occupancy
  Yb  Yb0  1  0.000000  0.355683  0.000000  1
  Yb  Yb1  1  0.355683  0.000000  0.000000  1
  Yb  Yb2  1  0.644317  0.644317  0.644317  1
  Yb  Yb3  1  0.000000  0.000000  0.355683  1
  Al  Al4  1  0.250000  0.500000  0.750000  1
  Al  Al5  1  0.750000  0.500000  0.250000  1
  Al  Al6  1  0.250000  0.750000  0.500000  1
  Al  Al7  1  0.750000  0.250000  0.500000  1
  Al  Al8  1  0.500000  0.250000  0.750000  1
  Al  Al9  1  0.500000  0.750000  0.250000  1
  S  S10  1  0.000000  0.000000  0.000000  1
  O  O11  1  0.000000  0.568490  0.276424  1
  O  O12  1  0.431510  0.431510  0.707934  1
  O  O13  1  0.000000  0.276424  0.568490  1
  O  O14  1  0.276424  0.000000  0.568490  1
  O  O15  1  0.723576  0.292066  0.723576  1
  O  O16  1  0.292066  0.723576  0.723576  1
  O  O17  1  0.723576  0.723576  0.292066  1
  O  O18  1  0.568490  0.276424  0.000000  1
  O  O19  1  0.276424  0.568490  0.000000  1
  O  O20  1  0.431510  0.707934  0.431510  1
  O  O21  1  0.568490  0.000000  0.276424  1
  O  O22  1  0.707934  0.431510  0.431510  1
