# generated using pymatgen
data_Y10Ga3Bi2Os
_symmetry_space_group_name_H-M   'P 1'
_cell_length_a   8.77314001
_cell_length_b   8.77317102
_cell_length_c   8.86400669
_cell_angle_alpha   125.90578816
_cell_angle_beta   125.90504518
_cell_angle_gamma   79.33599766
_symmetry_Int_Tables_number   1
_chemical_formula_structural   Y10Ga3Bi2Os
_chemical_formula_sum   'Y10 Ga3 Bi2 Os1'
_cell_volume   434.28512384
_cell_formula_units_Z   1
loop_
 _symmetry_equiv_pos_site_id
 _symmetry_equiv_pos_as_xyz
  1  'x, y, z'
loop_
 _atom_site_type_symbol
 _atom_site_label
 _atom_site_symmetry_multiplicity
 _atom_site_fract_x
 _atom_site_fract_y
 _atom_site_fract_z
 _atom_site_occupancy
  Y  Y0  1  0.005028  0.008544  0.013570  1
  Y  Y1  1  0.491449  0.494973  0.986424  1
  Y  Y2  1  0.016792  0.504347  0.802283  1
  Y  Y3  1  0.714514  0.202065  0.197726  1
  Y  Y4  1  0.520462  0.703403  0.499998  1
  Y  Y5  1  0.192244  0.039599  0.499995  1
  Y  Y6  1  0.995654  0.483207  0.197719  1
  Y  Y7  1  0.297936  0.785490  0.802275  1
  Y  Y8  1  0.460399  0.307751  0.499999  1
  Y  Y9  1  0.796597  0.979541  0.500004  1
  Ga  Ga10  1  0.363498  0.857726  0.221221  1
  Ga  Ga11  1  0.642275  0.136513  0.778792  1
  Ga  Ga12  1  0.867664  0.632336  0.500000  1
  Bi  Bi13  1  0.754717  0.745280  0.999998  1
  Bi  Bi14  1  0.254715  0.245281  0.999996  1
  Os  Os15  1  0.126058  0.373942  0.500001  1
