# generated using pymatgen
data_CaHoTm6(B6Ru)4
_symmetry_space_group_name_H-M   'P 1'
_cell_length_a   3.62553900
_cell_length_b   9.08359778
_cell_length_c   11.46933502
_cell_angle_alpha   89.91921399
_cell_angle_beta   90.00000000
_cell_angle_gamma   90.00000000
_symmetry_Int_Tables_number   1
_chemical_formula_structural   CaHoTm6(B6Ru)4
_chemical_formula_sum   'Ca1 Ho1 Tm6 B24 Ru4'
_cell_volume   377.71852391
_cell_formula_units_Z   1
loop_
 _symmetry_equiv_pos_site_id
 _symmetry_equiv_pos_as_xyz
  1  'x, y, z'
loop_
 _atom_site_type_symbol
 _atom_site_label
 _atom_site_symmetry_multiplicity
 _atom_site_fract_x
 _atom_site_fract_y
 _atom_site_fract_z
 _atom_site_occupancy
  Ca  Ca0  1  0.000000  0.322273  0.413928  1
  Ho  Ho1  1  0.000000  0.676302  0.585089  1
  Tm  Tm2  1  0.000000  0.822107  0.086140  1
  Tm  Tm3  1  0.000000  0.178481  0.914712  1
  Tm  Tm4  1  0.000000  0.943939  0.371118  1
  Tm  Tm5  1  0.000000  0.057677  0.628287  1
  Tm  Tm6  1  0.000000  0.443144  0.129035  1
  Tm  Tm7  1  0.000000  0.556182  0.872565  1
  B  B8  1  0.500000  0.554819  0.432716  1
  B  B9  1  0.500000  0.446275  0.567943  1
  B  B10  1  0.500000  0.053038  0.065888  1
  B  B11  1  0.500000  0.945938  0.932959  1
  B  B12  1  0.500000  0.749231  0.419212  1
  B  B13  1  0.500000  0.251414  0.581739  1
  B  B14  1  0.500000  0.248035  0.079772  1
  B  B15  1  0.500000  0.751346  0.919995  1
  B  B16  1  0.500000  0.792138  0.265299  1
  B  B17  1  0.500000  0.208972  0.735151  1
  B  B18  1  0.500000  0.290153  0.233009  1
  B  B19  1  0.500000  0.708848  0.766254  1
  B  B20  1  0.500000  0.632058  0.184973  1
  B  B21  1  0.500000  0.368737  0.816006  1
  B  B22  1  0.500000  0.130158  0.313805  1
  B  B23  1  0.500000  0.868945  0.684918  1
  B  B24  1  0.500000  0.982204  0.211525  1
  B  B25  1  0.500000  0.017385  0.787463  1
  B  B26  1  0.500000  0.483902  0.286990  1
  B  B27  1  0.500000  0.517147  0.713311  1
  B  B28  1  0.500000  0.607159  0.029669  1
  B  B29  1  0.500000  0.393216  0.970896  1
  B  B30  1  0.500000  0.102319  0.471705  1
  B  B31  1  0.500000  0.895859  0.528755  1
  Ru  Ru32  1  0.000000  0.640453  0.319643  1
  Ru  Ru33  1  0.000000  0.361706  0.681488  1
  Ru  Ru34  1  0.000000  0.136203  0.176940  1
  Ru  Ru35  1  0.000000  0.862239  0.821103  1
