# generated using pymatgen
data_YErCBr
_symmetry_space_group_name_H-M   'P 1'
_cell_length_a   3.68378700
_cell_length_b   3.68378614
_cell_length_c   14.06345500
_cell_angle_alpha   90.00000000
_cell_angle_beta   90.00000000
_cell_angle_gamma   119.99998076
_symmetry_Int_Tables_number   1
_chemical_formula_structural   YErCBr
_chemical_formula_sum   'Y2 Er2 C2 Br2'
_cell_volume   165.27671204
_cell_formula_units_Z   2
loop_
 _symmetry_equiv_pos_site_id
 _symmetry_equiv_pos_as_xyz
  1  'x, y, z'
loop_
 _atom_site_type_symbol
 _atom_site_label
 _atom_site_symmetry_multiplicity
 _atom_site_fract_x
 _atom_site_fract_y
 _atom_site_fract_z
 _atom_site_occupancy
  Y  Y0  1  0.666667  0.333333  0.910171  1
  Y  Y1  1  0.333333  0.666667  0.410171  1
  Er  Er2  1  0.333333  0.666667  0.089188  1
  Er  Er3  1  0.666667  0.333333  0.589188  1
  C  C4  1  0.000000  0.000000  0.002760  1
  C  C5  1  0.000000  0.000000  0.502760  1
  Br  Br6  1  0.333333  0.666667  0.747880  1
  Br  Br7  1  0.666667  0.333333  0.247880  1
