# generated using pymatgen
data_HoNi2(AsRu)3
_symmetry_space_group_name_H-M   'P 1'
_cell_length_a   3.90152400
_cell_length_b   11.15226800
_cell_length_c   12.45763000
_cell_angle_alpha   90.00000000
_cell_angle_beta   90.00000000
_cell_angle_gamma   90.00000000
_symmetry_Int_Tables_number   1
_chemical_formula_structural   HoNi2(AsRu)3
_chemical_formula_sum   'Ho4 Ni8 As12 Ru12'
_cell_volume   542.04196136
_cell_formula_units_Z   4
loop_
 _symmetry_equiv_pos_site_id
 _symmetry_equiv_pos_as_xyz
  1  'x, y, z'
loop_
 _atom_site_type_symbol
 _atom_site_label
 _atom_site_symmetry_multiplicity
 _atom_site_fract_x
 _atom_site_fract_y
 _atom_site_fract_z
 _atom_site_occupancy
  Ho  Ho0  1  0.250000  0.591674  0.703951  1
  Ho  Ho1  1  0.250000  0.908326  0.203951  1
  Ho  Ho2  1  0.750000  0.408326  0.296049  1
  Ho  Ho3  1  0.750000  0.091674  0.796049  1
  Ni  Ni4  1  0.250000  0.891688  0.694672  1
  Ni  Ni5  1  0.250000  0.608312  0.194672  1
  Ni  Ni6  1  0.750000  0.108312  0.305328  1
  Ni  Ni7  1  0.750000  0.391688  0.805328  1
  Ni  Ni8  1  0.250000  0.467593  0.929292  1
  Ni  Ni9  1  0.250000  0.032407  0.429292  1
  Ni  Ni10  1  0.750000  0.532407  0.070708  1
  Ni  Ni11  1  0.750000  0.967593  0.570708  1
  As  As12  1  0.250000  0.414703  0.111555  1
  As  As13  1  0.250000  0.085297  0.611555  1
  As  As14  1  0.750000  0.585297  0.888445  1
  As  As15  1  0.750000  0.914703  0.388445  1
  As  As16  1  0.250000  0.271060  0.878296  1
  As  As17  1  0.250000  0.228940  0.378296  1
  As  As18  1  0.750000  0.728940  0.121704  1
  As  As19  1  0.750000  0.771060  0.621704  1
  As  As20  1  0.250000  0.597503  0.385291  1
  As  As21  1  0.250000  0.902497  0.885291  1
  As  As22  1  0.750000  0.402497  0.614709  1
  As  As23  1  0.750000  0.097503  0.114709  1
  Ru  Ru24  1  0.250000  0.710611  0.985312  1
  Ru  Ru25  1  0.250000  0.789389  0.485312  1
  Ru  Ru26  1  0.750000  0.289389  0.014688  1
  Ru  Ru27  1  0.750000  0.210611  0.514688  1
  Ru  Ru28  1  0.250000  0.407935  0.487376  1
  Ru  Ru29  1  0.250000  0.092065  0.987376  1
  Ru  Ru30  1  0.750000  0.592065  0.512624  1
  Ru  Ru31  1  0.750000  0.907935  0.012624  1
  Ru  Ru32  1  0.250000  0.216559  0.183820  1
  Ru  Ru33  1  0.250000  0.283441  0.683820  1
  Ru  Ru34  1  0.750000  0.783441  0.816180  1
  Ru  Ru35  1  0.750000  0.716559  0.316180  1
