# generated using pymatgen
data_Hf6Al13Fe7W3
_symmetry_space_group_name_H-M   'P 1'
_cell_length_a   8.52118691
_cell_length_b   8.52118612
_cell_length_c   8.52118657
_cell_angle_alpha   59.80254609
_cell_angle_beta   59.80254907
_cell_angle_gamma   59.80254576
_symmetry_Int_Tables_number   1
_chemical_formula_structural   Hf6Al13Fe7W3
_chemical_formula_sum   'Hf6 Al13 Fe7 W3'
_cell_volume   435.54618399
_cell_formula_units_Z   1
loop_
 _symmetry_equiv_pos_site_id
 _symmetry_equiv_pos_as_xyz
  1  'x, y, z'
loop_
 _atom_site_type_symbol
 _atom_site_label
 _atom_site_symmetry_multiplicity
 _atom_site_fract_x
 _atom_site_fract_y
 _atom_site_fract_z
 _atom_site_occupancy
  Hf  Hf0  1  0.697095  0.697095  0.301347  1
  Hf  Hf1  1  0.301997  0.698512  0.301997  1
  Hf  Hf2  1  0.698512  0.301997  0.301997  1
  Hf  Hf3  1  0.301997  0.301997  0.698512  1
  Hf  Hf4  1  0.697095  0.301347  0.697095  1
  Hf  Hf5  1  0.301347  0.697095  0.697095  1
  Al  Al6  1  0.881598  0.881598  0.881598  1
  Al  Al7  1  0.117829  0.117829  0.642939  1
  Al  Al8  1  0.117829  0.642939  0.117829  1
  Al  Al9  1  0.642939  0.117829  0.117829  1
  Al  Al10  1  0.120480  0.120480  0.120480  1
  Al  Al11  1  0.666108  0.666108  0.006605  1
  Al  Al12  1  0.666108  0.006605  0.666108  1
  Al  Al13  1  0.006605  0.666108  0.666108  1
  Al  Al14  1  0.662007  0.662007  0.662007  1
  Al  Al15  1  0.334807  0.334807  0.997236  1
  Al  Al16  1  0.334807  0.997236  0.334807  1
  Al  Al17  1  0.997236  0.334807  0.334807  1
  Al  Al18  1  0.334421  0.334421  0.334421  1
  Fe  Fe19  1  0.004836  0.004836  0.004836  1
  Fe  Fe20  1  0.997503  0.997503  0.493700  1
  Fe  Fe21  1  0.505089  0.996668  0.505089  1
  Fe  Fe22  1  0.996668  0.505089  0.505089  1
  Fe  Fe23  1  0.505089  0.505089  0.996668  1
  Fe  Fe24  1  0.997503  0.493700  0.997503  1
  Fe  Fe25  1  0.493700  0.997503  0.997503  1
  W  W26  1  0.879679  0.879679  0.359434  1
  W  W27  1  0.879679  0.359434  0.879679  1
  W  W28  1  0.359434  0.879679  0.879679  1
