# generated using pymatgen
data_Y3Lu5(CdPt)2
_symmetry_space_group_name_H-M   'P 1'
_cell_length_a   9.55940425
_cell_length_b   9.55940419
_cell_length_c   9.55940400
_cell_angle_alpha   60.00000066
_cell_angle_beta   60.00000087
_cell_angle_gamma   60.00000237
_symmetry_Int_Tables_number   1
_chemical_formula_structural   Y3Lu5(CdPt)2
_chemical_formula_sum   'Y6 Lu10 Cd4 Pt4'
_cell_volume   617.69983261
_cell_formula_units_Z   2
loop_
 _symmetry_equiv_pos_site_id
 _symmetry_equiv_pos_as_xyz
  1  'x, y, z'
loop_
 _atom_site_type_symbol
 _atom_site_label
 _atom_site_symmetry_multiplicity
 _atom_site_fract_x
 _atom_site_fract_y
 _atom_site_fract_z
 _atom_site_occupancy
  Y  Y0  1  0.937724  0.562276  0.562276  1
  Y  Y1  1  0.562276  0.937724  0.937724  1
  Y  Y2  1  0.562276  0.937724  0.562276  1
  Y  Y3  1  0.937724  0.562276  0.937724  1
  Y  Y4  1  0.562276  0.562276  0.937724  1
  Y  Y5  1  0.937724  0.937724  0.562276  1
  Lu  Lu6  1  0.352183  0.352183  0.352183  1
  Lu  Lu7  1  0.352183  0.352183  0.943451  1
  Lu  Lu8  1  0.352183  0.943451  0.352183  1
  Lu  Lu9  1  0.943451  0.352183  0.352183  1
  Lu  Lu10  1  0.811825  0.188175  0.188175  1
  Lu  Lu11  1  0.188175  0.811825  0.811825  1
  Lu  Lu12  1  0.188175  0.811825  0.188175  1
  Lu  Lu13  1  0.811825  0.188175  0.811825  1
  Lu  Lu14  1  0.188175  0.188175  0.811825  1
  Lu  Lu15  1  0.811825  0.811825  0.188175  1
  Cd  Cd16  1  0.581335  0.581335  0.581335  1
  Cd  Cd17  1  0.581335  0.581335  0.255996  1
  Cd  Cd18  1  0.581335  0.255996  0.581335  1
  Cd  Cd19  1  0.255996  0.581335  0.581335  1
  Pt  Pt20  1  0.143249  0.143249  0.143249  1
  Pt  Pt21  1  0.143249  0.143249  0.570252  1
  Pt  Pt22  1  0.143249  0.570252  0.143249  1
  Pt  Pt23  1  0.570252  0.143249  0.143249  1
