# generated using pymatgen
data_KRb2TmSb2
_symmetry_space_group_name_H-M   'P 1'
_cell_length_a   10.20166260
_cell_length_b   10.20166284
_cell_length_c   10.20166265
_cell_angle_alpha   131.48141858
_cell_angle_beta   67.20914812
_cell_angle_gamma   136.46811842
_symmetry_Int_Tables_number   1
_chemical_formula_structural   KRb2TmSb2
_chemical_formula_sum   'K2 Rb4 Tm2 Sb4'
_cell_volume   538.90595238
_cell_formula_units_Z   2
loop_
 _symmetry_equiv_pos_site_id
 _symmetry_equiv_pos_as_xyz
  1  'x, y, z'
loop_
 _atom_site_type_symbol
 _atom_site_label
 _atom_site_symmetry_multiplicity
 _atom_site_fract_x
 _atom_site_fract_y
 _atom_site_fract_z
 _atom_site_occupancy
  K  K0  1  0.750000  0.250000  0.500000  1
  K  K1  1  0.250000  0.750000  0.500000  1
  Rb  Rb2  1  0.313687  0.717514  0.031200  1
  Rb  Rb3  1  0.186313  0.217513  0.403826  1
  Rb  Rb4  1  0.813687  0.782487  0.596174  1
  Rb  Rb5  1  0.686313  0.282487  0.968800  1
  Tm  Tm6  1  0.250000  0.250000  0.000000  1
  Tm  Tm7  1  0.750000  0.750000  0.000000  1
  Sb  Sb8  1  0.901502  0.199013  0.100513  1
  Sb  Sb9  1  0.598500  0.699012  0.297511  1
  Sb  Sb10  1  0.401501  0.300988  0.702489  1
  Sb  Sb11  1  0.098499  0.800988  0.899487  1
