# generated using pymatgen
data_Eu2AsWO8
_symmetry_space_group_name_H-M   'P 1'
_cell_length_a   6.27339309
_cell_length_b   6.27339225
_cell_length_c   6.27339349
_cell_angle_alpha   106.44597058
_cell_angle_beta   106.44596427
_cell_angle_gamma   115.70756119
_symmetry_Int_Tables_number   1
_chemical_formula_structural   Eu2AsWO8
_chemical_formula_sum   'Eu2 As1 W1 O8'
_cell_volume   188.35092408
_cell_formula_units_Z   1
loop_
 _symmetry_equiv_pos_site_id
 _symmetry_equiv_pos_as_xyz
  1  'x, y, z'
loop_
 _atom_site_type_symbol
 _atom_site_label
 _atom_site_symmetry_multiplicity
 _atom_site_fract_x
 _atom_site_fract_y
 _atom_site_fract_z
 _atom_site_occupancy
  Eu  Eu0  1  0.000000  0.000000  0.000000  1
  Eu  Eu1  1  0.250000  0.750000  0.500000  1
  As  As2  1  0.500000  0.500000  0.000000  1
  W  W3  1  0.750000  0.250000  0.500000  1
  O  O4  1  0.335079  0.156982  0.821903  1
  O  O5  1  0.763522  0.077498  0.686023  1
  O  O6  1  0.391476  0.077498  0.313977  1
  O  O7  1  0.335079  0.513178  0.178097  1
  O  O8  1  0.486822  0.664921  0.821903  1
  O  O9  1  0.922502  0.608524  0.686023  1
  O  O10  1  0.922502  0.236478  0.313977  1
  O  O11  1  0.843018  0.664921  0.178097  1
