# generated using pymatgen
data_Tm8Ti12Si15Se
_symmetry_space_group_name_H-M   'P 1'
_cell_length_a   7.02776109
_cell_length_b   7.01090530
_cell_length_c   12.89926107
_cell_angle_alpha   89.91529074
_cell_angle_beta   89.68039163
_cell_angle_gamma   89.90145529
_symmetry_Int_Tables_number   1
_chemical_formula_structural   Tm8Ti12Si15Se
_chemical_formula_sum   'Tm8 Ti12 Si15 Se1'
_cell_volume   635.54755852
_cell_formula_units_Z   1
loop_
 _symmetry_equiv_pos_site_id
 _symmetry_equiv_pos_as_xyz
  1  'x, y, z'
loop_
 _atom_site_type_symbol
 _atom_site_label
 _atom_site_symmetry_multiplicity
 _atom_site_fract_x
 _atom_site_fract_y
 _atom_site_fract_z
 _atom_site_occupancy
  Tm  Tm0  1  0.342366  0.000425  0.465064  1
  Tm  Tm1  1  0.498334  0.843768  0.718098  1
  Tm  Tm2  1  0.501263  0.158248  0.216542  1
  Tm  Tm3  1  0.840777  0.497523  0.282954  1
  Tm  Tm4  1  0.158607  0.500342  0.783179  1
  Tm  Tm5  1  0.661739  0.993991  0.968683  1
  Tm  Tm6  1  0.996799  0.345334  0.530641  1
  Tm  Tm7  1  0.999208  0.659256  0.033429  1
  Ti  Ti8  1  0.325853  0.326805  0.999758  1
  Ti  Ti9  1  0.172923  0.827278  0.249988  1
  Ti  Ti10  1  0.822414  0.173593  0.750035  1
  Ti  Ti11  1  0.672863  0.672141  0.500291  1
  Ti  Ti12  1  0.155754  0.009071  0.874056  1
  Ti  Ti13  1  0.492643  0.651696  0.125089  1
  Ti  Ti14  1  0.507781  0.347246  0.627179  1
  Ti  Ti15  1  0.656252  0.497970  0.876444  1
  Ti  Ti16  1  0.347053  0.505933  0.374733  1
  Ti  Ti17  1  0.847407  0.993422  0.375004  1
  Ti  Ti18  1  0.006933  0.151293  0.124914  1
  Ti  Ti19  1  0.988615  0.841830  0.622769  1
  Si  Si20  1  0.367517  0.703769  0.932720  1
  Si  Si21  1  0.630106  0.297737  0.433736  1
  Si  Si22  1  0.703694  0.368733  0.067587  1
  Si  Si23  1  0.297200  0.631394  0.567158  1
  Si  Si24  1  0.796727  0.868957  0.183573  1
  Si  Si25  1  0.131336  0.203030  0.317200  1
  Si  Si26  1  0.869991  0.797961  0.816091  1
  Si  Si27  1  0.292118  0.953638  0.064186  1
  Si  Si28  1  0.546537  0.790901  0.314264  1
  Si  Si29  1  0.468879  0.212462  0.823079  1
  Si  Si30  1  0.791515  0.545698  0.685441  1
  Si  Si31  1  0.207941  0.453425  0.185782  1
  Si  Si32  1  0.706833  0.045774  0.563708  1
  Si  Si33  1  0.954380  0.291764  0.935594  1
  Si  Si34  1  0.046191  0.708707  0.434537  1
  Se  Se35  1  0.193451  0.128891  0.676495  1
