# generated using pymatgen
data_Y16Ho4Cd3Ru2Au3
_symmetry_space_group_name_H-M   'P 1'
_cell_length_a   9.59737200
_cell_length_b   9.59737117
_cell_length_c   9.64808700
_cell_angle_alpha   90.00000000
_cell_angle_beta   90.00000000
_cell_angle_gamma   120.00000287
_symmetry_Int_Tables_number   1
_chemical_formula_structural   Y16Ho4Cd3Ru2Au3
_chemical_formula_sum   'Y16 Ho4 Cd3 Ru2 Au3'
_cell_volume   769.62018540
_cell_formula_units_Z   1
loop_
 _symmetry_equiv_pos_site_id
 _symmetry_equiv_pos_as_xyz
  1  'x, y, z'
loop_
 _atom_site_type_symbol
 _atom_site_label
 _atom_site_symmetry_multiplicity
 _atom_site_fract_x
 _atom_site_fract_y
 _atom_site_fract_z
 _atom_site_occupancy
  Y  Y0  1  0.000000  0.000000  0.038179  1
  Y  Y1  1  0.209080  0.790920  0.440084  1
  Y  Y2  1  0.209080  0.418160  0.440084  1
  Y  Y3  1  0.581840  0.790920  0.440084  1
  Y  Y4  1  0.791780  0.208220  0.558140  1
  Y  Y5  1  0.791780  0.583557  0.558140  1
  Y  Y6  1  0.416443  0.208220  0.558140  1
  Y  Y7  1  0.791573  0.208427  0.941880  1
  Y  Y8  1  0.791573  0.583143  0.941880  1
  Y  Y9  1  0.416857  0.208427  0.941880  1
  Y  Y10  1  0.209325  0.790675  0.059936  1
  Y  Y11  1  0.209325  0.418651  0.059936  1
  Y  Y12  1  0.581349  0.790675  0.059936  1
  Y  Y13  1  0.458792  0.541208  0.749931  1
  Y  Y14  1  0.458792  0.917585  0.749931  1
  Y  Y15  1  0.082415  0.541208  0.749931  1
  Ho  Ho16  1  0.000000  0.000000  0.460131  1
  Ho  Ho17  1  0.540930  0.459070  0.250054  1
  Ho  Ho18  1  0.540930  0.081859  0.250054  1
  Ho  Ho19  1  0.918141  0.459070  0.250054  1
  Cd  Cd20  1  0.109824  0.890176  0.749712  1
  Cd  Cd21  1  0.109824  0.219646  0.749712  1
  Cd  Cd22  1  0.780354  0.890176  0.749712  1
  Ru  Ru23  1  0.333333  0.666667  0.250150  1
  Ru  Ru24  1  0.666667  0.333333  0.749976  1
  Au  Au25  1  0.869247  0.130753  0.250783  1
  Au  Au26  1  0.869247  0.738495  0.250783  1
  Au  Au27  1  0.261505  0.130753  0.250783  1
