# generated using pymatgen
data_Ho4LuSn3P
_symmetry_space_group_name_H-M   'P 1'
_cell_length_a   9.00696400
_cell_length_b   9.00696382
_cell_length_c   6.63444400
_cell_angle_alpha   90.00000000
_cell_angle_beta   90.00000000
_cell_angle_gamma   119.99999333
_symmetry_Int_Tables_number   1
_chemical_formula_structural   Ho4LuSn3P
_chemical_formula_sum   'Ho8 Lu2 Sn6 P2'
_cell_volume   466.11388310
_cell_formula_units_Z   2
loop_
 _symmetry_equiv_pos_site_id
 _symmetry_equiv_pos_as_xyz
  1  'x, y, z'
loop_
 _atom_site_type_symbol
 _atom_site_label
 _atom_site_symmetry_multiplicity
 _atom_site_fract_x
 _atom_site_fract_y
 _atom_site_fract_z
 _atom_site_occupancy
  Ho  Ho0  1  0.666667  0.333333  0.000000  1
  Ho  Ho1  1  0.333333  0.666667  0.000000  1
  Ho  Ho2  1  0.757837  0.757837  0.749741  1
  Ho  Ho3  1  0.242163  0.000000  0.749741  1
  Ho  Ho4  1  0.000000  0.242163  0.749741  1
  Ho  Ho5  1  0.242163  0.242163  0.250259  1
  Ho  Ho6  1  0.757837  0.000000  0.250259  1
  Ho  Ho7  1  0.000000  0.757837  0.250259  1
  Lu  Lu8  1  0.333333  0.666667  0.500000  1
  Lu  Lu9  1  0.666667  0.333333  0.500000  1
  Sn  Sn10  1  0.399435  0.399435  0.748836  1
  Sn  Sn11  1  0.600565  0.000000  0.748836  1
  Sn  Sn12  1  0.000000  0.600565  0.748836  1
  Sn  Sn13  1  0.600565  0.600565  0.251164  1
  Sn  Sn14  1  0.399435  0.000000  0.251164  1
  Sn  Sn15  1  0.000000  0.399435  0.251164  1
  P  P16  1  0.000000  0.000000  0.000000  1
  P  P17  1  0.000000  0.000000  0.500000  1
