# generated using pymatgen
data_Ac3NdAu8
_symmetry_space_group_name_H-M   'P 1'
_cell_length_a   4.83194700
_cell_length_b   4.83194738
_cell_length_c   15.43107400
_cell_angle_alpha   90.00000000
_cell_angle_beta   90.00000000
_cell_angle_gamma   120.00000426
_symmetry_Int_Tables_number   1
_chemical_formula_structural   Ac3NdAu8
_chemical_formula_sum   'Ac3 Nd1 Au8'
_cell_volume   312.01187622
_cell_formula_units_Z   1
loop_
 _symmetry_equiv_pos_site_id
 _symmetry_equiv_pos_as_xyz
  1  'x, y, z'
loop_
 _atom_site_type_symbol
 _atom_site_label
 _atom_site_symmetry_multiplicity
 _atom_site_fract_x
 _atom_site_fract_y
 _atom_site_fract_z
 _atom_site_occupancy
  Ac  Ac0  1  0.000000  0.000000  0.506092  1
  Ac  Ac1  1  0.000000  0.000000  0.993908  1
  Ac  Ac2  1  0.000000  0.000000  0.250000  1
  Nd  Nd3  1  0.000000  0.000000  0.750000  1
  Au  Au4  1  0.333333  0.666667  0.376804  1
  Au  Au5  1  0.666667  0.333333  0.637419  1
  Au  Au6  1  0.666667  0.333333  0.862581  1
  Au  Au7  1  0.333333  0.666667  0.123196  1
  Au  Au8  1  0.666667  0.333333  0.376043  1
  Au  Au9  1  0.333333  0.666667  0.637521  1
  Au  Au10  1  0.333333  0.666667  0.862479  1
  Au  Au11  1  0.666667  0.333333  0.123957  1
