# generated using pymatgen
data_Ho4TiSi4Rh
_symmetry_space_group_name_H-M   'P 1'
_cell_length_a   5.82857266
_cell_length_b   5.82857261
_cell_length_c   10.08781330
_cell_angle_alpha   116.29573122
_cell_angle_beta   116.29572983
_cell_angle_gamma   41.86823237
_symmetry_Int_Tables_number   1
_chemical_formula_structural   Ho4TiSi4Rh
_chemical_formula_sum   'Ho4 Ti1 Si4 Rh1'
_cell_volume   201.36269971
_cell_formula_units_Z   1
loop_
 _symmetry_equiv_pos_site_id
 _symmetry_equiv_pos_as_xyz
  1  'x, y, z'
loop_
 _atom_site_type_symbol
 _atom_site_label
 _atom_site_symmetry_multiplicity
 _atom_site_fract_x
 _atom_site_fract_y
 _atom_site_fract_z
 _atom_site_occupancy
  Ho  Ho0  1  0.006960  0.006960  0.177832  1
  Ho  Ho1  1  0.815984  0.815984  0.396593  1
  Ho  Ho2  1  0.190420  0.190420  0.611010  1
  Ho  Ho3  1  0.990570  0.990570  0.816909  1
  Ti  Ti4  1  0.273389  0.273389  0.129409  1
  Si  Si5  1  0.625236  0.625236  0.052454  1
  Si  Si6  1  0.511604  0.511604  0.386873  1
  Si  Si7  1  0.500314  0.500314  0.623628  1
  Si  Si8  1  0.359052  0.359052  0.932853  1
  Rh  Rh9  1  0.726469  0.726469  0.872436  1
