# generated using pymatgen
data_TbYTm8(In2Pd)4
_symmetry_space_group_name_H-M   'P 1'
_cell_length_a   3.60133700
_cell_length_b   8.13911203
_cell_length_c   18.22731700
_cell_angle_alpha   90.02886220
_cell_angle_beta   90.00000000
_cell_angle_gamma   90.00000000
_symmetry_Int_Tables_number   1
_chemical_formula_structural   TbYTm8(In2Pd)4
_chemical_formula_sum   'Tb1 Y1 Tm8 In8 Pd4'
_cell_volume   534.27331217
_cell_formula_units_Z   1
loop_
 _symmetry_equiv_pos_site_id
 _symmetry_equiv_pos_as_xyz
  1  'x, y, z'
loop_
 _atom_site_type_symbol
 _atom_site_label
 _atom_site_symmetry_multiplicity
 _atom_site_fract_x
 _atom_site_fract_y
 _atom_site_fract_z
 _atom_site_occupancy
  Tb  Tb0  1  0.000000  0.500000  0.500000  1
  Y  Y1  1  0.000000  0.000000  0.000000  1
  Tm  Tm2  1  0.000000  0.739235  0.280915  1
  Tm  Tm3  1  0.000000  0.260765  0.719085  1
  Tm  Tm4  1  0.000000  0.760718  0.780876  1
  Tm  Tm5  1  0.000000  0.239282  0.219124  1
  Tm  Tm6  1  0.000000  0.616858  0.084316  1
  Tm  Tm7  1  0.000000  0.383142  0.915684  1
  Tm  Tm8  1  0.000000  0.882718  0.584246  1
  Tm  Tm9  1  0.000000  0.117282  0.415754  1
  In  In10  1  0.500000  0.706510  0.932677  1
  In  In11  1  0.500000  0.293490  0.067323  1
  In  In12  1  0.500000  0.793719  0.432615  1
  In  In13  1  0.500000  0.206281  0.567385  1
  In  In14  1  0.500000  0.581620  0.650909  1
  In  In15  1  0.500000  0.418380  0.349091  1
  In  In16  1  0.500000  0.918483  0.150746  1
  In  In17  1  0.500000  0.081517  0.849254  1
  Pd  Pd18  1  0.500000  0.523409  0.195909  1
  Pd  Pd19  1  0.500000  0.476591  0.804091  1
  Pd  Pd20  1  0.500000  0.976508  0.696038  1
  Pd  Pd21  1  0.500000  0.023492  0.303962  1
