# generated using pymatgen
data_Ac3La7C4I15
_symmetry_space_group_name_H-M   'P 1'
_cell_length_a   10.05725676
_cell_length_b   10.92376436
_cell_length_c   12.10978917
_cell_angle_alpha   93.81159658
_cell_angle_beta   114.49444288
_cell_angle_gamma   109.10157846
_symmetry_Int_Tables_number   1
_chemical_formula_structural   Ac3La7C4I15
_chemical_formula_sum   'Ac3 La7 C4 I15'
_cell_volume   1111.96019619
_cell_formula_units_Z   1
loop_
 _symmetry_equiv_pos_site_id
 _symmetry_equiv_pos_as_xyz
  1  'x, y, z'
loop_
 _atom_site_type_symbol
 _atom_site_label
 _atom_site_symmetry_multiplicity
 _atom_site_fract_x
 _atom_site_fract_y
 _atom_site_fract_z
 _atom_site_occupancy
  Ac  Ac0  1  0.600232  0.537024  0.346575  1
  Ac  Ac1  1  0.335657  0.746613  0.163075  1
  Ac  Ac2  1  0.785504  0.891522  0.260354  1
  La  La3  1  0.527597  0.187377  0.099218  1
  La  La4  1  0.223751  0.117865  0.743410  1
  La  La5  1  0.403361  0.458897  0.661911  1
  La  La6  1  0.471266  0.811171  0.897122  1
  La  La7  1  0.701320  0.564557  0.041284  1
  La  La8  1  0.296563  0.431737  0.953895  1
  La  La9  1  0.653213  0.253209  0.835315  1
  C  C10  1  0.481912  0.301223  0.937088  1
  C  C11  1  0.517750  0.698585  0.061047  1
  C  C12  1  0.453085  0.362166  0.835194  1
  C  C13  1  0.546995  0.637399  0.162991  1
  I  I14  1  0.207979  0.909221  0.933800  1
  I  I15  1  0.107800  0.190351  0.470272  1
  I  I16  1  0.153273  0.554201  0.705810  1
  I  I17  1  0.405308  0.970281  0.650152  1
  I  I18  1  0.712486  0.731264  0.823380  1
  I  I19  1  0.282342  0.262645  0.172396  1
  I  I20  1  0.850648  0.442143  0.290862  1
  I  I21  1  0.901366  0.815769  0.538684  1
  I  I22  1  0.357027  0.629199  0.417132  1
  I  I23  1  0.056607  0.830492  0.218366  1
  I  I24  1  0.789738  0.094668  0.057898  1
  I  I25  1  0.639494  0.368391  0.591207  1
  I  I26  1  0.949913  0.169094  0.780907  1
  I  I27  1  0.594453  0.038145  0.354218  1
  I  I28  1  0.993362  0.494791  0.996436  1
