# generated using pymatgen
data_Zr6Ta3Nb3Ga10Os7
_symmetry_space_group_name_H-M   'P 1'
_cell_length_a   8.97488633
_cell_length_b   8.92866292
_cell_length_c   8.92866324
_cell_angle_alpha   59.35593542
_cell_angle_beta   59.79056066
_cell_angle_gamma   59.79055388
_symmetry_Int_Tables_number   1
_chemical_formula_structural   Zr6Ta3Nb3Ga10Os7
_chemical_formula_sum   'Zr6 Ta3 Nb3 Ga10 Os7'
_cell_volume   501.83321526
_cell_formula_units_Z   1
loop_
 _symmetry_equiv_pos_site_id
 _symmetry_equiv_pos_as_xyz
  1  'x, y, z'
loop_
 _atom_site_type_symbol
 _atom_site_label
 _atom_site_symmetry_multiplicity
 _atom_site_fract_x
 _atom_site_fract_y
 _atom_site_fract_z
 _atom_site_occupancy
  Zr  Zr0  1  0.685168  0.699772  0.309937  1
  Zr  Zr1  1  0.305493  0.698681  0.310577  1
  Zr  Zr2  1  0.702219  0.297416  0.297416  1
  Zr  Zr3  1  0.305493  0.310577  0.698681  1
  Zr  Zr4  1  0.685168  0.309937  0.699772  1
  Zr  Zr5  1  0.306648  0.693414  0.693414  1
  Ta  Ta6  1  0.871768  0.876436  0.876436  1
  Ta  Ta7  1  0.126449  0.127426  0.619056  1
  Ta  Ta8  1  0.126449  0.619056  0.127426  1
  Nb  Nb9  1  0.875288  0.881003  0.368260  1
  Nb  Nb10  1  0.875288  0.368260  0.881003  1
  Nb  Nb11  1  0.376096  0.876609  0.876609  1
  Ga  Ga12  1  0.647646  0.117932  0.117932  1
  Ga  Ga13  1  0.116945  0.117460  0.117460  1
  Ga  Ga14  1  0.656058  0.652372  0.035534  1
  Ga  Ga15  1  0.656058  0.035534  0.652372  1
  Ga  Ga16  1  0.028660  0.656217  0.656217  1
  Ga  Ga17  1  0.658514  0.656183  0.656183  1
  Ga  Ga18  1  0.340245  0.336187  0.983067  1
  Ga  Ga19  1  0.340245  0.983067  0.336187  1
  Ga  Ga20  1  0.963348  0.344577  0.344577  1
  Ga  Ga21  1  0.346987  0.344739  0.344739  1
  Os  Os22  1  0.012364  0.987585  0.987585  1
  Os  Os23  1  0.998845  0.999631  0.506125  1
  Os  Os24  1  0.495377  0.999789  0.505817  1
  Os  Os25  1  0.999435  0.500299  0.500299  1
  Os  Os26  1  0.495377  0.505817  0.999789  1
  Os  Os27  1  0.998845  0.506125  0.999631  1
  Os  Os28  1  0.503525  0.997902  0.997902  1
