# generated using pymatgen
data_NaTc12Cl25
_symmetry_space_group_name_H-M   'P 1'
_cell_length_a   9.42337532
_cell_length_b   10.45977252
_cell_length_c   11.08143334
_cell_angle_alpha   84.41765887
_cell_angle_beta   74.30918965
_cell_angle_gamma   87.72466588
_symmetry_Int_Tables_number   1
_chemical_formula_structural   NaTc12Cl25
_chemical_formula_sum   'Na1 Tc12 Cl25'
_cell_volume   1046.46445724
_cell_formula_units_Z   1
loop_
 _symmetry_equiv_pos_site_id
 _symmetry_equiv_pos_as_xyz
  1  'x, y, z'
loop_
 _atom_site_type_symbol
 _atom_site_label
 _atom_site_symmetry_multiplicity
 _atom_site_fract_x
 _atom_site_fract_y
 _atom_site_fract_z
 _atom_site_occupancy
  Na  Na0  1  0.500000  0.000000  0.000000  1
  Tc  Tc1  1  0.826501  0.253482  0.117579  1
  Tc  Tc2  1  0.173499  0.746518  0.882421  1
  Tc  Tc3  1  0.748802  0.114750  0.280966  1
  Tc  Tc4  1  0.251198  0.885250  0.719034  1
  Tc  Tc5  1  0.073538  0.274330  0.189896  1
  Tc  Tc6  1  0.926462  0.725670  0.810104  1
  Tc  Tc7  1  0.844200  0.434314  0.266380  1
  Tc  Tc8  1  0.155800  0.565686  0.733620  1
  Tc  Tc9  1  0.763787  0.297517  0.432854  1
  Tc  Tc10  1  0.236213  0.702483  0.567146  1
  Tc  Tc11  1  0.992476  0.138237  0.356513  1
  Tc  Tc12  1  0.007524  0.861763  0.643487  1
  Cl  Cl13  1  0.941946  0.960632  0.259048  1
  Cl  Cl14  1  0.058054  0.039368  0.740952  1
  Cl  Cl15  1  0.967569  0.276287  0.518296  1
  Cl  Cl16  1  0.032431  0.723713  0.481704  1
  Cl  Cl17  1  0.649624  0.421074  0.169378  1
  Cl  Cl18  1  0.350376  0.578926  0.830622  1
  Cl  Cl19  1  0.087226  0.466185  0.281848  1
  Cl  Cl20  1  0.912774  0.533815  0.718152  1
  Cl  Cl21  1  0.000000  0.500000  0.000000  1
  Cl  Cl22  1  0.596386  0.964175  0.233729  1
  Cl  Cl23  1  0.403614  0.035825  0.766271  1
  Cl  Cl24  1  0.195913  0.028288  0.411504  1
  Cl  Cl25  1  0.804087  0.971712  0.588496  1
  Cl  Cl26  1  0.543120  0.219512  0.406489  1
  Cl  Cl27  1  0.456880  0.780488  0.593511  1
  Cl  Cl28  1  0.057755  0.159356  0.021589  1
  Cl  Cl29  1  0.942245  0.840644  0.978411  1
  Cl  Cl30  1  0.774284  0.642471  0.314864  1
  Cl  Cl31  1  0.225716  0.357529  0.685136  1
  Cl  Cl32  1  0.732134  0.206853  0.949612  1
  Cl  Cl33  1  0.267866  0.793147  0.050388  1
  Cl  Cl34  1  0.331710  0.258375  0.118224  1
  Cl  Cl35  1  0.668290  0.741625  0.881776  1
  Cl  Cl36  1  0.633618  0.405528  0.601569  1
  Cl  Cl37  1  0.366382  0.594472  0.398431  1
