# generated using pymatgen
data_Nd4Tc3OsI2
_symmetry_space_group_name_H-M   'P 1'
_cell_length_a   4.20337600
_cell_length_b   4.20337566
_cell_length_c   18.24384700
_cell_angle_alpha   90.00000000
_cell_angle_beta   90.00000000
_cell_angle_gamma   120.00000271
_symmetry_Int_Tables_number   1
_chemical_formula_structural   Nd4Tc3OsI2
_chemical_formula_sum   'Nd4 Tc3 Os1 I2'
_cell_volume   279.15376273
_cell_formula_units_Z   1
loop_
 _symmetry_equiv_pos_site_id
 _symmetry_equiv_pos_as_xyz
  1  'x, y, z'
loop_
 _atom_site_type_symbol
 _atom_site_label
 _atom_site_symmetry_multiplicity
 _atom_site_fract_x
 _atom_site_fract_y
 _atom_site_fract_z
 _atom_site_occupancy
  Nd  Nd0  1  0.000000  0.000000  0.112087  1
  Nd  Nd1  1  0.000000  0.000000  0.888279  1
  Nd  Nd2  1  0.000000  0.000000  0.613303  1
  Nd  Nd3  1  0.000000  0.000000  0.386476  1
  Tc  Tc4  1  0.333333  0.666667  0.515017  1
  Tc  Tc5  1  0.666667  0.333333  0.484936  1
  Tc  Tc6  1  0.666667  0.333333  0.012777  1
  Os  Os7  1  0.333333  0.666667  0.986959  1
  I  I8  1  0.333333  0.666667  0.249407  1
  I  I9  1  0.666667  0.333333  0.750757  1
