# generated using pymatgen
data_TbHo3Al18(PdRh)3
_symmetry_space_group_name_H-M   'P 1'
_cell_length_a   7.60047317
_cell_length_b   7.60170767
_cell_length_c   9.43800701
_cell_angle_alpha   90.00883195
_cell_angle_beta   90.01098888
_cell_angle_gamma   119.60489435
_symmetry_Int_Tables_number   1
_chemical_formula_structural   TbHo3Al18(PdRh)3
_chemical_formula_sum   'Tb1 Ho3 Al18 Pd3 Rh3'
_cell_volume   474.10882730
_cell_formula_units_Z   1
loop_
 _symmetry_equiv_pos_site_id
 _symmetry_equiv_pos_as_xyz
  1  'x, y, z'
loop_
 _atom_site_type_symbol
 _atom_site_label
 _atom_site_symmetry_multiplicity
 _atom_site_fract_x
 _atom_site_fract_y
 _atom_site_fract_z
 _atom_site_occupancy
  Tb  Tb0  1  0.996249  0.669730  0.249856  1
  Ho  Ho1  1  0.005634  0.331349  0.750042  1
  Ho  Ho2  1  0.668583  0.994358  0.249960  1
  Ho  Ho3  1  0.330112  0.003787  0.750212  1
  Al  Al4  1  0.124947  0.126063  0.249293  1
  Al  Al5  1  0.874184  0.875162  0.750709  1
  Al  Al6  1  0.995667  0.330360  0.074935  1
  Al  Al7  1  0.996608  0.665040  0.924634  1
  Al  Al8  1  0.999166  0.669158  0.577214  1
  Al  Al9  1  0.331141  0.001109  0.423183  1
  Al  Al10  1  0.000067  0.330674  0.423703  1
  Al  Al11  1  0.669055  0.999942  0.576453  1
  Al  Al12  1  0.669354  0.004326  0.924889  1
  Al  Al13  1  0.335225  0.003637  0.074972  1
  Al  Al14  1  0.330359  0.330266  0.556207  1
  Al  Al15  1  0.669528  0.669678  0.444016  1
  Al  Al16  1  0.670704  0.667750  0.052492  1
  Al  Al17  1  0.332265  0.329091  0.947280  1
  Al  Al18  1  0.340171  0.545564  0.249264  1
  Al  Al19  1  0.659173  0.451173  0.753270  1
  Al  Al20  1  0.548476  0.340539  0.246717  1
  Al  Al21  1  0.454352  0.660003  0.750732  1
  Pd  Pd22  1  0.327293  0.672789  0.999910  1
  Pd  Pd23  1  0.327388  0.672698  0.500089  1
  Pd  Pd24  1  0.672143  0.327713  0.500096  1
  Rh  Rh25  1  0.671977  0.327849  0.999875  1
  Rh  Rh26  1  0.000255  0.999930  0.999852  1
  Rh  Rh27  1  0.999927  0.000263  0.500145  1
