# generated using pymatgen
data_Th8InSe17
_symmetry_space_group_name_H-M   'P 1'
_cell_length_a   8.53971880
_cell_length_b   8.53971835
_cell_length_c   11.43416595
_cell_angle_alpha   79.39234069
_cell_angle_beta   79.39234176
_cell_angle_gamma   64.50501072
_symmetry_Int_Tables_number   1
_chemical_formula_structural   Th8InSe17
_chemical_formula_sum   'Th8 In1 Se17'
_cell_volume   734.61192326
_cell_formula_units_Z   1
loop_
 _symmetry_equiv_pos_site_id
 _symmetry_equiv_pos_as_xyz
  1  'x, y, z'
loop_
 _atom_site_type_symbol
 _atom_site_label
 _atom_site_symmetry_multiplicity
 _atom_site_fract_x
 _atom_site_fract_y
 _atom_site_fract_z
 _atom_site_occupancy
  Th  Th0  1  0.185411  0.693361  0.700868  1
  Th  Th1  1  0.693361  0.185411  0.700868  1
  Th  Th2  1  0.814589  0.306639  0.299132  1
  Th  Th3  1  0.306639  0.814589  0.299132  1
  Th  Th4  1  0.795175  0.795175  0.458984  1
  Th  Th5  1  0.204825  0.204825  0.541016  1
  Th  Th6  1  0.319145  0.319145  0.020307  1
  Th  Th7  1  0.680855  0.680855  0.979693  1
  In  In8  1  0.000000  0.000000  0.000000  1
  Se  Se9  1  0.177312  0.568990  0.469018  1
  Se  Se10  1  0.568990  0.177312  0.469018  1
  Se  Se11  1  0.822688  0.431010  0.530982  1
  Se  Se12  1  0.431010  0.822688  0.530982  1
  Se  Se13  1  0.054452  0.666807  0.959853  1
  Se  Se14  1  0.666807  0.054452  0.959853  1
  Se  Se15  1  0.945548  0.333193  0.040147  1
  Se  Se16  1  0.333193  0.945548  0.040147  1
  Se  Se17  1  0.789928  0.789928  0.720198  1
  Se  Se18  1  0.210072  0.210072  0.279802  1
  Se  Se19  1  0.943656  0.943656  0.239768  1
  Se  Se20  1  0.056344  0.056344  0.760232  1
  Se  Se21  1  0.697786  0.697786  0.247384  1
  Se  Se22  1  0.302214  0.302214  0.752616  1
  Se  Se23  1  0.481486  0.481486  0.168351  1
  Se  Se24  1  0.518514  0.518514  0.831649  1
  Se  Se25  1  0.000000  0.000000  0.500000  1
