# generated using pymatgen
data_Ta3TiVSi3
_symmetry_space_group_name_H-M   'P 1'
_cell_length_a   7.50251304
_cell_length_b   7.50251277
_cell_length_c   7.48911962
_cell_angle_alpha   129.44492038
_cell_angle_beta   129.44492301
_cell_angle_gamma   74.43069563
_symmetry_Int_Tables_number   1
_chemical_formula_structural   Ta3TiVSi3
_chemical_formula_sum   'Ta6 Ti2 V2 Si6'
_cell_volume   244.83720490
_cell_formula_units_Z   2
loop_
 _symmetry_equiv_pos_site_id
 _symmetry_equiv_pos_as_xyz
  1  'x, y, z'
loop_
 _atom_site_type_symbol
 _atom_site_label
 _atom_site_symmetry_multiplicity
 _atom_site_fract_x
 _atom_site_fract_y
 _atom_site_fract_z
 _atom_site_occupancy
  Ta  Ta0  1  0.514976  0.686632  0.500000  1
  Ta  Ta1  1  0.186632  0.014976  0.500000  1
  Ta  Ta2  1  0.985064  0.485064  0.169257  1
  Ta  Ta3  1  0.315807  0.815807  0.830743  1
  Ta  Ta4  1  0.483494  0.313834  0.500000  1
  Ta  Ta5  1  0.813834  0.983494  0.500000  1
  Ti  Ti6  1  0.014078  0.514078  0.828544  1
  Ti  Ti7  1  0.685534  0.185534  0.171456  1
  V  V8  1  0.001489  0.001489  0.000000  1
  V  V9  1  0.501489  0.501489  0.000000  1
  Si  Si10  1  0.752263  0.752263  0.000000  1
  Si  Si11  1  0.252263  0.252263  0.000000  1
  Si  Si12  1  0.634601  0.134601  0.772200  1
  Si  Si13  1  0.362400  0.862400  0.227800  1
  Si  Si14  1  0.129577  0.366499  0.500000  1
  Si  Si15  1  0.866499  0.629577  0.500000  1
