# generated using pymatgen
data_Yb3TmTi4O12
_symmetry_space_group_name_H-M   'P 1'
_cell_length_a   5.32465620
_cell_length_b   5.50893027
_cell_length_c   7.61943600
_cell_angle_alpha   90.00000000
_cell_angle_beta   90.00000000
_cell_angle_gamma   89.81266464
_symmetry_Int_Tables_number   1
_chemical_formula_structural   Yb3TmTi4O12
_chemical_formula_sum   'Yb3 Tm1 Ti4 O12'
_cell_volume   223.50093867
_cell_formula_units_Z   1
loop_
 _symmetry_equiv_pos_site_id
 _symmetry_equiv_pos_as_xyz
  1  'x, y, z'
loop_
 _atom_site_type_symbol
 _atom_site_label
 _atom_site_symmetry_multiplicity
 _atom_site_fract_x
 _atom_site_fract_y
 _atom_site_fract_z
 _atom_site_occupancy
  Yb  Yb0  1  0.513196  0.944696  0.750000  1
  Yb  Yb1  1  0.485662  0.055586  0.250000  1
  Yb  Yb2  1  0.012316  0.552982  0.250000  1
  Tm  Tm3  1  0.984922  0.436085  0.750000  1
  Ti  Ti4  1  0.001904  0.997822  0.001809  1
  Ti  Ti5  1  0.001904  0.997822  0.498191  1
  Ti  Ti6  1  0.497099  0.501330  0.002107  1
  Ti  Ti7  1  0.497099  0.501330  0.497893  1
  O  O8  1  0.090068  0.033151  0.750000  1
  O  O9  1  0.201205  0.296798  0.043680  1
  O  O10  1  0.201205  0.296798  0.456320  1
  O  O11  1  0.300333  0.797644  0.453685  1
  O  O12  1  0.300333  0.797644  0.046315  1
  O  O13  1  0.394006  0.527199  0.750000  1
  O  O14  1  0.585964  0.476150  0.250000  1
  O  O15  1  0.707360  0.209522  0.948172  1
  O  O16  1  0.707360  0.209522  0.551828  1
  O  O17  1  0.804123  0.697603  0.554522  1
  O  O18  1  0.804123  0.697603  0.945478  1
  O  O19  1  0.909817  0.972713  0.250000  1
