# generated using pymatgen
data_Cs2Np2OF10
_symmetry_space_group_name_H-M   'P 1'
_cell_length_a   5.56546000
_cell_length_b   7.90140100
_cell_length_c   14.81933675
_cell_angle_alpha   80.40718679
_cell_angle_beta   90.00000000
_cell_angle_gamma   90.00000000
_symmetry_Int_Tables_number   1
_chemical_formula_structural   Cs2Np2OF10
_chemical_formula_sum   'Cs4 Np4 O2 F20'
_cell_volume   642.56684780
_cell_formula_units_Z   2
loop_
 _symmetry_equiv_pos_site_id
 _symmetry_equiv_pos_as_xyz
  1  'x, y, z'
loop_
 _atom_site_type_symbol
 _atom_site_label
 _atom_site_symmetry_multiplicity
 _atom_site_fract_x
 _atom_site_fract_y
 _atom_site_fract_z
 _atom_site_occupancy
  Cs  Cs0  1  0.419732  0.233316  0.594725  1
  Cs  Cs1  1  0.580268  0.233316  0.094725  1
  Cs  Cs2  1  0.580268  0.766684  0.405275  1
  Cs  Cs3  1  0.419732  0.766684  0.905275  1
  Np  Np4  1  0.016544  0.285562  0.337699  1
  Np  Np5  1  0.983456  0.285562  0.837699  1
  Np  Np6  1  0.016544  0.714438  0.162301  1
  Np  Np7  1  0.983456  0.714438  0.662301  1
  O  O8  1  0.107068  0.500000  0.750000  1
  O  O9  1  0.892932  0.500000  0.250000  1
  F  F10  1  0.713017  0.857758  0.185662  1
  F  F11  1  0.681198  0.574780  0.634882  1
  F  F12  1  0.169022  0.790344  0.277950  1
  F  F13  1  0.830477  0.075302  0.923783  1
  F  F14  1  0.318802  0.425220  0.365118  1
  F  F15  1  0.169523  0.924698  0.076217  1
  F  F16  1  0.169022  0.209656  0.222050  1
  F  F17  1  0.286983  0.857758  0.685662  1
  F  F18  1  0.830978  0.209656  0.722050  1
  F  F19  1  0.681198  0.425220  0.865118  1
  F  F20  1  0.169523  0.075302  0.423783  1
  F  F21  1  0.154766  0.363403  0.950058  1
  F  F22  1  0.286983  0.142242  0.814338  1
  F  F23  1  0.845234  0.636597  0.049942  1
  F  F24  1  0.830978  0.790344  0.777950  1
  F  F25  1  0.713017  0.142242  0.314338  1
  F  F26  1  0.830477  0.924698  0.576217  1
  F  F27  1  0.845234  0.363403  0.450058  1
  F  F28  1  0.318802  0.574780  0.134882  1
  F  F29  1  0.154766  0.636597  0.549942  1
