# generated using pymatgen
data_CaTb4Pr15Sn16
_symmetry_space_group_name_H-M   'P 1'
_cell_length_a   8.20662667
_cell_length_b   8.48357517
_cell_length_c   16.07751232
_cell_angle_alpha   90.13369859
_cell_angle_beta   89.42052175
_cell_angle_gamma   90.07775965
_symmetry_Int_Tables_number   1
_chemical_formula_structural   CaTb4Pr15Sn16
_chemical_formula_sum   'Ca1 Tb4 Pr15 Sn16'
_cell_volume   1119.27978447
_cell_formula_units_Z   1
loop_
 _symmetry_equiv_pos_site_id
 _symmetry_equiv_pos_as_xyz
  1  'x, y, z'
loop_
 _atom_site_type_symbol
 _atom_site_label
 _atom_site_symmetry_multiplicity
 _atom_site_fract_x
 _atom_site_fract_y
 _atom_site_fract_z
 _atom_site_occupancy
  Ca  Ca0  1  0.328497  0.995144  0.250138  1
  Tb  Tb1  1  0.337111  0.831587  0.873456  1
  Tb  Tb2  1  0.173300  0.498625  0.749473  1
  Tb  Tb3  1  0.671406  0.002358  0.749603  1
  Tb  Tb4  1  0.827831  0.503662  0.251399  1
  Pr  Pr5  1  0.842531  0.666679  0.624619  1
  Pr  Pr6  1  0.653694  0.167370  0.377198  1
  Pr  Pr7  1  0.160742  0.328411  0.121837  1
  Pr  Pr8  1  0.659854  0.169481  0.122756  1
  Pr  Pr9  1  0.157386  0.331165  0.376863  1
  Pr  Pr10  1  0.344704  0.831837  0.625405  1
  Pr  Pr11  1  0.840249  0.668351  0.876348  1
  Pr  Pr12  1  0.497113  0.320631  0.902711  1
  Pr  Pr13  1  0.001301  0.181304  0.597921  1
  Pr  Pr14  1  0.500149  0.682724  0.403559  1
  Pr  Pr15  1  0.004254  0.817951  0.095719  1
  Pr  Pr16  1  0.501635  0.680915  0.095351  1
  Pr  Pr17  1  0.002204  0.818724  0.403791  1
  Pr  Pr18  1  0.500272  0.319436  0.598313  1
  Pr  Pr19  1  0.997307  0.180861  0.902696  1
  Sn  Sn20  1  0.322116  0.033292  0.035583  1
  Sn  Sn21  1  0.814358  0.464598  0.457800  1
  Sn  Sn22  1  0.686693  0.963488  0.542075  1
  Sn  Sn23  1  0.183289  0.538406  0.956329  1
  Sn  Sn24  1  0.668753  0.962430  0.956713  1
  Sn  Sn25  1  0.187398  0.535935  0.542330  1
  Sn  Sn26  1  0.312211  0.038235  0.462626  1
  Sn  Sn27  1  0.822603  0.465799  0.042742  1
  Sn  Sn28  1  0.535192  0.613800  0.752736  1
  Sn  Sn29  1  0.037271  0.890211  0.752164  1
  Sn  Sn30  1  0.462620  0.395239  0.249285  1
  Sn  Sn31  1  0.959380  0.110559  0.249358  1
  Sn  Sn32  1  0.303604  0.146091  0.752265  1
  Sn  Sn33  1  0.803187  0.352691  0.751291  1
  Sn  Sn34  1  0.705209  0.852718  0.249019  1
  Sn  Sn35  1  0.194575  0.639294  0.248526  1
