# generated using pymatgen
data_Hf2Ti3Re19Tc5
_symmetry_space_group_name_H-M   'P 1'
_cell_length_a   8.40609383
_cell_length_b   8.40429668
_cell_length_c   8.39406416
_cell_angle_alpha   109.46895198
_cell_angle_beta   109.45338080
_cell_angle_gamma   109.52523498
_symmetry_Int_Tables_number   1
_chemical_formula_structural   Hf2Ti3Re19Tc5
_chemical_formula_sum   'Hf2 Ti3 Re19 Tc5'
_cell_volume   456.31421579
_cell_formula_units_Z   1
loop_
 _symmetry_equiv_pos_site_id
 _symmetry_equiv_pos_as_xyz
  1  'x, y, z'
loop_
 _atom_site_type_symbol
 _atom_site_label
 _atom_site_symmetry_multiplicity
 _atom_site_fract_x
 _atom_site_fract_y
 _atom_site_fract_z
 _atom_site_occupancy
  Hf  Hf0  1  0.002858  0.999991  0.000107  1
  Hf  Hf1  1  0.627269  0.000343  0.000149  1
  Ti  Ti2  1  0.998579  0.627153  0.998854  1
  Ti  Ti3  1  0.999759  0.000006  0.628955  1
  Ti  Ti4  1  0.371017  0.370963  0.371372  1
  Re  Re5  1  0.318370  0.718830  0.317622  1
  Re  Re6  1  0.318356  0.318406  0.719096  1
  Re  Re7  1  0.999897  0.681119  0.400210  1
  Re  Re8  1  0.681207  0.000574  0.399590  1
  Re  Re9  1  0.599125  0.599057  0.281104  1
  Re  Re10  1  0.282051  0.600688  0.600129  1
  Re  Re11  1  0.600460  0.281622  0.599627  1
  Re  Re12  1  0.375792  0.194858  0.000006  1
  Re  Re13  1  0.180984  0.805696  0.805475  1
  Re  Re14  1  0.374871  0.999564  0.194385  1
  Re  Re15  1  0.194331  0.374731  0.999748  1
  Re  Re16  1  0.002089  0.377423  0.195192  1
  Re  Re17  1  0.807879  0.183050  0.805417  1
  Re  Re18  1  0.807250  0.805753  0.183447  1
  Re  Re19  1  0.001862  0.194537  0.378566  1
  Re  Re20  1  0.193095  0.999805  0.374774  1
  Re  Re21  1  0.624288  0.622630  0.817173  1
  Re  Re22  1  0.818621  0.625262  0.624778  1
  Re  Re23  1  0.624671  0.817000  0.622445  1
  Tc  Tc24  1  0.395620  0.675804  0.999106  1
  Tc  Tc25  1  0.720169  0.323938  0.323537  1
  Tc  Tc26  1  0.396607  0.000360  0.676200  1
  Tc  Tc27  1  0.682449  0.399594  0.000118  1
  Tc  Tc28  1  0.000478  0.401241  0.682818  1
