# generated using pymatgen
data_Tb2Mn4Ni8As7
_symmetry_space_group_name_H-M   'P 1'
_cell_length_a   9.55360531
_cell_length_b   9.53444733
_cell_length_c   3.83697100
_cell_angle_alpha   90.00000000
_cell_angle_beta   90.00000000
_cell_angle_gamma   120.12047125
_symmetry_Int_Tables_number   1
_chemical_formula_structural   Tb2Mn4Ni8As7
_chemical_formula_sum   'Tb2 Mn4 Ni8 As7'
_cell_volume   302.31067000
_cell_formula_units_Z   1
loop_
 _symmetry_equiv_pos_site_id
 _symmetry_equiv_pos_as_xyz
  1  'x, y, z'
loop_
 _atom_site_type_symbol
 _atom_site_label
 _atom_site_symmetry_multiplicity
 _atom_site_fract_x
 _atom_site_fract_y
 _atom_site_fract_z
 _atom_site_occupancy
  Tb  Tb0  1  0.664471  0.333489  0.000000  1
  Tb  Tb1  1  0.335822  0.669220  0.500000  1
  Mn  Mn2  1  0.877385  0.155553  0.000000  1
  Mn  Mn3  1  0.101951  0.881949  0.500000  1
  Mn  Mn4  1  0.777599  0.896360  0.500000  1
  Mn  Mn5  1  0.120842  0.223269  0.500000  1
  Ni  Ni6  1  0.058578  0.625664  0.000000  1
  Ni  Ni7  1  0.566560  0.938318  0.000000  1
  Ni  Ni8  1  0.372121  0.431941  0.000000  1
  Ni  Ni9  1  0.281258  0.126022  0.000000  1
  Ni  Ni10  1  0.845388  0.717853  0.000000  1
  Ni  Ni11  1  0.430994  0.051308  0.500000  1
  Ni  Ni12  1  0.617808  0.567325  0.500000  1
  Ni  Ni13  1  0.948865  0.381354  0.500000  1
  As  As14  1  0.295947  0.885541  0.000000  1
  As  As15  1  0.590636  0.703587  0.000000  1
  As  As16  1  0.115848  0.412831  0.000000  1
  As  As17  1  0.409514  0.294070  0.500000  1
  As  As18  1  0.884588  0.591104  0.500000  1
  As  As19  1  0.703871  0.114625  0.500000  1
  As  As20  1  0.999955  0.998618  0.000000  1
