# generated using pymatgen
data_Nd6HoIrBr12
_symmetry_space_group_name_H-M   'P 1'
_cell_length_a   9.54241676
_cell_length_b   9.54241673
_cell_length_c   9.54241709
_cell_angle_alpha   107.02915003
_cell_angle_beta   107.02914468
_cell_angle_gamma   107.02915371
_symmetry_Int_Tables_number   1
_chemical_formula_structural   Nd6HoIrBr12
_chemical_formula_sum   'Nd6 Ho1 Ir1 Br12'
_cell_volume   723.06098139
_cell_formula_units_Z   1
loop_
 _symmetry_equiv_pos_site_id
 _symmetry_equiv_pos_as_xyz
  1  'x, y, z'
loop_
 _atom_site_type_symbol
 _atom_site_label
 _atom_site_symmetry_multiplicity
 _atom_site_fract_x
 _atom_site_fract_y
 _atom_site_fract_z
 _atom_site_occupancy
  Nd  Nd0  1  0.102034  0.023823  0.314510  1
  Nd  Nd1  1  0.314510  0.102034  0.023823  1
  Nd  Nd2  1  0.023823  0.314510  0.102034  1
  Nd  Nd3  1  0.897966  0.976177  0.685490  1
  Nd  Nd4  1  0.685490  0.897966  0.976177  1
  Nd  Nd5  1  0.976177  0.685490  0.897966  1
  Ho  Ho6  1  0.500000  0.500000  0.500000  1
  Ir  Ir7  1  0.000000  0.000000  0.000000  1
  Br  Br8  1  0.069412  0.680849  0.224147  1
  Br  Br9  1  0.224147  0.069412  0.680849  1
  Br  Br10  1  0.680849  0.224147  0.069412  1
  Br  Br11  1  0.930588  0.319151  0.775853  1
  Br  Br12  1  0.775853  0.930588  0.319151  1
  Br  Br13  1  0.319151  0.775853  0.930588  1
  Br  Br14  1  0.465913  0.179078  0.391241  1
  Br  Br15  1  0.391241  0.465913  0.179078  1
  Br  Br16  1  0.179078  0.391241  0.465913  1
  Br  Br17  1  0.534087  0.820922  0.608759  1
  Br  Br18  1  0.608759  0.534087  0.820922  1
  Br  Br19  1  0.820922  0.608759  0.534087  1
