# generated using pymatgen
data_Ce16LuAl12
_symmetry_space_group_name_H-M   'P 1'
_cell_length_a   9.56855601
_cell_length_b   9.56855693
_cell_length_c   9.56855700
_cell_angle_alpha   109.47122079
_cell_angle_beta   109.47122274
_cell_angle_gamma   109.47121958
_symmetry_Int_Tables_number   1
_chemical_formula_structural   Ce16LuAl12
_chemical_formula_sum   'Ce16 Lu1 Al12'
_cell_volume   674.39974787
_cell_formula_units_Z   1
loop_
 _symmetry_equiv_pos_site_id
 _symmetry_equiv_pos_as_xyz
  1  'x, y, z'
loop_
 _atom_site_type_symbol
 _atom_site_label
 _atom_site_symmetry_multiplicity
 _atom_site_fract_x
 _atom_site_fract_y
 _atom_site_fract_z
 _atom_site_occupancy
  Ce  Ce0  1  0.000000  0.374302  0.000000  1
  Ce  Ce1  1  0.374302  0.000000  0.000000  1
  Ce  Ce2  1  0.587611  0.309060  0.000000  1
  Ce  Ce3  1  0.309060  0.587611  0.000000  1
  Ce  Ce4  1  0.412389  0.412389  0.721449  1
  Ce  Ce5  1  0.278551  0.690940  0.690940  1
  Ce  Ce6  1  0.690940  0.278551  0.690940  1
  Ce  Ce7  1  0.625698  0.625698  0.625698  1
  Ce  Ce8  1  0.000000  0.309060  0.587611  1
  Ce  Ce9  1  0.309060  0.000000  0.587611  1
  Ce  Ce10  1  0.412389  0.721449  0.412389  1
  Ce  Ce11  1  0.721449  0.412389  0.412389  1
  Ce  Ce12  1  0.000000  0.000000  0.374302  1
  Ce  Ce13  1  0.587611  0.000000  0.309060  1
  Ce  Ce14  1  0.000000  0.587611  0.309060  1
  Ce  Ce15  1  0.690940  0.690940  0.278551  1
  Lu  Lu16  1  0.000000  0.000000  0.000000  1
  Al  Al17  1  0.821262  0.645083  0.000000  1
  Al  Al18  1  0.645083  0.821262  0.000000  1
  Al  Al19  1  0.178738  0.178738  0.823821  1
  Al  Al20  1  0.000000  0.645083  0.821262  1
  Al  Al21  1  0.645083  0.000000  0.821262  1
  Al  Al22  1  0.821262  0.000000  0.645083  1
  Al  Al23  1  0.000000  0.821262  0.645083  1
  Al  Al24  1  0.354917  0.176179  0.354917  1
  Al  Al25  1  0.176179  0.354917  0.354917  1
  Al  Al26  1  0.178738  0.823821  0.178738  1
  Al  Al27  1  0.823821  0.178738  0.178738  1
  Al  Al28  1  0.354917  0.354917  0.176179  1
