# generated using pymatgen
data_Er12InSi4Ag
_symmetry_space_group_name_H-M   'P 1'
_cell_length_a   8.41997654
_cell_length_b   8.41988092
_cell_length_c   8.41996832
_cell_angle_alpha   111.82711576
_cell_angle_beta   111.56608589
_cell_angle_gamma   105.10702290
_symmetry_Int_Tables_number   1
_chemical_formula_structural   Er12InSi4Ag
_chemical_formula_sum   'Er12 In1 Si4 Ag1'
_cell_volume   457.53738224
_cell_formula_units_Z   1
loop_
 _symmetry_equiv_pos_site_id
 _symmetry_equiv_pos_as_xyz
  1  'x, y, z'
loop_
 _atom_site_type_symbol
 _atom_site_label
 _atom_site_symmetry_multiplicity
 _atom_site_fract_x
 _atom_site_fract_y
 _atom_site_fract_z
 _atom_site_occupancy
  Er  Er0  1  0.181887  0.272006  0.453894  1
  Er  Er1  1  0.818113  0.727994  0.546106  1
  Er  Er2  1  0.181885  0.727993  0.909879  1
  Er  Er3  1  0.818115  0.272007  0.090121  1
  Er  Er4  1  0.321127  0.618337  0.297209  1
  Er  Er5  1  0.678873  0.381663  0.702791  1
  Er  Er6  1  0.321129  0.023919  0.702793  1
  Er  Er7  1  0.678871  0.976081  0.297207  1
  Er  Er8  1  0.438986  0.239491  0.199498  1
  Er  Er9  1  0.561014  0.760509  0.800502  1
  Er  Er10  1  0.039993  0.239491  0.800504  1
  Er  Er11  1  0.960007  0.760509  0.199496  1
  In  In12  1  0.500000  0.500000  0.000000  1
  Si  Si13  1  0.117204  0.617204  0.500002  1
  Si  Si14  1  0.882796  0.382796  0.499998  1
  Si  Si15  1  0.360339  0.000001  0.360339  1
  Si  Si16  1  0.639661  0.999999  0.639661  1
  Ag  Ag17  1  0.000000  0.000000  0.000000  1
