# generated using pymatgen
data_Ho6Al13Os7W3
_symmetry_space_group_name_H-M   'P 1'
_cell_length_a   8.98373756
_cell_length_b   8.98373777
_cell_length_c   8.98373784
_cell_angle_alpha   59.55821409
_cell_angle_beta   59.55821665
_cell_angle_gamma   59.55820299
_symmetry_Int_Tables_number   1
_chemical_formula_structural   Ho6Al13Os7W3
_chemical_formula_sum   'Ho6 Al13 Os7 W3'
_cell_volume   507.54216619
_cell_formula_units_Z   1
loop_
 _symmetry_equiv_pos_site_id
 _symmetry_equiv_pos_as_xyz
  1  'x, y, z'
loop_
 _atom_site_type_symbol
 _atom_site_label
 _atom_site_symmetry_multiplicity
 _atom_site_fract_x
 _atom_site_fract_y
 _atom_site_fract_z
 _atom_site_occupancy
  Ho  Ho0  1  0.707934  0.707934  0.285456  1
  Ho  Ho1  1  0.294560  0.707511  0.294560  1
  Ho  Ho2  1  0.707511  0.294560  0.294560  1
  Ho  Ho3  1  0.294560  0.294560  0.707511  1
  Ho  Ho4  1  0.707934  0.285456  0.707934  1
  Ho  Ho5  1  0.285456  0.707934  0.707934  1
  Al  Al6  1  0.880296  0.880296  0.880296  1
  Al  Al7  1  0.121615  0.121615  0.639613  1
  Al  Al8  1  0.121615  0.639613  0.121615  1
  Al  Al9  1  0.639613  0.121615  0.121615  1
  Al  Al10  1  0.121738  0.121738  0.121738  1
  Al  Al11  1  0.668608  0.668608  0.997332  1
  Al  Al12  1  0.668608  0.997332  0.668608  1
  Al  Al13  1  0.997332  0.668608  0.668608  1
  Al  Al14  1  0.662389  0.662389  0.662389  1
  Al  Al15  1  0.330998  0.330998  0.009518  1
  Al  Al16  1  0.330998  0.009518  0.330998  1
  Al  Al17  1  0.009518  0.330998  0.330998  1
  Al  Al18  1  0.331884  0.331884  0.331884  1
  Os  Os19  1  0.004808  0.004808  0.004808  1
  Os  Os20  1  0.996890  0.996890  0.495819  1
  Os  Os21  1  0.505152  0.994300  0.505152  1
  Os  Os22  1  0.994300  0.505152  0.505152  1
  Os  Os23  1  0.505152  0.505152  0.994300  1
  Os  Os24  1  0.996890  0.495819  0.996890  1
  Os  Os25  1  0.495819  0.996890  0.996890  1
  W  W26  1  0.877189  0.877189  0.363447  1
  W  W27  1  0.877189  0.363447  0.877189  1
  W  W28  1  0.363447  0.877189  0.877189  1
