# generated using pymatgen
data_KSm(NbCl3)6
_symmetry_space_group_name_H-M   'P 1'
_cell_length_a   10.25857585
_cell_length_b   10.25857585
_cell_length_c   10.25857639
_cell_angle_alpha   55.22057740
_cell_angle_beta   55.22057450
_cell_angle_gamma   55.22057932
_symmetry_Int_Tables_number   1
_chemical_formula_structural   KSm(NbCl3)6
_chemical_formula_sum   'K1 Sm1 Nb6 Cl18'
_cell_volume   678.57603006
_cell_formula_units_Z   1
loop_
 _symmetry_equiv_pos_site_id
 _symmetry_equiv_pos_as_xyz
  1  'x, y, z'
loop_
 _atom_site_type_symbol
 _atom_site_label
 _atom_site_symmetry_multiplicity
 _atom_site_fract_x
 _atom_site_fract_y
 _atom_site_fract_z
 _atom_site_occupancy
  K  K0  1  0.221650  0.221650  0.221650  1
  Sm  Sm1  1  0.498475  0.498475  0.498475  1
  Nb  Nb2  1  0.799815  0.148892  0.913531  1
  Nb  Nb3  1  0.913531  0.799815  0.148892  1
  Nb  Nb4  1  0.148892  0.913531  0.799815  1
  Nb  Nb5  1  0.201447  0.851483  0.085285  1
  Nb  Nb6  1  0.085285  0.201447  0.851483  1
  Nb  Nb7  1  0.851483  0.085285  0.201447  1
  Cl  Cl8  1  0.862119  0.412729  0.727146  1
  Cl  Cl9  1  0.727146  0.862119  0.412729  1
  Cl  Cl10  1  0.412729  0.727146  0.862119  1
  Cl  Cl11  1  0.137780  0.586446  0.274061  1
  Cl  Cl12  1  0.274061  0.137780  0.586446  1
  Cl  Cl13  1  0.586446  0.274061  0.137780  1
  Cl  Cl14  1  0.530932  0.340207  0.809836  1
  Cl  Cl15  1  0.809836  0.530932  0.340207  1
  Cl  Cl16  1  0.340207  0.809836  0.530932  1
  Cl  Cl17  1  0.464209  0.661115  0.193787  1
  Cl  Cl18  1  0.193787  0.464209  0.661115  1
  Cl  Cl19  1  0.661115  0.193787  0.464209  1
  Cl  Cl20  1  0.662142  0.938148  0.073415  1
  Cl  Cl21  1  0.073415  0.662142  0.938148  1
  Cl  Cl22  1  0.938148  0.073415  0.662142  1
  Cl  Cl23  1  0.338145  0.062187  0.926159  1
  Cl  Cl24  1  0.926159  0.338145  0.062187  1
  Cl  Cl25  1  0.062187  0.926159  0.338145  1
