# generated using pymatgen
data_Tb7Dy12ErSn16
_symmetry_space_group_name_H-M   'P 1'
_cell_length_a   8.04756423
_cell_length_b   8.19169269
_cell_length_c   15.48354300
_cell_angle_alpha   90.00272781
_cell_angle_beta   90.03166105
_cell_angle_gamma   89.97656734
_symmetry_Int_Tables_number   1
_chemical_formula_structural   Tb7Dy12ErSn16
_chemical_formula_sum   'Tb7 Dy12 Er1 Sn16'
_cell_volume   1020.72404302
_cell_formula_units_Z   1
loop_
 _symmetry_equiv_pos_site_id
 _symmetry_equiv_pos_as_xyz
  1  'x, y, z'
loop_
 _atom_site_type_symbol
 _atom_site_label
 _atom_site_symmetry_multiplicity
 _atom_site_fract_x
 _atom_site_fract_y
 _atom_site_fract_z
 _atom_site_occupancy
  Tb  Tb0  1  0.020042  0.179702  0.597743  1
  Tb  Tb1  1  0.480074  0.679589  0.402433  1
  Tb  Tb2  1  0.979936  0.820420  0.097681  1
  Tb  Tb3  1  0.479976  0.679509  0.097603  1
  Tb  Tb4  1  0.980035  0.820396  0.402374  1
  Tb  Tb5  1  0.519863  0.320547  0.597590  1
  Tb  Tb6  1  0.020086  0.179737  0.902301  1
  Dy  Dy7  1  0.367326  0.836478  0.877899  1
  Dy  Dy8  1  0.867381  0.663400  0.622093  1
  Dy  Dy9  1  0.632676  0.163550  0.377891  1
  Dy  Dy10  1  0.132516  0.336463  0.122015  1
  Dy  Dy11  1  0.632527  0.163569  0.122120  1
  Dy  Dy12  1  0.132684  0.336439  0.378020  1
  Dy  Dy13  1  0.367245  0.836514  0.622137  1
  Dy  Dy14  1  0.867506  0.663374  0.877919  1
  Dy  Dy15  1  0.520220  0.320591  0.902215  1
  Dy  Dy16  1  0.698616  0.997381  0.750020  1
  Dy  Dy17  1  0.801319  0.497114  0.250018  1
  Dy  Dy18  1  0.301341  0.002827  0.250019  1
  Er  Er19  1  0.198852  0.502701  0.750006  1
  Sn  Sn20  1  0.293411  0.036557  0.041747  1
  Sn  Sn21  1  0.793389  0.463301  0.458323  1
  Sn  Sn22  1  0.706555  0.963354  0.541651  1
  Sn  Sn23  1  0.207147  0.536110  0.957894  1
  Sn  Sn24  1  0.706490  0.963660  0.958202  1
  Sn  Sn25  1  0.206511  0.536601  0.541974  1
  Sn  Sn26  1  0.293488  0.036566  0.458364  1
  Sn  Sn27  1  0.793073  0.463074  0.041524  1
  Sn  Sn28  1  0.564609  0.618631  0.749869  1
  Sn  Sn29  1  0.065332  0.880704  0.749895  1
  Sn  Sn30  1  0.434635  0.380948  0.250109  1
  Sn  Sn31  1  0.934839  0.119218  0.250111  1
  Sn  Sn32  1  0.328779  0.147577  0.750024  1
  Sn  Sn33  1  0.828767  0.353562  0.749874  1
  Sn  Sn34  1  0.671322  0.853372  0.250166  1
  Sn  Sn35  1  0.171434  0.646466  0.250172  1
