# generated using pymatgen
data_Cs2UPtSe6
_symmetry_space_group_name_H-M   'P 1'
_cell_length_a   7.91823000
_cell_length_b   7.91822935
_cell_length_c   6.37075900
_cell_angle_alpha   90.00000000
_cell_angle_beta   90.00000000
_cell_angle_gamma   120.00001109
_symmetry_Int_Tables_number   1
_chemical_formula_structural   Cs2UPtSe6
_chemical_formula_sum   'Cs2 U1 Pt1 Se6'
_cell_volume   345.92181321
_cell_formula_units_Z   1
loop_
 _symmetry_equiv_pos_site_id
 _symmetry_equiv_pos_as_xyz
  1  'x, y, z'
loop_
 _atom_site_type_symbol
 _atom_site_label
 _atom_site_symmetry_multiplicity
 _atom_site_fract_x
 _atom_site_fract_y
 _atom_site_fract_z
 _atom_site_occupancy
  Cs  Cs0  1  0.666667  0.333333  0.243218  1
  Cs  Cs1  1  0.333333  0.666667  0.759316  1
  U  U2  1  0.000000  0.000000  0.507981  1
  Pt  Pt3  1  0.000000  0.000000  0.008150  1
  Se  Se4  1  0.304865  0.152433  0.776756  1
  Se  Se5  1  0.847567  0.695135  0.776756  1
  Se  Se6  1  0.847567  0.152433  0.776756  1
  Se  Se7  1  0.694886  0.847444  0.239488  1
  Se  Se8  1  0.152556  0.305114  0.239488  1
  Se  Se9  1  0.152556  0.847444  0.239488  1
