# generated using pymatgen
data_LiNdNi9As7Pd3
_symmetry_space_group_name_H-M   'P 1'
_cell_length_a   9.54180100
_cell_length_b   9.54179946
_cell_length_c   3.83714500
_cell_angle_alpha   90.00000000
_cell_angle_beta   90.00000000
_cell_angle_gamma   120.00000880
_symmetry_Int_Tables_number   1
_chemical_formula_structural   LiNdNi9As7Pd3
_chemical_formula_sum   'Li1 Nd1 Ni9 As7 Pd3'
_cell_volume   302.55159289
_cell_formula_units_Z   1
loop_
 _symmetry_equiv_pos_site_id
 _symmetry_equiv_pos_as_xyz
  1  'x, y, z'
loop_
 _atom_site_type_symbol
 _atom_site_label
 _atom_site_symmetry_multiplicity
 _atom_site_fract_x
 _atom_site_fract_y
 _atom_site_fract_z
 _atom_site_occupancy
  Li  Li0  1  0.000000  0.000000  0.500000  1
  Nd  Nd1  1  0.333333  0.666667  0.000000  1
  Ni  Ni2  1  0.278565  0.378350  0.500000  1
  Ni  Ni3  1  0.621650  0.900214  0.500000  1
  Ni  Ni4  1  0.099786  0.721435  0.500000  1
  Ni  Ni5  1  0.503256  0.451507  0.000000  1
  Ni  Ni6  1  0.548493  0.051750  0.000000  1
  Ni  Ni7  1  0.948250  0.496744  0.000000  1
  Ni  Ni8  1  0.723003  0.760539  0.000000  1
  Ni  Ni9  1  0.239461  0.962464  0.000000  1
  Ni  Ni10  1  0.037536  0.276997  0.000000  1
  As  As11  1  0.970485  0.759668  0.000000  1
  As  As12  1  0.240332  0.210817  0.000000  1
  As  As13  1  0.789183  0.029515  0.000000  1
  As  As14  1  0.666667  0.333333  0.000000  1
  As  As15  1  0.547861  0.623170  0.500000  1
  As  As16  1  0.376830  0.924691  0.500000  1
  As  As17  1  0.075309  0.452139  0.500000  1
  Pd  Pd18  1  0.769034  0.554745  0.500000  1
  Pd  Pd19  1  0.445255  0.214290  0.500000  1
  Pd  Pd20  1  0.785710  0.230966  0.500000  1
