# generated using pymatgen
data_CeTm(Si2Rh3)2
_symmetry_space_group_name_H-M   'P 1'
_cell_length_a   6.66198524
_cell_length_b   6.66417261
_cell_length_c   6.66249880
_cell_angle_alpha   130.53703559
_cell_angle_beta   114.40081199
_cell_angle_gamma   86.36966874
_symmetry_Int_Tables_number   1
_chemical_formula_structural   CeTm(Si2Rh3)2
_chemical_formula_sum   'Ce1 Tm1 Si4 Rh6'
_cell_volume   195.51541424
_cell_formula_units_Z   1
loop_
 _symmetry_equiv_pos_site_id
 _symmetry_equiv_pos_as_xyz
  1  'x, y, z'
loop_
 _atom_site_type_symbol
 _atom_site_label
 _atom_site_symmetry_multiplicity
 _atom_site_fract_x
 _atom_site_fract_y
 _atom_site_fract_z
 _atom_site_occupancy
  Ce  Ce0  1  0.749838  0.037865  0.287869  1
  Tm  Tm1  1  0.249834  0.950186  0.700012  1
  Si  Si2  1  0.079559  0.273657  0.194042  1
  Si  Si3  1  0.922153  0.727600  0.805784  1
  Si  Si4  1  0.420429  0.614402  0.194061  1
  Si  Si5  1  0.577955  0.383574  0.805445  1
  Rh  Rh6  1  0.497734  0.498235  0.496058  1
  Rh  Rh7  1  0.002343  0.498437  0.000717  1
  Rh  Rh8  1  0.282995  0.000981  0.289511  1
  Rh  Rh9  1  0.711299  0.001112  0.718627  1
  Rh  Rh10  1  0.217184  0.506684  0.718055  1
  Rh  Rh11  1  0.788677  0.507265  0.289819  1
