# generated using pymatgen
data_Zr5Sn2BiAu
_symmetry_space_group_name_H-M   'P 1'
_cell_length_a   8.84287120
_cell_length_b   8.83565555
_cell_length_c   5.96581000
_cell_angle_alpha   90.00000000
_cell_angle_beta   90.00000000
_cell_angle_gamma   119.97300681
_symmetry_Int_Tables_number   1
_chemical_formula_structural   Zr5Sn2BiAu
_chemical_formula_sum   'Zr10 Sn4 Bi2 Au2'
_cell_volume   403.78500796
_cell_formula_units_Z   2
loop_
 _symmetry_equiv_pos_site_id
 _symmetry_equiv_pos_as_xyz
  1  'x, y, z'
loop_
 _atom_site_type_symbol
 _atom_site_label
 _atom_site_symmetry_multiplicity
 _atom_site_fract_x
 _atom_site_fract_y
 _atom_site_fract_z
 _atom_site_occupancy
  Zr  Zr0  1  0.327759  0.663880  0.000000  1
  Zr  Zr1  1  0.667034  0.333517  0.500000  1
  Zr  Zr2  1  0.667034  0.333517  0.000000  1
  Zr  Zr3  1  0.327759  0.663880  0.500000  1
  Zr  Zr4  1  0.272878  0.999261  0.250000  1
  Zr  Zr5  1  0.272878  0.273618  0.750000  1
  Zr  Zr6  1  0.005324  0.726574  0.750000  1
  Zr  Zr7  1  0.005324  0.278750  0.250000  1
  Zr  Zr8  1  0.727331  0.721376  0.250000  1
  Zr  Zr9  1  0.727331  0.005956  0.750000  1
  Sn  Sn10  1  0.999591  0.383937  0.750000  1
  Sn  Sn11  1  0.999591  0.615654  0.250000  1
  Sn  Sn12  1  0.383651  0.382825  0.250000  1
  Sn  Sn13  1  0.383651  0.000826  0.750000  1
  Bi  Bi14  1  0.616808  0.999017  0.250000  1
  Bi  Bi15  1  0.616808  0.617790  0.750000  1
  Au  Au16  1  0.999622  0.999811  0.000000  1
  Au  Au17  1  0.999622  0.999811  0.500000  1
