# generated using pymatgen
data_Ti12Zn7IrO4
_symmetry_space_group_name_H-M   'P 1'
_cell_length_a   6.84959593
_cell_length_b   6.84959593
_cell_length_c   6.84959593
_cell_angle_alpha   90.04216776
_cell_angle_beta   89.95783224
_cell_angle_gamma   89.95783224
_symmetry_Int_Tables_number   1
_chemical_formula_structural   Ti12Zn7IrO4
_chemical_formula_sum   'Ti12 Zn7 Ir1 O4'
_cell_volume   321.36198690
_cell_formula_units_Z   1
loop_
 _symmetry_equiv_pos_site_id
 _symmetry_equiv_pos_as_xyz
  1  'x, y, z'
loop_
 _atom_site_type_symbol
 _atom_site_label
 _atom_site_symmetry_multiplicity
 _atom_site_fract_x
 _atom_site_fract_y
 _atom_site_fract_z
 _atom_site_occupancy
  Ti  Ti0  1  0.796993  0.956649  0.375137  1
  Ti  Ti1  1  0.707060  0.039536  0.872255  1
  Ti  Ti2  1  0.206399  0.465753  0.133815  1
  Ti  Ti3  1  0.284678  0.543311  0.613748  1
  Ti  Ti4  1  0.960464  0.372255  0.792940  1
  Ti  Ti5  1  0.043351  0.875137  0.703007  1
  Ti  Ti6  1  0.456689  0.113748  0.215322  1
  Ti  Ti7  1  0.534247  0.633815  0.293601  1
  Ti  Ti8  1  0.366185  0.793601  0.965753  1
  Ti  Ti9  1  0.886252  0.715322  0.043311  1
  Ti  Ti10  1  0.124863  0.203007  0.456649  1
  Ti  Ti11  1  0.627745  0.292940  0.539536  1
  Zn  Zn12  1  0.322685  0.181661  0.821338  1
  Zn  Zn13  1  0.818339  0.321338  0.177315  1
  Zn  Zn14  1  0.678662  0.677315  0.681661  1
  Zn  Zn15  1  0.570338  0.429662  0.929662  1
  Zn  Zn16  1  0.435959  0.930244  0.577219  1
  Zn  Zn17  1  0.922781  0.564041  0.430244  1
  Zn  Zn18  1  0.069756  0.077219  0.064041  1
  Ir  Ir19  1  0.176331  0.823669  0.323669  1
  O  O20  1  0.875662  0.124338  0.624338  1
  O  O21  1  0.629361  0.872095  0.122706  1
  O  O22  1  0.127905  0.622706  0.870639  1
  O  O23  1  0.377294  0.370639  0.372095  1
