# generated using pymatgen
data_Rb3LuI6
_symmetry_space_group_name_H-M   'P 1'
_cell_length_a   10.30153400
_cell_length_b   10.30153400
_cell_length_c   8.58198300
_cell_angle_alpha   90.00000000
_cell_angle_beta   90.00000000
_cell_angle_gamma   90.00000000
_symmetry_Int_Tables_number   1
_chemical_formula_structural   Rb3LuI6
_chemical_formula_sum   'Rb6 Lu2 I12'
_cell_volume   910.73379076
_cell_formula_units_Z   2
loop_
 _symmetry_equiv_pos_site_id
 _symmetry_equiv_pos_as_xyz
  1  'x, y, z'
loop_
 _atom_site_type_symbol
 _atom_site_label
 _atom_site_symmetry_multiplicity
 _atom_site_fract_x
 _atom_site_fract_y
 _atom_site_fract_z
 _atom_site_occupancy
  Rb  Rb0  1  0.000000  0.000000  0.500000  1
  Rb  Rb1  1  0.000000  0.000000  0.000000  1
  Rb  Rb2  1  0.232788  0.587836  0.500000  1
  Rb  Rb3  1  0.767212  0.412164  0.500000  1
  Rb  Rb4  1  0.412164  0.232788  0.000000  1
  Rb  Rb5  1  0.587836  0.767212  0.000000  1
  Lu  Lu6  1  0.500000  0.000000  0.500000  1
  Lu  Lu7  1  0.000000  0.500000  0.000000  1
  I  I8  1  0.697525  0.059155  0.746708  1
  I  I9  1  0.302475  0.940845  0.746708  1
  I  I10  1  0.940845  0.697525  0.246708  1
  I  I11  1  0.059155  0.302475  0.246708  1
  I  I12  1  0.302475  0.940845  0.253292  1
  I  I13  1  0.697525  0.059155  0.253292  1
  I  I14  1  0.059155  0.302475  0.753292  1
  I  I15  1  0.940845  0.697525  0.753292  1
  I  I16  1  0.569284  0.719500  0.500000  1
  I  I17  1  0.430716  0.280500  0.500000  1
  I  I18  1  0.280500  0.569284  0.000000  1
  I  I19  1  0.719500  0.430716  0.000000  1
