# generated using pymatgen
data_Tm16In6RuRh
_symmetry_space_group_name_H-M   'P 1'
_cell_length_a   10.29127000
_cell_length_b   10.29127064
_cell_length_c   6.94976900
_cell_angle_alpha   90.00000000
_cell_angle_beta   90.00000000
_cell_angle_gamma   119.99999793
_symmetry_Int_Tables_number   1
_chemical_formula_structural   Tm16In6RuRh
_chemical_formula_sum   'Tm16 In6 Ru1 Rh1'
_cell_volume   637.43951544
_cell_formula_units_Z   1
loop_
 _symmetry_equiv_pos_site_id
 _symmetry_equiv_pos_as_xyz
  1  'x, y, z'
loop_
 _atom_site_type_symbol
 _atom_site_label
 _atom_site_symmetry_multiplicity
 _atom_site_fract_x
 _atom_site_fract_y
 _atom_site_fract_z
 _atom_site_occupancy
  Tm  Tm0  1  0.532618  0.065239  0.515421  1
  Tm  Tm1  1  0.934761  0.467382  0.515421  1
  Tm  Tm2  1  0.532618  0.467382  0.515421  1
  Tm  Tm3  1  0.468068  0.936134  0.016227  1
  Tm  Tm4  1  0.063866  0.531932  0.016227  1
  Tm  Tm5  1  0.468068  0.531932  0.016227  1
  Tm  Tm6  1  0.176565  0.353129  0.721076  1
  Tm  Tm7  1  0.646871  0.823435  0.721076  1
  Tm  Tm8  1  0.176565  0.823435  0.721076  1
  Tm  Tm9  1  0.822995  0.645991  0.221335  1
  Tm  Tm10  1  0.354009  0.177005  0.221335  1
  Tm  Tm11  1  0.822995  0.177005  0.221335  1
  Tm  Tm12  1  0.666667  0.333333  0.894253  1
  Tm  Tm13  1  0.333333  0.666667  0.394254  1
  Tm  Tm14  1  0.000000  0.000000  0.500371  1
  Tm  Tm15  1  0.000000  0.000000  0.000045  1
  In  In16  1  0.837227  0.674456  0.760993  1
  In  In17  1  0.325544  0.162773  0.760993  1
  In  In18  1  0.837227  0.162773  0.760993  1
  In  In19  1  0.162899  0.325798  0.261037  1
  In  In20  1  0.674202  0.837101  0.261037  1
  In  In21  1  0.162899  0.837101  0.261037  1
  Ru  Ru22  1  0.666667  0.333333  0.290916  1
  Rh  Rh23  1  0.333333  0.666667  0.789895  1
