# generated using pymatgen
data_Er15Tm3(ZrIr6)2
_symmetry_space_group_name_H-M   'P 1'
_cell_length_a   10.77849100
_cell_length_b   10.77660901
_cell_length_c   6.27511801
_cell_angle_alpha   90.00503484
_cell_angle_beta   89.99979864
_cell_angle_gamma   89.99675711
_symmetry_Int_Tables_number   1
_chemical_formula_structural   Er15Tm3(ZrIr6)2
_chemical_formula_sum   'Er15 Tm3 Zr2 Ir12'
_cell_volume   728.88998842
_cell_formula_units_Z   1
loop_
 _symmetry_equiv_pos_site_id
 _symmetry_equiv_pos_as_xyz
  1  'x, y, z'
loop_
 _atom_site_type_symbol
 _atom_site_label
 _atom_site_symmetry_multiplicity
 _atom_site_fract_x
 _atom_site_fract_y
 _atom_site_fract_z
 _atom_site_occupancy
  Er  Er0  1  0.289573  0.086400  0.374737  1
  Er  Er1  1  0.289643  0.913686  0.874763  1
  Er  Er2  1  0.710364  0.086309  0.874818  1
  Er  Er3  1  0.710356  0.913682  0.374775  1
  Er  Er4  1  0.587570  0.792526  0.875104  1
  Er  Er5  1  0.587576  0.207460  0.375102  1
  Er  Er6  1  0.412429  0.792535  0.375104  1
  Er  Er7  1  0.412409  0.207479  0.875131  1
  Er  Er8  1  0.207444  0.412374  0.624882  1
  Er  Er9  1  0.207439  0.587470  0.124912  1
  Er  Er10  1  0.792616  0.412405  0.124921  1
  Er  Er11  1  0.792536  0.587557  0.624889  1
  Er  Er12  1  0.913687  0.710347  0.125206  1
  Er  Er13  1  0.913756  0.289634  0.625182  1
  Er  Er14  1  0.086318  0.710359  0.625195  1
  Tm  Tm15  1  0.086252  0.289749  0.125071  1
  Tm  Tm16  1  0.499995  0.499989  0.000035  1
  Tm  Tm17  1  0.500002  0.499996  0.500002  1
  Zr  Zr18  1  0.000017  0.000020  0.499980  1
  Zr  Zr19  1  0.000055  0.000141  0.000084  1
  Ir  Ir20  1  0.854244  0.145949  0.249933  1
  Ir  Ir21  1  0.854121  0.854132  0.749991  1
  Ir  Ir22  1  0.145803  0.145990  0.750289  1
  Ir  Ir23  1  0.145867  0.854119  0.249987  1
  Ir  Ir24  1  0.654224  0.345782  0.749989  1
  Ir  Ir25  1  0.654213  0.654234  0.250010  1
  Ir  Ir26  1  0.345598  0.345732  0.249905  1
  Ir  Ir27  1  0.345771  0.654225  0.750001  1
  Ir  Ir28  1  0.499989  0.000001  0.122520  1
  Ir  Ir29  1  0.500008  0.000004  0.622516  1
  Ir  Ir30  1  0.000064  0.499853  0.877646  1
  Ir  Ir31  1  0.000061  0.499862  0.377324  1
