# generated using pymatgen
data_Gd7Ho3(Al2Ru3)2
_symmetry_space_group_name_H-M   'P 1'
_cell_length_a   8.26201995
_cell_length_b   8.26202024
_cell_length_c   8.26202000
_cell_angle_alpha   109.48877369
_cell_angle_beta   109.48877439
_cell_angle_gamma   109.48876429
_symmetry_Int_Tables_number   1
_chemical_formula_structural   Gd7Ho3(Al2Ru3)2
_chemical_formula_sum   'Gd7 Ho3 Al4 Ru6'
_cell_volume   433.86471254
_cell_formula_units_Z   1
loop_
 _symmetry_equiv_pos_site_id
 _symmetry_equiv_pos_as_xyz
  1  'x, y, z'
loop_
 _atom_site_type_symbol
 _atom_site_label
 _atom_site_symmetry_multiplicity
 _atom_site_fract_x
 _atom_site_fract_y
 _atom_site_fract_z
 _atom_site_occupancy
  Gd  Gd0  1  0.783689  0.783689  0.783689  1
  Gd  Gd1  1  0.315165  0.564954  0.749495  1
  Gd  Gd2  1  0.749495  0.315165  0.564954  1
  Gd  Gd3  1  0.564954  0.749495  0.315165  1
  Gd  Gd4  1  0.717660  0.499940  0.000328  1
  Gd  Gd5  1  0.000328  0.717660  0.499940  1
  Gd  Gd6  1  0.499940  0.000328  0.717660  1
  Ho  Ho7  1  0.250087  0.181287  0.932041  1
  Ho  Ho8  1  0.932041  0.250087  0.181287  1
  Ho  Ho9  1  0.181287  0.932041  0.250087  1
  Al  Al10  1  0.405948  0.405948  0.405948  1
  Al  Al11  1  0.091704  0.499762  0.000832  1
  Al  Al12  1  0.000832  0.091704  0.499762  1
  Al  Al13  1  0.499762  0.000832  0.091704  1
  Ru  Ru14  1  0.877710  0.128563  0.750962  1
  Ru  Ru15  1  0.750962  0.877710  0.128563  1
  Ru  Ru16  1  0.128563  0.750962  0.877710  1
  Ru  Ru17  1  0.251507  0.624955  0.373413  1
  Ru  Ru18  1  0.373413  0.251507  0.624955  1
  Ru  Ru19  1  0.624955  0.373413  0.251507  1
