# generated using pymatgen
data_Y12Si12IrAu3
_symmetry_space_group_name_H-M   'P 1'
_cell_length_a   4.25958200
_cell_length_b   10.91489744
_cell_length_c   12.45535744
_cell_angle_alpha   90.07775040
_cell_angle_beta   90.00000000
_cell_angle_gamma   90.00000000
_symmetry_Int_Tables_number   1
_chemical_formula_structural   Y12Si12IrAu3
_chemical_formula_sum   'Y12 Si12 Ir1 Au3'
_cell_volume   579.08516272
_cell_formula_units_Z   1
loop_
 _symmetry_equiv_pos_site_id
 _symmetry_equiv_pos_as_xyz
  1  'x, y, z'
loop_
 _atom_site_type_symbol
 _atom_site_label
 _atom_site_symmetry_multiplicity
 _atom_site_fract_x
 _atom_site_fract_y
 _atom_site_fract_z
 _atom_site_occupancy
  Y  Y0  1  0.250000  0.877681  0.020462  1
  Y  Y1  1  0.250000  0.625445  0.521764  1
  Y  Y2  1  0.750000  0.120151  0.978253  1
  Y  Y3  1  0.750000  0.375791  0.481319  1
  Y  Y4  1  0.250000  0.922196  0.602541  1
  Y  Y5  1  0.250000  0.579011  0.098788  1
  Y  Y6  1  0.750000  0.077846  0.398800  1
  Y  Y7  1  0.750000  0.420992  0.895772  1
  Y  Y8  1  0.250000  0.668817  0.802309  1
  Y  Y9  1  0.250000  0.834128  0.303189  1
  Y  Y10  1  0.750000  0.335027  0.196189  1
  Y  Y11  1  0.750000  0.156627  0.699570  1
  Si  Si12  1  0.250000  0.008075  0.824151  1
  Si  Si13  1  0.250000  0.475355  0.326250  1
  Si  Si14  1  0.750000  0.974903  0.176894  1
  Si  Si15  1  0.750000  0.528679  0.673028  1
  Si  Si16  1  0.250000  0.239453  0.846358  1
  Si  Si17  1  0.250000  0.253376  0.347735  1
  Si  Si18  1  0.750000  0.754327  0.151431  1
  Si  Si19  1  0.750000  0.754444  0.661138  1
  Si  Si20  1  0.250000  0.186034  0.537018  1
  Si  Si21  1  0.250000  0.314643  0.033516  1
  Si  Si22  1  0.750000  0.815609  0.466712  1
  Si  Si23  1  0.750000  0.703516  0.955476  1
  Ir  Ir24  1  0.750000  0.890058  0.819627  1
  Au  Au25  1  0.250000  0.391061  0.684316  1
  Au  Au26  1  0.250000  0.108901  0.183211  1
  Au  Au27  1  0.750000  0.607855  0.314182  1
