# generated using pymatgen
data_Hf8Mn11Si16Tc
_symmetry_space_group_name_H-M   'P 1'
_cell_length_a   9.69290836
_cell_length_b   9.69394016
_cell_length_c   12.97781800
_cell_angle_alpha   53.64485514
_cell_angle_beta   53.66989689
_cell_angle_gamma   30.69271324
_symmetry_Int_Tables_number   1
_chemical_formula_structural   Hf8Mn11Si16Tc
_chemical_formula_sum   'Hf8 Mn11 Si16 Tc1'
_cell_volume   491.03900908
_cell_formula_units_Z   1
loop_
 _symmetry_equiv_pos_site_id
 _symmetry_equiv_pos_as_xyz
  1  'x, y, z'
loop_
 _atom_site_type_symbol
 _atom_site_label
 _atom_site_symmetry_multiplicity
 _atom_site_fract_x
 _atom_site_fract_y
 _atom_site_fract_z
 _atom_site_occupancy
  Hf  Hf0  1  0.291050  0.566842  0.642948  1
  Hf  Hf1  1  0.433209  0.708701  0.857019  1
  Hf  Hf2  1  0.707578  0.431253  0.359116  1
  Hf  Hf3  1  0.569372  0.291052  0.141102  1
  Hf  Hf4  1  0.031325  0.292648  0.646879  1
  Hf  Hf5  1  0.706867  0.967336  0.853596  1
  Hf  Hf6  1  0.968870  0.706741  0.356807  1
  Hf  Hf7  1  0.292239  0.034141  0.143155  1
  Mn  Mn8  1  0.165111  0.353704  0.224396  1
  Mn  Mn9  1  0.757780  0.485298  0.063356  1
  Mn  Mn10  1  0.834319  0.646708  0.774374  1
  Mn  Mn11  1  0.889342  0.148993  0.585340  1
  Mn  Mn12  1  0.850785  0.111743  0.913942  1
  Mn  Mn13  1  0.106941  0.849245  0.416695  1
  Mn  Mn14  1  0.151653  0.890660  0.083578  1
  Mn  Mn15  1  0.239628  0.517392  0.935508  1
  Mn  Mn16  1  0.486096  0.758096  0.565475  1
  Mn  Mn17  1  0.513687  0.243842  0.436991  1
  Mn  Mn18  1  0.352842  0.165665  0.725608  1
  Si  Si19  1  0.881943  0.118019  0.249840  1
  Si  Si20  1  0.118205  0.882287  0.749727  1
  Si  Si21  1  0.389782  0.611147  0.249799  1
  Si  Si22  1  0.610475  0.389905  0.749499  1
  Si  Si23  1  0.965349  0.257093  0.898877  1
  Si  Si24  1  0.743256  0.033821  0.602114  1
  Si  Si25  1  0.038761  0.743157  0.099646  1
  Si  Si26  1  0.248517  0.964929  0.401331  1
  Si  Si27  1  0.577111  0.088708  0.056623  1
  Si  Si28  1  0.919664  0.417289  0.439314  1
  Si  Si29  1  0.428294  0.911387  0.936292  1
  Si  Si30  1  0.087324  0.572340  0.564386  1
  Si  Si31  1  0.391505  0.141638  0.401065  1
  Si  Si32  1  0.862766  0.605545  0.100722  1
  Si  Si33  1  0.606954  0.863373  0.603554  1
  Si  Si34  1  0.136901  0.392933  0.896285  1
  Tc  Tc35  1  0.644499  0.836365  0.275039  1
