# generated using pymatgen
data_Dy3LuAl17SiIr6
_symmetry_space_group_name_H-M   'P 1'
_cell_length_a   7.54125766
_cell_length_b   7.55156945
_cell_length_c   9.39260500
_cell_angle_alpha   90.00000000
_cell_angle_beta   90.00000000
_cell_angle_gamma   119.64435342
_symmetry_Int_Tables_number   1
_chemical_formula_structural   Dy3LuAl17SiIr6
_chemical_formula_sum   'Dy3 Lu1 Al17 Si1 Ir6'
_cell_volume   464.88224099
_cell_formula_units_Z   1
loop_
 _symmetry_equiv_pos_site_id
 _symmetry_equiv_pos_as_xyz
  1  'x, y, z'
loop_
 _atom_site_type_symbol
 _atom_site_label
 _atom_site_symmetry_multiplicity
 _atom_site_fract_x
 _atom_site_fract_y
 _atom_site_fract_z
 _atom_site_occupancy
  Dy  Dy0  1  0.994592  0.675869  0.250000  1
  Dy  Dy1  1  0.003549  0.330137  0.750000  1
  Dy  Dy2  1  0.330205  0.004060  0.750000  1
  Lu  Lu3  1  0.676104  0.994784  0.250000  1
  Al  Al4  1  0.873978  0.874412  0.750000  1
  Al  Al5  1  0.000320  0.336214  0.077794  1
  Al  Al6  1  0.998439  0.665551  0.925365  1
  Al  Al7  1  0.998439  0.665551  0.574635  1
  Al  Al8  1  0.337863  0.000734  0.422225  1
  Al  Al9  1  0.000320  0.336214  0.422206  1
  Al  Al10  1  0.665543  0.998636  0.573371  1
  Al  Al11  1  0.665543  0.998636  0.926629  1
  Al  Al12  1  0.337863  0.000734  0.077775  1
  Al  Al13  1  0.332458  0.332562  0.556183  1
  Al  Al14  1  0.663606  0.664141  0.446793  1
  Al  Al15  1  0.663606  0.664141  0.053207  1
  Al  Al16  1  0.332458  0.332562  0.943817  1
  Al  Al17  1  0.337607  0.550198  0.250000  1
  Al  Al18  1  0.660973  0.451982  0.750000  1
  Al  Al19  1  0.549292  0.335810  0.250000  1
  Al  Al20  1  0.452250  0.661429  0.750000  1
  Si  Si21  1  0.130252  0.130872  0.250000  1
  Ir  Ir22  1  0.670566  0.326591  0.000664  1
  Ir  Ir23  1  0.326673  0.670546  0.000712  1
  Ir  Ir24  1  0.326673  0.670546  0.499288  1
  Ir  Ir25  1  0.670566  0.326591  0.499336  1
  Ir  Ir26  1  0.000133  0.000251  0.007634  1
  Ir  Ir27  1  0.000133  0.000251  0.492366  1
