# generated using pymatgen
data_Nd3Mg2InSn2Pt
_symmetry_space_group_name_H-M   'P 1'
_cell_length_a   7.66285868
_cell_length_b   7.68792271
_cell_length_c   4.54893900
_cell_angle_alpha   90.00000000
_cell_angle_beta   90.00000000
_cell_angle_gamma   120.10825871
_symmetry_Int_Tables_number   1
_chemical_formula_structural   Nd3Mg2InSn2Pt
_chemical_formula_sum   'Nd3 Mg2 In1 Sn2 Pt1'
_cell_volume   231.82793629
_cell_formula_units_Z   1
loop_
 _symmetry_equiv_pos_site_id
 _symmetry_equiv_pos_as_xyz
  1  'x, y, z'
loop_
 _atom_site_type_symbol
 _atom_site_label
 _atom_site_symmetry_multiplicity
 _atom_site_fract_x
 _atom_site_fract_y
 _atom_site_fract_z
 _atom_site_occupancy
  Nd  Nd0  1  0.397581  0.398107  0.000000  1
  Nd  Nd1  1  0.602419  0.000526  0.000000  1
  Nd  Nd2  1  0.000000  0.602484  0.000000  1
  Mg  Mg3  1  0.771844  0.770329  0.500000  1
  Mg  Mg4  1  0.228156  0.998485  0.500000  1
  In  In5  1  0.000000  0.232812  0.500000  1
  Sn  Sn6  1  0.664865  0.334689  0.500000  1
  Sn  Sn7  1  0.335135  0.669824  0.500000  1
  Pt  Pt8  1  0.000000  0.992743  0.000000  1
