# generated using pymatgen
data_SrTbSm5FeI12
_symmetry_space_group_name_H-M   'P 1'
_cell_length_a   9.97107506
_cell_length_b   9.87781775
_cell_length_c   9.87481391
_cell_angle_alpha   106.21283709
_cell_angle_beta   106.08417822
_cell_angle_gamma   106.51783078
_symmetry_Int_Tables_number   1
_chemical_formula_structural   SrTbSm5FeI12
_chemical_formula_sum   'Sr1 Tb1 Sm5 Fe1 I12'
_cell_volume   825.54199300
_cell_formula_units_Z   1
loop_
 _symmetry_equiv_pos_site_id
 _symmetry_equiv_pos_as_xyz
  1  'x, y, z'
loop_
 _atom_site_type_symbol
 _atom_site_label
 _atom_site_symmetry_multiplicity
 _atom_site_fract_x
 _atom_site_fract_y
 _atom_site_fract_z
 _atom_site_occupancy
  Sr  Sr0  1  0.499895  0.500119  0.500041  1
  Tb  Tb1  1  0.702655  0.978733  0.905279  1
  Sm  Sm2  1  0.090131  0.286670  0.020591  1
  Sm  Sm3  1  0.020134  0.091262  0.285758  1
  Sm  Sm4  1  0.301742  0.021278  0.095933  1
  Sm  Sm5  1  0.907967  0.713135  0.978756  1
  Sm  Sm6  1  0.978592  0.908625  0.713693  1
  Fe  Fe7  1  0.000163  0.999952  0.000166  1
  I  I8  1  0.448562  0.370524  0.137219  1
  I  I9  1  0.139363  0.450546  0.370709  1
  I  I10  1  0.368450  0.137924  0.450643  1
  I  I11  1  0.551843  0.633134  0.863011  1
  I  I12  1  0.860501  0.549375  0.629297  1
  I  I13  1  0.631453  0.863701  0.553421  1
  I  I14  1  0.774933  0.316343  0.926031  1
  I  I15  1  0.925746  0.774456  0.319210  1
  I  I16  1  0.319715  0.925773  0.773878  1
  I  I17  1  0.222849  0.679702  0.073270  1
  I  I18  1  0.074106  0.225529  0.680731  1
  I  I19  1  0.681201  0.073219  0.222364  1
