# generated using pymatgen
data_Ho9Tm3(CoTc)2
_symmetry_space_group_name_H-M   'P 1'
_cell_length_a   6.26729668
_cell_length_b   7.16615591
_cell_length_c   9.13361094
_cell_angle_alpha   90.03143696
_cell_angle_beta   90.26018886
_cell_angle_gamma   90.04853080
_symmetry_Int_Tables_number   1
_chemical_formula_structural   Ho9Tm3(CoTc)2
_chemical_formula_sum   'Ho9 Tm3 Co2 Tc2'
_cell_volume   410.20817874
_cell_formula_units_Z   1
loop_
 _symmetry_equiv_pos_site_id
 _symmetry_equiv_pos_as_xyz
  1  'x, y, z'
loop_
 _atom_site_type_symbol
 _atom_site_label
 _atom_site_symmetry_multiplicity
 _atom_site_fract_x
 _atom_site_fract_y
 _atom_site_fract_z
 _atom_site_occupancy
  Ho  Ho0  1  0.371445  0.547330  0.249854  1
  Ho  Ho1  1  0.143457  0.040273  0.249343  1
  Ho  Ho2  1  0.167526  0.326916  0.563500  1
  Ho  Ho3  1  0.668207  0.173420  0.435777  1
  Ho  Ho4  1  0.168234  0.326500  0.936589  1
  Ho  Ho5  1  0.323463  0.818148  0.566542  1
  Ho  Ho6  1  0.870957  0.952653  0.750410  1
  Ho  Ho7  1  0.643708  0.459809  0.750063  1
  Ho  Ho8  1  0.822961  0.681970  0.066537  1
  Tm  Tm9  1  0.667470  0.172751  0.063713  1
  Tm  Tm10  1  0.823788  0.681273  0.433360  1
  Tm  Tm11  1  0.324083  0.818958  0.933661  1
  Co  Co12  1  0.539822  0.885655  0.249655  1
  Co  Co13  1  0.039620  0.614751  0.749943  1
  Tc  Tc14  1  0.962059  0.391379  0.249987  1
  Tc  Tc15  1  0.463199  0.108214  0.751066  1
