# generated using pymatgen
data_Dy5ErSi10
_symmetry_space_group_name_H-M   'P 1'
_cell_length_a   6.65420628
_cell_length_b   6.65420597
_cell_length_c   8.26349700
_cell_angle_alpha   90.12280249
_cell_angle_beta   89.87720613
_cell_angle_gamma   120.33400435
_symmetry_Int_Tables_number   1
_chemical_formula_structural   Dy5ErSi10
_chemical_formula_sum   'Dy5 Er1 Si10'
_cell_volume   315.80146134
_cell_formula_units_Z   1
loop_
 _symmetry_equiv_pos_site_id
 _symmetry_equiv_pos_as_xyz
  1  'x, y, z'
loop_
 _atom_site_type_symbol
 _atom_site_label
 _atom_site_symmetry_multiplicity
 _atom_site_fract_x
 _atom_site_fract_y
 _atom_site_fract_z
 _atom_site_occupancy
  Dy  Dy0  1  0.330652  0.999778  0.000471  1
  Dy  Dy1  1  0.330576  0.999550  0.499461  1
  Dy  Dy2  1  0.999550  0.330576  0.500539  1
  Dy  Dy3  1  0.999778  0.330652  0.999529  1
  Dy  Dy4  1  0.670075  0.670075  0.000000  1
  Er  Er5  1  0.670337  0.670337  0.500000  1
  Si  Si6  1  0.384314  0.333216  0.250807  1
  Si  Si7  1  0.669710  0.050757  0.250076  1
  Si  Si8  1  0.947194  0.616623  0.250848  1
  Si  Si9  1  0.616623  0.947194  0.749152  1
  Si  Si10  1  0.999708  0.999198  0.250828  1
  Si  Si11  1  0.665811  0.332499  0.749368  1
  Si  Si12  1  0.050757  0.669710  0.749924  1
  Si  Si13  1  0.333216  0.384314  0.749193  1
  Si  Si14  1  0.332499  0.665811  0.250632  1
  Si  Si15  1  0.999198  0.999708  0.749172  1
