# generated using pymatgen
data_Pr3Th(AuBr6)4
_symmetry_space_group_name_H-M   'P 1'
_cell_length_a   8.25885987
_cell_length_b   10.67722125
_cell_length_c   15.17771452
_cell_angle_alpha   103.46964203
_cell_angle_beta   95.79393984
_cell_angle_gamma   112.13081355
_symmetry_Int_Tables_number   1
_chemical_formula_structural   Pr3Th(AuBr6)4
_chemical_formula_sum   'Pr3 Th1 Au4 Br24'
_cell_volume   1178.94076593
_cell_formula_units_Z   1
loop_
 _symmetry_equiv_pos_site_id
 _symmetry_equiv_pos_as_xyz
  1  'x, y, z'
loop_
 _atom_site_type_symbol
 _atom_site_label
 _atom_site_symmetry_multiplicity
 _atom_site_fract_x
 _atom_site_fract_y
 _atom_site_fract_z
 _atom_site_occupancy
  Pr  Pr0  1  0.418675  0.082274  0.375619  1
  Pr  Pr1  1  0.983270  0.316180  0.874452  1
  Pr  Pr2  1  0.021392  0.689029  0.128156  1
  Th  Th3  1  0.578606  0.917677  0.622647  1
  Au  Au4  1  0.295002  0.629588  0.762169  1
  Au  Au5  1  0.704312  0.369209  0.237311  1
  Au  Au6  1  0.500040  0.499850  0.500785  1
  Au  Au7  1  0.999926  0.999959  0.999904  1
  Br  Br8  1  0.616932  0.735191  0.745475  1
  Br  Br9  1  0.386557  0.269222  0.252004  1
  Br  Br10  1  0.278780  0.848572  0.733481  1
  Br  Br11  1  0.725093  0.154628  0.264321  1
  Br  Br12  1  0.973054  0.532050  0.775769  1
  Br  Br13  1  0.023084  0.466549  0.225126  1
  Br  Br14  1  0.316595  0.410813  0.787380  1
  Br  Br15  1  0.682102  0.585559  0.213761  1
  Br  Br16  1  0.694287  0.368207  0.506128  1
  Br  Br17  1  0.307791  0.634725  0.495012  1
  Br  Br18  1  0.763672  0.731508  0.525055  1
  Br  Br19  1  0.234309  0.271427  0.475990  1
  Br  Br20  1  0.781334  0.104543  0.973711  1
  Br  Br21  1  0.219418  0.896297  0.025908  1
  Br  Br22  1  0.765174  0.795294  0.031756  1
  Br  Br23  1  0.233955  0.203847  0.966565  1
  Br  Br24  1  0.612263  0.184083  0.742170  1
  Br  Br25  1  0.385718  0.810740  0.254917  1
  Br  Br26  1  0.949582  0.051079  0.722673  1
  Br  Br27  1  0.042823  0.945428  0.274548  1
  Br  Br28  1  0.729313  0.045604  0.484890  1
  Br  Br29  1  0.275816  0.950996  0.522127  1
  Br  Br30  1  0.757839  0.434476  0.976438  1
  Br  Br31  1  0.243284  0.565395  0.023751  1
