# generated using pymatgen
data_Er8Tm4Co4SnOs
_symmetry_space_group_name_H-M   'P 1'
_cell_length_a   8.21436124
_cell_length_b   8.21436171
_cell_length_c   8.21436091
_cell_angle_alpha   111.70865939
_cell_angle_beta   110.53344463
_cell_angle_gamma   106.22194094
_symmetry_Int_Tables_number   1
_chemical_formula_structural   Er8Tm4Co4SnOs
_chemical_formula_sum   'Er8 Tm4 Co4 Sn1 Os1'
_cell_volume   425.60792995
_cell_formula_units_Z   1
loop_
 _symmetry_equiv_pos_site_id
 _symmetry_equiv_pos_as_xyz
  1  'x, y, z'
loop_
 _atom_site_type_symbol
 _atom_site_label
 _atom_site_symmetry_multiplicity
 _atom_site_fract_x
 _atom_site_fract_y
 _atom_site_fract_z
 _atom_site_occupancy
  Er  Er0  1  0.412358  0.218076  0.194281  1
  Er  Er1  1  0.587642  0.781924  0.805719  1
  Er  Er2  1  0.023795  0.218076  0.805719  1
  Er  Er3  1  0.976205  0.781924  0.194281  1
  Er  Er4  1  0.182949  0.282789  0.465739  1
  Er  Er5  1  0.817051  0.717211  0.534261  1
  Er  Er6  1  0.182949  0.717211  0.900160  1
  Er  Er7  1  0.817051  0.282789  0.099840  1
  Tm  Tm8  1  0.313786  0.621310  0.307523  1
  Tm  Tm9  1  0.686214  0.378690  0.692477  1
  Tm  Tm10  1  0.313786  0.006264  0.692477  1
  Tm  Tm11  1  0.686214  0.993736  0.307523  1
  Co  Co12  1  0.376646  0.000000  0.376646  1
  Co  Co13  1  0.623354  0.000000  0.623354  1
  Co  Co14  1  0.111895  0.611895  0.500000  1
  Co  Co15  1  0.888105  0.388105  0.500000  1
  Sn  Sn16  1  0.500000  0.500000  0.000000  1
  Os  Os17  1  0.000000  0.000000  0.000000  1
