# generated using pymatgen
data_Ho6Al24Os7Rh
_symmetry_space_group_name_H-M   'P 1'
_cell_length_a   8.80714100
_cell_length_b   8.81226967
_cell_length_c   9.57786023
_cell_angle_alpha   90.15186851
_cell_angle_beta   90.00000000
_cell_angle_gamma   119.98075346
_symmetry_Int_Tables_number   1
_chemical_formula_structural   Ho6Al24Os7Rh
_chemical_formula_sum   'Ho6 Al24 Os7 Rh1'
_cell_volume   643.87863790
_cell_formula_units_Z   1
loop_
 _symmetry_equiv_pos_site_id
 _symmetry_equiv_pos_as_xyz
  1  'x, y, z'
loop_
 _atom_site_type_symbol
 _atom_site_label
 _atom_site_symmetry_multiplicity
 _atom_site_fract_x
 _atom_site_fract_y
 _atom_site_fract_z
 _atom_site_occupancy
  Ho  Ho0  1  0.194322  0.388644  0.251729  1
  Ho  Ho1  1  0.805678  0.611356  0.748271  1
  Ho  Ho2  1  0.613805  0.805432  0.250563  1
  Ho  Ho3  1  0.386195  0.194568  0.749437  1
  Ho  Ho4  1  0.191627  0.805432  0.250563  1
  Ho  Ho5  1  0.808373  0.194568  0.749437  1
  Al  Al6  1  0.333148  0.666296  0.019995  1
  Al  Al7  1  0.666852  0.333704  0.980005  1
  Al  Al8  1  0.666120  0.332239  0.520165  1
  Al  Al9  1  0.333880  0.667761  0.479835  1
  Al  Al10  1  0.163920  0.327839  0.576075  1
  Al  Al11  1  0.836080  0.672161  0.423925  1
  Al  Al12  1  0.672354  0.836444  0.575250  1
  Al  Al13  1  0.836138  0.672275  0.075750  1
  Al  Al14  1  0.327646  0.163556  0.424750  1
  Al  Al15  1  0.163862  0.327725  0.924250  1
  Al  Al16  1  0.164089  0.836444  0.575250  1
  Al  Al17  1  0.326729  0.165872  0.077228  1
  Al  Al18  1  0.835911  0.163556  0.424750  1
  Al  Al19  1  0.673271  0.834128  0.922772  1
  Al  Al20  1  0.839143  0.165872  0.077228  1
  Al  Al21  1  0.160857  0.834128  0.922772  1
  Al  Al22  1  0.561048  0.122098  0.250185  1
  Al  Al23  1  0.438952  0.877902  0.749815  1
  Al  Al24  1  0.876305  0.438156  0.249854  1
  Al  Al25  1  0.123695  0.561844  0.750146  1
  Al  Al26  1  0.561850  0.438156  0.249854  1
  Al  Al27  1  0.438150  0.561844  0.750146  1
  Al  Al28  1  0.000170  0.000339  0.250113  1
  Al  Al29  1  0.999830  0.999661  0.749887  1
  Os  Os30  1  0.000000  0.500000  0.000000  1
  Os  Os31  1  0.500000  0.000000  0.500000  1
  Os  Os32  1  0.500000  0.500000  0.000000  1
  Os  Os33  1  0.000000  0.500000  0.500000  1
  Os  Os34  1  0.500000  0.500000  0.500000  1
  Os  Os35  1  0.000000  0.000000  0.000000  1
  Os  Os36  1  0.000000  0.000000  0.500000  1
  Rh  Rh37  1  0.500000  0.000000  0.000000  1
