# generated using pymatgen
data_Nd2MnCo11As7
_symmetry_space_group_name_H-M   'P 1'
_cell_length_a   9.47245237
_cell_length_b   9.49490399
_cell_length_c   3.78840500
_cell_angle_alpha   90.00000000
_cell_angle_beta   90.00000000
_cell_angle_gamma   120.12550639
_symmetry_Int_Tables_number   1
_chemical_formula_structural   Nd2MnCo11As7
_chemical_formula_sum   'Nd2 Mn1 Co11 As7'
_cell_volume   294.70628941
_cell_formula_units_Z   1
loop_
 _symmetry_equiv_pos_site_id
 _symmetry_equiv_pos_as_xyz
  1  'x, y, z'
loop_
 _atom_site_type_symbol
 _atom_site_label
 _atom_site_symmetry_multiplicity
 _atom_site_fract_x
 _atom_site_fract_y
 _atom_site_fract_z
 _atom_site_occupancy
  Nd  Nd0  1  0.666913  0.331713  0.000000  1
  Nd  Nd1  1  0.335717  0.669723  0.500000  1
  Mn  Mn2  1  0.111614  0.214634  0.500000  1
  Co  Co3  1  0.057486  0.628267  0.000000  1
  Co  Co4  1  0.570348  0.943998  0.000000  1
  Co  Co5  1  0.373232  0.431290  0.000000  1
  Co  Co6  1  0.274725  0.120447  0.000000  1
  Co  Co7  1  0.846405  0.722236  0.000000  1
  Co  Co8  1  0.880313  0.151612  0.000000  1
  Co  Co9  1  0.430264  0.050843  0.500000  1
  Co  Co10  1  0.621549  0.571751  0.500000  1
  Co  Co11  1  0.949971  0.381111  0.500000  1
  Co  Co12  1  0.100256  0.879142  0.500000  1
  Co  Co13  1  0.777265  0.900512  0.500000  1
  As  As14  1  0.294935  0.889737  0.000000  1
  As  As15  1  0.594911  0.705858  0.000000  1
  As  As16  1  0.111602  0.410172  0.000000  1
  As  As17  1  0.405571  0.295248  0.500000  1
  As  As18  1  0.890728  0.598582  0.500000  1
  As  As19  1  0.708446  0.109198  0.500000  1
  As  As20  1  0.997748  0.993928  0.000000  1
