# generated using pymatgen
data_CeHoTm2(Si3Rh)2
_symmetry_space_group_name_H-M   'P 1'
_cell_length_a   8.14922611
_cell_length_b   8.14922560
_cell_length_c   7.91120000
_cell_angle_alpha   90.00000000
_cell_angle_beta   90.00000000
_cell_angle_gamma   119.99525666
_symmetry_Int_Tables_number   1
_chemical_formula_structural   CeHoTm2(Si3Rh)2
_chemical_formula_sum   'Ce2 Ho2 Tm4 Si12 Rh4'
_cell_volume   455.01578206
_cell_formula_units_Z   2
loop_
 _symmetry_equiv_pos_site_id
 _symmetry_equiv_pos_as_xyz
  1  'x, y, z'
loop_
 _atom_site_type_symbol
 _atom_site_label
 _atom_site_symmetry_multiplicity
 _atom_site_fract_x
 _atom_site_fract_y
 _atom_site_fract_z
 _atom_site_occupancy
  Ce  Ce0  1  0.999848  0.000152  0.250000  1
  Ce  Ce1  1  0.999953  0.000047  0.750000  1
  Ho  Ho2  1  0.491561  0.983048  0.750000  1
  Ho  Ho3  1  0.016952  0.508439  0.750000  1
  Tm  Tm4  1  0.509182  0.490818  0.250000  1
  Tm  Tm5  1  0.509125  0.018379  0.250000  1
  Tm  Tm6  1  0.981621  0.490875  0.250000  1
  Tm  Tm7  1  0.492198  0.507802  0.750000  1
  Si  Si8  1  0.167872  0.832128  0.500060  1
  Si  Si9  1  0.168043  0.335714  0.501115  1
  Si  Si10  1  0.664286  0.831957  0.501115  1
  Si  Si11  1  0.832573  0.167427  0.497961  1
  Si  Si12  1  0.832660  0.665508  0.498145  1
  Si  Si13  1  0.334492  0.167340  0.498145  1
  Si  Si14  1  0.832573  0.167427  0.002039  1
  Si  Si15  1  0.832660  0.665508  0.001855  1
  Si  Si16  1  0.334492  0.167340  0.001855  1
  Si  Si17  1  0.167872  0.832128  0.999940  1
  Si  Si18  1  0.168043  0.335714  0.998885  1
  Si  Si19  1  0.664286  0.831957  0.998885  1
  Rh  Rh20  1  0.333560  0.666440  0.462004  1
  Rh  Rh21  1  0.666295  0.333705  0.530604  1
  Rh  Rh22  1  0.666295  0.333705  0.969396  1
  Rh  Rh23  1  0.333560  0.666440  0.037996  1
