# generated using pymatgen
data_Ho5Al2Ru3
_symmetry_space_group_name_H-M   'P 1'
_cell_length_a   8.29974230
_cell_length_b   8.29974137
_cell_length_c   8.29974200
_cell_angle_alpha   109.47122461
_cell_angle_beta   109.47122234
_cell_angle_gamma   109.47122119
_symmetry_Int_Tables_number   1
_chemical_formula_structural   Ho5Al2Ru3
_chemical_formula_sum   'Ho10 Al4 Ru6'
_cell_volume   440.12074120
_cell_formula_units_Z   2
loop_
 _symmetry_equiv_pos_site_id
 _symmetry_equiv_pos_as_xyz
  1  'x, y, z'
loop_
 _atom_site_type_symbol
 _atom_site_label
 _atom_site_symmetry_multiplicity
 _atom_site_fract_x
 _atom_site_fract_y
 _atom_site_fract_z
 _atom_site_occupancy
  Ho  Ho0  1  0.784787  0.784787  0.784787  1
  Ho  Ho1  1  0.318874  0.568874  0.750000  1
  Ho  Ho2  1  0.750000  0.318874  0.568874  1
  Ho  Ho3  1  0.568874  0.750000  0.318874  1
  Ho  Ho4  1  0.715213  0.500000  0.000000  1
  Ho  Ho5  1  0.000000  0.715213  0.500000  1
  Ho  Ho6  1  0.500000  0.000000  0.715213  1
  Ho  Ho7  1  0.250000  0.181126  0.931126  1
  Ho  Ho8  1  0.931126  0.250000  0.181126  1
  Ho  Ho9  1  0.181126  0.931126  0.250000  1
  Al  Al10  1  0.410934  0.410934  0.410934  1
  Al  Al11  1  0.089066  0.500000  0.000000  1
  Al  Al12  1  0.000000  0.089066  0.500000  1
  Al  Al13  1  0.500000  0.000000  0.089066  1
  Ru  Ru14  1  0.876816  0.126816  0.750000  1
  Ru  Ru15  1  0.750000  0.876816  0.126816  1
  Ru  Ru16  1  0.126816  0.750000  0.876816  1
  Ru  Ru17  1  0.250000  0.623184  0.373184  1
  Ru  Ru18  1  0.373184  0.250000  0.623184  1
  Ru  Ru19  1  0.623184  0.373184  0.250000  1
