# generated using pymatgen
data_Hf2Sc9Os4
_symmetry_space_group_name_H-M   'P 1'
_cell_length_a   9.43750441
_cell_length_b   9.43750487
_cell_length_c   9.43750453
_cell_angle_alpha   60.51388780
_cell_angle_beta   60.51388604
_cell_angle_gamma   60.51388633
_symmetry_Int_Tables_number   1
_chemical_formula_structural   Hf2Sc9Os4
_chemical_formula_sum   'Hf4 Sc18 Os8'
_cell_volume   601.27177556
_cell_formula_units_Z   2
loop_
 _symmetry_equiv_pos_site_id
 _symmetry_equiv_pos_as_xyz
  1  'x, y, z'
loop_
 _atom_site_type_symbol
 _atom_site_label
 _atom_site_symmetry_multiplicity
 _atom_site_fract_x
 _atom_site_fract_y
 _atom_site_fract_z
 _atom_site_occupancy
  Hf  Hf0  1  0.842906  0.842906  0.842906  1
  Hf  Hf1  1  0.526908  0.158112  0.158112  1
  Hf  Hf2  1  0.158112  0.158112  0.526908  1
  Hf  Hf3  1  0.158112  0.526908  0.158112  1
  Sc  Sc4  1  0.844717  0.844717  0.468458  1
  Sc  Sc5  1  0.844717  0.468458  0.844717  1
  Sc  Sc6  1  0.468458  0.844717  0.844717  1
  Sc  Sc7  1  0.156574  0.156574  0.156574  1
  Sc  Sc8  1  0.197667  0.802740  0.197667  1
  Sc  Sc9  1  0.199390  0.800467  0.800467  1
  Sc  Sc10  1  0.802740  0.197667  0.197667  1
  Sc  Sc11  1  0.800467  0.800467  0.199390  1
  Sc  Sc12  1  0.197667  0.197667  0.802740  1
  Sc  Sc13  1  0.800467  0.199390  0.800467  1
  Sc  Sc14  1  0.383192  0.383192  0.383192  1
  Sc  Sc15  1  0.148429  0.616657  0.616657  1
  Sc  Sc16  1  0.616657  0.148429  0.616657  1
  Sc  Sc17  1  0.616657  0.616657  0.148429  1
  Sc  Sc18  1  0.383378  0.849917  0.383378  1
  Sc  Sc19  1  0.383378  0.383378  0.849917  1
  Sc  Sc20  1  0.849917  0.383378  0.383378  1
  Sc  Sc21  1  0.618040  0.618040  0.618040  1
  Os  Os22  1  0.496225  0.496225  0.003313  1
  Os  Os23  1  0.999768  0.999768  0.506332  1
  Os  Os24  1  0.496225  0.003313  0.496225  1
  Os  Os25  1  0.003313  0.496225  0.496225  1
  Os  Os26  1  0.506332  0.999768  0.999768  1
  Os  Os27  1  0.999768  0.506332  0.999768  1
  Os  Os28  1  0.500390  0.500390  0.500390  1
  Os  Os29  1  0.999427  0.999427  0.999427  1
