# generated using pymatgen
data_CoBr29
_symmetry_space_group_name_H-M   'P 1'
_cell_length_a   10.73725799
_cell_length_b   12.89427330
_cell_length_c   15.50447200
_cell_angle_alpha   46.82660440
_cell_angle_beta   56.29537385
_cell_angle_gamma   62.84875186
_symmetry_Int_Tables_number   1
_chemical_formula_structural   CoBr29
_chemical_formula_sum   'Co1 Br29'
_cell_volume   1291.89117340
_cell_formula_units_Z   1
loop_
 _symmetry_equiv_pos_site_id
 _symmetry_equiv_pos_as_xyz
  1  'x, y, z'
loop_
 _atom_site_type_symbol
 _atom_site_label
 _atom_site_symmetry_multiplicity
 _atom_site_fract_x
 _atom_site_fract_y
 _atom_site_fract_z
 _atom_site_occupancy
  Co  Co0  1  0.000000  0.000000  0.000000  1
  Br  Br1  1  0.500000  0.000000  0.000000  1
  Br  Br2  1  0.071929  0.265016  0.134626  1
  Br  Br3  1  0.732152  0.429422  0.440747  1
  Br  Br4  1  0.267848  0.570578  0.559253  1
  Br  Br5  1  0.534906  0.064493  0.260755  1
  Br  Br6  1  0.928071  0.734984  0.865374  1
  Br  Br7  1  0.289974  0.315856  0.378209  1
  Br  Br8  1  0.710026  0.684144  0.621791  1
  Br  Br9  1  0.465094  0.935507  0.739245  1
  Br  Br10  1  0.209153  0.128651  0.860968  1
  Br  Br11  1  0.566331  0.755225  0.038169  1
  Br  Br12  1  0.824757  0.145766  0.075040  1
  Br  Br13  1  0.093752  0.847054  0.170876  1
  Br  Br14  1  0.408285  0.540583  0.231147  1
  Br  Br15  1  0.906248  0.152946  0.829124  1
  Br  Br16  1  0.866340  0.156829  0.332355  1
  Br  Br17  1  0.175243  0.854234  0.924960  1
  Br  Br18  1  0.892116  0.762514  0.393943  1
  Br  Br19  1  0.433669  0.244775  0.961831  1
  Br  Br20  1  0.790847  0.871349  0.139032  1
  Br  Br21  1  0.641213  0.233375  0.656062  1
  Br  Br22  1  0.724216  0.968300  0.592759  1
  Br  Br23  1  0.859011  0.641945  0.174609  1
  Br  Br24  1  0.140989  0.358055  0.825391  1
  Br  Br25  1  0.275784  0.031700  0.407241  1
  Br  Br26  1  0.358787  0.766625  0.343938  1
  Br  Br27  1  0.107884  0.237486  0.606057  1
  Br  Br28  1  0.133660  0.843171  0.667645  1
  Br  Br29  1  0.591715  0.459417  0.768853  1
