# generated using pymatgen
data_ErPa5(Al3Os)8
_symmetry_space_group_name_H-M   'P 1'
_cell_length_a   8.87791729
_cell_length_b   8.87791705
_cell_length_c   9.42951700
_cell_angle_alpha   90.00000000
_cell_angle_beta   90.00000000
_cell_angle_gamma   119.97073155
_symmetry_Int_Tables_number   1
_chemical_formula_structural   ErPa5(Al3Os)8
_chemical_formula_sum   'Er1 Pa5 Al24 Os8'
_cell_volume   643.82860317
_cell_formula_units_Z   1
loop_
 _symmetry_equiv_pos_site_id
 _symmetry_equiv_pos_as_xyz
  1  'x, y, z'
loop_
 _atom_site_type_symbol
 _atom_site_label
 _atom_site_symmetry_multiplicity
 _atom_site_fract_x
 _atom_site_fract_y
 _atom_site_fract_z
 _atom_site_occupancy
  Er  Er0  1  0.802774  0.197226  0.750000  1
  Pa  Pa1  1  0.196747  0.394802  0.250000  1
  Pa  Pa2  1  0.801632  0.606871  0.750000  1
  Pa  Pa3  1  0.605198  0.803253  0.250000  1
  Pa  Pa4  1  0.393129  0.198368  0.750000  1
  Pa  Pa5  1  0.197918  0.802082  0.250000  1
  Al  Al6  1  0.334270  0.665730  0.015781  1
  Al  Al7  1  0.669074  0.330926  0.978555  1
  Al  Al8  1  0.669074  0.330926  0.521445  1
  Al  Al9  1  0.334270  0.665730  0.484219  1
  Al  Al10  1  0.160502  0.323996  0.578381  1
  Al  Al11  1  0.837720  0.675630  0.421522  1
  Al  Al12  1  0.676004  0.839498  0.578381  1
  Al  Al13  1  0.837720  0.675630  0.078478  1
  Al  Al14  1  0.324370  0.162280  0.421522  1
  Al  Al15  1  0.160502  0.323996  0.921619  1
  Al  Al16  1  0.161804  0.838196  0.580515  1
  Al  Al17  1  0.324370  0.162280  0.078478  1
  Al  Al18  1  0.837783  0.162217  0.423266  1
  Al  Al19  1  0.676004  0.839498  0.921619  1
  Al  Al20  1  0.837783  0.162217  0.076734  1
  Al  Al21  1  0.161804  0.838196  0.919485  1
  Al  Al22  1  0.564274  0.127437  0.250000  1
  Al  Al23  1  0.441319  0.878739  0.750000  1
  Al  Al24  1  0.872563  0.435726  0.250000  1
  Al  Al25  1  0.121261  0.558681  0.750000  1
  Al  Al26  1  0.563031  0.436969  0.250000  1
  Al  Al27  1  0.436259  0.563741  0.750000  1
  Al  Al28  1  0.999866  0.000134  0.250000  1
  Al  Al29  1  0.999245  0.000755  0.750000  1
  Os  Os30  1  0.496844  0.996666  0.003695  1
  Os  Os31  1  0.003334  0.503156  0.003695  1
  Os  Os32  1  0.496844  0.996666  0.496305  1
  Os  Os33  1  0.500877  0.499123  0.999403  1
  Os  Os34  1  0.003334  0.503156  0.496305  1
  Os  Os35  1  0.500877  0.499123  0.500597  1
  Os  Os36  1  0.999810  0.000190  0.000153  1
  Os  Os37  1  0.999810  0.000190  0.499847  1
