# generated using pymatgen
data_Y3AlSiOs2
_symmetry_space_group_name_H-M   'P 1'
_cell_length_a   5.64008700
_cell_length_b   7.71525600
_cell_length_c   13.51853000
_cell_angle_alpha   90.00000000
_cell_angle_beta   90.00000000
_cell_angle_gamma   90.00000000
_symmetry_Int_Tables_number   1
_chemical_formula_structural   Y3AlSiOs2
_chemical_formula_sum   'Y12 Al4 Si4 Os8'
_cell_volume   588.25498108
_cell_formula_units_Z   4
loop_
 _symmetry_equiv_pos_site_id
 _symmetry_equiv_pos_as_xyz
  1  'x, y, z'
loop_
 _atom_site_type_symbol
 _atom_site_label
 _atom_site_symmetry_multiplicity
 _atom_site_fract_x
 _atom_site_fract_y
 _atom_site_fract_z
 _atom_site_occupancy
  Y  Y0  1  0.145457  0.601562  0.100398  1
  Y  Y1  1  0.145457  0.898438  0.899602  1
  Y  Y2  1  0.854543  0.101562  0.399602  1
  Y  Y3  1  0.854543  0.398438  0.600398  1
  Y  Y4  1  0.854543  0.398438  0.899602  1
  Y  Y5  1  0.854543  0.101562  0.100398  1
  Y  Y6  1  0.145457  0.898438  0.600398  1
  Y  Y7  1  0.145457  0.601562  0.399602  1
  Y  Y8  1  0.371645  0.242114  0.250000  1
  Y  Y9  1  0.371645  0.257886  0.750000  1
  Y  Y10  1  0.628355  0.742114  0.250000  1
  Y  Y11  1  0.628355  0.757886  0.750000  1
  Al  Al12  1  0.380254  0.250000  0.000000  1
  Al  Al13  1  0.619746  0.750000  0.500000  1
  Al  Al14  1  0.619746  0.750000  0.000000  1
  Al  Al15  1  0.380254  0.250000  0.500000  1
  Si  Si16  1  0.863403  0.396917  0.250000  1
  Si  Si17  1  0.863403  0.103083  0.750000  1
  Si  Si18  1  0.136597  0.896917  0.250000  1
  Si  Si19  1  0.136597  0.603083  0.750000  1
  Os  Os20  1  0.648827  0.466615  0.095819  1
  Os  Os21  1  0.648827  0.033385  0.904181  1
  Os  Os22  1  0.351173  0.966615  0.404181  1
  Os  Os23  1  0.351173  0.533385  0.595819  1
  Os  Os24  1  0.351173  0.533385  0.904181  1
  Os  Os25  1  0.351173  0.966615  0.095819  1
  Os  Os26  1  0.648827  0.033385  0.595819  1
  Os  Os27  1  0.648827  0.466615  0.404181  1
