# generated using pymatgen
data_NdTm4(In2Pt)2
_symmetry_space_group_name_H-M   'P 1'
_cell_length_a   3.59793600
_cell_length_b   8.16808000
_cell_length_c   18.31665500
_cell_angle_alpha   90.00000000
_cell_angle_beta   90.00000000
_cell_angle_gamma   90.00000000
_symmetry_Int_Tables_number   1
_chemical_formula_structural   NdTm4(In2Pt)2
_chemical_formula_sum   'Nd2 Tm8 In8 Pt4'
_cell_volume   538.29405317
_cell_formula_units_Z   2
loop_
 _symmetry_equiv_pos_site_id
 _symmetry_equiv_pos_as_xyz
  1  'x, y, z'
loop_
 _atom_site_type_symbol
 _atom_site_label
 _atom_site_symmetry_multiplicity
 _atom_site_fract_x
 _atom_site_fract_y
 _atom_site_fract_z
 _atom_site_occupancy
  Nd  Nd0  1  0.000000  0.000000  0.000000  1
  Nd  Nd1  1  0.000000  0.500000  0.500000  1
  Tm  Tm2  1  0.000000  0.118958  0.413167  1
  Tm  Tm3  1  0.000000  0.881042  0.586833  1
  Tm  Tm4  1  0.000000  0.381042  0.913167  1
  Tm  Tm5  1  0.000000  0.618958  0.086833  1
  Tm  Tm6  1  0.000000  0.243094  0.220224  1
  Tm  Tm7  1  0.000000  0.756906  0.779776  1
  Tm  Tm8  1  0.000000  0.256906  0.720224  1
  Tm  Tm9  1  0.000000  0.743094  0.279776  1
  In  In10  1  0.500000  0.422351  0.348174  1
  In  In11  1  0.500000  0.577649  0.651826  1
  In  In12  1  0.500000  0.077649  0.848174  1
  In  In13  1  0.500000  0.922351  0.151826  1
  In  In14  1  0.500000  0.299752  0.067763  1
  In  In15  1  0.500000  0.700248  0.932237  1
  In  In16  1  0.500000  0.200248  0.567763  1
  In  In17  1  0.500000  0.799752  0.432237  1
  Pt  Pt18  1  0.500000  0.025292  0.303391  1
  Pt  Pt19  1  0.500000  0.974708  0.696609  1
  Pt  Pt20  1  0.500000  0.474708  0.803391  1
  Pt  Pt21  1  0.500000  0.525292  0.196609  1
