# generated using pymatgen
data_YbTm3Os8
_symmetry_space_group_name_H-M   'P 1'
_cell_length_a   5.30858100
_cell_length_b   5.30857938
_cell_length_c   8.73108900
_cell_angle_alpha   90.00000000
_cell_angle_beta   90.00000000
_cell_angle_gamma   119.99999140
_symmetry_Int_Tables_number   1
_chemical_formula_structural   YbTm3Os8
_chemical_formula_sum   'Yb1 Tm3 Os8'
_cell_volume   213.08645716
_cell_formula_units_Z   1
loop_
 _symmetry_equiv_pos_site_id
 _symmetry_equiv_pos_as_xyz
  1  'x, y, z'
loop_
 _atom_site_type_symbol
 _atom_site_label
 _atom_site_symmetry_multiplicity
 _atom_site_fract_x
 _atom_site_fract_y
 _atom_site_fract_z
 _atom_site_occupancy
  Yb  Yb0  1  0.333333  0.666667  0.063161  1
  Tm  Tm1  1  0.333333  0.666667  0.429974  1
  Tm  Tm2  1  0.666667  0.333333  0.565606  1
  Tm  Tm3  1  0.666667  0.333333  0.938535  1
  Os  Os4  1  0.000000  0.000000  0.500762  1
  Os  Os5  1  0.000000  0.000000  0.000741  1
  Os  Os6  1  0.827814  0.172186  0.250999  1
  Os  Os7  1  0.827814  0.655628  0.250999  1
  Os  Os8  1  0.344372  0.172186  0.250999  1
  Os  Os9  1  0.172967  0.827033  0.749408  1
  Os  Os10  1  0.172967  0.345934  0.749408  1
  Os  Os11  1  0.654066  0.827033  0.749408  1
