# generated using pymatgen
data_Hf16Co4MoIr3
_symmetry_space_group_name_H-M   'P 1'
_cell_length_a   8.63239861
_cell_length_b   8.63239881
_cell_length_c   8.63239949
_cell_angle_alpha   59.66600941
_cell_angle_beta   59.66600669
_cell_angle_gamma   59.66600912
_symmetry_Int_Tables_number   1
_chemical_formula_structural   Hf16Co4MoIr3
_chemical_formula_sum   'Hf16 Co4 Mo1 Ir3'
_cell_volume   451.41028270
_cell_formula_units_Z   1
loop_
 _symmetry_equiv_pos_site_id
 _symmetry_equiv_pos_as_xyz
  1  'x, y, z'
loop_
 _atom_site_type_symbol
 _atom_site_label
 _atom_site_symmetry_multiplicity
 _atom_site_fract_x
 _atom_site_fract_y
 _atom_site_fract_z
 _atom_site_occupancy
  Hf  Hf0  1  0.053569  0.648719  0.648719  1
  Hf  Hf1  1  0.648719  0.053569  0.648719  1
  Hf  Hf2  1  0.648719  0.648719  0.053569  1
  Hf  Hf3  1  0.646414  0.646414  0.646414  1
  Hf  Hf4  1  0.798878  0.798878  0.200536  1
  Hf  Hf5  1  0.199290  0.199290  0.799663  1
  Hf  Hf6  1  0.798878  0.200536  0.798878  1
  Hf  Hf7  1  0.199290  0.799663  0.199290  1
  Hf  Hf8  1  0.200536  0.798878  0.798878  1
  Hf  Hf9  1  0.799663  0.199290  0.199290  1
  Hf  Hf10  1  0.435768  0.435768  0.069320  1
  Hf  Hf11  1  0.064209  0.064209  0.436396  1
  Hf  Hf12  1  0.435768  0.069320  0.435768  1
  Hf  Hf13  1  0.064209  0.436396  0.064209  1
  Hf  Hf14  1  0.069320  0.435768  0.435768  1
  Hf  Hf15  1  0.436396  0.064209  0.064209  1
  Co  Co16  1  0.422255  0.858108  0.858108  1
  Co  Co17  1  0.858108  0.422255  0.858108  1
  Co  Co18  1  0.858108  0.858108  0.422255  1
  Co  Co19  1  0.859313  0.859313  0.859313  1
  Mo  Mo20  1  0.418720  0.418720  0.418720  1
  Ir  Ir21  1  0.754088  0.414892  0.414892  1
  Ir  Ir22  1  0.414892  0.754088  0.414892  1
  Ir  Ir23  1  0.414892  0.414892  0.754088  1
