# generated using pymatgen
data_CsMnSb12Os2Rh
_symmetry_space_group_name_H-M   'P 1'
_cell_length_a   8.20461064
_cell_length_b   8.25804145
_cell_length_c   8.25401227
_cell_angle_alpha   109.57615192
_cell_angle_beta   109.41608028
_cell_angle_gamma   109.32271158
_symmetry_Int_Tables_number   1
_chemical_formula_structural   CsMnSb12Os2Rh
_chemical_formula_sum   'Cs1 Mn1 Sb12 Os2 Rh1'
_cell_volume   431.02712724
_cell_formula_units_Z   1
loop_
 _symmetry_equiv_pos_site_id
 _symmetry_equiv_pos_as_xyz
  1  'x, y, z'
loop_
 _atom_site_type_symbol
 _atom_site_label
 _atom_site_symmetry_multiplicity
 _atom_site_fract_x
 _atom_site_fract_y
 _atom_site_fract_z
 _atom_site_occupancy
  Cs  Cs0  1  0.000000  0.000000  0.000000  1
  Mn  Mn1  1  0.500000  0.000000  0.000000  1
  Sb  Sb2  1  0.344383  0.191722  0.840840  1
  Sb  Sb3  1  0.655617  0.808278  0.159160  1
  Sb  Sb4  1  0.660044  0.502154  0.841353  1
  Sb  Sb5  1  0.339956  0.497846  0.158647  1
  Sb  Sb6  1  0.184567  0.841025  0.340359  1
  Sb  Sb7  1  0.815433  0.158975  0.659641  1
  Sb  Sb8  1  0.497793  0.838876  0.649862  1
  Sb  Sb9  1  0.502207  0.161124  0.350138  1
  Sb  Sb10  1  0.847221  0.349706  0.188080  1
  Sb  Sb11  1  0.152779  0.650294  0.811920  1
  Sb  Sb12  1  0.841284  0.656672  0.500160  1
  Sb  Sb13  1  0.158716  0.343328  0.499840  1
  Os  Os14  1  0.000000  0.500000  0.000000  1
  Os  Os15  1  0.500000  0.500000  0.500000  1
  Rh  Rh16  1  0.000000  0.000000  0.500000  1
