# generated using pymatgen
data_H4AuF7
_symmetry_space_group_name_H-M   'P 1'
_cell_length_a   3.31148390
_cell_length_b   7.89460108
_cell_length_c   7.27771700
_cell_angle_alpha   127.28839857
_cell_angle_beta   75.17495355
_cell_angle_gamma   93.33048852
_symmetry_Int_Tables_number   1
_chemical_formula_structural   H4AuF7
_chemical_formula_sum   'H4 Au1 F7'
_cell_volume   145.16499786
_cell_formula_units_Z   1
loop_
 _symmetry_equiv_pos_site_id
 _symmetry_equiv_pos_as_xyz
  1  'x, y, z'
loop_
 _atom_site_type_symbol
 _atom_site_label
 _atom_site_symmetry_multiplicity
 _atom_site_fract_x
 _atom_site_fract_y
 _atom_site_fract_z
 _atom_site_occupancy
  H  H0  1  0.512820  0.956645  0.188453  1
  H  H1  1  0.898036  0.838190  0.854843  1
  H  H2  1  0.067401  0.621538  0.508685  1
  H  H3  1  0.023414  0.513690  0.188576  1
  Au  Au4  1  0.159783  0.241135  0.694037  1
  F  F5  1  0.026341  0.490076  0.318667  1
  F  F6  1  0.745315  0.118596  0.811959  1
  F  F7  1  0.012182  0.525206  0.025332  1
  F  F8  1  0.144317  0.736985  0.688089  1
  F  F9  1  0.569917  0.364634  0.575453  1
  F  F10  1  0.309536  0.956487  0.368222  1
  F  F11  1  0.643611  0.968789  0.052014  1
