# generated using pymatgen
data_NbHS2
_symmetry_space_group_name_H-M   'P 1'
_cell_length_a   3.34968800
_cell_length_b   3.34968708
_cell_length_c   14.82631100
_cell_angle_alpha   90.00000000
_cell_angle_beta   90.00000000
_cell_angle_gamma   119.99996954
_symmetry_Int_Tables_number   1
_chemical_formula_structural   NbHS2
_chemical_formula_sum   'Nb2 H2 S4'
_cell_volume   144.06963864
_cell_formula_units_Z   2
loop_
 _symmetry_equiv_pos_site_id
 _symmetry_equiv_pos_as_xyz
  1  'x, y, z'
loop_
 _atom_site_type_symbol
 _atom_site_label
 _atom_site_symmetry_multiplicity
 _atom_site_fract_x
 _atom_site_fract_y
 _atom_site_fract_z
 _atom_site_occupancy
  Nb  Nb0  1  0.333333  0.666667  0.337552  1
  Nb  Nb1  1  0.666667  0.333333  0.787260  1
  H  H2  1  0.000000  0.000000  0.788452  1
  H  H3  1  0.000000  0.000000  0.336999  1
  S  S4  1  0.333333  0.666667  0.898249  1
  S  S5  1  0.333333  0.666667  0.676484  1
  S  S6  1  0.666667  0.333333  0.448434  1
  S  S7  1  0.666667  0.333333  0.226570  1
