# generated using pymatgen
data_Ca3CeMn3Sb8
_symmetry_space_group_name_H-M   'P 1'
_cell_length_a   4.41427200
_cell_length_b   4.41509200
_cell_length_c   20.21172100
_cell_angle_alpha   90.00000000
_cell_angle_beta   90.00000000
_cell_angle_gamma   90.00000000
_symmetry_Int_Tables_number   1
_chemical_formula_structural   Ca3CeMn3Sb8
_chemical_formula_sum   'Ca3 Ce1 Mn3 Sb8'
_cell_volume   393.91465872
_cell_formula_units_Z   1
loop_
 _symmetry_equiv_pos_site_id
 _symmetry_equiv_pos_as_xyz
  1  'x, y, z'
loop_
 _atom_site_type_symbol
 _atom_site_label
 _atom_site_symmetry_multiplicity
 _atom_site_fract_x
 _atom_site_fract_y
 _atom_site_fract_z
 _atom_site_occupancy
  Ca  Ca0  1  0.750000  0.750000  0.124770  1
  Ca  Ca1  1  0.750000  0.750000  0.629925  1
  Ca  Ca2  1  0.250000  0.250000  0.370073  1
  Ce  Ce3  1  0.250000  0.250000  0.875359  1
  Mn  Mn4  1  0.750000  0.250000  0.499979  1
  Mn  Mn5  1  0.250000  0.750000  0.000624  1
  Mn  Mn6  1  0.250000  0.750000  0.499989  1
  Sb  Sb7  1  0.750000  0.750000  0.418883  1
  Sb  Sb8  1  0.750000  0.750000  0.926092  1
  Sb  Sb9  1  0.250000  0.250000  0.072801  1
  Sb  Sb10  1  0.250000  0.250000  0.580837  1
  Sb  Sb11  1  0.750000  0.250000  0.248111  1
  Sb  Sb12  1  0.750000  0.250000  0.752260  1
  Sb  Sb13  1  0.250000  0.750000  0.247520  1
  Sb  Sb14  1  0.250000  0.750000  0.752777  1
