# generated using pymatgen
data_Ce5P12Os19
_symmetry_space_group_name_H-M   'P 1'
_cell_length_a   12.66182800
_cell_length_b   12.66182825
_cell_length_c   4.02581600
_cell_angle_alpha   90.00000000
_cell_angle_beta   90.00000000
_cell_angle_gamma   119.99999934
_symmetry_Int_Tables_number   1
_chemical_formula_structural   Ce5P12Os19
_chemical_formula_sum   'Ce5 P12 Os19'
_cell_volume   558.95569363
_cell_formula_units_Z   1
loop_
 _symmetry_equiv_pos_site_id
 _symmetry_equiv_pos_as_xyz
  1  'x, y, z'
loop_
 _atom_site_type_symbol
 _atom_site_label
 _atom_site_symmetry_multiplicity
 _atom_site_fract_x
 _atom_site_fract_y
 _atom_site_fract_z
 _atom_site_occupancy
  Ce  Ce0  1  0.185231  0.185231  0.500000  1
  Ce  Ce1  1  0.814769  0.000000  0.500000  1
  Ce  Ce2  1  0.000000  0.814769  0.500000  1
  Ce  Ce3  1  0.333333  0.666667  0.000000  1
  Ce  Ce4  1  0.666667  0.333333  0.000000  1
  P  P5  1  0.815270  0.815270  0.000000  1
  P  P6  1  0.184730  0.000000  0.000000  1
  P  P7  1  0.000000  0.184730  0.000000  1
  P  P8  1  0.175413  0.478159  0.500000  1
  P  P9  1  0.521841  0.697254  0.500000  1
  P  P10  1  0.302746  0.824587  0.500000  1
  P  P11  1  0.697254  0.521841  0.500000  1
  P  P12  1  0.824587  0.302746  0.500000  1
  P  P13  1  0.478159  0.175413  0.500000  1
  P  P14  1  0.371147  0.371147  0.000000  1
  P  P15  1  0.628853  0.000000  0.000000  1
  P  P16  1  0.000000  0.628853  0.000000  1
  Os  Os17  1  0.551852  0.551852  0.000000  1
  Os  Os18  1  0.448148  0.000000  0.000000  1
  Os  Os19  1  0.000000  0.448148  0.000000  1
  Os  Os20  1  0.711768  0.711768  0.500000  1
  Os  Os21  1  0.288232  0.000000  0.500000  1
  Os  Os22  1  0.000000  0.288232  0.500000  1
  Os  Os23  1  0.183972  0.377598  0.000000  1
  Os  Os24  1  0.622402  0.806374  0.000000  1
  Os  Os25  1  0.193626  0.816028  0.000000  1
  Os  Os26  1  0.806374  0.622402  0.000000  1
  Os  Os27  1  0.816028  0.193626  0.000000  1
  Os  Os28  1  0.377598  0.183972  0.000000  1
  Os  Os29  1  0.369295  0.495243  0.500000  1
  Os  Os30  1  0.504757  0.874052  0.500000  1
  Os  Os31  1  0.125948  0.630705  0.500000  1
  Os  Os32  1  0.874052  0.504757  0.500000  1
  Os  Os33  1  0.630705  0.125948  0.500000  1
  Os  Os34  1  0.495243  0.369295  0.500000  1
  Os  Os35  1  0.000000  0.000000  0.000000  1
