# generated using pymatgen
data_Ta12AlCr4Ga7C4
_symmetry_space_group_name_H-M   'P 1'
_cell_length_a   8.25623141
_cell_length_b   8.25623118
_cell_length_c   8.25623105
_cell_angle_alpha   60.11326540
_cell_angle_beta   60.11326896
_cell_angle_gamma   60.11326492
_symmetry_Int_Tables_number   1
_chemical_formula_structural   Ta12AlCr4Ga7C4
_chemical_formula_sum   'Ta12 Al1 Cr4 Ga7 C4'
_cell_volume   398.97308458
_cell_formula_units_Z   1
loop_
 _symmetry_equiv_pos_site_id
 _symmetry_equiv_pos_as_xyz
  1  'x, y, z'
loop_
 _atom_site_type_symbol
 _atom_site_label
 _atom_site_symmetry_multiplicity
 _atom_site_fract_x
 _atom_site_fract_y
 _atom_site_fract_z
 _atom_site_occupancy
  Ta  Ta0  1  0.554004  0.945936  0.554004  1
  Ta  Ta1  1  0.303489  0.696194  0.696194  1
  Ta  Ta2  1  0.695335  0.304562  0.304562  1
  Ta  Ta3  1  0.304562  0.695335  0.304562  1
  Ta  Ta4  1  0.696194  0.696194  0.303489  1
  Ta  Ta5  1  0.304562  0.304562  0.695335  1
  Ta  Ta6  1  0.554004  0.554004  0.945936  1
  Ta  Ta7  1  0.945936  0.554004  0.554004  1
  Ta  Ta8  1  0.555136  0.945591  0.945591  1
  Ta  Ta9  1  0.945591  0.945591  0.555136  1
  Ta  Ta10  1  0.696194  0.303489  0.696194  1
  Ta  Ta11  1  0.945591  0.555136  0.945591  1
  Al  Al12  1  0.915459  0.915459  0.915459  1
  Cr  Cr13  1  0.125040  0.125040  0.125040  1
  Cr  Cr14  1  0.624292  0.125069  0.125069  1
  Cr  Cr15  1  0.125069  0.624292  0.125069  1
  Cr  Cr16  1  0.125069  0.125069  0.624292  1
  Ga  Ga17  1  0.989810  0.336786  0.336786  1
  Ga  Ga18  1  0.336786  0.989810  0.336786  1
  Ga  Ga19  1  0.336786  0.336786  0.989810  1
  Ga  Ga20  1  0.912953  0.258914  0.912953  1
  Ga  Ga21  1  0.912953  0.912953  0.258914  1
  Ga  Ga22  1  0.258914  0.912953  0.912953  1
  Ga  Ga23  1  0.336676  0.336676  0.336676  1
  C  C24  1  0.625175  0.625175  0.625175  1
  C  C25  1  0.125129  0.624647  0.624647  1
  C  C26  1  0.624647  0.125129  0.624647  1
  C  C27  1  0.624647  0.624647  0.125129  1
