# generated using pymatgen
data_Zr3Si2(Ni2Ge)2
_symmetry_space_group_name_H-M   'P 1'
_cell_length_a   7.47749222
_cell_length_b   7.47749313
_cell_length_c   7.47749261
_cell_angle_alpha   149.79410849
_cell_angle_beta   128.61270843
_cell_angle_gamma   60.77265825
_symmetry_Int_Tables_number   1
_chemical_formula_structural   Zr3Si2(Ni2Ge)2
_chemical_formula_sum   'Zr3 Si2 Ni4 Ge2'
_cell_volume   162.96753152
_cell_formula_units_Z   1
loop_
 _symmetry_equiv_pos_site_id
 _symmetry_equiv_pos_as_xyz
  1  'x, y, z'
loop_
 _atom_site_type_symbol
 _atom_site_label
 _atom_site_symmetry_multiplicity
 _atom_site_fract_x
 _atom_site_fract_y
 _atom_site_fract_z
 _atom_site_occupancy
  Zr  Zr0  1  0.872236  0.372236  0.500000  1
  Zr  Zr1  1  0.127764  0.627764  0.500000  1
  Zr  Zr2  1  0.500000  0.500000  0.000000  1
  Si  Si3  1  0.285779  0.285779  0.000000  1
  Si  Si4  1  0.714221  0.714221  0.000000  1
  Ni  Ni5  1  0.482935  0.181058  0.301877  1
  Ni  Ni6  1  0.120819  0.818942  0.301877  1
  Ni  Ni7  1  0.517065  0.818942  0.698123  1
  Ni  Ni8  1  0.879181  0.181058  0.698123  1
  Ge  Ge9  1  0.798551  0.000000  0.798551  1
  Ge  Ge10  1  0.201449  0.000000  0.201449  1
