# generated using pymatgen
data_Ac2Y5Co4Sn13
_symmetry_space_group_name_H-M   'P 1'
_cell_length_a   11.28699700
_cell_length_b   11.28699700
_cell_length_c   4.55828100
_cell_angle_alpha   90.00000000
_cell_angle_beta   90.00000000
_cell_angle_gamma   90.00000000
_symmetry_Int_Tables_number   1
_chemical_formula_structural   Ac2Y5Co4Sn13
_chemical_formula_sum   'Ac2 Y5 Co4 Sn13'
_cell_volume   580.70813959
_cell_formula_units_Z   1
loop_
 _symmetry_equiv_pos_site_id
 _symmetry_equiv_pos_as_xyz
  1  'x, y, z'
loop_
 _atom_site_type_symbol
 _atom_site_label
 _atom_site_symmetry_multiplicity
 _atom_site_fract_x
 _atom_site_fract_y
 _atom_site_fract_z
 _atom_site_occupancy
  Ac  Ac0  1  0.500000  0.000000  0.500000  1
  Ac  Ac1  1  0.000000  0.500000  0.500000  1
  Y  Y2  1  0.000000  0.000000  0.000000  1
  Y  Y3  1  0.335468  0.673537  0.500000  1
  Y  Y4  1  0.664532  0.326463  0.500000  1
  Y  Y5  1  0.326463  0.335468  0.500000  1
  Y  Y6  1  0.673537  0.664532  0.500000  1
  Co  Co7  1  0.120598  0.723328  0.000000  1
  Co  Co8  1  0.879402  0.276672  0.000000  1
  Co  Co9  1  0.276672  0.120598  0.000000  1
  Co  Co10  1  0.723328  0.879402  0.000000  1
  Sn  Sn11  1  0.281642  0.888089  0.000000  1
  Sn  Sn12  1  0.718358  0.111911  0.000000  1
  Sn  Sn13  1  0.111911  0.281642  0.000000  1
  Sn  Sn14  1  0.888089  0.718358  0.000000  1
  Sn  Sn15  1  0.079628  0.809180  0.500000  1
  Sn  Sn16  1  0.920372  0.190820  0.500000  1
  Sn  Sn17  1  0.190820  0.079628  0.500000  1
  Sn  Sn18  1  0.809180  0.920372  0.500000  1
  Sn  Sn19  1  0.521124  0.776054  0.000000  1
  Sn  Sn20  1  0.478876  0.223946  0.000000  1
  Sn  Sn21  1  0.223946  0.521124  0.000000  1
  Sn  Sn22  1  0.776054  0.478876  0.000000  1
  Sn  Sn23  1  0.500000  0.500000  0.000000  1
