# generated using pymatgen
data_YbGd3(Ir2O7)2
_symmetry_space_group_name_H-M   'P 1'
_cell_length_a   7.24607832
_cell_length_b   7.25180134
_cell_length_c   7.24607900
_cell_angle_alpha   60.02610409
_cell_angle_beta   60.00000148
_cell_angle_gamma   60.02610097
_symmetry_Int_Tables_number   1
_chemical_formula_structural   YbGd3(Ir2O7)2
_chemical_formula_sum   'Yb1 Gd3 Ir4 O14'
_cell_volume   269.34457199
_cell_formula_units_Z   1
loop_
 _symmetry_equiv_pos_site_id
 _symmetry_equiv_pos_as_xyz
  1  'x, y, z'
loop_
 _atom_site_type_symbol
 _atom_site_label
 _atom_site_symmetry_multiplicity
 _atom_site_fract_x
 _atom_site_fract_y
 _atom_site_fract_z
 _atom_site_occupancy
  Yb  Yb0  1  0.125000  0.625000  0.125000  1
  Gd  Gd1  1  0.625000  0.125000  0.125000  1
  Gd  Gd2  1  0.125000  0.125000  0.625000  1
  Gd  Gd3  1  0.125000  0.125000  0.125000  1
  Ir  Ir4  1  0.125000  0.625000  0.625000  1
  Ir  Ir5  1  0.625000  0.125000  0.625000  1
  Ir  Ir6  1  0.625000  0.625000  0.125000  1
  Ir  Ir7  1  0.625000  0.625000  0.625000  1
  O  O8  1  0.703868  0.710531  0.292800  1
  O  O9  1  0.291259  0.291153  0.708794  1
  O  O10  1  0.708794  0.291153  0.708794  1
  O  O11  1  0.292800  0.710531  0.292800  1
  O  O12  1  0.292800  0.710531  0.703868  1
  O  O13  1  0.708794  0.291153  0.291259  1
  O  O14  1  0.546132  0.539469  0.957200  1
  O  O15  1  0.958741  0.958847  0.541206  1
  O  O16  1  0.541206  0.958847  0.541206  1
  O  O17  1  0.957200  0.539469  0.957200  1
  O  O18  1  0.957200  0.539469  0.546132  1
  O  O19  1  0.541206  0.958847  0.958741  1
  O  O20  1  0.250965  0.247103  0.250965  1
  O  O21  1  0.999035  0.002897  0.999035  1
