# generated using pymatgen
data_Ta12Al8Fe3CoC4
_symmetry_space_group_name_H-M   'P 1'
_cell_length_a   8.20360250
_cell_length_b   8.20360219
_cell_length_c   8.20360251
_cell_angle_alpha   60.12656657
_cell_angle_beta   60.12656650
_cell_angle_gamma   60.12656502
_symmetry_Int_Tables_number   1
_chemical_formula_structural   Ta12Al8Fe3CoC4
_chemical_formula_sum   'Ta12 Al8 Fe3 Co1 C4'
_cell_volume   391.50946926
_cell_formula_units_Z   1
loop_
 _symmetry_equiv_pos_site_id
 _symmetry_equiv_pos_as_xyz
  1  'x, y, z'
loop_
 _atom_site_type_symbol
 _atom_site_label
 _atom_site_symmetry_multiplicity
 _atom_site_fract_x
 _atom_site_fract_y
 _atom_site_fract_z
 _atom_site_occupancy
  Ta  Ta0  1  0.317243  0.932662  0.932662  1
  Ta  Ta1  1  0.936566  0.316030  0.316030  1
  Ta  Ta2  1  0.932662  0.317243  0.932662  1
  Ta  Ta3  1  0.932662  0.932662  0.317243  1
  Ta  Ta4  1  0.316030  0.936566  0.316030  1
  Ta  Ta5  1  0.316030  0.316030  0.936566  1
  Ta  Ta6  1  0.067338  0.682757  0.067338  1
  Ta  Ta7  1  0.683970  0.063434  0.683970  1
  Ta  Ta8  1  0.682757  0.067338  0.067338  1
  Ta  Ta9  1  0.067338  0.067338  0.682757  1
  Ta  Ta10  1  0.063434  0.683970  0.683970  1
  Ta  Ta11  1  0.683970  0.683970  0.063434  1
  Al  Al12  1  0.293616  0.293616  0.293616  1
  Al  Al13  1  0.293420  0.293420  0.620810  1
  Al  Al14  1  0.620810  0.293420  0.293420  1
  Al  Al15  1  0.293420  0.620810  0.293420  1
  Al  Al16  1  0.706384  0.706384  0.706384  1
  Al  Al17  1  0.706580  0.706580  0.379190  1
  Al  Al18  1  0.706580  0.379190  0.706580  1
  Al  Al19  1  0.379190  0.706580  0.706580  1
  Fe  Fe20  1  0.500000  0.500000  0.000000  1
  Fe  Fe21  1  0.000000  0.500000  0.500000  1
  Fe  Fe22  1  0.500000  0.000000  0.500000  1
  Co  Co23  1  0.500000  0.500000  0.500000  1
  C  C24  1  0.000000  0.000000  0.000000  1
  C  C25  1  0.000000  0.000000  0.500000  1
  C  C26  1  0.500000  0.000000  0.000000  1
  C  C27  1  0.000000  0.500000  0.000000  1
