# generated using pymatgen
data_Li2Hf2Zr4(Al2Pd)7
_symmetry_space_group_name_H-M   'P 1'
_cell_length_a   8.77980152
_cell_length_b   8.77754653
_cell_length_c   8.81751495
_cell_angle_alpha   59.66410423
_cell_angle_beta   59.83483345
_cell_angle_gamma   60.27484657
_symmetry_Int_Tables_number   1
_chemical_formula_structural   Li2Hf2Zr4(Al2Pd)7
_chemical_formula_sum   'Li2 Hf2 Zr4 Al14 Pd7'
_cell_volume   479.64417867
_cell_formula_units_Z   1
loop_
 _symmetry_equiv_pos_site_id
 _symmetry_equiv_pos_as_xyz
  1  'x, y, z'
loop_
 _atom_site_type_symbol
 _atom_site_label
 _atom_site_symmetry_multiplicity
 _atom_site_fract_x
 _atom_site_fract_y
 _atom_site_fract_z
 _atom_site_occupancy
  Li  Li0  1  0.879113  0.881647  0.358120  1
  Li  Li1  1  0.880700  0.357003  0.881778  1
  Hf  Hf2  1  0.684542  0.313925  0.685586  1
  Hf  Hf3  1  0.313509  0.686556  0.687032  1
  Zr  Zr4  1  0.676466  0.676938  0.322383  1
  Zr  Zr5  1  0.312074  0.689492  0.310150  1
  Zr  Zr6  1  0.688499  0.311498  0.311957  1
  Zr  Zr7  1  0.324683  0.321864  0.677552  1
  Al  Al8  1  0.358577  0.881183  0.880763  1
  Al  Al9  1  0.880198  0.881468  0.881415  1
  Al  Al10  1  0.114455  0.124370  0.645276  1
  Al  Al11  1  0.115855  0.643699  0.125062  1
  Al  Al12  1  0.645279  0.122327  0.120447  1
  Al  Al13  1  0.112183  0.121661  0.122302  1
  Al  Al14  1  0.669564  0.659572  0.000988  1
  Al  Al15  1  0.670123  0.001661  0.659167  1
  Al  Al16  1  0.999248  0.663979  0.663610  1
  Al  Al17  1  0.672807  0.662886  0.664048  1
  Al  Al18  1  0.335898  0.332952  0.996569  1
  Al  Al19  1  0.334703  0.997630  0.332365  1
  Al  Al20  1  0.994394  0.333537  0.334828  1
  Al  Al21  1  0.336826  0.334127  0.333645  1
  Pd  Pd22  1  0.003481  0.996637  0.999254  1
  Pd  Pd23  1  0.003033  0.998330  0.507530  1
  Pd  Pd24  1  0.490168  0.997895  0.508263  1
  Pd  Pd25  1  0.003286  0.494757  0.497176  1
  Pd  Pd26  1  0.492259  0.506343  0.997955  1
  Pd  Pd27  1  0.003722  0.507839  0.998209  1
  Pd  Pd28  1  0.504356  0.998222  0.996568  1
