# generated using pymatgen
data_Zr5CdInBi2
_symmetry_space_group_name_H-M   'P 1'
_cell_length_a   8.90934050
_cell_length_b   8.90934095
_cell_length_c   6.00897600
_cell_angle_alpha   90.00000000
_cell_angle_beta   90.00000000
_cell_angle_gamma   119.68858115
_symmetry_Int_Tables_number   1
_chemical_formula_structural   Zr5CdInBi2
_chemical_formula_sum   'Zr10 Cd2 In2 Bi4'
_cell_volume   414.35877960
_cell_formula_units_Z   2
loop_
 _symmetry_equiv_pos_site_id
 _symmetry_equiv_pos_as_xyz
  1  'x, y, z'
loop_
 _atom_site_type_symbol
 _atom_site_label
 _atom_site_symmetry_multiplicity
 _atom_site_fract_x
 _atom_site_fract_y
 _atom_site_fract_z
 _atom_site_occupancy
  Zr  Zr0  1  0.722909  0.722909  0.750000  1
  Zr  Zr1  1  0.278570  0.000220  0.750000  1
  Zr  Zr2  1  0.000220  0.278570  0.750000  1
  Zr  Zr3  1  0.283091  0.283091  0.250000  1
  Zr  Zr4  1  0.716371  0.004715  0.250000  1
  Zr  Zr5  1  0.004715  0.716371  0.250000  1
  Zr  Zr6  1  0.666340  0.330762  0.004467  1
  Zr  Zr7  1  0.330762  0.666340  0.004467  1
  Zr  Zr8  1  0.330762  0.666340  0.495533  1
  Zr  Zr9  1  0.666340  0.330762  0.495533  1
  Cd  Cd10  1  0.002181  0.002181  0.006690  1
  Cd  Cd11  1  0.002181  0.002181  0.493310  1
  In  In12  1  0.375273  0.000116  0.250000  1
  In  In13  1  0.000116  0.375273  0.250000  1
  Bi  Bi14  1  0.382209  0.382209  0.750000  1
  Bi  Bi15  1  0.616418  0.999446  0.750000  1
  Bi  Bi16  1  0.999446  0.616418  0.750000  1
  Bi  Bi17  1  0.622094  0.622094  0.250000  1
