# generated using pymatgen
data_EuTm6Sc(WO6)4
_symmetry_space_group_name_H-M   'P 1'
_cell_length_a   5.33536539
_cell_length_b   7.62249046
_cell_length_c   11.34088936
_cell_angle_alpha   75.42416106
_cell_angle_beta   89.92395883
_cell_angle_gamma   89.82917406
_symmetry_Int_Tables_number   1
_chemical_formula_structural   EuTm6Sc(WO6)4
_chemical_formula_sum   'Eu1 Tm6 Sc1 W4 O24'
_cell_volume   446.37378556
_cell_formula_units_Z   1
loop_
 _symmetry_equiv_pos_site_id
 _symmetry_equiv_pos_as_xyz
  1  'x, y, z'
loop_
 _atom_site_type_symbol
 _atom_site_label
 _atom_site_symmetry_multiplicity
 _atom_site_fract_x
 _atom_site_fract_y
 _atom_site_fract_z
 _atom_site_occupancy
  Eu  Eu0  1  0.683899  0.501692  0.747521  1
  Tm  Tm1  1  0.745333  0.998410  0.746544  1
  Tm  Tm2  1  0.258083  0.999679  0.252416  1
  Tm  Tm3  1  0.814573  0.795135  0.079540  1
  Tm  Tm4  1  0.314442  0.500880  0.251470  1
  Tm  Tm5  1  0.184492  0.203490  0.922992  1
  Tm  Tm6  1  0.818849  0.205784  0.420812  1
  Sc  Sc7  1  0.185347  0.792703  0.580135  1
  W  W8  1  0.253130  0.726300  0.884844  1
  W  W9  1  0.743294  0.725558  0.386594  1
  W  W10  1  0.256987  0.273989  0.613321  1
  W  W11  1  0.744017  0.276205  0.116263  1
  O  O12  1  0.039340  0.941499  0.897134  1
  O  O13  1  0.540483  0.845442  0.927293  1
  O  O14  1  0.951847  0.943308  0.393306  1
  O  O15  1  0.449227  0.795841  0.720497  1
  O  O16  1  0.453589  0.841347  0.437810  1
  O  O17  1  0.981107  0.720135  0.766041  1
  O  O18  1  0.539433  0.794678  0.227811  1
  O  O19  1  0.868604  0.639219  0.548187  1
  O  O20  1  0.352878  0.488474  0.887091  1
  O  O21  1  0.019751  0.709707  0.270846  1
  O  O22  1  0.347446  0.513973  0.612155  1
  O  O23  1  0.855806  0.366716  0.953252  1
  O  O24  1  0.150259  0.638025  0.050562  1
  O  O25  1  0.638659  0.489549  0.387369  1
  O  O26  1  0.979106  0.277477  0.728755  1
  O  O27  1  0.635909  0.512193  0.116656  1
  O  O28  1  0.152200  0.362807  0.448299  1
  O  O29  1  0.457008  0.205353  0.773748  1
  O  O30  1  0.022544  0.290676  0.229554  1
  O  O31  1  0.546407  0.156867  0.569011  1
  O  O32  1  0.539751  0.207154  0.275491  1
  O  O33  1  0.053399  0.051067  0.600677  1
  O  O34  1  0.464436  0.150990  0.069539  1
  O  O35  1  0.958366  0.057678  0.106466  1
