# generated using pymatgen
data_DyHO
_symmetry_space_group_name_H-M   'P 1'
_cell_length_a   3.74852176
_cell_length_b   3.74852165
_cell_length_c   3.74852200
_cell_angle_alpha   59.99999691
_cell_angle_beta   59.99999787
_cell_angle_gamma   59.99999762
_symmetry_Int_Tables_number   1
_chemical_formula_structural   DyHO
_chemical_formula_sum   'Dy1 H1 O1'
_cell_volume   37.24475320
_cell_formula_units_Z   1
loop_
 _symmetry_equiv_pos_site_id
 _symmetry_equiv_pos_as_xyz
  1  'x, y, z'
loop_
 _atom_site_type_symbol
 _atom_site_label
 _atom_site_symmetry_multiplicity
 _atom_site_fract_x
 _atom_site_fract_y
 _atom_site_fract_z
 _atom_site_occupancy
  Dy  Dy0  1  0.250000  0.250000  0.250000  1
  H  H1  1  0.000000  0.000000  0.000000  1
  O  O2  1  0.500000  0.500000  0.500000  1
