# generated using pymatgen
data_Lu6Sc4Si5Ge
_symmetry_space_group_name_H-M   'P 1'
_cell_length_a   8.14352300
_cell_length_b   8.14279648
_cell_length_c   5.95663100
_cell_angle_alpha   90.00000000
_cell_angle_beta   90.00000000
_cell_angle_gamma   120.00296369
_symmetry_Int_Tables_number   1
_chemical_formula_structural   Lu6Sc4Si5Ge
_chemical_formula_sum   'Lu6 Sc4 Si5 Ge1'
_cell_volume   342.06155513
_cell_formula_units_Z   1
loop_
 _symmetry_equiv_pos_site_id
 _symmetry_equiv_pos_as_xyz
  1  'x, y, z'
loop_
 _atom_site_type_symbol
 _atom_site_label
 _atom_site_symmetry_multiplicity
 _atom_site_fract_x
 _atom_site_fract_y
 _atom_site_fract_z
 _atom_site_occupancy
  Lu  Lu0  1  0.757188  0.000000  0.750000  1
  Lu  Lu1  1  0.756246  0.756318  0.250000  1
  Lu  Lu2  1  0.999927  0.243682  0.250000  1
  Lu  Lu3  1  0.998802  0.755427  0.750000  1
  Lu  Lu4  1  0.243375  0.244573  0.750000  1
  Lu  Lu5  1  0.243281  0.000000  0.250000  1
  Sc  Sc6  1  0.667398  0.334189  0.000753  1
  Sc  Sc7  1  0.333208  0.665811  0.499247  1
  Sc  Sc8  1  0.333208  0.665811  0.000753  1
  Sc  Sc9  1  0.667398  0.334189  0.499247  1
  Si  Si10  1  0.397989  0.397922  0.250000  1
  Si  Si11  1  0.000067  0.602078  0.250000  1
  Si  Si12  1  0.999972  0.398007  0.750000  1
  Si  Si13  1  0.601965  0.601993  0.750000  1
  Si  Si14  1  0.602315  0.000000  0.250000  1
  Ge  Ge15  1  0.397663  0.000000  0.750000  1
