# generated using pymatgen
data_DyY3VRe3B16
_symmetry_space_group_name_H-M   'P 1'
_cell_length_a   3.58630800
_cell_length_b   5.98258241
_cell_length_c   11.57586330
_cell_angle_alpha   89.86110713
_cell_angle_beta   90.00000000
_cell_angle_gamma   90.00000000
_symmetry_Int_Tables_number   1
_chemical_formula_structural   DyY3VRe3B16
_chemical_formula_sum   'Dy1 Y3 V1 Re3 B16'
_cell_volume   248.36385292
_cell_formula_units_Z   1
loop_
 _symmetry_equiv_pos_site_id
 _symmetry_equiv_pos_as_xyz
  1  'x, y, z'
loop_
 _atom_site_type_symbol
 _atom_site_label
 _atom_site_symmetry_multiplicity
 _atom_site_fract_x
 _atom_site_fract_y
 _atom_site_fract_z
 _atom_site_occupancy
  Dy  Dy0  1  0.000000  0.872160  0.847793  1
  Y  Y1  1  0.000000  0.625508  0.351184  1
  Y  Y2  1  0.000000  0.375401  0.649287  1
  Y  Y3  1  0.000000  0.127431  0.150561  1
  V  V4  1  0.000000  0.872225  0.582807  1
  Re  Re5  1  0.000000  0.633965  0.087842  1
  Re  Re6  1  0.000000  0.366143  0.913227  1
  Re  Re7  1  0.000000  0.126542  0.416346  1
  B  B8  1  0.500000  0.785256  0.185611  1
  B  B9  1  0.500000  0.214492  0.814579  1
  B  B10  1  0.500000  0.285926  0.315712  1
  B  B11  1  0.500000  0.714539  0.684641  1
  B  B12  1  0.500000  0.863720  0.030867  1
  B  B13  1  0.500000  0.136275  0.968647  1
  B  B14  1  0.500000  0.364325  0.467945  1
  B  B15  1  0.500000  0.635443  0.532627  1
  B  B16  1  0.500000  0.885981  0.453271  1
  B  B17  1  0.500000  0.113860  0.547335  1
  B  B18  1  0.500000  0.386742  0.047162  1
  B  B19  1  0.500000  0.614138  0.952447  1
  B  B20  1  0.500000  0.976423  0.308013  1
  B  B21  1  0.500000  0.023035  0.692255  1
  B  B22  1  0.500000  0.475466  0.192284  1
  B  B23  1  0.500000  0.525003  0.807556  1
