# generated using pymatgen
data_Y3AlSiRuRh
_symmetry_space_group_name_H-M   'P 1'
_cell_length_a   5.56411400
_cell_length_b   7.79937200
_cell_length_c   13.47099100
_cell_angle_alpha   90.00000000
_cell_angle_beta   90.00000000
_cell_angle_gamma   90.00000000
_symmetry_Int_Tables_number   1
_chemical_formula_structural   Y3AlSiRuRh
_chemical_formula_sum   'Y12 Al4 Si4 Ru4 Rh4'
_cell_volume   584.59513982
_cell_formula_units_Z   4
loop_
 _symmetry_equiv_pos_site_id
 _symmetry_equiv_pos_as_xyz
  1  'x, y, z'
loop_
 _atom_site_type_symbol
 _atom_site_label
 _atom_site_symmetry_multiplicity
 _atom_site_fract_x
 _atom_site_fract_y
 _atom_site_fract_z
 _atom_site_occupancy
  Y  Y0  1  0.145153  0.597584  0.103123  1
  Y  Y1  1  0.145153  0.902416  0.896877  1
  Y  Y2  1  0.854847  0.097584  0.396877  1
  Y  Y3  1  0.854847  0.402416  0.603123  1
  Y  Y4  1  0.853460  0.395523  0.898640  1
  Y  Y5  1  0.853460  0.104477  0.101360  1
  Y  Y6  1  0.146540  0.895523  0.601360  1
  Y  Y7  1  0.146540  0.604477  0.398640  1
  Y  Y8  1  0.367071  0.239227  0.251456  1
  Y  Y9  1  0.367071  0.260773  0.748544  1
  Y  Y10  1  0.632929  0.739227  0.248544  1
  Y  Y11  1  0.632929  0.760773  0.751456  1
  Al  Al12  1  0.379989  0.250000  0.000000  1
  Al  Al13  1  0.620011  0.750000  0.500000  1
  Al  Al14  1  0.623645  0.750000  0.000000  1
  Al  Al15  1  0.376355  0.250000  0.500000  1
  Si  Si16  1  0.863998  0.390080  0.250907  1
  Si  Si17  1  0.863998  0.109920  0.749093  1
  Si  Si18  1  0.136002  0.890080  0.249093  1
  Si  Si19  1  0.136002  0.609920  0.750907  1
  Ru  Ru20  1  0.649016  0.467829  0.094061  1
  Ru  Ru21  1  0.649016  0.032171  0.905939  1
  Ru  Ru22  1  0.350984  0.967829  0.405939  1
  Ru  Ru23  1  0.350984  0.532171  0.594061  1
  Rh  Rh24  1  0.351327  0.534304  0.906938  1
  Rh  Rh25  1  0.351327  0.965696  0.093062  1
  Rh  Rh26  1  0.648673  0.034304  0.593062  1
  Rh  Rh27  1  0.648673  0.465696  0.406938  1
