# generated using pymatgen
data_Li2Eu2Ni15
_symmetry_space_group_name_H-M   'P 1'
_cell_length_a   6.29604669
_cell_length_b   6.29604692
_cell_length_c   6.29604724
_cell_angle_alpha   83.75298248
_cell_angle_beta   96.24701509
_cell_angle_gamma   96.24701953
_symmetry_Int_Tables_number   1
_chemical_formula_structural   Li2Eu2Ni15
_chemical_formula_sum   'Li2 Eu2 Ni15'
_cell_volume   245.43098788
_cell_formula_units_Z   1
loop_
 _symmetry_equiv_pos_site_id
 _symmetry_equiv_pos_as_xyz
  1  'x, y, z'
loop_
 _atom_site_type_symbol
 _atom_site_label
 _atom_site_symmetry_multiplicity
 _atom_site_fract_x
 _atom_site_fract_y
 _atom_site_fract_z
 _atom_site_occupancy
  Li  Li0  1  0.905575  0.094424  0.094424  1
  Li  Li1  1  0.094423  0.905576  0.905576  1
  Eu  Eu2  1  0.657400  0.342599  0.342599  1
  Eu  Eu3  1  0.342598  0.657401  0.657401  1
  Ni  Ni4  1  0.500000  0.000000  0.000000  1
  Ni  Ni5  1  0.299142  0.299143  0.000000  1
  Ni  Ni6  1  0.000000  0.500000  0.000000  1
  Ni  Ni7  1  0.700858  0.700858  0.000000  1
  Ni  Ni8  1  0.342038  0.657962  0.154680  1
  Ni  Ni9  1  0.000000  0.700858  0.299141  1
  Ni  Ni10  1  0.299142  0.000000  0.299142  1
  Ni  Ni11  1  0.657961  0.845320  0.342038  1
  Ni  Ni12  1  0.154679  0.342039  0.342039  1
  Ni  Ni13  1  0.000000  0.000000  0.500000  1
  Ni  Ni14  1  0.342038  0.154680  0.657961  1
  Ni  Ni15  1  0.845320  0.657962  0.657962  1
  Ni  Ni16  1  0.000000  0.299143  0.700857  1
  Ni  Ni17  1  0.700858  0.000000  0.700858  1
  Ni  Ni18  1  0.657961  0.342039  0.845321  1
