# generated using pymatgen
data_Ho3Er13CdIn3Pd4
_symmetry_space_group_name_H-M   'P 1'
_cell_length_a   9.64419253
_cell_length_b   9.64684701
_cell_length_c   9.64684700
_cell_angle_alpha   59.99999661
_cell_angle_beta   59.99089129
_cell_angle_gamma   59.99089210
_symmetry_Int_Tables_number   1
_chemical_formula_structural   Ho3Er13CdIn3Pd4
_chemical_formula_sum   'Ho3 Er13 Cd1 In3 Pd4'
_cell_volume   634.54414462
_cell_formula_units_Z   1
loop_
 _symmetry_equiv_pos_site_id
 _symmetry_equiv_pos_as_xyz
  1  'x, y, z'
loop_
 _atom_site_type_symbol
 _atom_site_label
 _atom_site_symmetry_multiplicity
 _atom_site_fract_x
 _atom_site_fract_y
 _atom_site_fract_z
 _atom_site_occupancy
  Ho  Ho0  1  0.352177  0.352923  0.352923  1
  Ho  Ho1  1  0.352177  0.352923  0.941975  1
  Ho  Ho2  1  0.352177  0.941975  0.352923  1
  Er  Er3  1  0.942563  0.352478  0.352478  1
  Er  Er4  1  0.810984  0.189022  0.189022  1
  Er  Er5  1  0.188550  0.811504  0.811504  1
  Er  Er6  1  0.188550  0.811504  0.188442  1
  Er  Er7  1  0.810984  0.189022  0.810972  1
  Er  Er8  1  0.188550  0.188442  0.811504  1
  Er  Er9  1  0.810984  0.810972  0.189022  1
  Er  Er10  1  0.936576  0.564978  0.564978  1
  Er  Er11  1  0.565237  0.934933  0.934933  1
  Er  Er12  1  0.565237  0.934933  0.564896  1
  Er  Er13  1  0.936576  0.564978  0.933467  1
  Er  Er14  1  0.565237  0.564896  0.934933  1
  Er  Er15  1  0.936576  0.933467  0.564978  1
  Cd  Cd16  1  0.249990  0.583336  0.583336  1
  In  In17  1  0.582306  0.583405  0.583405  1
  In  In18  1  0.582306  0.583405  0.250885  1
  In  In19  1  0.582306  0.250885  0.583405  1
  Pd  Pd20  1  0.144083  0.143986  0.143986  1
  Pd  Pd21  1  0.144083  0.143986  0.567946  1
  Pd  Pd22  1  0.144083  0.567946  0.143986  1
  Pd  Pd23  1  0.567710  0.144096  0.144096  1
