# generated using pymatgen
data_Zr2NbInC2
_symmetry_space_group_name_H-M   'P 1'
_cell_length_a   3.31978500
_cell_length_b   3.31978462
_cell_length_c   20.02620000
_cell_angle_alpha   90.00000000
_cell_angle_beta   90.00000000
_cell_angle_gamma   119.99999378
_symmetry_Int_Tables_number   1
_chemical_formula_structural   Zr2NbInC2
_chemical_formula_sum   'Zr4 Nb2 In2 C4'
_cell_volume   191.13889699
_cell_formula_units_Z   2
loop_
 _symmetry_equiv_pos_site_id
 _symmetry_equiv_pos_as_xyz
  1  'x, y, z'
loop_
 _atom_site_type_symbol
 _atom_site_label
 _atom_site_symmetry_multiplicity
 _atom_site_fract_x
 _atom_site_fract_y
 _atom_site_fract_z
 _atom_site_occupancy
  Zr  Zr0  1  0.666668  0.333335  0.123569  1
  Zr  Zr1  1  0.666668  0.333335  0.376431  1
  Zr  Zr2  1  0.333333  0.666666  0.623569  1
  Zr  Zr3  1  0.333333  0.666666  0.876431  1
  Nb  Nb4  1  0.000000  0.000000  0.000000  1
  Nb  Nb5  1  0.000000  0.000000  0.500000  1
  In  In6  1  0.000000  0.000000  0.250000  1
  In  In7  1  0.000000  0.000000  0.750000  1
  C  C8  1  0.333333  0.666666  0.064711  1
  C  C9  1  0.333333  0.666666  0.435290  1
  C  C10  1  0.666668  0.333335  0.564711  1
  C  C11  1  0.666668  0.333335  0.935289  1
