# generated using pymatgen
data_Cr20Re2SiC6
_symmetry_space_group_name_H-M   'P 1'
_cell_length_a   7.50841017
_cell_length_b   7.50840985
_cell_length_c   7.50841000
_cell_angle_alpha   59.99999932
_cell_angle_beta   60.00000076
_cell_angle_gamma   60.00000162
_symmetry_Int_Tables_number   1
_chemical_formula_structural   Cr20Re2SiC6
_chemical_formula_sum   'Cr20 Re2 Si1 C6'
_cell_volume   299.31532068
_cell_formula_units_Z   1
loop_
 _symmetry_equiv_pos_site_id
 _symmetry_equiv_pos_as_xyz
  1  'x, y, z'
loop_
 _atom_site_type_symbol
 _atom_site_label
 _atom_site_symmetry_multiplicity
 _atom_site_fract_x
 _atom_site_fract_y
 _atom_site_fract_z
 _atom_site_occupancy
  Cr  Cr0  1  0.616787  0.616787  0.149637  1
  Cr  Cr1  1  0.616787  0.149637  0.616787  1
  Cr  Cr2  1  0.149637  0.616787  0.616787  1
  Cr  Cr3  1  0.616787  0.616787  0.616787  1
  Cr  Cr4  1  0.383213  0.383213  0.850363  1
  Cr  Cr5  1  0.383213  0.850363  0.383213  1
  Cr  Cr6  1  0.850363  0.383213  0.383213  1
  Cr  Cr7  1  0.383213  0.383213  0.383213  1
  Cr  Cr8  1  0.000000  0.000000  0.338569  1
  Cr  Cr9  1  0.661431  0.000000  0.338569  1
  Cr  Cr10  1  0.000000  0.661431  0.338569  1
  Cr  Cr11  1  0.661431  0.338569  0.000000  1
  Cr  Cr12  1  0.000000  0.338569  0.000000  1
  Cr  Cr13  1  0.000000  0.338569  0.661431  1
  Cr  Cr14  1  0.338569  0.661431  0.000000  1
  Cr  Cr15  1  0.338569  0.000000  0.661431  1
  Cr  Cr16  1  0.338569  0.000000  0.000000  1
  Cr  Cr17  1  0.000000  0.000000  0.661431  1
  Cr  Cr18  1  0.000000  0.661431  0.000000  1
  Cr  Cr19  1  0.661431  0.000000  0.000000  1
  Re  Re20  1  0.750000  0.750000  0.750000  1
  Re  Re21  1  0.250000  0.250000  0.250000  1
  Si  Si22  1  0.000000  0.000000  0.000000  1
  C  C23  1  0.720898  0.720898  0.279102  1
  C  C24  1  0.279102  0.720898  0.279102  1
  C  C25  1  0.720898  0.279102  0.279102  1
  C  C26  1  0.279102  0.279102  0.720898  1
  C  C27  1  0.720898  0.279102  0.720898  1
  C  C28  1  0.279102  0.720898  0.720898  1
