# generated using pymatgen
data_Tm16Hf4IrRh11
_symmetry_space_group_name_H-M   'P 1'
_cell_length_a   10.70799216
_cell_length_b   10.70799216
_cell_length_c   6.15570978
_cell_angle_alpha   90.04076179
_cell_angle_beta   90.04076179
_cell_angle_gamma   89.96551252
_symmetry_Int_Tables_number   1
_chemical_formula_structural   Tm16Hf4IrRh11
_chemical_formula_sum   'Tm16 Hf4 Ir1 Rh11'
_cell_volume   705.81994587
_cell_formula_units_Z   1
loop_
 _symmetry_equiv_pos_site_id
 _symmetry_equiv_pos_as_xyz
  1  'x, y, z'
loop_
 _atom_site_type_symbol
 _atom_site_label
 _atom_site_symmetry_multiplicity
 _atom_site_fract_x
 _atom_site_fract_y
 _atom_site_fract_z
 _atom_site_occupancy
  Tm  Tm0  1  0.288953  0.086298  0.373410  1
  Tm  Tm1  1  0.289350  0.912171  0.873051  1
  Tm  Tm2  1  0.710984  0.086281  0.873262  1
  Tm  Tm3  1  0.710981  0.913574  0.373243  1
  Tm  Tm4  1  0.584900  0.788698  0.873249  1
  Tm  Tm5  1  0.586328  0.211125  0.373837  1
  Tm  Tm6  1  0.413515  0.788653  0.373979  1
  Tm  Tm7  1  0.413410  0.210779  0.873060  1
  Tm  Tm8  1  0.211302  0.415100  0.626751  1
  Tm  Tm9  1  0.211347  0.586485  0.126021  1
  Tm  Tm10  1  0.788875  0.413672  0.126163  1
  Tm  Tm11  1  0.789221  0.586590  0.626940  1
  Tm  Tm12  1  0.913702  0.711047  0.126590  1
  Tm  Tm13  1  0.913719  0.289016  0.626738  1
  Tm  Tm14  1  0.087829  0.710650  0.626949  1
  Tm  Tm15  1  0.086426  0.289019  0.126757  1
  Hf  Hf16  1  0.000113  0.000012  0.500213  1
  Hf  Hf17  1  0.999988  0.999887  0.999787  1
  Hf  Hf18  1  0.499664  0.500199  0.000028  1
  Hf  Hf19  1  0.499801  0.500336  0.499972  1
  Ir  Ir20  1  0.354715  0.645285  0.750000  1
  Rh  Rh21  1  0.854575  0.145425  0.250000  1
  Rh  Rh22  1  0.854489  0.854736  0.749882  1
  Rh  Rh23  1  0.145264  0.145511  0.750118  1
  Rh  Rh24  1  0.144964  0.855036  0.250000  1
  Rh  Rh25  1  0.645450  0.354550  0.750000  1
  Rh  Rh26  1  0.646407  0.645463  0.250288  1
  Rh  Rh27  1  0.354537  0.353593  0.249712  1
  Rh  Rh28  1  0.500169  0.000456  0.119730  1
  Rh  Rh29  1  0.500207  0.000727  0.619185  1
  Rh  Rh30  1  0.999273  0.499793  0.880815  1
  Rh  Rh31  1  0.999544  0.499831  0.380270  1
