# generated using pymatgen
data_Li2Zn2Fe2B6Ir11
_symmetry_space_group_name_H-M   'P 1'
_cell_length_a   2.88137600
_cell_length_b   8.52767400
_cell_length_c   11.43772300
_cell_angle_alpha   90.00000000
_cell_angle_beta   90.00000000
_cell_angle_gamma   90.00000000
_symmetry_Int_Tables_number   1
_chemical_formula_structural   Li2Zn2Fe2B6Ir11
_chemical_formula_sum   'Li2 Zn2 Fe2 B6 Ir11'
_cell_volume   281.04126952
_cell_formula_units_Z   1
loop_
 _symmetry_equiv_pos_site_id
 _symmetry_equiv_pos_as_xyz
  1  'x, y, z'
loop_
 _atom_site_type_symbol
 _atom_site_label
 _atom_site_symmetry_multiplicity
 _atom_site_fract_x
 _atom_site_fract_y
 _atom_site_fract_z
 _atom_site_occupancy
  Li  Li0  1  0.500000  0.000000  0.198007  1
  Li  Li1  1  0.500000  0.000000  0.801993  1
  Zn  Zn2  1  0.500000  0.000000  0.500000  1
  Zn  Zn3  1  0.500000  0.500000  0.000000  1
  Fe  Fe4  1  0.500000  0.641255  0.500000  1
  Fe  Fe5  1  0.500000  0.358745  0.500000  1
  B  B6  1  0.500000  0.810428  0.000000  1
  B  B7  1  0.500000  0.189572  0.000000  1
  B  B8  1  0.500000  0.689564  0.270372  1
  B  B9  1  0.500000  0.310436  0.270372  1
  B  B10  1  0.500000  0.310436  0.729628  1
  B  B11  1  0.500000  0.689564  0.729628  1
  Ir  Ir12  1  0.000000  0.000000  0.000000  1
  Ir  Ir13  1  0.000000  0.500000  0.320668  1
  Ir  Ir14  1  0.000000  0.500000  0.679332  1
  Ir  Ir15  1  0.000000  0.712134  0.124725  1
  Ir  Ir16  1  0.000000  0.287866  0.124725  1
  Ir  Ir17  1  0.000000  0.287866  0.875275  1
  Ir  Ir18  1  0.000000  0.712134  0.875275  1
  Ir  Ir19  1  0.000000  0.826395  0.361271  1
  Ir  Ir20  1  0.000000  0.173605  0.361271  1
  Ir  Ir21  1  0.000000  0.173605  0.638729  1
  Ir  Ir22  1  0.000000  0.826395  0.638729  1
