# generated using pymatgen
data_DyYMn2Si2C
_symmetry_space_group_name_H-M   'P 1'
_cell_length_a   5.64866594
_cell_length_b   5.64866562
_cell_length_c   6.87108653
_cell_angle_alpha   125.22750275
_cell_angle_beta   125.22750177
_cell_angle_gamma   39.68989310
_symmetry_Int_Tables_number   1
_chemical_formula_structural   DyYMn2Si2C
_chemical_formula_sum   'Dy1 Y1 Mn2 Si2 C1'
_cell_volume   110.59546471
_cell_formula_units_Z   1
loop_
 _symmetry_equiv_pos_site_id
 _symmetry_equiv_pos_as_xyz
  1  'x, y, z'
loop_
 _atom_site_type_symbol
 _atom_site_label
 _atom_site_symmetry_multiplicity
 _atom_site_fract_x
 _atom_site_fract_y
 _atom_site_fract_z
 _atom_site_occupancy
  Dy  Dy0  1  0.432726  0.432726  0.704214  1
  Y  Y1  1  0.567455  0.567455  0.296097  1
  Mn  Mn2  1  0.201106  0.201106  0.085791  1
  Mn  Mn3  1  0.798810  0.798810  0.914078  1
  Si  Si4  1  0.850450  0.850450  0.302111  1
  Si  Si5  1  0.149525  0.149525  0.697981  1
  C  C6  1  0.999929  0.999929  0.999727  1
