# generated using pymatgen
data_Ho2Zr4Pb5
_symmetry_space_group_name_H-M   'P 1'
_cell_length_a   11.36345441
_cell_length_b   11.36345426
_cell_length_c   11.36345486
_cell_angle_alpha   131.76800640
_cell_angle_beta   58.50229990
_cell_angle_gamma   148.90900357
_symmetry_Int_Tables_number   1
_chemical_formula_structural   Ho2Zr4Pb5
_chemical_formula_sum   'Ho4 Zr8 Pb10'
_cell_volume   560.75467977
_cell_formula_units_Z   2
loop_
 _symmetry_equiv_pos_site_id
 _symmetry_equiv_pos_as_xyz
  1  'x, y, z'
loop_
 _atom_site_type_symbol
 _atom_site_label
 _atom_site_symmetry_multiplicity
 _atom_site_fract_x
 _atom_site_fract_y
 _atom_site_fract_z
 _atom_site_occupancy
  Ho  Ho0  1  0.143392  0.112118  0.255510  1
  Ho  Ho1  1  0.856607  0.887884  0.744491  1
  Ho  Ho2  1  0.356607  0.612118  0.968723  1
  Ho  Ho3  1  0.643393  0.387883  0.031275  1
  Zr  Zr4  1  0.559068  0.250000  0.309067  1
  Zr  Zr5  1  0.940933  0.250000  0.690933  1
  Zr  Zr6  1  0.440933  0.750000  0.690933  1
  Zr  Zr7  1  0.059067  0.750000  0.309067  1
  Zr  Zr8  1  0.437851  0.237481  0.675331  1
  Zr  Zr9  1  0.562150  0.762519  0.324669  1
  Zr  Zr10  1  0.062149  0.737482  0.799631  1
  Zr  Zr11  1  0.937851  0.262520  0.200370  1
  Pb  Pb12  1  0.291069  0.300565  0.591635  1
  Pb  Pb13  1  0.708931  0.699435  0.408364  1
  Pb  Pb14  1  0.208932  0.800566  0.009496  1
  Pb  Pb15  1  0.791070  0.199434  0.990504  1
  Pb  Pb16  1  0.250000  0.250000  0.000000  1
  Pb  Pb17  1  0.749999  0.749999  0.000000  1
  Pb  Pb18  1  0.069234  0.398554  0.467788  1
  Pb  Pb19  1  0.930767  0.601446  0.532212  1
  Pb  Pb20  1  0.430767  0.898555  0.329321  1
  Pb  Pb21  1  0.569233  0.101445  0.670679  1
