# generated using pymatgen
data_Dy5Ho11Cd3Co4Ag
_symmetry_space_group_name_H-M   'P 1'
_cell_length_a   9.44946601
_cell_length_b   9.44302260
_cell_length_c   9.44570262
_cell_angle_alpha   59.89073919
_cell_angle_beta   59.97070860
_cell_angle_gamma   59.95475455
_symmetry_Int_Tables_number   1
_chemical_formula_structural   Dy5Ho11Cd3Co4Ag
_chemical_formula_sum   'Dy5 Ho11 Cd3 Co4 Ag1'
_cell_volume   595.15924423
_cell_formula_units_Z   1
loop_
 _symmetry_equiv_pos_site_id
 _symmetry_equiv_pos_as_xyz
  1  'x, y, z'
loop_
 _atom_site_type_symbol
 _atom_site_label
 _atom_site_symmetry_multiplicity
 _atom_site_fract_x
 _atom_site_fract_y
 _atom_site_fract_z
 _atom_site_occupancy
  Dy  Dy0  1  0.564232  0.558713  0.938267  1
  Dy  Dy1  1  0.938492  0.558990  0.938293  1
  Dy  Dy2  1  0.311792  0.688952  0.687737  1
  Dy  Dy3  1  0.154641  0.152792  0.154188  1
  Dy  Dy4  1  0.311518  0.312441  0.688297  1
  Ho  Ho5  1  0.153646  0.538839  0.153911  1
  Ho  Ho6  1  0.687951  0.312358  0.688379  1
  Ho  Ho7  1  0.687890  0.311767  0.312595  1
  Ho  Ho8  1  0.938476  0.559169  0.563560  1
  Ho  Ho9  1  0.538370  0.152974  0.153956  1
  Ho  Ho10  1  0.154025  0.152643  0.538993  1
  Ho  Ho11  1  0.937578  0.936434  0.562406  1
  Ho  Ho12  1  0.311294  0.689046  0.312175  1
  Ho  Ho13  1  0.563208  0.936507  0.937266  1
  Ho  Ho14  1  0.563638  0.936401  0.562143  1
  Ho  Ho15  1  0.687554  0.688875  0.312321  1
  Cd  Cd16  1  0.918779  0.922210  0.919314  1
  Cd  Cd17  1  0.918623  0.921614  0.240866  1
  Cd  Cd18  1  0.239788  0.921940  0.919270  1
  Co  Co19  1  0.359609  0.358700  0.922655  1
  Co  Co20  1  0.359753  0.922118  0.358780  1
  Co  Co21  1  0.922740  0.359243  0.359025  1
  Co  Co22  1  0.359240  0.358941  0.358636  1
  Ag  Ag23  1  0.917162  0.248332  0.916964  1
