# generated using pymatgen
data_La15Th(CdIr)4
_symmetry_space_group_name_H-M   'P 1'
_cell_length_a   10.14182626
_cell_length_b   10.14182698
_cell_length_c   10.14182633
_cell_angle_alpha   60.02389155
_cell_angle_beta   60.02389203
_cell_angle_gamma   60.02388927
_symmetry_Int_Tables_number   1
_chemical_formula_structural   La15Th(CdIr)4
_chemical_formula_sum   'La15 Th1 Cd4 Ir4'
_cell_volume   738.02093082
_cell_formula_units_Z   1
loop_
 _symmetry_equiv_pos_site_id
 _symmetry_equiv_pos_as_xyz
  1  'x, y, z'
loop_
 _atom_site_type_symbol
 _atom_site_label
 _atom_site_symmetry_multiplicity
 _atom_site_fract_x
 _atom_site_fract_y
 _atom_site_fract_z
 _atom_site_occupancy
  La  La0  1  0.597625  0.597625  0.206683  1
  La  La1  1  0.597625  0.206683  0.597625  1
  La  La2  1  0.206683  0.597625  0.597625  1
  La  La3  1  0.059943  0.439894  0.439894  1
  La  La4  1  0.440386  0.058736  0.058736  1
  La  La5  1  0.439894  0.059943  0.439894  1
  La  La6  1  0.058736  0.440386  0.058736  1
  La  La7  1  0.439894  0.439894  0.059943  1
  La  La8  1  0.058736  0.058736  0.440386  1
  La  La9  1  0.192995  0.810127  0.810127  1
  La  La10  1  0.808335  0.190274  0.190274  1
  La  La11  1  0.810127  0.192995  0.810127  1
  La  La12  1  0.190274  0.808335  0.190274  1
  La  La13  1  0.810127  0.810127  0.192995  1
  La  La14  1  0.190274  0.190274  0.808335  1
  Th  Th15  1  0.594810  0.594810  0.594810  1
  Cd  Cd16  1  0.829256  0.829256  0.829256  1
  Cd  Cd17  1  0.828721  0.828721  0.510703  1
  Cd  Cd18  1  0.828721  0.510703  0.828721  1
  Cd  Cd19  1  0.510703  0.828721  0.828721  1
  Ir  Ir20  1  0.391352  0.391352  0.391352  1
  Ir  Ir21  1  0.396471  0.396471  0.821840  1
  Ir  Ir22  1  0.396471  0.821840  0.396471  1
  Ir  Ir23  1  0.821840  0.396471  0.396471  1
