# generated using pymatgen
data_Sb11Te(IrOs)2
_symmetry_space_group_name_H-M   'P 1'
_cell_length_a   8.11485779
_cell_length_b   8.12490476
_cell_length_c   8.15423900
_cell_angle_alpha   109.67423651
_cell_angle_beta   109.52459834
_cell_angle_gamma   109.06921021
_symmetry_Int_Tables_number   1
_chemical_formula_structural   Sb11Te(IrOs)2
_chemical_formula_sum   'Sb11 Te1 Ir2 Os2'
_cell_volume   414.59963599
_cell_formula_units_Z   1
loop_
 _symmetry_equiv_pos_site_id
 _symmetry_equiv_pos_as_xyz
  1  'x, y, z'
loop_
 _atom_site_type_symbol
 _atom_site_label
 _atom_site_symmetry_multiplicity
 _atom_site_fract_x
 _atom_site_fract_y
 _atom_site_fract_z
 _atom_site_occupancy
  Sb  Sb0  1  0.843627  0.183774  0.337650  1
  Sb  Sb1  1  0.841247  0.500080  0.662576  1
  Sb  Sb2  1  0.151979  0.484029  0.329152  1
  Sb  Sb3  1  0.815861  0.662888  0.152734  1
  Sb  Sb4  1  0.184969  0.340406  0.847590  1
  Sb  Sb5  1  0.510415  0.664647  0.847909  1
  Sb  Sb6  1  0.491477  0.337557  0.152996  1
  Sb  Sb7  1  0.665320  0.156662  0.820081  1
  Sb  Sb8  1  0.338150  0.846903  0.183453  1
  Sb  Sb9  1  0.657293  0.846994  0.502804  1
  Sb  Sb10  1  0.343198  0.157033  0.497869  1
  Te  Te11  1  0.154037  0.812210  0.661425  1
  Ir  Ir12  1  0.000638  0.000830  0.501425  1
  Ir  Ir13  1  0.501128  0.502791  0.500482  1
  Os  Os14  1  0.498747  0.000291  0.999492  1
  Os  Os15  1  0.001914  0.502902  0.002360  1
