# generated using pymatgen
data_Ho16Cd4Co3Pd
_symmetry_space_group_name_H-M   'P 1'
_cell_length_a   9.52995005
_cell_length_b   9.48121015
_cell_length_c   9.48121100
_cell_angle_alpha   60.00000053
_cell_angle_beta   60.16903951
_cell_angle_gamma   60.16904432
_symmetry_Int_Tables_number   1
_chemical_formula_structural   Ho16Cd4Co3Pd
_chemical_formula_sum   'Ho16 Cd4 Co3 Pd1'
_cell_volume   607.30681119
_cell_formula_units_Z   1
loop_
 _symmetry_equiv_pos_site_id
 _symmetry_equiv_pos_as_xyz
  1  'x, y, z'
loop_
 _atom_site_type_symbol
 _atom_site_label
 _atom_site_symmetry_multiplicity
 _atom_site_fract_x
 _atom_site_fract_y
 _atom_site_fract_z
 _atom_site_occupancy
  Ho  Ho0  1  0.935004  0.937111  0.563943  1
  Ho  Ho1  1  0.822463  0.188112  0.188112  1
  Ho  Ho2  1  0.935004  0.563943  0.563943  1
  Ho  Ho3  1  0.935004  0.563943  0.937111  1
  Ho  Ho4  1  0.822463  0.801312  0.188112  1
  Ho  Ho5  1  0.337138  0.353345  0.353345  1
  Ho  Ho6  1  0.562699  0.936462  0.936462  1
  Ho  Ho7  1  0.562699  0.936462  0.564376  1
  Ho  Ho8  1  0.188370  0.812485  0.812485  1
  Ho  Ho9  1  0.188370  0.186660  0.812485  1
  Ho  Ho10  1  0.337138  0.353345  0.956173  1
  Ho  Ho11  1  0.337138  0.956173  0.353345  1
  Ho  Ho12  1  0.822463  0.188112  0.801312  1
  Ho  Ho13  1  0.562699  0.564376  0.936462  1
  Ho  Ho14  1  0.188370  0.812485  0.186660  1
  Ho  Ho15  1  0.962738  0.345755  0.345755  1
  Cd  Cd16  1  0.581572  0.580182  0.258066  1
  Cd  Cd17  1  0.257221  0.580927  0.580927  1
  Cd  Cd18  1  0.581572  0.580182  0.580182  1
  Cd  Cd19  1  0.581572  0.258066  0.580182  1
  Co  Co20  1  0.141176  0.141475  0.141475  1
  Co  Co21  1  0.141176  0.575873  0.141475  1
  Co  Co22  1  0.141176  0.141475  0.575873  1
  Pd  Pd23  1  0.574775  0.141742  0.141742  1
