# generated using pymatgen
data_Dy7(TmBi2)3
_symmetry_space_group_name_H-M   'P 1'
_cell_length_a   8.24990600
_cell_length_b   9.47375301
_cell_length_c   12.04000401
_cell_angle_alpha   89.99467145
_cell_angle_beta   90.00000000
_cell_angle_gamma   90.00000000
_symmetry_Int_Tables_number   1
_chemical_formula_structural   Dy7(TmBi2)3
_chemical_formula_sum   'Dy14 Tm6 Bi12'
_cell_volume   941.01747407
_cell_formula_units_Z   2
loop_
 _symmetry_equiv_pos_site_id
 _symmetry_equiv_pos_as_xyz
  1  'x, y, z'
loop_
 _atom_site_type_symbol
 _atom_site_label
 _atom_site_symmetry_multiplicity
 _atom_site_fract_x
 _atom_site_fract_y
 _atom_site_fract_z
 _atom_site_occupancy
  Dy  Dy0  1  0.352293  0.750081  0.215692  1
  Dy  Dy1  1  0.852293  0.749919  0.284308  1
  Dy  Dy2  1  0.647981  0.249903  0.784273  1
  Dy  Dy3  1  0.147981  0.250097  0.715727  1
  Dy  Dy4  1  0.692471  0.935894  0.058413  1
  Dy  Dy5  1  0.192471  0.564106  0.441587  1
  Dy  Dy6  1  0.476178  0.249824  0.488463  1
  Dy  Dy7  1  0.976178  0.250176  0.011537  1
  Dy  Dy8  1  0.524664  0.750251  0.511787  1
  Dy  Dy9  1  0.024664  0.749749  0.988213  1
  Dy  Dy10  1  0.312532  0.250008  0.218540  1
  Dy  Dy11  1  0.812532  0.249992  0.281460  1
  Dy  Dy12  1  0.687599  0.749800  0.781319  1
  Dy  Dy13  1  0.187599  0.750200  0.718681  1
  Tm  Tm14  1  0.692467  0.564733  0.058452  1
  Tm  Tm15  1  0.192467  0.935267  0.441548  1
  Tm  Tm16  1  0.307439  0.065102  0.941634  1
  Tm  Tm17  1  0.807439  0.434898  0.558366  1
  Tm  Tm18  1  0.307244  0.434962  0.941530  1
  Tm  Tm19  1  0.807244  0.065038  0.558470  1
  Bi  Bi20  1  0.406913  0.749469  0.956687  1
  Bi  Bi21  1  0.906913  0.750531  0.543313  1
  Bi  Bi22  1  0.592236  0.251590  0.042865  1
  Bi  Bi23  1  0.092236  0.248410  0.457135  1
  Bi  Bi24  1  0.565040  0.995479  0.325477  1
  Bi  Bi25  1  0.065040  0.504521  0.174523  1
  Bi  Bi26  1  0.434759  0.495460  0.674810  1
  Bi  Bi27  1  0.934759  0.004540  0.825190  1
  Bi  Bi28  1  0.434756  0.004591  0.674604  1
  Bi  Bi29  1  0.934756  0.495409  0.825396  1
  Bi  Bi30  1  0.565430  0.504513  0.325296  1
  Bi  Bi31  1  0.065430  0.995487  0.174704  1
