# generated using pymatgen
data_Dy4Er12In4Ru3Rh
_symmetry_space_group_name_H-M   'P 1'
_cell_length_a   9.58800896
_cell_length_b   9.58811913
_cell_length_c   9.59454780
_cell_angle_alpha   59.86277856
_cell_angle_beta   59.83506617
_cell_angle_gamma   59.89165567
_symmetry_Int_Tables_number   1
_chemical_formula_structural   Dy4Er12In4Ru3Rh
_chemical_formula_sum   'Dy4 Er12 In4 Ru3 Rh1'
_cell_volume   621.75683227
_cell_formula_units_Z   1
loop_
 _symmetry_equiv_pos_site_id
 _symmetry_equiv_pos_as_xyz
  1  'x, y, z'
loop_
 _atom_site_type_symbol
 _atom_site_label
 _atom_site_symmetry_multiplicity
 _atom_site_fract_x
 _atom_site_fract_y
 _atom_site_fract_z
 _atom_site_occupancy
  Dy  Dy0  1  0.191353  0.191486  0.810591  1
  Dy  Dy1  1  0.439181  0.059907  0.060189  1
  Dy  Dy2  1  0.440760  0.059596  0.440547  1
  Dy  Dy3  1  0.059882  0.439174  0.060617  1
  Er  Er4  1  0.651232  0.045496  0.650264  1
  Er  Er5  1  0.192998  0.808830  0.809134  1
  Er  Er6  1  0.059614  0.060041  0.439245  1
  Er  Er7  1  0.810260  0.191448  0.191918  1
  Er  Er8  1  0.809379  0.809034  0.193098  1
  Er  Er9  1  0.650523  0.650357  0.045815  1
  Er  Er10  1  0.650933  0.650557  0.650605  1
  Er  Er11  1  0.059010  0.441321  0.440870  1
  Er  Er12  1  0.045457  0.651024  0.650257  1
  Er  Er13  1  0.808860  0.193176  0.808950  1
  Er  Er14  1  0.441163  0.441372  0.059101  1
  Er  Er15  1  0.191447  0.810090  0.191926  1
  In  In16  1  0.417254  0.747363  0.417681  1
  In  In17  1  0.417772  0.417713  0.747250  1
  In  In18  1  0.747844  0.417223  0.417625  1
  In  In19  1  0.417428  0.417668  0.417160  1
  Ru  Ru20  1  0.857904  0.421681  0.858221  1
  Ru  Ru21  1  0.858589  0.858225  0.421439  1
  Ru  Ru22  1  0.421647  0.857779  0.858514  1
  Rh  Rh23  1  0.859509  0.859436  0.858980  1
