# generated using pymatgen
data_Y3Pa(Pt2Pb)2
_symmetry_space_group_name_H-M   'P 1'
_cell_length_a   8.00262696
_cell_length_b   8.00262644
_cell_length_c   7.18922000
_cell_angle_alpha   90.00000000
_cell_angle_beta   90.00000000
_cell_angle_gamma   91.81234758
_symmetry_Int_Tables_number   1
_chemical_formula_structural   Y3Pa(Pt2Pb)2
_chemical_formula_sum   'Y6 Pa2 Pt8 Pb4'
_cell_volume   460.18195940
_cell_formula_units_Z   2
loop_
 _symmetry_equiv_pos_site_id
 _symmetry_equiv_pos_as_xyz
  1  'x, y, z'
loop_
 _atom_site_type_symbol
 _atom_site_label
 _atom_site_symmetry_multiplicity
 _atom_site_fract_x
 _atom_site_fract_y
 _atom_site_fract_z
 _atom_site_occupancy
  Y  Y0  1  0.664395  0.664395  0.000000  1
  Y  Y1  1  0.835371  0.164629  0.500000  1
  Y  Y2  1  0.335605  0.335605  0.000000  1
  Y  Y3  1  0.164629  0.835371  0.500000  1
  Y  Y4  1  0.830923  0.169077  0.000000  1
  Y  Y5  1  0.169077  0.830923  0.000000  1
  Pa  Pa6  1  0.328021  0.328021  0.500000  1
  Pa  Pa7  1  0.671979  0.671979  0.500000  1
  Pt  Pt8  1  0.868642  0.868642  0.746983  1
  Pt  Pt9  1  0.131358  0.131358  0.746983  1
  Pt  Pt10  1  0.624540  0.375460  0.732644  1
  Pt  Pt11  1  0.624540  0.375460  0.267356  1
  Pt  Pt12  1  0.375460  0.624540  0.267356  1
  Pt  Pt13  1  0.131358  0.131358  0.253017  1
  Pt  Pt14  1  0.868642  0.868642  0.253017  1
  Pt  Pt15  1  0.375460  0.624540  0.732644  1
  Pb  Pb16  1  0.500000  0.000000  0.754252  1
  Pb  Pb17  1  0.500000  0.000000  0.245748  1
  Pb  Pb18  1  0.000000  0.500000  0.754252  1
  Pb  Pb19  1  0.000000  0.500000  0.245748  1
