# generated using pymatgen
data_Ba4GaCo3F20
_symmetry_space_group_name_H-M   'P 1'
_cell_length_a   5.24605514
_cell_length_b   5.74248239
_cell_length_c   14.23476400
_cell_angle_alpha   88.90302350
_cell_angle_beta   89.83734308
_cell_angle_gamma   90.21317846
_symmetry_Int_Tables_number   1
_chemical_formula_structural   Ba4GaCo3F20
_chemical_formula_sum   'Ba4 Ga1 Co3 F20'
_cell_volume   428.74428606
_cell_formula_units_Z   1
loop_
 _symmetry_equiv_pos_site_id
 _symmetry_equiv_pos_as_xyz
  1  'x, y, z'
loop_
 _atom_site_type_symbol
 _atom_site_label
 _atom_site_symmetry_multiplicity
 _atom_site_fract_x
 _atom_site_fract_y
 _atom_site_fract_z
 _atom_site_occupancy
  Ba  Ba0  1  0.737892  0.647634  0.653769  1
  Ba  Ba1  1  0.239499  0.847999  0.345282  1
  Ba  Ba2  1  0.267917  0.156629  0.842109  1
  Ba  Ba3  1  0.767052  0.343291  0.159602  1
  Ga  Ga4  1  0.310367  0.146760  0.585197  1
  Co  Co5  1  0.814983  0.350961  0.413345  1
  Co  Co6  1  0.687664  0.646646  0.913268  1
  Co  Co7  1  0.187144  0.854252  0.087692  1
  F  F8  1  0.940615  0.611763  0.472538  1
  F  F9  1  0.437228  0.884445  0.523974  1
  F  F10  1  0.049639  0.109550  0.024691  1
  F  F11  1  0.546190  0.393630  0.977210  1
  F  F12  1  0.623379  0.537510  0.331759  1
  F  F13  1  0.114480  0.957071  0.670267  1
  F  F14  1  0.371823  0.056881  0.172847  1
  F  F15  1  0.871626  0.443335  0.828254  1
  F  F16  1  0.197251  0.417930  0.644427  1
  F  F17  1  0.700033  0.089562  0.350909  1
  F  F18  1  0.819170  0.908056  0.851749  1
  F  F19  1  0.315946  0.593267  0.150979  1
  F  F20  1  0.579071  0.134759  0.677657  1
  F  F21  1  0.077245  0.367732  0.324481  1
  F  F22  1  0.419828  0.641937  0.817872  1
  F  F23  1  0.918658  0.857562  0.182993  1
  F  F24  1  0.542033  0.347896  0.505537  1
  F  F25  1  0.033065  0.151057  0.490475  1
  F  F26  1  0.464912  0.862823  0.989853  1
  F  F27  1  0.965292  0.639060  0.011264  1
