# generated using pymatgen
data_Rb4Na2YErBi4
_symmetry_space_group_name_H-M   'P 1'
_cell_length_a   10.20719382
_cell_length_b   10.20647389
_cell_length_c   10.20414358
_cell_angle_alpha   136.02475408
_cell_angle_beta   63.82452640
_cell_angle_gamma   136.18759223
_symmetry_Int_Tables_number   1
_chemical_formula_structural   Rb4Na2YErBi4
_chemical_formula_sum   'Rb4 Na2 Y1 Er1 Bi4'
_cell_volume   504.20676479
_cell_formula_units_Z   1
loop_
 _symmetry_equiv_pos_site_id
 _symmetry_equiv_pos_as_xyz
  1  'x, y, z'
loop_
 _atom_site_type_symbol
 _atom_site_label
 _atom_site_symmetry_multiplicity
 _atom_site_fract_x
 _atom_site_fract_y
 _atom_site_fract_z
 _atom_site_occupancy
  Rb  Rb0  1  0.821017  0.275255  0.099371  1
  Rb  Rb1  1  0.678760  0.778194  0.454260  1
  Rb  Rb2  1  0.323935  0.224623  0.545784  1
  Rb  Rb3  1  0.175914  0.721720  0.900655  1
  Na  Na4  1  0.750142  0.250165  0.500010  1
  Na  Na5  1  0.249672  0.749834  0.499994  1
  Y  Y6  1  0.749985  0.750045  0.000007  1
  Er  Er7  1  0.250953  0.250510  0.999987  1
  Bi  Bi8  1  0.398461  0.725446  0.126269  1
  Bi  Bi9  1  0.101342  0.227578  0.326859  1
  Bi  Bi10  1  0.900630  0.774433  0.673091  1
  Bi  Bi11  1  0.599188  0.272196  0.873712  1
