# generated using pymatgen
data_Hf4PdRhC
_symmetry_space_group_name_H-M   'P 1'
_cell_length_a   8.78694424
_cell_length_b   8.78694444
_cell_length_c   8.78694300
_cell_angle_alpha   60.00000165
_cell_angle_beta   60.00000089
_cell_angle_gamma   59.99999700
_symmetry_Int_Tables_number   1
_chemical_formula_structural   Hf4PdRhC
_chemical_formula_sum   'Hf16 Pd4 Rh4 C4'
_cell_volume   479.73185843
_cell_formula_units_Z   4
loop_
 _symmetry_equiv_pos_site_id
 _symmetry_equiv_pos_as_xyz
  1  'x, y, z'
loop_
 _atom_site_type_symbol
 _atom_site_label
 _atom_site_symmetry_multiplicity
 _atom_site_fract_x
 _atom_site_fract_y
 _atom_site_fract_z
 _atom_site_occupancy
  Hf  Hf0  1  0.115924  0.628025  0.628025  1
  Hf  Hf1  1  0.628025  0.115924  0.628025  1
  Hf  Hf2  1  0.628025  0.628025  0.115924  1
  Hf  Hf3  1  0.628025  0.628025  0.628025  1
  Hf  Hf4  1  0.817970  0.817970  0.182030  1
  Hf  Hf5  1  0.182030  0.182030  0.817970  1
  Hf  Hf6  1  0.817970  0.182030  0.817970  1
  Hf  Hf7  1  0.182030  0.817970  0.182030  1
  Hf  Hf8  1  0.182030  0.817970  0.817970  1
  Hf  Hf9  1  0.817970  0.182030  0.182030  1
  Hf  Hf10  1  0.433902  0.433902  0.066098  1
  Hf  Hf11  1  0.066098  0.066098  0.433902  1
  Hf  Hf12  1  0.433902  0.066098  0.433902  1
  Hf  Hf13  1  0.066098  0.433902  0.066098  1
  Hf  Hf14  1  0.066098  0.433902  0.433902  1
  Hf  Hf15  1  0.433902  0.066098  0.066098  1
  Pd  Pd16  1  0.762733  0.412422  0.412422  1
  Pd  Pd17  1  0.412422  0.762733  0.412422  1
  Pd  Pd18  1  0.412422  0.412422  0.762733  1
  Pd  Pd19  1  0.412422  0.412422  0.412422  1
  Rh  Rh20  1  0.481637  0.839455  0.839455  1
  Rh  Rh21  1  0.839455  0.481637  0.839455  1
  Rh  Rh22  1  0.839455  0.839455  0.481637  1
  Rh  Rh23  1  0.839455  0.839455  0.839455  1
  C  C24  1  0.624447  0.125184  0.125184  1
  C  C25  1  0.125184  0.624447  0.125184  1
  C  C26  1  0.125184  0.125184  0.624447  1
  C  C27  1  0.125184  0.125184  0.125184  1
