# generated using pymatgen
data_NdDy(Si2Rh3)2
_symmetry_space_group_name_H-M   'P 1'
_cell_length_a   6.65871333
_cell_length_b   6.65871477
_cell_length_c   6.65871359
_cell_angle_alpha   130.39284816
_cell_angle_beta   114.36203999
_cell_angle_gamma   86.53001018
_symmetry_Int_Tables_number   1
_chemical_formula_structural   NdDy(Si2Rh3)2
_chemical_formula_sum   'Nd1 Dy1 Si4 Rh6'
_cell_volume   195.52677970
_cell_formula_units_Z   1
loop_
 _symmetry_equiv_pos_site_id
 _symmetry_equiv_pos_as_xyz
  1  'x, y, z'
loop_
 _atom_site_type_symbol
 _atom_site_label
 _atom_site_symmetry_multiplicity
 _atom_site_fract_x
 _atom_site_fract_y
 _atom_site_fract_z
 _atom_site_occupancy
  Nd  Nd0  1  0.250000  0.964693  0.714693  1
  Dy  Dy1  1  0.750000  0.043427  0.293427  1
  Si  Si2  1  0.579285  0.383189  0.803904  1
  Si  Si3  1  0.422377  0.620049  0.197672  1
  Si  Si4  1  0.077623  0.275295  0.197672  1
  Si  Si5  1  0.920715  0.724620  0.803904  1
  Rh  Rh6  1  0.213287  0.495144  0.712618  1
  Rh  Rh7  1  0.717474  0.999332  0.712618  1
  Rh  Rh8  1  0.782526  0.495144  0.281857  1
  Rh  Rh9  1  0.286713  0.999332  0.281857  1
  Rh  Rh10  1  0.501800  0.499888  0.501689  1
  Rh  Rh11  1  0.998200  0.499888  0.998088  1
