# generated using pymatgen
data_Tb7Er(ZrGa5)4
_symmetry_space_group_name_H-M   'P 1'
_cell_length_a   5.97697904
_cell_length_b   9.44554635
_cell_length_c   11.38384200
_cell_angle_alpha   90.02298371
_cell_angle_beta   89.94223429
_cell_angle_gamma   89.97971453
_symmetry_Int_Tables_number   1
_chemical_formula_structural   Tb7Er(ZrGa5)4
_chemical_formula_sum   'Tb7 Er1 Zr4 Ga20'
_cell_volume   642.68385905
_cell_formula_units_Z   1
loop_
 _symmetry_equiv_pos_site_id
 _symmetry_equiv_pos_as_xyz
  1  'x, y, z'
loop_
 _atom_site_type_symbol
 _atom_site_label
 _atom_site_symmetry_multiplicity
 _atom_site_fract_x
 _atom_site_fract_y
 _atom_site_fract_z
 _atom_site_occupancy
  Tb  Tb0  1  0.885224  0.506481  0.352350  1
  Tb  Tb1  1  0.614376  0.993003  0.852155  1
  Tb  Tb2  1  0.114519  0.006560  0.647816  1
  Tb  Tb3  1  0.385680  0.493348  0.146841  1
  Tb  Tb4  1  0.114302  0.493394  0.647974  1
  Tb  Tb5  1  0.385977  0.006736  0.147432  1
  Tb  Tb6  1  0.885379  0.993713  0.352553  1
  Er  Er7  1  0.614041  0.506968  0.852637  1
  Zr  Zr8  1  0.858362  0.749825  0.074856  1
  Zr  Zr9  1  0.641217  0.749956  0.575311  1
  Zr  Zr10  1  0.142410  0.249736  0.924613  1
  Zr  Zr11  1  0.358962  0.250274  0.425059  1
  Ga  Ga12  1  0.875195  0.053330  0.088570  1
  Ga  Ga13  1  0.624520  0.447323  0.589559  1
  Ga  Ga14  1  0.125516  0.552619  0.911070  1
  Ga  Ga15  1  0.375280  0.947113  0.411480  1
  Ga  Ga16  1  0.124757  0.946382  0.911326  1
  Ga  Ga17  1  0.375280  0.552899  0.411379  1
  Ga  Ga18  1  0.875407  0.447039  0.088048  1
  Ga  Ga19  1  0.624454  0.053189  0.588475  1
  Ga  Ga20  1  0.160507  0.749994  0.254494  1
  Ga  Ga21  1  0.339472  0.749078  0.755180  1
  Ga  Ga22  1  0.838190  0.251044  0.746468  1
  Ga  Ga23  1  0.660661  0.250049  0.245044  1
  Ga  Ga24  1  0.390622  0.749702  0.001020  1
  Ga  Ga25  1  0.109908  0.750030  0.501468  1
  Ga  Ga26  1  0.610893  0.250997  0.997196  1
  Ga  Ga27  1  0.889881  0.250225  0.498913  1
  Ga  Ga28  1  0.603779  0.749954  0.293789  1
  Ga  Ga29  1  0.894988  0.748737  0.794020  1
  Ga  Ga30  1  0.396336  0.250183  0.706323  1
  Ga  Ga31  1  0.103906  0.250119  0.206579  1
