# generated using pymatgen
data_Pr3In2HgRh3
_symmetry_space_group_name_H-M   'P 1'
_cell_length_a   7.64972175
_cell_length_b   7.64972202
_cell_length_c   4.09038600
_cell_angle_alpha   90.00000000
_cell_angle_beta   90.00000000
_cell_angle_gamma   119.43266512
_symmetry_Int_Tables_number   1
_chemical_formula_structural   Pr3In2HgRh3
_chemical_formula_sum   'Pr3 In2 Hg1 Rh3'
_cell_volume   208.46863875
_cell_formula_units_Z   1
loop_
 _symmetry_equiv_pos_site_id
 _symmetry_equiv_pos_as_xyz
  1  'x, y, z'
loop_
 _atom_site_type_symbol
 _atom_site_label
 _atom_site_symmetry_multiplicity
 _atom_site_fract_x
 _atom_site_fract_y
 _atom_site_fract_z
 _atom_site_occupancy
  Pr  Pr0  1  0.000182  0.593628  0.500000  1
  Pr  Pr1  1  0.410878  0.410878  0.500000  1
  Pr  Pr2  1  0.593628  0.000182  0.500000  1
  In  In3  1  0.999825  0.251966  0.000000  1
  In  In4  1  0.251966  0.999825  0.000000  1
  Hg  Hg5  1  0.744972  0.744972  0.000000  1
  Rh  Rh6  1  0.320904  0.661569  0.000000  1
  Rh  Rh7  1  0.016077  0.016077  0.500000  1
  Rh  Rh8  1  0.661569  0.320904  0.000000  1
