# generated using pymatgen
data_CeTm5(SiRh2)6
_symmetry_space_group_name_H-M   'P 1'
_cell_length_a   5.55864300
_cell_length_b   5.55864271
_cell_length_c   14.96274300
_cell_angle_alpha   90.00000000
_cell_angle_beta   90.00000000
_cell_angle_gamma   119.99999579
_symmetry_Int_Tables_number   1
_chemical_formula_structural   CeTm5(SiRh2)6
_chemical_formula_sum   'Ce1 Tm5 Si6 Rh12'
_cell_volume   400.38648475
_cell_formula_units_Z   1
loop_
 _symmetry_equiv_pos_site_id
 _symmetry_equiv_pos_as_xyz
  1  'x, y, z'
loop_
 _atom_site_type_symbol
 _atom_site_label
 _atom_site_symmetry_multiplicity
 _atom_site_fract_x
 _atom_site_fract_y
 _atom_site_fract_z
 _atom_site_occupancy
  Ce  Ce0  1  0.333333  0.666667  0.250000  1
  Tm  Tm1  1  0.666667  0.333333  0.964037  1
  Tm  Tm2  1  0.666667  0.333333  0.535963  1
  Tm  Tm3  1  0.333333  0.666667  0.035794  1
  Tm  Tm4  1  0.666667  0.333333  0.750000  1
  Tm  Tm5  1  0.333333  0.666667  0.464206  1
  Si  Si6  1  0.666667  0.333333  0.250000  1
  Si  Si7  1  0.000000  0.000000  0.500047  1
  Si  Si8  1  0.000000  0.000000  0.250000  1
  Si  Si9  1  0.000000  0.000000  0.750000  1
  Si  Si10  1  0.333333  0.666667  0.750000  1
  Si  Si11  1  0.000000  0.000000  0.999953  1
  Rh  Rh12  1  0.166656  0.333311  0.869752  1
  Rh  Rh13  1  0.166656  0.333311  0.630248  1
  Rh  Rh14  1  0.666689  0.833344  0.869752  1
  Rh  Rh15  1  0.333207  0.166604  0.370517  1
  Rh  Rh16  1  0.833396  0.666793  0.370517  1
  Rh  Rh17  1  0.833396  0.166604  0.370517  1
  Rh  Rh18  1  0.833396  0.166604  0.129483  1
  Rh  Rh19  1  0.333207  0.166604  0.129483  1
  Rh  Rh20  1  0.666689  0.833344  0.630248  1
  Rh  Rh21  1  0.166656  0.833344  0.630248  1
  Rh  Rh22  1  0.833396  0.666793  0.129483  1
  Rh  Rh23  1  0.166656  0.833344  0.869752  1
