# generated using pymatgen
data_Y6TlTe2
_symmetry_space_group_name_H-M   'P 1'
_cell_length_a   4.17145000
_cell_length_b   11.70626900
_cell_length_c   21.96540600
_cell_angle_alpha   90.00000000
_cell_angle_beta   90.00000000
_cell_angle_gamma   90.00000000
_symmetry_Int_Tables_number   1
_chemical_formula_structural   Y6TlTe2
_chemical_formula_sum   'Y24 Tl4 Te8'
_cell_volume   1072.61724983
_cell_formula_units_Z   4
loop_
 _symmetry_equiv_pos_site_id
 _symmetry_equiv_pos_as_xyz
  1  'x, y, z'
loop_
 _atom_site_type_symbol
 _atom_site_label
 _atom_site_symmetry_multiplicity
 _atom_site_fract_x
 _atom_site_fract_y
 _atom_site_fract_z
 _atom_site_occupancy
  Y  Y0  1  0.750000  0.578149  0.854456  1
  Y  Y1  1  0.250000  0.159666  0.389606  1
  Y  Y2  1  0.250000  0.888749  0.487703  1
  Y  Y3  1  0.750000  0.840334  0.610394  1
  Y  Y4  1  0.750000  0.875248  0.968622  1
  Y  Y5  1  0.750000  0.624752  0.468622  1
  Y  Y6  1  0.750000  0.388749  0.012297  1
  Y  Y7  1  0.250000  0.421851  0.145544  1
  Y  Y8  1  0.250000  0.078149  0.645544  1
  Y  Y9  1  0.250000  0.743771  0.232864  1
  Y  Y10  1  0.250000  0.033272  0.838053  1
  Y  Y11  1  0.250000  0.756229  0.732864  1
  Y  Y12  1  0.750000  0.256229  0.767136  1
  Y  Y13  1  0.750000  0.659666  0.110394  1
  Y  Y14  1  0.250000  0.124752  0.031378  1
  Y  Y15  1  0.750000  0.243771  0.267136  1
  Y  Y16  1  0.750000  0.533272  0.661947  1
  Y  Y17  1  0.250000  0.466728  0.338053  1
  Y  Y18  1  0.750000  0.966728  0.161947  1
  Y  Y19  1  0.750000  0.111251  0.512297  1
  Y  Y20  1  0.250000  0.340334  0.889606  1
  Y  Y21  1  0.750000  0.921851  0.354456  1
  Y  Y22  1  0.250000  0.611251  0.987703  1
  Y  Y23  1  0.250000  0.375248  0.531378  1
  Tl  Tl24  1  0.750000  0.141659  0.924968  1
  Tl  Tl25  1  0.250000  0.858341  0.075032  1
  Tl  Tl26  1  0.250000  0.641659  0.575032  1
  Tl  Tl27  1  0.750000  0.358341  0.424968  1
  Te  Te28  1  0.750000  0.968491  0.737465  1
  Te  Te29  1  0.750000  0.278287  0.625899  1
  Te  Te30  1  0.250000  0.778287  0.874101  1
  Te  Te31  1  0.250000  0.031509  0.262535  1
  Te  Te32  1  0.250000  0.721713  0.374101  1
  Te  Te33  1  0.250000  0.468491  0.762535  1
  Te  Te34  1  0.750000  0.221713  0.125899  1
  Te  Te35  1  0.750000  0.531509  0.237465  1
