# generated using pymatgen
data_Nd4Mg(CdAg5)2
_symmetry_space_group_name_H-M   'P 1'
_cell_length_a   8.73486409
_cell_length_b   8.73486485
_cell_length_c   10.49287100
_cell_angle_alpha   90.00000000
_cell_angle_beta   90.00000000
_cell_angle_gamma   107.76416941
_symmetry_Int_Tables_number   1
_chemical_formula_structural   Nd4Mg(CdAg5)2
_chemical_formula_sum   'Nd8 Mg2 Cd4 Ag20'
_cell_volume   762.41205128
_cell_formula_units_Z   2
loop_
 _symmetry_equiv_pos_site_id
 _symmetry_equiv_pos_as_xyz
  1  'x, y, z'
loop_
 _atom_site_type_symbol
 _atom_site_label
 _atom_site_symmetry_multiplicity
 _atom_site_fract_x
 _atom_site_fract_y
 _atom_site_fract_z
 _atom_site_occupancy
  Nd  Nd0  1  0.702067  0.297933  0.000000  1
  Nd  Nd1  1  0.297933  0.702067  0.000000  1
  Nd  Nd2  1  0.797933  0.202067  0.500000  1
  Nd  Nd3  1  0.202067  0.797933  0.500000  1
  Nd  Nd4  1  0.302557  0.302557  0.204076  1
  Nd  Nd5  1  0.697443  0.697443  0.795924  1
  Nd  Nd6  1  0.197443  0.197443  0.704076  1
  Nd  Nd7  1  0.802557  0.802557  0.295924  1
  Mg  Mg8  1  0.000000  0.000000  0.000000  1
  Mg  Mg9  1  0.500000  0.500000  0.500000  1
  Cd  Cd10  1  0.025900  0.525900  0.250000  1
  Cd  Cd11  1  0.974100  0.474100  0.750000  1
  Cd  Cd12  1  0.474100  0.974100  0.750000  1
  Cd  Cd13  1  0.525900  0.025900  0.250000  1
  Ag  Ag14  1  0.096877  0.096877  0.406049  1
  Ag  Ag15  1  0.903123  0.903123  0.593951  1
  Ag  Ag16  1  0.403123  0.403123  0.906049  1
  Ag  Ag17  1  0.596877  0.596877  0.093951  1
  Ag  Ag18  1  0.897326  0.173496  0.206536  1
  Ag  Ag19  1  0.102674  0.826504  0.793464  1
  Ag  Ag20  1  0.602674  0.326504  0.706536  1
  Ag  Ag21  1  0.673496  0.397326  0.293464  1
  Ag  Ag22  1  0.397326  0.673496  0.293464  1
  Ag  Ag23  1  0.326504  0.602674  0.706536  1
  Ag  Ag24  1  0.826504  0.102674  0.793464  1
  Ag  Ag25  1  0.173496  0.897326  0.206536  1
  Ag  Ag26  1  0.930301  0.662049  0.024682  1
  Ag  Ag27  1  0.069699  0.337951  0.975318  1
  Ag  Ag28  1  0.569699  0.837951  0.524682  1
  Ag  Ag29  1  0.162049  0.430301  0.475318  1
  Ag  Ag30  1  0.430301  0.162049  0.475318  1
  Ag  Ag31  1  0.837951  0.569699  0.524682  1
  Ag  Ag32  1  0.337951  0.069699  0.975318  1
  Ag  Ag33  1  0.662049  0.930301  0.024682  1
