# generated using pymatgen
data_Ac3Ga24TcPd8
_symmetry_space_group_name_H-M   'P 1'
_cell_length_a   8.54713965
_cell_length_b   8.54713945
_cell_length_c   8.54713900
_cell_angle_alpha   90.14574773
_cell_angle_beta   90.14574102
_cell_angle_gamma   90.14575192
_symmetry_Int_Tables_number   1
_chemical_formula_structural   Ac3Ga24TcPd8
_chemical_formula_sum   'Ac3 Ga24 Tc1 Pd8'
_cell_volume   624.39315579
_cell_formula_units_Z   1
loop_
 _symmetry_equiv_pos_site_id
 _symmetry_equiv_pos_as_xyz
  1  'x, y, z'
loop_
 _atom_site_type_symbol
 _atom_site_label
 _atom_site_symmetry_multiplicity
 _atom_site_fract_x
 _atom_site_fract_y
 _atom_site_fract_z
 _atom_site_occupancy
  Ac  Ac0  1  0.000000  0.500000  0.000000  1
  Ac  Ac1  1  0.500000  0.000000  0.000000  1
  Ac  Ac2  1  0.000000  0.000000  0.500000  1
  Ga  Ga3  1  0.990277  0.641404  0.641404  1
  Ga  Ga4  1  0.641404  0.641404  0.990277  1
  Ga  Ga5  1  0.641404  0.990277  0.641404  1
  Ga  Ga6  1  0.009723  0.358596  0.358596  1
  Ga  Ga7  1  0.358596  0.358596  0.009723  1
  Ga  Ga8  1  0.358596  0.009723  0.358596  1
  Ga  Ga9  1  0.731685  0.500000  0.268315  1
  Ga  Ga10  1  0.268315  0.500000  0.731685  1
  Ga  Ga11  1  0.500000  0.268315  0.731685  1
  Ga  Ga12  1  0.500000  0.731685  0.268315  1
  Ga  Ga13  1  0.268315  0.731685  0.500000  1
  Ga  Ga14  1  0.731685  0.268315  0.500000  1
  Ga  Ga15  1  0.838850  0.144352  0.838850  1
  Ga  Ga16  1  0.144352  0.838850  0.838850  1
  Ga  Ga17  1  0.838850  0.838850  0.144352  1
  Ga  Ga18  1  0.161150  0.855648  0.161150  1
  Ga  Ga19  1  0.855648  0.161150  0.161150  1
  Ga  Ga20  1  0.161150  0.161150  0.855648  1
  Ga  Ga21  1  0.725996  0.490808  0.725996  1
  Ga  Ga22  1  0.490808  0.725996  0.725996  1
  Ga  Ga23  1  0.725996  0.725996  0.490808  1
  Ga  Ga24  1  0.274004  0.509192  0.274004  1
  Ga  Ga25  1  0.509192  0.274004  0.274004  1
  Ga  Ga26  1  0.274004  0.274004  0.509192  1
  Tc  Tc27  1  0.500000  0.500000  0.500000  1
  Pd  Pd28  1  0.835884  0.835884  0.835884  1
  Pd  Pd29  1  0.164116  0.164116  0.164116  1
  Pd  Pd30  1  0.663136  0.336864  0.000000  1
  Pd  Pd31  1  0.000000  0.336864  0.663136  1
  Pd  Pd32  1  0.336864  0.000000  0.663136  1
  Pd  Pd33  1  0.336864  0.663136  0.000000  1
  Pd  Pd34  1  0.000000  0.663136  0.336864  1
  Pd  Pd35  1  0.663136  0.000000  0.336864  1
