# generated using pymatgen
data_LaSmTa2Bi2O11
_symmetry_space_group_name_H-M   'P 1'
_cell_length_a   6.68588668
_cell_length_b   7.76265643
_cell_length_c   9.91850746
_cell_angle_alpha   101.22337161
_cell_angle_beta   90.63897282
_cell_angle_gamma   90.07878516
_symmetry_Int_Tables_number   1
_chemical_formula_structural   LaSmTa2Bi2O11
_chemical_formula_sum   'La2 Sm2 Ta4 Bi4 O22'
_cell_volume   504.89363350
_cell_formula_units_Z   2
loop_
 _symmetry_equiv_pos_site_id
 _symmetry_equiv_pos_as_xyz
  1  'x, y, z'
loop_
 _atom_site_type_symbol
 _atom_site_label
 _atom_site_symmetry_multiplicity
 _atom_site_fract_x
 _atom_site_fract_y
 _atom_site_fract_z
 _atom_site_occupancy
  La  La0  1  0.749983  0.369226  0.487252  1
  La  La1  1  0.250017  0.630774  0.512748  1
  Sm  Sm2  1  0.758504  0.873486  0.485933  1
  Sm  Sm3  1  0.241496  0.126514  0.514067  1
  Ta  Ta4  1  0.915105  0.702475  0.807428  1
  Ta  Ta5  1  0.084895  0.297525  0.192572  1
  Ta  Ta6  1  0.916595  0.199740  0.808717  1
  Ta  Ta7  1  0.083405  0.800260  0.191283  1
  Bi  Bi8  1  0.433360  0.955578  0.815494  1
  Bi  Bi9  1  0.566640  0.044422  0.184506  1
  Bi  Bi10  1  0.394138  0.455036  0.827475  1
  Bi  Bi11  1  0.605862  0.544964  0.172525  1
  O  O12  1  0.216775  0.727983  0.764867  1
  O  O13  1  0.783225  0.272017  0.235133  1
  O  O14  1  0.633937  0.661497  0.838792  1
  O  O15  1  0.366063  0.338503  0.161208  1
  O  O16  1  0.634975  0.254908  0.840514  1
  O  O17  1  0.365025  0.745092  0.159486  1
  O  O18  1  0.897031  0.147951  0.594367  1
  O  O19  1  0.102969  0.852049  0.405633  1
  O  O20  1  0.216448  0.151267  0.759299  1
  O  O21  1  0.783552  0.848733  0.240701  1
  O  O22  1  0.895587  0.650006  0.596127  1
  O  O23  1  0.104413  0.349994  0.403873  1
  O  O24  1  0.027056  0.551147  0.201999  1
  O  O25  1  0.972944  0.448853  0.798001  1
  O  O26  1  0.995840  0.777964  0.001154  1
  O  O27  1  0.004160  0.222036  0.998846  1
  O  O28  1  0.577995  0.602388  0.389452  1
  O  O29  1  0.422005  0.397612  0.610548  1
  O  O30  1  0.160066  0.053496  0.212583  1
  O  O31  1  0.839934  0.946504  0.787417  1
  O  O32  1  0.543000  0.097052  0.399366  1
  O  O33  1  0.457000  0.902948  0.600634  1
