# generated using pymatgen
data_CeUAlZn16
_symmetry_space_group_name_H-M   'P 1'
_cell_length_a   6.84118308
_cell_length_b   6.84118215
_cell_length_c   6.79645501
_cell_angle_alpha   82.67340352
_cell_angle_beta   82.67340376
_cell_angle_gamma   82.77189797
_symmetry_Int_Tables_number   1
_chemical_formula_structural   CeUAlZn16
_chemical_formula_sum   'Ce1 U1 Al1 Zn16'
_cell_volume   310.96669898
_cell_formula_units_Z   1
loop_
 _symmetry_equiv_pos_site_id
 _symmetry_equiv_pos_as_xyz
  1  'x, y, z'
loop_
 _atom_site_type_symbol
 _atom_site_label
 _atom_site_symmetry_multiplicity
 _atom_site_fract_x
 _atom_site_fract_y
 _atom_site_fract_z
 _atom_site_occupancy
  Ce  Ce0  1  0.661665  0.661665  0.663348  1
  U  U1  1  0.336768  0.336768  0.335988  1
  Al  Al2  1  0.350030  0.350030  0.841273  1
  Zn  Zn3  1  0.702510  0.296019  0.002167  1
  Zn  Zn4  1  0.001482  0.702190  0.296831  1
  Zn  Zn5  1  0.296282  0.001353  0.702186  1
  Zn  Zn6  1  0.001353  0.296282  0.702186  1
  Zn  Zn7  1  0.702190  0.001482  0.296831  1
  Zn  Zn8  1  0.296019  0.702510  0.002167  1
  Zn  Zn9  1  0.351335  0.843757  0.351143  1
  Zn  Zn10  1  0.843757  0.351335  0.351143  1
  Zn  Zn11  1  0.647557  0.161124  0.643521  1
  Zn  Zn12  1  0.645620  0.645620  0.164820  1
  Zn  Zn13  1  0.161124  0.647557  0.643521  1
  Zn  Zn14  1  0.000115  0.000115  0.499641  1
  Zn  Zn15  1  0.502294  0.996597  0.000289  1
  Zn  Zn16  1  0.996597  0.502294  0.000289  1
  Zn  Zn17  1  0.900224  0.900224  0.900521  1
  Zn  Zn18  1  0.103078  0.103078  0.102137  1
