# generated using pymatgen
data_Ba13SrAu6
_symmetry_space_group_name_H-M   'P 1'
_cell_length_a   11.70429100
_cell_length_b   11.70429182
_cell_length_c   7.64945600
_cell_angle_alpha   90.00000000
_cell_angle_beta   90.00000000
_cell_angle_gamma   120.00000050
_symmetry_Int_Tables_number   1
_chemical_formula_structural   Ba13SrAu6
_chemical_formula_sum   'Ba13 Sr1 Au6'
_cell_volume   907.51002832
_cell_formula_units_Z   1
loop_
 _symmetry_equiv_pos_site_id
 _symmetry_equiv_pos_as_xyz
  1  'x, y, z'
loop_
 _atom_site_type_symbol
 _atom_site_label
 _atom_site_symmetry_multiplicity
 _atom_site_fract_x
 _atom_site_fract_y
 _atom_site_fract_z
 _atom_site_occupancy
  Ba  Ba0  1  0.333333  0.666667  0.040598  1
  Ba  Ba1  1  0.875977  0.751955  0.742400  1
  Ba  Ba2  1  0.248045  0.124023  0.742400  1
  Ba  Ba3  1  0.875977  0.124023  0.742400  1
  Ba  Ba4  1  0.123190  0.246380  0.243355  1
  Ba  Ba5  1  0.753620  0.876810  0.243355  1
  Ba  Ba6  1  0.123190  0.876810  0.243355  1
  Ba  Ba7  1  0.457563  0.915125  0.570488  1
  Ba  Ba8  1  0.084875  0.542437  0.570488  1
  Ba  Ba9  1  0.457563  0.542437  0.570488  1
  Ba  Ba10  1  0.544240  0.088480  0.070153  1
  Ba  Ba11  1  0.911520  0.455760  0.070153  1
  Ba  Ba12  1  0.544240  0.455760  0.070153  1
  Sr  Sr13  1  0.666667  0.333333  0.536881  1
  Au  Au14  1  0.189041  0.378083  0.834231  1
  Au  Au15  1  0.621917  0.810959  0.834231  1
  Au  Au16  1  0.189041  0.810959  0.834231  1
  Au  Au17  1  0.808876  0.617751  0.337496  1
  Au  Au18  1  0.382249  0.191124  0.337496  1
  Au  Au19  1  0.808876  0.191124  0.337496  1
