# generated using pymatgen
data_TmMgPaRh2
_symmetry_space_group_name_H-M   'P 1'
_cell_length_a   7.64900326
_cell_length_b   7.64900373
_cell_length_c   3.61123900
_cell_angle_alpha   90.00000000
_cell_angle_beta   90.00000000
_cell_angle_gamma   94.03149928
_symmetry_Int_Tables_number   1
_chemical_formula_structural   TmMgPaRh2
_chemical_formula_sum   'Tm2 Mg2 Pa2 Rh4'
_cell_volume   210.76086809
_cell_formula_units_Z   2
loop_
 _symmetry_equiv_pos_site_id
 _symmetry_equiv_pos_as_xyz
  1  'x, y, z'
loop_
 _atom_site_type_symbol
 _atom_site_label
 _atom_site_symmetry_multiplicity
 _atom_site_fract_x
 _atom_site_fract_y
 _atom_site_fract_z
 _atom_site_occupancy
  Tm  Tm0  1  0.164464  0.335536  0.500000  1
  Tm  Tm1  1  0.835536  0.664464  0.500000  1
  Mg  Mg2  1  0.000000  0.000000  0.000000  1
  Mg  Mg3  1  0.500000  0.500000  0.000000  1
  Pa  Pa4  1  0.666237  0.166237  0.500000  1
  Pa  Pa5  1  0.333763  0.833763  0.500000  1
  Rh  Rh6  1  0.147101  0.647101  0.000000  1
  Rh  Rh7  1  0.852899  0.352899  0.000000  1
  Rh  Rh8  1  0.627852  0.872148  0.000000  1
  Rh  Rh9  1  0.372148  0.127852  0.000000  1
