# generated using pymatgen
data_Pr8Be4Si11Sn
_symmetry_space_group_name_H-M   'P 1'
_cell_length_a   8.06160346
_cell_length_b   8.06160307
_cell_length_c   8.69487201
_cell_angle_alpha   90.00348579
_cell_angle_beta   89.99651576
_cell_angle_gamma   119.80679839
_symmetry_Int_Tables_number   1
_chemical_formula_structural   Pr8Be4Si11Sn
_chemical_formula_sum   'Pr8 Be4 Si11 Sn1'
_cell_volume   490.31917239
_cell_formula_units_Z   1
loop_
 _symmetry_equiv_pos_site_id
 _symmetry_equiv_pos_as_xyz
  1  'x, y, z'
loop_
 _atom_site_type_symbol
 _atom_site_label
 _atom_site_symmetry_multiplicity
 _atom_site_fract_x
 _atom_site_fract_y
 _atom_site_fract_z
 _atom_site_occupancy
  Pr  Pr0  1  0.500248  0.499752  0.747939  1
  Pr  Pr1  1  0.500481  0.499519  0.251906  1
  Pr  Pr2  1  0.003915  0.505975  0.745576  1
  Pr  Pr3  1  0.003769  0.505956  0.254538  1
  Pr  Pr4  1  0.494025  0.996085  0.745576  1
  Pr  Pr5  1  0.494044  0.996231  0.254538  1
  Pr  Pr6  1  0.002639  0.997361  0.746595  1
  Pr  Pr7  1  0.002675  0.997325  0.253483  1
  Be  Be8  1  0.656510  0.343490  0.997405  1
  Be  Be9  1  0.332178  0.667822  0.002258  1
  Be  Be10  1  0.333621  0.666379  0.497816  1
  Be  Be11  1  0.666592  0.333408  0.502232  1
  Si  Si12  1  0.172130  0.827870  0.999864  1
  Si  Si13  1  0.343788  0.170247  0.000209  1
  Si  Si14  1  0.172095  0.827905  0.500203  1
  Si  Si15  1  0.645506  0.808413  0.999711  1
  Si  Si16  1  0.828077  0.171923  0.499830  1
  Si  Si17  1  0.829753  0.656212  0.000209  1
  Si  Si18  1  0.655650  0.827767  0.500179  1
  Si  Si19  1  0.191587  0.354494  0.999711  1
  Si  Si20  1  0.343996  0.172156  0.499840  1
  Si  Si21  1  0.172233  0.344350  0.500179  1
  Si  Si22  1  0.827844  0.656004  0.499840  1
  Sn  Sn23  1  0.826643  0.173357  0.000364  1
