# generated using pymatgen
data_Ac8Mn(Si4Ag)3
_symmetry_space_group_name_H-M   'P 1'
_cell_length_a   11.85578971
_cell_length_b   10.20146552
_cell_length_c   8.52648476
_cell_angle_alpha   77.98596990
_cell_angle_beta   57.31172707
_cell_angle_gamma   44.70289475
_symmetry_Int_Tables_number   1
_chemical_formula_structural   Ac8Mn(Si4Ag)3
_chemical_formula_sum   'Ac8 Mn1 Si12 Ag3'
_cell_volume   583.01214661
_cell_formula_units_Z   1
loop_
 _symmetry_equiv_pos_site_id
 _symmetry_equiv_pos_as_xyz
  1  'x, y, z'
loop_
 _atom_site_type_symbol
 _atom_site_label
 _atom_site_symmetry_multiplicity
 _atom_site_fract_x
 _atom_site_fract_y
 _atom_site_fract_z
 _atom_site_occupancy
  Ac  Ac0  1  0.378951  0.378682  0.620098  1
  Ac  Ac1  1  0.620098  0.622269  0.378951  1
  Ac  Ac2  1  0.873184  0.875804  0.628804  1
  Ac  Ac3  1  0.628804  0.622207  0.873184  1
  Ac  Ac4  1  0.876400  0.878740  0.119622  1
  Ac  Ac5  1  0.119622  0.125237  0.876400  1
  Ac  Ac6  1  0.380642  0.373308  0.121136  1
  Ac  Ac7  1  0.121136  0.124913  0.380642  1
  Mn  Mn8  1  0.833699  0.166301  0.833699  1
  Si  Si9  1  0.669013  0.330987  0.669013  1
  Si  Si10  1  0.338743  0.661257  0.338743  1
  Si  Si11  1  0.587290  0.912710  0.587290  1
  Si  Si12  1  0.912663  0.587337  0.912663  1
  Si  Si13  1  0.337634  0.660047  0.823569  1
  Si  Si14  1  0.162652  0.838857  0.668375  1
  Si  Si15  1  0.823569  0.178749  0.337634  1
  Si  Si16  1  0.668375  0.330116  0.162652  1
  Si  Si17  1  0.914087  0.589240  0.423466  1
  Si  Si18  1  0.074837  0.425499  0.587498  1
  Si  Si19  1  0.423466  0.073208  0.914087  1
  Si  Si20  1  0.587498  0.912168  0.074837  1
  Ag  Ag21  1  0.167206  0.832794  0.167206  1
  Ag  Ag22  1  0.417197  0.082803  0.417197  1
  Ag  Ag23  1  0.083233  0.416767  0.083233  1
