# generated using pymatgen
data_Na7Sr(Sn3Au)4
_symmetry_space_group_name_H-M   'P 1'
_cell_length_a   10.01613200
_cell_length_b   9.88040515
_cell_length_c   7.60322500
_cell_angle_alpha   90.00000000
_cell_angle_beta   90.00000000
_cell_angle_gamma   120.45545865
_symmetry_Int_Tables_number   1
_chemical_formula_structural   Na7Sr(Sn3Au)4
_chemical_formula_sum   'Na7 Sr1 Sn12 Au4'
_cell_volume   648.62206565
_cell_formula_units_Z   1
loop_
 _symmetry_equiv_pos_site_id
 _symmetry_equiv_pos_as_xyz
  1  'x, y, z'
loop_
 _atom_site_type_symbol
 _atom_site_label
 _atom_site_symmetry_multiplicity
 _atom_site_fract_x
 _atom_site_fract_y
 _atom_site_fract_z
 _atom_site_occupancy
  Na  Na0  1  0.066374  0.532832  0.750000  1
  Na  Na1  1  0.466457  0.532832  0.750000  1
  Na  Na2  1  0.532163  0.468771  0.250000  1
  Na  Na3  1  0.467175  0.934351  0.750000  1
  Na  Na4  1  0.936610  0.468771  0.250000  1
  Na  Na5  1  0.000412  0.000824  0.750000  1
  Na  Na6  1  0.000067  0.000134  0.250000  1
  Sr  Sr7  1  0.525337  0.050674  0.250000  1
  Sn  Sn8  1  0.169087  0.826556  0.051557  1
  Sn  Sn9  1  0.828687  0.657374  0.553005  1
  Sn  Sn10  1  0.343449  0.174610  0.554307  1
  Sn  Sn11  1  0.831162  0.174610  0.945693  1
  Sn  Sn12  1  0.828687  0.657374  0.946995  1
  Sn  Sn13  1  0.831162  0.174610  0.554307  1
  Sn  Sn14  1  0.343449  0.174610  0.945693  1
  Sn  Sn15  1  0.657469  0.826556  0.051557  1
  Sn  Sn16  1  0.657469  0.826556  0.448443  1
  Sn  Sn17  1  0.171727  0.343454  0.446313  1
  Sn  Sn18  1  0.169087  0.826556  0.448443  1
  Sn  Sn19  1  0.171727  0.343454  0.053687  1
  Au  Au20  1  0.334727  0.669456  0.453839  1
  Au  Au21  1  0.666396  0.332791  0.546115  1
  Au  Au22  1  0.666396  0.332791  0.953885  1
  Au  Au23  1  0.334727  0.669456  0.046161  1
