# generated using pymatgen
data_Sc5Si12Tc3Ir16
_symmetry_space_group_name_H-M   'P 1'
_cell_length_a   12.69964800
_cell_length_b   12.69964818
_cell_length_c   3.95927800
_cell_angle_alpha   90.00000000
_cell_angle_beta   90.00000000
_cell_angle_gamma   119.99999952
_symmetry_Int_Tables_number   1
_chemical_formula_structural   Sc5Si12Tc3Ir16
_chemical_formula_sum   'Sc5 Si12 Tc3 Ir16'
_cell_volume   553.00620475
_cell_formula_units_Z   1
loop_
 _symmetry_equiv_pos_site_id
 _symmetry_equiv_pos_as_xyz
  1  'x, y, z'
loop_
 _atom_site_type_symbol
 _atom_site_label
 _atom_site_symmetry_multiplicity
 _atom_site_fract_x
 _atom_site_fract_y
 _atom_site_fract_z
 _atom_site_occupancy
  Sc  Sc0  1  0.333333  0.666667  0.000000  1
  Sc  Sc1  1  0.666667  0.333333  0.000000  1
  Sc  Sc2  1  0.814269  0.000000  0.500000  1
  Sc  Sc3  1  0.000000  0.814269  0.500000  1
  Sc  Sc4  1  0.185731  0.185731  0.500000  1
  Si  Si5  1  0.178988  0.000000  0.000000  1
  Si  Si6  1  0.000000  0.178988  0.000000  1
  Si  Si7  1  0.821012  0.821012  0.000000  1
  Si  Si8  1  0.167209  0.480412  0.500000  1
  Si  Si9  1  0.519588  0.686797  0.500000  1
  Si  Si10  1  0.313203  0.832791  0.500000  1
  Si  Si11  1  0.686797  0.519588  0.500000  1
  Si  Si12  1  0.832791  0.313203  0.500000  1
  Si  Si13  1  0.480412  0.167209  0.500000  1
  Si  Si14  1  0.628313  0.000000  0.000000  1
  Si  Si15  1  0.000000  0.628313  0.000000  1
  Si  Si16  1  0.371687  0.371687  0.000000  1
  Tc  Tc17  1  0.440542  0.000000  0.000000  1
  Tc  Tc18  1  0.000000  0.440542  0.000000  1
  Tc  Tc19  1  0.559458  0.559458  0.000000  1
  Ir  Ir20  1  0.360185  0.488282  0.500000  1
  Ir  Ir21  1  0.511718  0.871902  0.500000  1
  Ir  Ir22  1  0.128098  0.639815  0.500000  1
  Ir  Ir23  1  0.871902  0.511718  0.500000  1
  Ir  Ir24  1  0.639815  0.128098  0.500000  1
  Ir  Ir25  1  0.488282  0.360185  0.500000  1
  Ir  Ir26  1  0.182673  0.373531  0.000000  1
  Ir  Ir27  1  0.626469  0.809143  0.000000  1
  Ir  Ir28  1  0.190857  0.817327  0.000000  1
  Ir  Ir29  1  0.809143  0.626469  0.000000  1
  Ir  Ir30  1  0.817327  0.190857  0.000000  1
  Ir  Ir31  1  0.373531  0.182673  0.000000  1
  Ir  Ir32  1  0.277957  0.000000  0.500000  1
  Ir  Ir33  1  0.000000  0.277957  0.500000  1
  Ir  Ir34  1  0.722043  0.722043  0.500000  1
  Ir  Ir35  1  0.000000  0.000000  0.000000  1
