# generated using pymatgen
data_Tb2DyInNi14
_symmetry_space_group_name_H-M   'P 1'
_cell_length_a   4.92106507
_cell_length_b   4.92106520
_cell_length_c   12.23378900
_cell_angle_alpha   78.39718973
_cell_angle_beta   78.39718942
_cell_angle_gamma   60.00000801
_symmetry_Int_Tables_number   1
_chemical_formula_structural   Tb2DyInNi14
_chemical_formula_sum   'Tb2 Dy1 In1 Ni14'
_cell_volume   249.55727930
_cell_formula_units_Z   1
loop_
 _symmetry_equiv_pos_site_id
 _symmetry_equiv_pos_as_xyz
  1  'x, y, z'
loop_
 _atom_site_type_symbol
 _atom_site_label
 _atom_site_symmetry_multiplicity
 _atom_site_fract_x
 _atom_site_fract_y
 _atom_site_fract_z
 _atom_site_occupancy
  Tb  Tb0  1  0.944821  0.944821  0.165537  1
  Tb  Tb1  1  0.051397  0.051397  0.845810  1
  Dy  Dy2  1  0.150205  0.150205  0.549384  1
  In  In3  1  0.852247  0.852247  0.443260  1
  Ni  Ni4  1  0.500205  0.500205  0.499386  1
  Ni  Ni5  1  0.722150  0.722150  0.833550  1
  Ni  Ni6  1  0.278160  0.278160  0.165521  1
  Ni  Ni7  1  0.611836  0.611836  0.164492  1
  Ni  Ni8  1  0.389062  0.389062  0.832812  1
  Ni  Ni9  1  0.000388  0.499916  0.999780  1
  Ni  Ni10  1  0.499916  0.000388  0.999780  1
  Ni  Ni11  1  0.499916  0.499916  0.999780  1
  Ni  Ni12  1  0.389098  0.389098  0.332060  1
  Ni  Ni13  1  0.889743  0.389098  0.332060  1
  Ni  Ni14  1  0.389098  0.889743  0.332060  1
  Ni  Ni15  1  0.611713  0.611713  0.668242  1
  Ni  Ni16  1  0.108333  0.611713  0.668242  1
  Ni  Ni17  1  0.611713  0.108333  0.668242  1
