# generated using pymatgen
data_Ce8Si12PtRh3
_symmetry_space_group_name_H-M   'P 1'
_cell_length_a   8.24768609
_cell_length_b   8.24879584
_cell_length_c   8.19796300
_cell_angle_alpha   90.00390363
_cell_angle_beta   89.99164984
_cell_angle_gamma   120.02749102
_symmetry_Int_Tables_number   1
_chemical_formula_structural   Ce8Si12PtRh3
_chemical_formula_sum   'Ce8 Si12 Pt1 Rh3'
_cell_volume   482.87962930
_cell_formula_units_Z   1
loop_
 _symmetry_equiv_pos_site_id
 _symmetry_equiv_pos_as_xyz
  1  'x, y, z'
loop_
 _atom_site_type_symbol
 _atom_site_label
 _atom_site_symmetry_multiplicity
 _atom_site_fract_x
 _atom_site_fract_y
 _atom_site_fract_z
 _atom_site_occupancy
  Ce  Ce0  1  0.999997  0.000007  0.250221  1
  Ce  Ce1  1  0.000006  0.999992  0.749574  1
  Ce  Ce2  1  0.501778  0.498324  0.252321  1
  Ce  Ce3  1  0.501728  0.003480  0.252481  1
  Ce  Ce4  1  0.996529  0.498320  0.252278  1
  Ce  Ce5  1  0.500533  0.499423  0.747716  1
  Ce  Ce6  1  0.500553  0.001055  0.747880  1
  Ce  Ce7  1  0.998870  0.499423  0.747825  1
  Si  Si8  1  0.165393  0.834617  0.498903  1
  Si  Si9  1  0.165385  0.330944  0.498673  1
  Si  Si10  1  0.669128  0.834653  0.498766  1
  Si  Si11  1  0.835170  0.164813  0.500892  1
  Si  Si12  1  0.835186  0.670245  0.500590  1
  Si  Si13  1  0.329812  0.164850  0.500923  1
  Si  Si14  1  0.834026  0.165854  0.001664  1
  Si  Si15  1  0.834117  0.668076  0.001931  1
  Si  Si16  1  0.331990  0.165895  0.001804  1
  Si  Si17  1  0.164061  0.836016  0.998474  1
  Si  Si18  1  0.163948  0.327973  0.998762  1
  Si  Si19  1  0.671826  0.835963  0.998472  1
  Pt  Pt20  1  0.333152  0.666930  0.003305  1
  Rh  Rh21  1  0.333341  0.667079  0.501283  1
  Rh  Rh22  1  0.666754  0.333039  0.502979  1
  Rh  Rh23  1  0.666716  0.333031  0.992285  1
