# generated using pymatgen
data_Sm8SiRhBr12
_symmetry_space_group_name_H-M   'P 1'
_cell_length_a   4.16197000
_cell_length_b   13.62561790
_cell_length_c   14.23640056
_cell_angle_alpha   89.00797022
_cell_angle_beta   90.00000000
_cell_angle_gamma   90.00000000
_symmetry_Int_Tables_number   1
_chemical_formula_structural   Sm8SiRhBr12
_chemical_formula_sum   'Sm8 Si1 Rh1 Br12'
_cell_volume   807.21690884
_cell_formula_units_Z   1
loop_
 _symmetry_equiv_pos_site_id
 _symmetry_equiv_pos_as_xyz
  1  'x, y, z'
loop_
 _atom_site_type_symbol
 _atom_site_label
 _atom_site_symmetry_multiplicity
 _atom_site_fract_x
 _atom_site_fract_y
 _atom_site_fract_z
 _atom_site_occupancy
  Sm  Sm0  1  0.500000  0.116143  0.345956  1
  Sm  Sm1  1  0.500000  0.883857  0.654044  1
  Sm  Sm2  1  0.500000  0.617502  0.158972  1
  Sm  Sm3  1  0.500000  0.382498  0.841028  1
  Sm  Sm4  1  0.000000  0.119399  0.579113  1
  Sm  Sm5  1  0.000000  0.880601  0.420887  1
  Sm  Sm6  1  0.000000  0.618704  0.919826  1
  Sm  Sm7  1  0.000000  0.381296  0.080174  1
  Si  Si8  1  0.500000  0.500000  0.000000  1
  Rh  Rh9  1  0.500000  0.000000  0.500000  1
  Br  Br10  1  0.500000  0.243907  0.164533  1
  Br  Br11  1  0.500000  0.756093  0.835467  1
  Br  Br12  1  0.500000  0.740965  0.335126  1
  Br  Br13  1  0.500000  0.259035  0.664874  1
  Br  Br14  1  0.000000  0.254848  0.410009  1
  Br  Br15  1  0.000000  0.745152  0.589991  1
  Br  Br16  1  0.000000  0.752966  0.087006  1
  Br  Br17  1  0.000000  0.247034  0.912994  1
  Br  Br18  1  0.000000  0.002784  0.243577  1
  Br  Br19  1  0.000000  0.997216  0.756423  1
  Br  Br20  1  0.000000  0.500440  0.256409  1
  Br  Br21  1  0.000000  0.499560  0.743591  1
