# generated using pymatgen
data_Tm12ZnFe3CoSn
_symmetry_space_group_name_H-M   'P 1'
_cell_length_a   8.22770697
_cell_length_b   8.22770567
_cell_length_c   8.22770647
_cell_angle_alpha   111.23701248
_cell_angle_beta   110.90517723
_cell_angle_gamma   106.31695905
_symmetry_Int_Tables_number   1
_chemical_formula_structural   Tm12ZnFe3CoSn
_chemical_formula_sum   'Tm12 Zn1 Fe3 Co1 Sn1'
_cell_volume   427.78864526
_cell_formula_units_Z   1
loop_
 _symmetry_equiv_pos_site_id
 _symmetry_equiv_pos_as_xyz
  1  'x, y, z'
loop_
 _atom_site_type_symbol
 _atom_site_label
 _atom_site_symmetry_multiplicity
 _atom_site_fract_x
 _atom_site_fract_y
 _atom_site_fract_z
 _atom_site_occupancy
  Tm  Tm0  1  0.430826  0.225261  0.205566  1
  Tm  Tm1  1  0.567597  0.774028  0.793569  1
  Tm  Tm2  1  0.019695  0.225261  0.794434  1
  Tm  Tm3  1  0.980458  0.774028  0.206431  1
  Tm  Tm4  1  0.187016  0.285819  0.471555  1
  Tm  Tm5  1  0.814264  0.715461  0.528445  1
  Tm  Tm6  1  0.187016  0.715461  0.901196  1
  Tm  Tm7  1  0.814264  0.285819  0.098804  1
  Tm  Tm8  1  0.312162  0.613574  0.301410  1
  Tm  Tm9  1  0.687945  0.385548  0.697605  1
  Tm  Tm10  1  0.312162  0.010752  0.698590  1
  Tm  Tm11  1  0.687945  0.990341  0.302395  1
  Zn  Zn12  1  0.999026  0.999026  0.000000  1
  Fe  Fe13  1  0.381924  0.000452  0.381472  1
  Fe  Fe14  1  0.618981  0.000452  0.618528  1
  Fe  Fe15  1  0.109549  0.609549  0.500000  1
  Co  Co16  1  0.888560  0.388560  0.500000  1
  Sn  Sn17  1  0.500608  0.500608  0.000000  1
