# generated using pymatgen
data_Hf9ZnMo4
_symmetry_space_group_name_H-M   'P 1'
_cell_length_a   8.72622800
_cell_length_b   8.72622739
_cell_length_c   8.59029300
_cell_angle_alpha   90.00000000
_cell_angle_beta   90.00000000
_cell_angle_gamma   119.99999473
_symmetry_Int_Tables_number   1
_chemical_formula_structural   Hf9ZnMo4
_chemical_formula_sum   'Hf18 Zn2 Mo8'
_cell_volume   566.48930325
_cell_formula_units_Z   2
loop_
 _symmetry_equiv_pos_site_id
 _symmetry_equiv_pos_as_xyz
  1  'x, y, z'
loop_
 _atom_site_type_symbol
 _atom_site_label
 _atom_site_symmetry_multiplicity
 _atom_site_fract_x
 _atom_site_fract_y
 _atom_site_fract_z
 _atom_site_occupancy
  Hf  Hf0  1  0.196175  0.803825  0.450263  1
  Hf  Hf1  1  0.196175  0.392350  0.450263  1
  Hf  Hf2  1  0.607650  0.803825  0.450263  1
  Hf  Hf3  1  0.803825  0.196175  0.549737  1
  Hf  Hf4  1  0.803825  0.607650  0.549737  1
  Hf  Hf5  1  0.392350  0.196175  0.549737  1
  Hf  Hf6  1  0.803825  0.196175  0.950263  1
  Hf  Hf7  1  0.803825  0.607650  0.950263  1
  Hf  Hf8  1  0.392350  0.196175  0.950263  1
  Hf  Hf9  1  0.196175  0.803825  0.049737  1
  Hf  Hf10  1  0.196175  0.392350  0.049737  1
  Hf  Hf11  1  0.607650  0.803825  0.049737  1
  Hf  Hf12  1  0.540310  0.459690  0.250000  1
  Hf  Hf13  1  0.540310  0.080619  0.250000  1
  Hf  Hf14  1  0.919381  0.459690  0.250000  1
  Hf  Hf15  1  0.459690  0.540310  0.750000  1
  Hf  Hf16  1  0.459690  0.919381  0.750000  1
  Hf  Hf17  1  0.080619  0.540310  0.750000  1
  Zn  Zn18  1  0.333333  0.666667  0.250000  1
  Zn  Zn19  1  0.666667  0.333333  0.750000  1
  Mo  Mo20  1  0.888401  0.111599  0.250000  1
  Mo  Mo21  1  0.888401  0.776801  0.250000  1
  Mo  Mo22  1  0.223199  0.111599  0.250000  1
  Mo  Mo23  1  0.111599  0.888401  0.750000  1
  Mo  Mo24  1  0.111599  0.223199  0.750000  1
  Mo  Mo25  1  0.776801  0.888401  0.750000  1
  Mo  Mo26  1  0.000000  0.000000  0.500000  1
  Mo  Mo27  1  0.000000  0.000000  0.000000  1
