# generated using pymatgen
data_DyHo5Co16(TcP6)2
_symmetry_space_group_name_H-M   'P 1'
_cell_length_a   3.70541200
_cell_length_b   10.51323200
_cell_length_c   12.20892000
_cell_angle_alpha   90.00000000
_cell_angle_beta   90.00000000
_cell_angle_gamma   90.00000000
_symmetry_Int_Tables_number   1
_chemical_formula_structural   DyHo5Co16(TcP6)2
_chemical_formula_sum   'Dy1 Ho5 Co16 Tc2 P12'
_cell_volume   475.60892958
_cell_formula_units_Z   1
loop_
 _symmetry_equiv_pos_site_id
 _symmetry_equiv_pos_as_xyz
  1  'x, y, z'
loop_
 _atom_site_type_symbol
 _atom_site_label
 _atom_site_symmetry_multiplicity
 _atom_site_fract_x
 _atom_site_fract_y
 _atom_site_fract_z
 _atom_site_occupancy
  Dy  Dy0  1  0.000000  0.500000  0.524312  1
  Ho  Ho1  1  0.500000  0.000000  0.475837  1
  Ho  Ho2  1  0.500000  0.817881  0.205886  1
  Ho  Ho3  1  0.500000  0.182119  0.205886  1
  Ho  Ho4  1  0.000000  0.682142  0.794067  1
  Ho  Ho5  1  0.000000  0.317858  0.794067  1
  Co  Co6  1  0.000000  0.500000  0.987203  1
  Co  Co7  1  0.500000  0.000000  0.012799  1
  Co  Co8  1  0.500000  0.296530  0.431161  1
  Co  Co9  1  0.500000  0.703470  0.431161  1
  Co  Co10  1  0.000000  0.203254  0.568814  1
  Co  Co11  1  0.000000  0.796746  0.568814  1
  Co  Co12  1  0.500000  0.878767  0.707559  1
  Co  Co13  1  0.500000  0.121233  0.707559  1
  Co  Co14  1  0.000000  0.621276  0.292373  1
  Co  Co15  1  0.000000  0.378724  0.292373  1
  Co  Co16  1  0.500000  0.332250  0.989764  1
  Co  Co17  1  0.500000  0.667750  0.989764  1
  Co  Co18  1  0.000000  0.167758  0.010231  1
  Co  Co19  1  0.000000  0.832242  0.010231  1
  Co  Co20  1  0.500000  0.500000  0.702798  1
  Co  Co21  1  0.000000  0.000000  0.297409  1
  Tc  Tc22  1  0.500000  0.500000  0.156700  1
  Tc  Tc23  1  0.000000  0.000000  0.843248  1
  P  P24  1  0.500000  0.311713  0.616259  1
  P  P25  1  0.500000  0.688287  0.616259  1
  P  P26  1  0.000000  0.188099  0.383834  1
  P  P27  1  0.000000  0.811901  0.383834  1
  P  P28  1  0.500000  0.500000  0.880838  1
  P  P29  1  0.000000  0.000000  0.119153  1
  P  P30  1  0.500000  0.845954  0.892462  1
  P  P31  1  0.500000  0.154046  0.892462  1
  P  P32  1  0.000000  0.654053  0.107551  1
  P  P33  1  0.000000  0.345947  0.107551  1
  P  P34  1  0.500000  0.500000  0.348984  1
  P  P35  1  0.000000  0.000000  0.650801  1
