# generated using pymatgen
data_YbHoLu6(B6Ru)4
_symmetry_space_group_name_H-M   'P 1'
_cell_length_a   3.60297200
_cell_length_b   9.04473768
_cell_length_c   11.42338513
_cell_angle_alpha   89.95026339
_cell_angle_beta   90.00000000
_cell_angle_gamma   90.00000000
_symmetry_Int_Tables_number   1
_chemical_formula_structural   YbHoLu6(B6Ru)4
_chemical_formula_sum   'Yb1 Ho1 Lu6 B24 Ru4'
_cell_volume   372.26441021
_cell_formula_units_Z   1
loop_
 _symmetry_equiv_pos_site_id
 _symmetry_equiv_pos_as_xyz
  1  'x, y, z'
loop_
 _atom_site_type_symbol
 _atom_site_label
 _atom_site_symmetry_multiplicity
 _atom_site_fract_x
 _atom_site_fract_y
 _atom_site_fract_z
 _atom_site_occupancy
  Yb  Yb0  1  0.000000  0.322844  0.413591  1
  Ho  Ho1  1  0.000000  0.676602  0.585182  1
  Lu  Lu2  1  0.000000  0.821654  0.086239  1
  Lu  Lu3  1  0.000000  0.178997  0.914745  1
  Lu  Lu4  1  0.000000  0.944212  0.371327  1
  Lu  Lu5  1  0.000000  0.057641  0.627935  1
  Lu  Lu6  1  0.000000  0.443270  0.128698  1
  Lu  Lu7  1  0.000000  0.555917  0.872783  1
  B  B8  1  0.500000  0.554159  0.432519  1
  B  B9  1  0.500000  0.445604  0.567419  1
  B  B10  1  0.500000  0.052987  0.065747  1
  B  B11  1  0.500000  0.946225  0.933450  1
  B  B12  1  0.500000  0.749636  0.419146  1
  B  B13  1  0.500000  0.250732  0.581044  1
  B  B14  1  0.500000  0.248553  0.079690  1
  B  B15  1  0.500000  0.750841  0.920416  1
  B  B16  1  0.500000  0.792596  0.265087  1
  B  B17  1  0.500000  0.208361  0.735191  1
  B  B18  1  0.500000  0.290724  0.233544  1
  B  B19  1  0.500000  0.708512  0.766343  1
  B  B20  1  0.500000  0.631617  0.184567  1
  B  B21  1  0.500000  0.368823  0.816359  1
  B  B22  1  0.500000  0.130353  0.314484  1
  B  B23  1  0.500000  0.869470  0.684752  1
  B  B24  1  0.500000  0.981791  0.211772  1
  B  B25  1  0.500000  0.018190  0.787419  1
  B  B26  1  0.500000  0.482949  0.286909  1
  B  B27  1  0.500000  0.517250  0.713451  1
  B  B28  1  0.500000  0.606302  0.029450  1
  B  B29  1  0.500000  0.393934  0.971090  1
  B  B30  1  0.500000  0.102038  0.471790  1
  B  B31  1  0.500000  0.896874  0.528446  1
  Ru  Ru32  1  0.000000  0.640132  0.319574  1
  Ru  Ru33  1  0.000000  0.361299  0.681152  1
  Ru  Ru34  1  0.000000  0.136621  0.177551  1
  Ru  Ru35  1  0.000000  0.862289  0.821136  1
