# generated using pymatgen
data_Nd5GdTa2O14
_symmetry_space_group_name_H-M   'P 1'
_cell_length_a   6.68418790
_cell_length_b   6.67301418
_cell_length_c   7.70989654
_cell_angle_alpha   90.00733216
_cell_angle_beta   90.08459598
_cell_angle_gamma   108.93693240
_symmetry_Int_Tables_number   1
_chemical_formula_structural   Nd5GdTa2O14
_chemical_formula_sum   'Nd5 Gd1 Ta2 O14'
_cell_volume   325.27677848
_cell_formula_units_Z   1
loop_
 _symmetry_equiv_pos_site_id
 _symmetry_equiv_pos_as_xyz
  1  'x, y, z'
loop_
 _atom_site_type_symbol
 _atom_site_label
 _atom_site_symmetry_multiplicity
 _atom_site_fract_x
 _atom_site_fract_y
 _atom_site_fract_z
 _atom_site_occupancy
  Nd  Nd0  1  0.465132  0.000176  0.256928  1
  Nd  Nd1  1  0.997755  0.535776  0.243214  1
  Nd  Nd2  1  0.462379  0.466218  0.999811  1
  Nd  Nd3  1  0.530446  0.528250  0.501323  1
  Nd  Nd4  1  0.536609  0.998599  0.756751  1
  Gd  Gd5  1  0.999941  0.468663  0.742967  1
  Ta  Ta6  1  0.002551  0.003259  0.501531  1
  Ta  Ta7  1  0.997967  0.997955  0.999116  1
  O  O8  1  0.940603  0.057880  0.750144  1
  O  O9  1  0.644645  0.364731  0.751744  1
  O  O10  1  0.306012  0.058532  0.536530  1
  O  O11  1  0.960834  0.700596  0.957408  1
  O  O12  1  0.629207  0.369981  0.249413  1
  O  O13  1  0.926926  0.681521  0.527851  1
  O  O14  1  0.321545  0.081096  0.977058  1
  O  O15  1  0.074696  0.320386  0.020318  1
  O  O16  1  0.679733  0.918406  0.476494  1
  O  O17  1  0.363117  0.625681  0.748088  1
  O  O18  1  0.696028  0.942862  0.036929  1
  O  O19  1  0.045915  0.303631  0.465564  1
  O  O20  1  0.361635  0.634159  0.250522  1
  O  O21  1  0.056323  0.941642  0.250296  1
