# generated using pymatgen
data_TbYGa9RuPt2
_symmetry_space_group_name_H-M   'P 1'
_cell_length_a   7.62474900
_cell_length_b   7.62502487
_cell_length_c   9.50865800
_cell_angle_alpha   90.00000000
_cell_angle_beta   90.00000000
_cell_angle_gamma   119.64305266
_symmetry_Int_Tables_number   1
_chemical_formula_structural   TbYGa9RuPt2
_chemical_formula_sum   'Tb2 Y2 Ga18 Ru2 Pt4'
_cell_volume   480.47141187
_cell_formula_units_Z   2
loop_
 _symmetry_equiv_pos_site_id
 _symmetry_equiv_pos_as_xyz
  1  'x, y, z'
loop_
 _atom_site_type_symbol
 _atom_site_label
 _atom_site_symmetry_multiplicity
 _atom_site_fract_x
 _atom_site_fract_y
 _atom_site_fract_z
 _atom_site_occupancy
  Tb  Tb0  1  0.998002  0.668221  0.250000  1
  Tb  Tb1  1  0.001998  0.331779  0.750000  1
  Y  Y2  1  0.668215  0.997998  0.250000  1
  Y  Y3  1  0.331785  0.002002  0.750000  1
  Ga  Ga4  1  0.120298  0.120292  0.250000  1
  Ga  Ga5  1  0.879702  0.879708  0.750000  1
  Ga  Ga6  1  0.999721  0.329322  0.081226  1
  Ga  Ga7  1  0.000279  0.670678  0.918774  1
  Ga  Ga8  1  0.000279  0.670678  0.581226  1
  Ga  Ga9  1  0.329348  0.999733  0.418777  1
  Ga  Ga10  1  0.999721  0.329322  0.418774  1
  Ga  Ga11  1  0.670652  0.000267  0.581223  1
  Ga  Ga12  1  0.670652  0.000267  0.918777  1
  Ga  Ga13  1  0.329348  0.999733  0.081223  1
  Ga  Ga14  1  0.324919  0.324906  0.566254  1
  Ga  Ga15  1  0.675081  0.675094  0.433746  1
  Ga  Ga16  1  0.675081  0.675094  0.066254  1
  Ga  Ga17  1  0.324919  0.324906  0.933746  1
  Ga  Ga18  1  0.342999  0.544273  0.250000  1
  Ga  Ga19  1  0.657001  0.455727  0.750000  1
  Ga  Ga20  1  0.544286  0.343032  0.250000  1
  Ga  Ga21  1  0.455714  0.656968  0.750000  1
  Ru  Ru22  1  0.000000  0.000000  0.000000  1
  Ru  Ru23  1  0.000000  0.000000  0.500000  1
  Pt  Pt24  1  0.671599  0.328399  0.999998  1
  Pt  Pt25  1  0.328401  0.671601  0.000002  1
  Pt  Pt26  1  0.328401  0.671601  0.499998  1
  Pt  Pt27  1  0.671599  0.328399  0.500002  1
