# generated using pymatgen
data_LaPr4NdTa2O14
_symmetry_space_group_name_H-M   'P 1'
_cell_length_a   6.72151405
_cell_length_b   6.72475376
_cell_length_c   7.78472301
_cell_angle_alpha   89.99368461
_cell_angle_beta   90.00467392
_cell_angle_gamma   109.54396370
_symmetry_Int_Tables_number   1
_chemical_formula_structural   LaPr4NdTa2O14
_chemical_formula_sum   'La1 Pr4 Nd1 Ta2 O14'
_cell_volume   331.60041130
_cell_formula_units_Z   1
loop_
 _symmetry_equiv_pos_site_id
 _symmetry_equiv_pos_as_xyz
  1  'x, y, z'
loop_
 _atom_site_type_symbol
 _atom_site_label
 _atom_site_symmetry_multiplicity
 _atom_site_fract_x
 _atom_site_fract_y
 _atom_site_fract_z
 _atom_site_occupancy
  La  La0  1  0.499612  0.499429  0.499694  1
  Pr  Pr1  1  0.499590  0.499394  0.000273  1
  Pr  Pr2  1  0.999201  0.535328  0.249864  1
  Pr  Pr3  1  0.000691  0.464751  0.750138  1
  Pr  Pr4  1  0.534974  0.999257  0.750144  1
  Nd  Nd5  1  0.465029  0.000426  0.249870  1
  Ta  Ta6  1  0.999929  0.999977  0.499597  1
  Ta  Ta7  1  0.999924  0.999971  0.000414  1
  O  O8  1  0.944155  0.055415  0.750046  1
  O  O9  1  0.056581  0.943994  0.249956  1
  O  O10  1  0.365534  0.636888  0.249471  1
  O  O11  1  0.634323  0.365290  0.750507  1
  O  O12  1  0.370559  0.629590  0.750814  1
  O  O13  1  0.628417  0.368043  0.249200  1
  O  O14  1  0.312082  0.067618  0.972050  1
  O  O15  1  0.689035  0.934548  0.469269  1
  O  O16  1  0.311725  0.066296  0.528043  1
  O  O17  1  0.688682  0.933261  0.030625  1
  O  O18  1  0.067203  0.311447  0.470771  1
  O  O19  1  0.931428  0.688439  0.970849  1
  O  O20  1  0.932774  0.688816  0.529274  1
  O  O21  1  0.068553  0.311822  0.029129  1
