# generated using pymatgen
data_Tb5Y3(AlPd)2
_symmetry_space_group_name_H-M   'P 1'
_cell_length_a   9.63641905
_cell_length_b   9.63641846
_cell_length_c   9.63642000
_cell_angle_alpha   60.00000156
_cell_angle_beta   60.00000360
_cell_angle_gamma   60.00000433
_symmetry_Int_Tables_number   1
_chemical_formula_structural   Tb5Y3(AlPd)2
_chemical_formula_sum   'Tb10 Y6 Al4 Pd4'
_cell_volume   632.74989497
_cell_formula_units_Z   2
loop_
 _symmetry_equiv_pos_site_id
 _symmetry_equiv_pos_as_xyz
  1  'x, y, z'
loop_
 _atom_site_type_symbol
 _atom_site_label
 _atom_site_symmetry_multiplicity
 _atom_site_fract_x
 _atom_site_fract_y
 _atom_site_fract_z
 _atom_site_occupancy
  Tb  Tb0  1  0.355617  0.355617  0.355617  1
  Tb  Tb1  1  0.355617  0.355617  0.933148  1
  Tb  Tb2  1  0.355617  0.933148  0.355617  1
  Tb  Tb3  1  0.933148  0.355617  0.355617  1
  Tb  Tb4  1  0.806096  0.193904  0.193904  1
  Tb  Tb5  1  0.193904  0.806096  0.806096  1
  Tb  Tb6  1  0.193904  0.806096  0.193904  1
  Tb  Tb7  1  0.806096  0.193904  0.806096  1
  Tb  Tb8  1  0.193904  0.193904  0.806096  1
  Tb  Tb9  1  0.806096  0.806096  0.193904  1
  Y  Y10  1  0.934637  0.565363  0.565363  1
  Y  Y11  1  0.565363  0.934637  0.934637  1
  Y  Y12  1  0.565363  0.934637  0.565363  1
  Y  Y13  1  0.934637  0.565363  0.934637  1
  Y  Y14  1  0.565363  0.565363  0.934637  1
  Y  Y15  1  0.934637  0.934637  0.565363  1
  Al  Al16  1  0.577710  0.577710  0.577710  1
  Al  Al17  1  0.577710  0.577710  0.266870  1
  Al  Al18  1  0.577710  0.266870  0.577710  1
  Al  Al19  1  0.266870  0.577710  0.577710  1
  Pd  Pd20  1  0.144481  0.144481  0.144481  1
  Pd  Pd21  1  0.144481  0.144481  0.566554  1
  Pd  Pd22  1  0.144481  0.566554  0.144481  1
  Pd  Pd23  1  0.566554  0.144481  0.144481  1
