# generated using pymatgen
data_ThNbSbO7
_symmetry_space_group_name_H-M   'P 1'
_cell_length_a   8.05653203
_cell_length_b   8.05653213
_cell_length_c   8.48737353
_cell_angle_alpha   85.15187462
_cell_angle_beta   85.15187376
_cell_angle_gamma   28.29321387
_symmetry_Int_Tables_number   1
_chemical_formula_structural   ThNbSbO7
_chemical_formula_sum   'Th2 Nb2 Sb2 O14'
_cell_volume   260.12215712
_cell_formula_units_Z   2
loop_
 _symmetry_equiv_pos_site_id
 _symmetry_equiv_pos_as_xyz
  1  'x, y, z'
loop_
 _atom_site_type_symbol
 _atom_site_label
 _atom_site_symmetry_multiplicity
 _atom_site_fract_x
 _atom_site_fract_y
 _atom_site_fract_z
 _atom_site_occupancy
  Th  Th0  1  0.312880  0.312880  0.667732  1
  Th  Th1  1  0.687120  0.687120  0.332268  1
  Nb  Nb2  1  0.072996  0.072996  0.629313  1
  Nb  Nb3  1  0.927004  0.927004  0.370687  1
  Sb  Sb4  1  0.106110  0.106110  0.014386  1
  Sb  Sb5  1  0.893890  0.893890  0.985614  1
  O  O6  1  0.013712  0.013712  0.857785  1
  O  O7  1  0.986288  0.986288  0.142215  1
  O  O8  1  0.055623  0.055623  0.389301  1
  O  O9  1  0.944377  0.944377  0.610699  1
  O  O10  1  0.390823  0.390823  0.933171  1
  O  O11  1  0.609177  0.609177  0.066829  1
  O  O12  1  0.586135  0.586135  0.605523  1
  O  O13  1  0.413865  0.413865  0.394477  1
  O  O14  1  0.803989  0.803989  0.500692  1
  O  O15  1  0.196011  0.196011  0.499308  1
  O  O16  1  0.806282  0.806282  0.832323  1
  O  O17  1  0.193718  0.193718  0.167677  1
  O  O18  1  0.830788  0.830788  0.199401  1
  O  O19  1  0.169212  0.169212  0.800599  1
