# generated using pymatgen
data_Ta5NbReSi6W5
_symmetry_space_group_name_H-M   'P 1'
_cell_length_a   7.69229261
_cell_length_b   7.71178599
_cell_length_c   7.69991221
_cell_angle_alpha   126.42540345
_cell_angle_beta   128.56876280
_cell_angle_gamma   77.39763770
_symmetry_Int_Tables_number   1
_chemical_formula_structural   Ta5NbReSi6W5
_chemical_formula_sum   'Ta5 Nb1 Re1 Si6 W5'
_cell_volume   278.84294476
_cell_formula_units_Z   1
loop_
 _symmetry_equiv_pos_site_id
 _symmetry_equiv_pos_as_xyz
  1  'x, y, z'
loop_
 _atom_site_type_symbol
 _atom_site_label
 _atom_site_symmetry_multiplicity
 _atom_site_fract_x
 _atom_site_fract_y
 _atom_site_fract_z
 _atom_site_occupancy
  Ta  Ta0  1  0.449914  0.499021  0.550688  1
  Ta  Ta1  1  0.947628  0.497809  0.048663  1
  Ta  Ta2  1  0.049511  0.091558  0.541656  1
  Ta  Ta3  1  0.753957  0.902900  0.650874  1
  Ta  Ta4  1  0.253037  0.903182  0.148907  1
  Nb  Nb5  1  0.549226  0.089130  0.040852  1
  Re  Re6  1  0.369243  0.497397  0.126138  1
  Si  Si7  1  0.745506  0.494549  0.246988  1
  Si  Si8  1  0.248434  0.496517  0.749683  1
  Si  Si9  1  0.333540  0.826538  0.491840  1
  Si  Si10  1  0.668101  0.165146  0.497463  1
  Si  Si11  1  0.834843  0.829279  0.995846  1
  Si  Si12  1  0.169725  0.167897  0.998072  1
  W  W13  1  0.499215  0.237725  0.737507  1
  W  W14  1  0.001848  0.239314  0.238873  1
  W  W15  1  0.127360  0.753980  0.624185  1
  W  W16  1  0.869639  0.496722  0.627748  1
  W  W17  1  0.629273  0.753538  0.126213  1
