# generated using pymatgen
data_Y5PdRhO12
_symmetry_space_group_name_H-M   'P 1'
_cell_length_a   6.88931705
_cell_length_b   6.88931621
_cell_length_c   7.28596281
_cell_angle_alpha   74.52038790
_cell_angle_beta   74.52038882
_cell_angle_gamma   51.14835925
_symmetry_Int_Tables_number   1
_chemical_formula_structural   Y5PdRhO12
_chemical_formula_sum   'Y5 Pd1 Rh1 O12'
_cell_volume   257.24990787
_cell_formula_units_Z   1
loop_
 _symmetry_equiv_pos_site_id
 _symmetry_equiv_pos_as_xyz
  1  'x, y, z'
loop_
 _atom_site_type_symbol
 _atom_site_label
 _atom_site_symmetry_multiplicity
 _atom_site_fract_x
 _atom_site_fract_y
 _atom_site_fract_z
 _atom_site_occupancy
  Y  Y0  1  0.499245  0.500755  0.500000  1
  Y  Y1  1  0.190014  0.194143  0.168792  1
  Y  Y2  1  0.805857  0.809986  0.831208  1
  Y  Y3  1  0.795565  0.806408  0.360249  1
  Y  Y4  1  0.193592  0.204435  0.639751  1
  Pd  Pd5  1  0.750850  0.249150  0.000000  1
  Rh  Rh6  1  0.257370  0.742630  0.000000  1
  O  O7  1  0.001639  0.997678  0.189022  1
  O  O8  1  0.002322  0.998361  0.810978  1
  O  O9  1  0.499714  0.500160  0.817054  1
  O  O10  1  0.499840  0.500286  0.182946  1
  O  O11  1  0.595598  0.097609  0.575308  1
  O  O12  1  0.902391  0.404402  0.424692  1
  O  O13  1  0.400844  0.900043  0.428726  1
  O  O14  1  0.399225  0.926710  0.916056  1
  O  O15  1  0.073290  0.600775  0.083944  1
  O  O16  1  0.595777  0.063090  0.085543  1
  O  O17  1  0.936910  0.404223  0.914457  1
  O  O18  1  0.099957  0.599156  0.571274  1
