# generated using pymatgen
data_La5Sn15Rh8
_symmetry_space_group_name_H-M   'P 1'
_cell_length_a   4.59217500
_cell_length_b   7.32557220
_cell_length_c   18.86131806
_cell_angle_alpha   90.02928705
_cell_angle_beta   90.00000000
_cell_angle_gamma   90.00000000
_symmetry_Int_Tables_number   1
_chemical_formula_structural   La5Sn15Rh8
_chemical_formula_sum   'La5 Sn15 Rh8'
_cell_volume   634.50049424
_cell_formula_units_Z   1
loop_
 _symmetry_equiv_pos_site_id
 _symmetry_equiv_pos_as_xyz
  1  'x, y, z'
loop_
 _atom_site_type_symbol
 _atom_site_label
 _atom_site_symmetry_multiplicity
 _atom_site_fract_x
 _atom_site_fract_y
 _atom_site_fract_z
 _atom_site_occupancy
  La  La0  1  0.500000  0.003010  0.855762  1
  La  La1  1  0.500000  0.500060  0.357468  1
  La  La2  1  0.000000  0.999792  0.143616  1
  La  La3  1  0.000000  0.500857  0.641823  1
  La  La4  1  0.500000  0.498461  0.930439  1
  Sn  Sn5  1  0.000000  0.717193  0.805789  1
  Sn  Sn6  1  0.000000  0.781162  0.305330  1
  Sn  Sn7  1  0.500000  0.279388  0.194278  1
  Sn  Sn8  1  0.500000  0.216584  0.693541  1
  Sn  Sn9  1  0.000000  0.854042  0.970284  1
  Sn  Sn10  1  0.000000  0.633987  0.468715  1
  Sn  Sn11  1  0.500000  0.134070  0.031683  1
  Sn  Sn12  1  0.500000  0.364920  0.530070  1
  Sn  Sn13  1  0.000000  0.304702  0.818087  1
  Sn  Sn14  1  0.000000  0.196737  0.317596  1
  Sn  Sn15  1  0.500000  0.695340  0.185465  1
  Sn  Sn16  1  0.500000  0.808463  0.678939  1
  Sn  Sn17  1  0.500000  0.018850  0.432898  1
  Sn  Sn18  1  0.000000  0.510412  0.068797  1
  Sn  Sn19  1  0.000000  0.982276  0.568346  1
  Rh  Rh20  1  0.000000  0.229616  0.965827  1
  Rh  Rh21  1  0.000000  0.247571  0.464655  1
  Rh  Rh22  1  0.500000  0.763620  0.044405  1
  Rh  Rh23  1  0.500000  0.750728  0.532851  1
  Rh  Rh24  1  0.000000  0.018284  0.715641  1
  Rh  Rh25  1  0.000000  0.482512  0.213395  1
  Rh  Rh26  1  0.500000  0.986738  0.289175  1
  Rh  Rh27  1  0.500000  0.520621  0.775128  1
