# generated using pymatgen
data_LaPr3HoSi4
_symmetry_space_group_name_H-M   'P 1'
_cell_length_a   7.86434202
_cell_length_b   7.86442702
_cell_length_c   15.39033700
_cell_angle_alpha   90.02170331
_cell_angle_beta   90.00442231
_cell_angle_gamma   90.06746148
_symmetry_Int_Tables_number   1
_chemical_formula_structural   LaPr3HoSi4
_chemical_formula_sum   'La4 Pr12 Ho4 Si16'
_cell_volume   951.86920217
_cell_formula_units_Z   4
loop_
 _symmetry_equiv_pos_site_id
 _symmetry_equiv_pos_as_xyz
  1  'x, y, z'
loop_
 _atom_site_type_symbol
 _atom_site_label
 _atom_site_symmetry_multiplicity
 _atom_site_fract_x
 _atom_site_fract_y
 _atom_site_fract_z
 _atom_site_occupancy
  La  La0  1  0.377082  0.014466  0.445950  1
  La  La1  1  0.485731  0.876822  0.696449  1
  La  La2  1  0.513939  0.122681  0.195332  1
  La  La3  1  0.877552  0.485695  0.304123  1
  Pr  Pr4  1  0.120962  0.512576  0.805303  1
  Pr  Pr5  1  0.621433  0.987358  0.945149  1
  Pr  Pr6  1  0.013014  0.379333  0.555410  1
  Pr  Pr7  1  0.986939  0.621215  0.054245  1
  Pr  Pr8  1  0.124910  0.976426  0.878800  1
  Pr  Pr9  1  0.524221  0.625847  0.127893  1
  Pr  Pr10  1  0.476273  0.374901  0.628962  1
  Pr  Pr11  1  0.625648  0.524476  0.871527  1
  Pr  Pr12  1  0.374522  0.475851  0.371286  1
  Pr  Pr13  1  0.875141  0.023544  0.378656  1
  Pr  Pr14  1  0.976355  0.124583  0.120663  1
  Pr  Pr15  1  0.024280  0.874629  0.621712  1
  Ho  Ho16  1  0.309553  0.309843  0.999934  1
  Ho  Ho17  1  0.190185  0.809357  0.249985  1
  Ho  Ho18  1  0.809929  0.190853  0.750117  1
  Ho  Ho19  1  0.690635  0.689701  0.500203  1
  Si  Si20  1  0.187119  0.173024  0.708790  1
  Si  Si21  1  0.327277  0.687192  0.958176  1
  Si  Si22  1  0.673105  0.312475  0.459264  1
  Si  Si23  1  0.688043  0.328106  0.040922  1
  Si  Si24  1  0.312083  0.671454  0.541021  1
  Si  Si25  1  0.813184  0.827335  0.208654  1
  Si  Si26  1  0.171773  0.187666  0.290435  1
  Si  Si27  1  0.828554  0.812530  0.791509  1
  Si  Si28  1  0.286055  0.919964  0.063287  1
  Si  Si29  1  0.579632  0.785955  0.313693  1
  Si  Si30  1  0.420498  0.214369  0.813888  1
  Si  Si31  1  0.786747  0.578733  0.686448  1
  Si  Si32  1  0.213360  0.421265  0.185712  1
  Si  Si33  1  0.714192  0.080085  0.564022  1
  Si  Si34  1  0.920870  0.286723  0.936096  1
  Si  Si35  1  0.079205  0.712970  0.436385  1
