# generated using pymatgen
data_Rb2NaHoSb2
_symmetry_space_group_name_H-M   'P 1'
_cell_length_a   11.33778617
_cell_length_b   11.33778563
_cell_length_c   7.48523200
_cell_angle_alpha   90.00000000
_cell_angle_beta   90.00000000
_cell_angle_gamma   98.50472944
_symmetry_Int_Tables_number   1
_chemical_formula_structural   Rb2NaHoSb2
_chemical_formula_sum   'Rb8 Na4 Ho4 Sb8'
_cell_volume   951.61146768
_cell_formula_units_Z   4
loop_
 _symmetry_equiv_pos_site_id
 _symmetry_equiv_pos_as_xyz
  1  'x, y, z'
loop_
 _atom_site_type_symbol
 _atom_site_label
 _atom_site_symmetry_multiplicity
 _atom_site_fract_x
 _atom_site_fract_y
 _atom_site_fract_z
 _atom_site_occupancy
  Rb  Rb0  1  0.070971  0.429029  0.250000  1
  Rb  Rb1  1  0.429029  0.070971  0.750000  1
  Rb  Rb2  1  0.929029  0.570971  0.750000  1
  Rb  Rb3  1  0.570971  0.929029  0.250000  1
  Rb  Rb4  1  0.676129  0.323871  0.216054  1
  Rb  Rb5  1  0.823871  0.176129  0.716054  1
  Rb  Rb6  1  0.323871  0.676129  0.783946  1
  Rb  Rb7  1  0.176129  0.823871  0.283946  1
  Na  Na8  1  0.382442  0.382442  0.000000  1
  Na  Na9  1  0.117558  0.117558  0.500000  1
  Na  Na10  1  0.617558  0.617558  0.000000  1
  Na  Na11  1  0.882442  0.882442  0.500000  1
  Ho  Ho12  1  0.130539  0.130539  0.000000  1
  Ho  Ho13  1  0.369461  0.369461  0.500000  1
  Ho  Ho14  1  0.869461  0.869461  0.000000  1
  Ho  Ho15  1  0.630539  0.630539  0.500000  1
  Sb  Sb16  1  0.846370  0.653629  0.250000  1
  Sb  Sb17  1  0.653629  0.846370  0.750000  1
  Sb  Sb18  1  0.153629  0.346370  0.750000  1
  Sb  Sb19  1  0.346370  0.153629  0.250000  1
  Sb  Sb20  1  0.899825  0.100175  0.211254  1
  Sb  Sb21  1  0.600175  0.399825  0.711254  1
  Sb  Sb22  1  0.100175  0.899825  0.788746  1
  Sb  Sb23  1  0.399825  0.600175  0.288746  1
