# generated using pymatgen
data_Ho8Ge(PdPt3)6
_symmetry_space_group_name_H-M   'P 1'
_cell_length_a   8.32567200
_cell_length_b   8.34202300
_cell_length_c   8.35332700
_cell_angle_alpha   90.00000000
_cell_angle_beta   90.00250084
_cell_angle_gamma   90.00000000
_symmetry_Int_Tables_number   1
_chemical_formula_structural   Ho8Ge(PdPt3)6
_chemical_formula_sum   'Ho8 Ge1 Pd6 Pt18'
_cell_volume   580.16317976
_cell_formula_units_Z   1
loop_
 _symmetry_equiv_pos_site_id
 _symmetry_equiv_pos_as_xyz
  1  'x, y, z'
loop_
 _atom_site_type_symbol
 _atom_site_label
 _atom_site_symmetry_multiplicity
 _atom_site_fract_x
 _atom_site_fract_y
 _atom_site_fract_z
 _atom_site_occupancy
  Ho  Ho0  1  0.253422  0.253521  0.253459  1
  Ho  Ho1  1  0.746494  0.746220  0.746336  1
  Ho  Ho2  1  0.746503  0.746250  0.253684  1
  Ho  Ho3  1  0.746494  0.253780  0.746336  1
  Ho  Ho4  1  0.253444  0.253546  0.746558  1
  Ho  Ho5  1  0.253422  0.746479  0.253459  1
  Ho  Ho6  1  0.253444  0.746454  0.746558  1
  Ho  Ho7  1  0.746503  0.253750  0.253684  1
  Ge  Ge8  1  0.000467  0.000000  0.000069  1
  Pd  Pd9  1  0.500048  0.500000  0.747259  1
  Pd  Pd10  1  0.711966  0.000000  0.999950  1
  Pd  Pd11  1  0.999821  0.288996  0.999935  1
  Pd  Pd12  1  0.999821  0.711004  0.999935  1
  Pd  Pd13  1  0.999819  0.000000  0.288869  1
  Pd  Pd14  1  0.999829  0.000000  0.711306  1
  Pt  Pt15  1  0.258775  0.500000  0.000068  1
  Pt  Pt16  1  0.740867  0.500000  0.000067  1
  Pt  Pt17  1  0.999977  0.258842  0.500058  1
  Pt  Pt18  1  0.499900  0.259283  0.000064  1
  Pt  Pt19  1  0.999977  0.741158  0.500058  1
  Pt  Pt20  1  0.499900  0.740717  0.000064  1
  Pt  Pt21  1  0.499892  0.000000  0.258991  1
  Pt  Pt22  1  0.258660  0.000000  0.500032  1
  Pt  Pt23  1  0.499904  0.000000  0.740951  1
  Pt  Pt24  1  0.740963  0.000000  0.500051  1
  Pt  Pt25  1  0.999955  0.500000  0.258672  1
  Pt  Pt26  1  0.999979  0.500000  0.741264  1
  Pt  Pt27  1  0.252689  0.500000  0.499945  1
  Pt  Pt28  1  0.747394  0.500000  0.499941  1
  Pt  Pt29  1  0.500060  0.252742  0.499956  1
  Pt  Pt30  1  0.500060  0.747258  0.499956  1
  Pt  Pt31  1  0.500072  0.500000  0.252562  1
  Pt  Pt32  1  0.289473  0.000000  0.999903  1
