# generated using pymatgen
data_K4In5Ga7Se20
_symmetry_space_group_name_H-M   'P 1'
_cell_length_a   10.25946227
_cell_length_b   10.29677936
_cell_length_c   10.32617900
_cell_angle_alpha   91.56070039
_cell_angle_beta   91.24712885
_cell_angle_gamma   90.98120840
_symmetry_Int_Tables_number   1
_chemical_formula_structural   K4In5Ga7Se20
_chemical_formula_sum   'K4 In5 Ga7 Se20'
_cell_volume   1090.01724866
_cell_formula_units_Z   1
loop_
 _symmetry_equiv_pos_site_id
 _symmetry_equiv_pos_as_xyz
  1  'x, y, z'
loop_
 _atom_site_type_symbol
 _atom_site_label
 _atom_site_symmetry_multiplicity
 _atom_site_fract_x
 _atom_site_fract_y
 _atom_site_fract_z
 _atom_site_occupancy
  K  K0  1  0.252189  0.001679  0.750239  1
  K  K1  1  0.745980  0.250409  0.999675  1
  K  K2  1  0.999683  0.748549  0.251093  1
  K  K3  1  0.500720  0.498678  0.497894  1
  In  In4  1  0.836600  0.886083  0.575744  1
  In  In5  1  0.573594  0.838562  0.889406  1
  In  In6  1  0.885743  0.575777  0.837841  1
  In  In7  1  0.167715  0.423809  0.114596  1
  In  In8  1  0.116213  0.162218  0.422473  1
  Ga  Ga9  1  0.426357  0.110995  0.167233  1
  Ga  Ga10  1  0.733612  0.160684  0.352433  1
  Ga  Ga11  1  0.352918  0.738813  0.161308  1
  Ga  Ga12  1  0.163606  0.353677  0.735915  1
  Ga  Ga13  1  0.264263  0.646211  0.836302  1
  Ga  Ga14  1  0.836779  0.264351  0.644808  1
  Ga  Ga15  1  0.646685  0.838987  0.261562  1
  Se  Se16  1  0.196388  0.801047  0.998757  1
  Se  Se17  1  0.804619  0.999281  0.197787  1
  Se  Se18  1  0.187045  0.169143  0.171464  1
  Se  Se19  1  0.828559  0.831029  0.829952  1
  Se  Se20  1  0.999779  0.199371  0.800398  1
  Se  Se21  1  0.927592  0.497708  0.074088  1
  Se  Se22  1  0.075126  0.925708  0.500410  1
  Se  Se23  1  0.491390  0.073482  0.944237  1
  Se  Se24  1  0.732518  0.703114  0.426579  1
  Se  Se25  1  0.428808  0.736630  0.701862  1
  Se  Se26  1  0.700168  0.428648  0.735079  1
  Se  Se27  1  0.266063  0.576183  0.298997  1
  Se  Se28  1  0.300043  0.264615  0.572039  1
  Se  Se29  1  0.560479  0.286428  0.262686  1
  Se  Se30  1  0.678796  0.087386  0.574266  1
  Se  Se31  1  0.574890  0.679037  0.086838  1
  Se  Se32  1  0.086170  0.574314  0.679639  1
  Se  Se33  1  0.322233  0.425980  0.911873  1
  Se  Se34  1  0.911418  0.318232  0.422823  1
  Se  Se35  1  0.425259  0.923181  0.311702  1
