# generated using pymatgen
data_Dy6YEr9(In3Co)2
_symmetry_space_group_name_H-M   'P 1'
_cell_length_a   10.32708900
_cell_length_b   10.33717383
_cell_length_c   7.00739204
_cell_angle_alpha   90.00880693
_cell_angle_beta   90.00000000
_cell_angle_gamma   119.96772344
_symmetry_Int_Tables_number   1
_chemical_formula_structural   Dy6YEr9(In3Co)2
_chemical_formula_sum   'Dy6 Y1 Er9 In6 Co2'
_cell_volume   648.04913799
_cell_formula_units_Z   1
loop_
 _symmetry_equiv_pos_site_id
 _symmetry_equiv_pos_as_xyz
  1  'x, y, z'
loop_
 _atom_site_type_symbol
 _atom_site_label
 _atom_site_symmetry_multiplicity
 _atom_site_fract_x
 _atom_site_fract_y
 _atom_site_fract_z
 _atom_site_occupancy
  Dy  Dy0  1  0.929803  0.464468  0.791450  1
  Dy  Dy1  1  0.534666  0.464468  0.791450  1
  Dy  Dy2  1  0.464571  0.929141  0.291477  1
  Dy  Dy3  1  0.070385  0.535220  0.291812  1
  Dy  Dy4  1  0.464836  0.535220  0.291812  1
  Dy  Dy5  1  0.822205  0.644410  0.498219  1
  Y  Y6  1  0.534257  0.068514  0.791060  1
  Er  Er7  1  0.356761  0.178910  0.497005  1
  Er  Er8  1  0.822150  0.178910  0.497005  1
  Er  Er9  1  0.178437  0.356874  0.998986  1
  Er  Er10  1  0.643595  0.821072  0.998931  1
  Er  Er11  1  0.177478  0.821072  0.998931  1
  Er  Er12  1  0.666697  0.333392  0.182512  1
  Er  Er13  1  0.333095  0.666191  0.683452  1
  Er  Er14  1  0.000196  0.000391  0.779861  1
  Er  Er15  1  0.999949  0.999898  0.279212  1
  In  In16  1  0.836894  0.673788  0.038951  1
  In  In17  1  0.325150  0.162258  0.039630  1
  In  In18  1  0.837107  0.162258  0.039630  1
  In  In19  1  0.163127  0.326253  0.541055  1
  In  In20  1  0.674397  0.838047  0.540953  1
  In  In21  1  0.163651  0.838047  0.540953  1
  Co  Co22  1  0.667232  0.334463  0.564816  1
  Co  Co23  1  0.333362  0.666727  0.066738  1
