# generated using pymatgen
data_Sc4AlGa5Os2
_symmetry_space_group_name_H-M   'P 1'
_cell_length_a   5.26277200
_cell_length_b   5.24456845
_cell_length_c   8.56772700
_cell_angle_alpha   90.00000000
_cell_angle_beta   90.00000000
_cell_angle_gamma   120.11487153
_symmetry_Int_Tables_number   1
_chemical_formula_structural   Sc4AlGa5Os2
_chemical_formula_sum   'Sc4 Al1 Ga5 Os2'
_cell_volume   204.55810636
_cell_formula_units_Z   1
loop_
 _symmetry_equiv_pos_site_id
 _symmetry_equiv_pos_as_xyz
  1  'x, y, z'
loop_
 _atom_site_type_symbol
 _atom_site_label
 _atom_site_symmetry_multiplicity
 _atom_site_fract_x
 _atom_site_fract_y
 _atom_site_fract_z
 _atom_site_occupancy
  Sc  Sc0  1  0.667203  0.334406  0.053212  1
  Sc  Sc1  1  0.667203  0.334406  0.446788  1
  Sc  Sc2  1  0.333461  0.666922  0.554389  1
  Sc  Sc3  1  0.333461  0.666922  0.945611  1
  Al  Al4  1  0.163078  0.326158  0.250000  1
  Ga  Ga5  1  0.165273  0.827618  0.250000  1
  Ga  Ga6  1  0.662344  0.827618  0.250000  1
  Ga  Ga7  1  0.335703  0.167272  0.750000  1
  Ga  Ga8  1  0.831570  0.167272  0.750000  1
  Ga  Ga9  1  0.832713  0.665425  0.750000  1
  Os  Os10  1  0.003994  0.007988  0.000328  1
  Os  Os11  1  0.003994  0.007988  0.499672  1
