# generated using pymatgen
data_Tb4VOs7
_symmetry_space_group_name_H-M   'P 1'
_cell_length_a   5.25616641
_cell_length_b   5.25616607
_cell_length_c   8.91059600
_cell_angle_alpha   90.00000000
_cell_angle_beta   90.00000000
_cell_angle_gamma   117.29863955
_symmetry_Int_Tables_number   1
_chemical_formula_structural   Tb4VOs7
_chemical_formula_sum   'Tb4 V1 Os7'
_cell_volume   218.75852806
_cell_formula_units_Z   1
loop_
 _symmetry_equiv_pos_site_id
 _symmetry_equiv_pos_as_xyz
  1  'x, y, z'
loop_
 _atom_site_type_symbol
 _atom_site_label
 _atom_site_symmetry_multiplicity
 _atom_site_fract_x
 _atom_site_fract_y
 _atom_site_fract_z
 _atom_site_occupancy
  Tb  Tb0  1  0.331067  0.668933  0.437016  1
  Tb  Tb1  1  0.668093  0.331907  0.566163  1
  Tb  Tb2  1  0.668093  0.331907  0.933837  1
  Tb  Tb3  1  0.331067  0.668933  0.062984  1
  V  V4  1  0.834756  0.165244  0.250000  1
  Os  Os5  1  0.996334  0.003666  0.498727  1
  Os  Os6  1  0.996334  0.003666  0.001273  1
  Os  Os7  1  0.824692  0.651478  0.250000  1
  Os  Os8  1  0.348522  0.175308  0.250000  1
  Os  Os9  1  0.170888  0.829112  0.750000  1
  Os  Os10  1  0.173664  0.343510  0.750000  1
  Os  Os11  1  0.656490  0.826336  0.750000  1
