# generated using pymatgen
data_EuYNp6F30
_symmetry_space_group_name_H-M   'P 1'
_cell_length_a   8.67767431
_cell_length_b   8.67767341
_cell_length_c   8.68694700
_cell_angle_alpha   79.60055842
_cell_angle_beta   79.60055281
_cell_angle_gamma   100.36364508
_symmetry_Int_Tables_number   1
_chemical_formula_structural   EuYNp6F30
_chemical_formula_sum   'Eu1 Y1 Np6 F30'
_cell_volume   617.37780868
_cell_formula_units_Z   1
loop_
 _symmetry_equiv_pos_site_id
 _symmetry_equiv_pos_as_xyz
  1  'x, y, z'
loop_
 _atom_site_type_symbol
 _atom_site_label
 _atom_site_symmetry_multiplicity
 _atom_site_fract_x
 _atom_site_fract_y
 _atom_site_fract_z
 _atom_site_occupancy
  Eu  Eu0  1  0.177438  0.822562  0.250000  1
  Y  Y1  1  0.823218  0.176782  0.750000  1
  Np  Np2  1  0.749337  0.250663  0.250000  1
  Np  Np3  1  0.251006  0.748994  0.750000  1
  Np  Np4  1  0.754066  0.676536  0.677018  1
  Np  Np5  1  0.323464  0.245934  0.822982  1
  Np  Np6  1  0.243728  0.322721  0.325214  1
  Np  Np7  1  0.677279  0.756272  0.174786  1
  F  F8  1  0.321855  0.344702  0.050961  1
  F  F9  1  0.935457  0.813257  0.153316  1
  F  F10  1  0.838634  0.447662  0.684255  1
  F  F11  1  0.458823  0.844328  0.177089  1
  F  F12  1  0.811100  0.941218  0.662641  1
  F  F13  1  0.344328  0.322573  0.551184  1
  F  F14  1  0.677427  0.655672  0.948815  1
  F  F15  1  0.058782  0.188900  0.837359  1
  F  F16  1  0.155672  0.541177  0.322911  1
  F  F17  1  0.552338  0.161366  0.815745  1
  F  F18  1  0.186743  0.064543  0.346684  1
  F  F19  1  0.655298  0.678145  0.449039  1
  F  F20  1  0.778866  0.276039  0.993910  1
  F  F21  1  0.010934  0.278753  0.216079  1
  F  F22  1  0.778602  0.508365  0.220600  1
  F  F23  1  0.508372  0.778853  0.721702  1
  F  F24  1  0.280836  0.010755  0.715722  1
  F  F25  1  0.283117  0.776591  0.497568  1
  F  F26  1  0.223409  0.716883  0.002432  1
  F  F27  1  0.989245  0.719164  0.784278  1
  F  F28  1  0.221147  0.491628  0.778298  1
  F  F29  1  0.491635  0.221398  0.279400  1
  F  F30  1  0.721247  0.989066  0.283921  1
  F  F31  1  0.723961  0.221134  0.506090  1
  F  F32  1  0.466399  0.533601  0.250000  1
  F  F33  1  0.752602  0.965865  0.967122  1
  F  F34  1  0.034135  0.247398  0.532878  1
  F  F35  1  0.249680  0.041443  0.025027  1
  F  F36  1  0.958557  0.750320  0.474973  1
  F  F37  1  0.531268  0.468732  0.750000  1
