# generated using pymatgen
data_CaPa7H30
_symmetry_space_group_name_H-M   'P 1'
_cell_length_a   7.49731057
_cell_length_b   7.49731061
_cell_length_c   7.49731000
_cell_angle_alpha   109.42378836
_cell_angle_beta   109.42378036
_cell_angle_gamma   109.42379132
_symmetry_Int_Tables_number   1
_chemical_formula_structural   CaPa7H30
_chemical_formula_sum   'Ca1 Pa7 H30'
_cell_volume   324.97874082
_cell_formula_units_Z   1
loop_
 _symmetry_equiv_pos_site_id
 _symmetry_equiv_pos_as_xyz
  1  'x, y, z'
loop_
 _atom_site_type_symbol
 _atom_site_label
 _atom_site_symmetry_multiplicity
 _atom_site_fract_x
 _atom_site_fract_y
 _atom_site_fract_z
 _atom_site_occupancy
  Ca  Ca0  1  0.923327  0.923327  0.923327  1
  Pa  Pa1  1  0.500157  0.999904  0.076878  1
  Pa  Pa2  1  0.999904  0.076878  0.500157  1
  Pa  Pa3  1  0.076878  0.500157  0.999904  1
  Pa  Pa4  1  0.000107  0.579374  0.500609  1
  Pa  Pa5  1  0.579374  0.500609  0.000107  1
  Pa  Pa6  1  0.500609  0.000107  0.579374  1
  Pa  Pa7  1  0.423370  0.423370  0.423370  1
  H  H8  1  0.650927  0.970039  0.368025  1
  H  H9  1  0.214208  0.312830  0.850383  1
  H  H10  1  0.183603  0.398889  0.533404  1
  H  H11  1  0.107044  0.298062  0.144855  1
  H  H12  1  0.298062  0.144855  0.107044  1
  H  H13  1  0.144855  0.107044  0.298062  1
  H  H14  1  0.460136  0.149798  0.864051  1
  H  H15  1  0.714977  0.352312  0.812002  1
  H  H16  1  0.627745  0.375301  0.251647  1
  H  H17  1  0.251647  0.627745  0.375301  1
  H  H18  1  0.742909  0.871943  0.133657  1
  H  H19  1  0.133657  0.742909  0.871943  1
  H  H20  1  0.375301  0.251647  0.627745  1
  H  H21  1  0.871943  0.133657  0.742909  1
  H  H22  1  0.780293  0.582004  0.625066  1
  H  H23  1  0.312830  0.850383  0.214208  1
  H  H24  1  0.368025  0.650927  0.970039  1
  H  H25  1  0.970039  0.368025  0.650927  1
  H  H26  1  0.533404  0.183603  0.398889  1
  H  H27  1  0.398889  0.533404  0.183603  1
  H  H28  1  0.850383  0.214208  0.312830  1
  H  H29  1  0.899365  0.681341  0.039458  1
  H  H30  1  0.812002  0.714977  0.352312  1
  H  H31  1  0.149798  0.864051  0.460136  1
  H  H32  1  0.681341  0.039458  0.899365  1
  H  H33  1  0.352312  0.812002  0.714977  1
  H  H34  1  0.864051  0.460136  0.149798  1
  H  H35  1  0.625066  0.780293  0.582004  1
  H  H36  1  0.582004  0.625066  0.780293  1
  H  H37  1  0.039458  0.899365  0.681341  1
