# generated using pymatgen
data_CaTbB4Ir5
_symmetry_space_group_name_H-M   'P 1'
_cell_length_a   7.52716903
_cell_length_b   6.33595470
_cell_length_c   5.63697226
_cell_angle_alpha   77.66347611
_cell_angle_beta   55.31655060
_cell_angle_gamma   47.01996731
_symmetry_Int_Tables_number   1
_chemical_formula_structural   CaTbB4Ir5
_chemical_formula_sum   'Ca1 Tb1 B4 Ir5'
_cell_volume   154.79497889
_cell_formula_units_Z   1
loop_
 _symmetry_equiv_pos_site_id
 _symmetry_equiv_pos_as_xyz
  1  'x, y, z'
loop_
 _atom_site_type_symbol
 _atom_site_label
 _atom_site_symmetry_multiplicity
 _atom_site_fract_x
 _atom_site_fract_y
 _atom_site_fract_z
 _atom_site_occupancy
  Ca  Ca0  1  0.856970  0.856968  0.143031  1
  Tb  Tb1  1  0.136780  0.136778  0.863221  1
  B  B2  1  0.475123  0.790552  0.209447  1
  B  B3  1  0.211940  0.525837  0.474162  1
  B  B4  1  0.790554  0.475121  0.524878  1
  B  B5  1  0.525839  0.211938  0.788061  1
  Ir  Ir6  1  0.499868  0.499870  0.000131  1
  Ir  Ir7  1  0.250519  0.250521  0.249480  1
  Ir  Ir8  1  0.999869  0.999869  0.500131  1
  Ir  Ir9  1  0.502024  0.502022  0.497977  1
  Ir  Ir10  1  0.750520  0.750520  0.749480  1
