# generated using pymatgen
data_YLu15In6NiOs
_symmetry_space_group_name_H-M   'P 1'
_cell_length_a   10.19414000
_cell_length_b   10.19414032
_cell_length_c   6.91449000
_cell_angle_alpha   90.00000000
_cell_angle_beta   90.00000000
_cell_angle_gamma   120.00000546
_symmetry_Int_Tables_number   1
_chemical_formula_structural   YLu15In6NiOs
_chemical_formula_sum   'Y1 Lu15 In6 Ni1 Os1'
_cell_volume   622.28876691
_cell_formula_units_Z   1
loop_
 _symmetry_equiv_pos_site_id
 _symmetry_equiv_pos_as_xyz
  1  'x, y, z'
loop_
 _atom_site_type_symbol
 _atom_site_label
 _atom_site_symmetry_multiplicity
 _atom_site_fract_x
 _atom_site_fract_y
 _atom_site_fract_z
 _atom_site_occupancy
  Y  Y0  1  0.000000  0.000000  0.998267  1
  Lu  Lu1  1  0.467141  0.532859  0.481791  1
  Lu  Lu2  1  0.065718  0.532859  0.481791  1
  Lu  Lu3  1  0.467141  0.934282  0.481791  1
  Lu  Lu4  1  0.533376  0.466624  0.979575  1
  Lu  Lu5  1  0.933247  0.466624  0.979575  1
  Lu  Lu6  1  0.533376  0.066753  0.979575  1
  Lu  Lu7  1  0.821026  0.178974  0.276067  1
  Lu  Lu8  1  0.357949  0.178974  0.276067  1
  Lu  Lu9  1  0.821026  0.642051  0.276067  1
  Lu  Lu10  1  0.177925  0.822075  0.775985  1
  Lu  Lu11  1  0.644148  0.822075  0.775985  1
  Lu  Lu12  1  0.177925  0.355852  0.775985  1
  Lu  Lu13  1  0.333333  0.666667  0.103581  1
  Lu  Lu14  1  0.666667  0.333333  0.592591  1
  Lu  Lu15  1  0.000000  0.000000  0.492661  1
  In  In16  1  0.161749  0.838251  0.237524  1
  In  In17  1  0.676504  0.838251  0.237524  1
  In  In18  1  0.161749  0.323496  0.237524  1
  In  In19  1  0.835918  0.164082  0.731219  1
  In  In20  1  0.328163  0.164082  0.731219  1
  In  In21  1  0.835918  0.671837  0.731219  1
  Ni  Ni22  1  0.666667  0.333333  0.205109  1
  Os  Os23  1  0.333333  0.666667  0.705860  1
