# generated using pymatgen
data_CeEr2Cd3AgPt2
_symmetry_space_group_name_H-M   'P 1'
_cell_length_a   7.79974353
_cell_length_b   7.88097071
_cell_length_c   3.77906900
_cell_angle_alpha   89.99969477
_cell_angle_beta   90.00026150
_cell_angle_gamma   120.34521755
_symmetry_Int_Tables_number   1
_chemical_formula_structural   CeEr2Cd3AgPt2
_chemical_formula_sum   'Ce1 Er2 Cd3 Ag1 Pt2'
_cell_volume   200.47221975
_cell_formula_units_Z   1
loop_
 _symmetry_equiv_pos_site_id
 _symmetry_equiv_pos_as_xyz
  1  'x, y, z'
loop_
 _atom_site_type_symbol
 _atom_site_label
 _atom_site_symmetry_multiplicity
 _atom_site_fract_x
 _atom_site_fract_y
 _atom_site_fract_z
 _atom_site_occupancy
  Ce  Ce0  1  0.999998  0.583989  0.999999  1
  Er  Er1  1  0.412822  0.414817  0.000004  1
  Er  Er2  1  0.587177  0.001994  0.000000  1
  Cd  Cd3  1  0.734078  0.737395  0.499998  1
  Cd  Cd4  1  0.265922  0.003316  0.500002  1
  Cd  Cd5  1  0.000001  0.257245  0.499998  1
  Ag  Ag6  1  0.000000  0.999650  0.000000  1
  Pt  Pt7  1  0.669929  0.335761  0.500004  1
  Pt  Pt8  1  0.330072  0.665833  0.499994  1
