# generated using pymatgen
data_CsTlP2O7
_symmetry_space_group_name_H-M   'P 1'
_cell_length_a   7.96655100
_cell_length_b   8.78708109
_cell_length_c   10.79900600
_cell_angle_alpha   90.00000000
_cell_angle_beta   90.00000000
_cell_angle_gamma   104.52133476
_symmetry_Int_Tables_number   1
_chemical_formula_structural   CsTlP2O7
_chemical_formula_sum   'Cs4 Tl4 P8 O28'
_cell_volume   731.81026087
_cell_formula_units_Z   4
loop_
 _symmetry_equiv_pos_site_id
 _symmetry_equiv_pos_as_xyz
  1  'x, y, z'
loop_
 _atom_site_type_symbol
 _atom_site_label
 _atom_site_symmetry_multiplicity
 _atom_site_fract_x
 _atom_site_fract_y
 _atom_site_fract_z
 _atom_site_occupancy
  Cs  Cs0  1  0.802492  0.950160  0.693033  1
  Cs  Cs1  1  0.802492  0.450160  0.806967  1
  Cs  Cs2  1  0.197508  0.049840  0.306967  1
  Cs  Cs3  1  0.197508  0.549840  0.193033  1
  Tl  Tl4  1  0.238361  0.255337  0.898093  1
  Tl  Tl5  1  0.761639  0.744663  0.101907  1
  Tl  Tl6  1  0.238361  0.755337  0.601907  1
  Tl  Tl7  1  0.761639  0.244663  0.398093  1
  P  P8  1  0.129826  0.824482  0.905435  1
  P  P9  1  0.870174  0.675518  0.405435  1
  P  P10  1  0.129826  0.324482  0.594565  1
  P  P11  1  0.571104  0.813416  0.372062  1
  P  P12  1  0.870174  0.175518  0.094565  1
  P  P13  1  0.428896  0.186584  0.627938  1
  P  P14  1  0.571104  0.313416  0.127938  1
  P  P15  1  0.428896  0.686584  0.872062  1
  O  O16  1  0.325632  0.522901  0.909691  1
  O  O17  1  0.385580  0.261936  0.076247  1
  O  O18  1  0.989729  0.278037  0.997651  1
  O  O19  1  0.674368  0.977099  0.409691  1
  O  O20  1  0.136892  0.997063  0.917277  1
  O  O21  1  0.444876  0.218675  0.768330  1
  O  O22  1  0.555124  0.281325  0.268330  1
  O  O23  1  0.674368  0.477099  0.090309  1
  O  O24  1  0.076931  0.258051  0.725355  1
  O  O25  1  0.863108  0.002937  0.082723  1
  O  O26  1  0.010271  0.721963  0.002349  1
  O  O27  1  0.325279  0.806473  0.933994  1
  O  O28  1  0.555124  0.781325  0.231670  1
  O  O29  1  0.989729  0.778037  0.502349  1
  O  O30  1  0.325632  0.022901  0.590309  1
  O  O31  1  0.674721  0.193527  0.066006  1
  O  O32  1  0.614420  0.238064  0.576247  1
  O  O33  1  0.325279  0.306473  0.566006  1
  O  O34  1  0.076931  0.758051  0.774645  1
  O  O35  1  0.010271  0.221963  0.497651  1
  O  O36  1  0.385580  0.761936  0.423753  1
  O  O37  1  0.444876  0.718675  0.731670  1
  O  O38  1  0.614420  0.738064  0.923753  1
  O  O39  1  0.136892  0.497063  0.582723  1
  O  O40  1  0.674721  0.693527  0.433994  1
  O  O41  1  0.923069  0.741949  0.274645  1
  O  O42  1  0.923069  0.241949  0.225355  1
  O  O43  1  0.863108  0.502937  0.417277  1
