# generated using pymatgen
data_TbEr2Hf(Co4P3)2
_symmetry_space_group_name_H-M   'P 1'
_cell_length_a   3.71145800
_cell_length_b   10.65738700
_cell_length_c   12.36186700
_cell_angle_alpha   90.00000000
_cell_angle_beta   90.00000000
_cell_angle_gamma   90.00000000
_symmetry_Int_Tables_number   1
_chemical_formula_structural   TbEr2Hf(Co4P3)2
_chemical_formula_sum   'Tb2 Er4 Hf2 Co16 P12'
_cell_volume   488.96677896
_cell_formula_units_Z   2
loop_
 _symmetry_equiv_pos_site_id
 _symmetry_equiv_pos_as_xyz
  1  'x, y, z'
loop_
 _atom_site_type_symbol
 _atom_site_label
 _atom_site_symmetry_multiplicity
 _atom_site_fract_x
 _atom_site_fract_y
 _atom_site_fract_z
 _atom_site_occupancy
  Tb  Tb0  1  0.750000  0.250000  0.470552  1
  Tb  Tb1  1  0.250000  0.750000  0.529448  1
  Er  Er2  1  0.250000  0.927937  0.795772  1
  Er  Er3  1  0.250000  0.572063  0.795772  1
  Er  Er4  1  0.750000  0.072063  0.204228  1
  Er  Er5  1  0.750000  0.427937  0.204228  1
  Hf  Hf6  1  0.250000  0.250000  0.842809  1
  Hf  Hf7  1  0.750000  0.750000  0.157191  1
  Co  Co8  1  0.250000  0.250000  0.295596  1
  Co  Co9  1  0.750000  0.750000  0.704404  1
  Co  Co10  1  0.750000  0.250000  0.013086  1
  Co  Co11  1  0.250000  0.750000  0.986914  1
  Co  Co12  1  0.250000  0.418109  0.006523  1
  Co  Co13  1  0.250000  0.081891  0.006523  1
  Co  Co14  1  0.750000  0.581891  0.993477  1
  Co  Co15  1  0.750000  0.918109  0.993477  1
  Co  Co16  1  0.250000  0.455000  0.567195  1
  Co  Co17  1  0.250000  0.045000  0.567195  1
  Co  Co18  1  0.750000  0.545000  0.432805  1
  Co  Co19  1  0.750000  0.955000  0.432805  1
  Co  Co20  1  0.250000  0.872525  0.296719  1
  Co  Co21  1  0.250000  0.627475  0.296719  1
  Co  Co22  1  0.750000  0.127475  0.703281  1
  Co  Co23  1  0.750000  0.372525  0.703281  1
  P  P24  1  0.250000  0.250000  0.116336  1
  P  P25  1  0.750000  0.750000  0.883664  1
  P  P26  1  0.250000  0.250000  0.638619  1
  P  P27  1  0.750000  0.750000  0.361381  1
  P  P28  1  0.250000  0.440259  0.383547  1
  P  P29  1  0.250000  0.059741  0.383547  1
  P  P30  1  0.750000  0.559741  0.616453  1
  P  P31  1  0.750000  0.940259  0.616453  1
  P  P32  1  0.250000  0.911955  0.107403  1
  P  P33  1  0.250000  0.588045  0.107403  1
  P  P34  1  0.750000  0.088045  0.892597  1
  P  P35  1  0.750000  0.411955  0.892597  1
