# generated using pymatgen
data_CeTm4FeBi2
_symmetry_space_group_name_H-M   'P 1'
_cell_length_a   7.83852600
_cell_length_b   8.86547000
_cell_length_c   12.26163700
_cell_angle_alpha   90.00000000
_cell_angle_beta   90.00000000
_cell_angle_gamma   90.00000000
_symmetry_Int_Tables_number   1
_chemical_formula_structural   CeTm4FeBi2
_chemical_formula_sum   'Ce4 Tm16 Fe4 Bi8'
_cell_volume   852.08834037
_cell_formula_units_Z   4
loop_
 _symmetry_equiv_pos_site_id
 _symmetry_equiv_pos_as_xyz
  1  'x, y, z'
loop_
 _atom_site_type_symbol
 _atom_site_label
 _atom_site_symmetry_multiplicity
 _atom_site_fract_x
 _atom_site_fract_y
 _atom_site_fract_z
 _atom_site_occupancy
  Ce  Ce0  1  0.581875  0.750000  0.334555  1
  Ce  Ce1  1  0.081875  0.250000  0.165445  1
  Ce  Ce2  1  0.418125  0.250000  0.665445  1
  Ce  Ce3  1  0.918125  0.750000  0.834555  1
  Tm  Tm4  1  0.145688  0.750000  0.199971  1
  Tm  Tm5  1  0.645688  0.250000  0.300029  1
  Tm  Tm6  1  0.854312  0.250000  0.800029  1
  Tm  Tm7  1  0.354312  0.750000  0.699971  1
  Tm  Tm8  1  0.440664  0.750000  0.995863  1
  Tm  Tm9  1  0.940664  0.250000  0.504137  1
  Tm  Tm10  1  0.559336  0.250000  0.004137  1
  Tm  Tm11  1  0.059336  0.750000  0.495863  1
  Tm  Tm12  1  0.815053  0.949084  0.069921  1
  Tm  Tm13  1  0.315053  0.050916  0.430079  1
  Tm  Tm14  1  0.184947  0.449084  0.930079  1
  Tm  Tm15  1  0.684947  0.550916  0.569921  1
  Tm  Tm16  1  0.184947  0.050916  0.930079  1
  Tm  Tm17  1  0.684947  0.949084  0.569921  1
  Tm  Tm18  1  0.815053  0.550916  0.069921  1
  Tm  Tm19  1  0.315053  0.449084  0.430079  1
  Fe  Fe20  1  0.432953  0.750000  0.477606  1
  Fe  Fe21  1  0.932953  0.250000  0.022394  1
  Fe  Fe22  1  0.567047  0.250000  0.522394  1
  Fe  Fe23  1  0.067047  0.750000  0.977606  1
  Bi  Bi24  1  0.918007  0.988501  0.329011  1
  Bi  Bi25  1  0.418007  0.011499  0.170989  1
  Bi  Bi26  1  0.081993  0.488501  0.670989  1
  Bi  Bi27  1  0.581993  0.511499  0.829011  1
  Bi  Bi28  1  0.081993  0.011499  0.670989  1
  Bi  Bi29  1  0.581993  0.988501  0.829011  1
  Bi  Bi30  1  0.918007  0.511499  0.329011  1
  Bi  Bi31  1  0.418007  0.488501  0.170989  1
