# generated using pymatgen
data_K3Er(AsO4)2
_symmetry_space_group_name_H-M   'P 1'
_cell_length_a   5.58102976
_cell_length_b   5.58102961
_cell_length_c   8.12364600
_cell_angle_alpha   89.73933087
_cell_angle_beta   89.73933087
_cell_angle_gamma   62.96055519
_symmetry_Int_Tables_number   1
_chemical_formula_structural   K3Er(AsO4)2
_chemical_formula_sum   'K3 Er1 As2 O8'
_cell_volume   225.37300146
_cell_formula_units_Z   1
loop_
 _symmetry_equiv_pos_site_id
 _symmetry_equiv_pos_as_xyz
  1  'x, y, z'
loop_
 _atom_site_type_symbol
 _atom_site_label
 _atom_site_symmetry_multiplicity
 _atom_site_fract_x
 _atom_site_fract_y
 _atom_site_fract_z
 _atom_site_occupancy
  K  K0  1  0.306947  0.306947  0.714574  1
  K  K1  1  0.693053  0.693053  0.285426  1
  K  K2  1  0.000000  0.000000  0.500000  1
  Er  Er3  1  0.000000  0.000000  0.000000  1
  As  As4  1  0.653459  0.653459  0.790858  1
  As  As5  1  0.346541  0.346541  0.209142  1
  O  O6  1  0.261207  0.261207  0.392636  1
  O  O7  1  0.770985  0.770985  0.949735  1
  O  O8  1  0.694298  0.215644  0.199078  1
  O  O9  1  0.784356  0.305702  0.800922  1
  O  O10  1  0.229015  0.229015  0.050265  1
  O  O11  1  0.215644  0.694298  0.199078  1
  O  O12  1  0.305702  0.784356  0.800922  1
  O  O13  1  0.738793  0.738793  0.607364  1
