# generated using pymatgen
data_Hf8Zr7Nb(Ir2N)4
_symmetry_space_group_name_H-M   'P 1'
_cell_length_a   8.78643470
_cell_length_b   8.77472738
_cell_length_c   8.77472694
_cell_angle_alpha   59.67262394
_cell_angle_beta   59.63053963
_cell_angle_gamma   59.63053209
_symmetry_Int_Tables_number   1
_chemical_formula_structural   Hf8Zr7Nb(Ir2N)4
_chemical_formula_sum   'Hf8 Zr7 Nb1 Ir8 N4'
_cell_volume   474.50739966
_cell_formula_units_Z   1
loop_
 _symmetry_equiv_pos_site_id
 _symmetry_equiv_pos_as_xyz
  1  'x, y, z'
loop_
 _atom_site_type_symbol
 _atom_site_label
 _atom_site_symmetry_multiplicity
 _atom_site_fract_x
 _atom_site_fract_y
 _atom_site_fract_z
 _atom_site_occupancy
  Hf  Hf0  1  0.124073  0.625563  0.625563  1
  Hf  Hf1  1  0.625446  0.123824  0.625659  1
  Hf  Hf2  1  0.625446  0.625659  0.123824  1
  Hf  Hf3  1  0.815483  0.815450  0.184805  1
  Hf  Hf4  1  0.183254  0.183066  0.816830  1
  Hf  Hf5  1  0.815483  0.184805  0.815450  1
  Hf  Hf6  1  0.183254  0.816830  0.183066  1
  Hf  Hf7  1  0.184675  0.815857  0.815857  1
  Zr  Zr8  1  0.816287  0.183800  0.183800  1
  Zr  Zr9  1  0.435980  0.436273  0.062988  1
  Zr  Zr10  1  0.065805  0.065193  0.434459  1
  Zr  Zr11  1  0.435980  0.062988  0.436273  1
  Zr  Zr12  1  0.065805  0.434459  0.065193  1
  Zr  Zr13  1  0.062634  0.436765  0.436765  1
  Zr  Zr14  1  0.435021  0.064832  0.064832  1
  Nb  Nb15  1  0.624764  0.625373  0.625373  1
  Ir  Ir16  1  0.762506  0.415298  0.415298  1
  Ir  Ir17  1  0.414931  0.762318  0.415259  1
  Ir  Ir18  1  0.414931  0.415259  0.762318  1
  Ir  Ir19  1  0.409186  0.410081  0.410081  1
  Ir  Ir20  1  0.482269  0.836389  0.836389  1
  Ir  Ir21  1  0.836657  0.484630  0.833630  1
  Ir  Ir22  1  0.836657  0.833630  0.484630  1
  Ir  Ir23  1  0.842754  0.842296  0.842296  1
  N  N24  1  0.628925  0.122379  0.122379  1
  N  N25  1  0.122714  0.631779  0.123143  1
  N  N26  1  0.122714  0.123143  0.631779  1
  N  N27  1  0.126364  0.122062  0.122062  1
