# generated using pymatgen
data_Dy16Cd4Ru3Pt
_symmetry_space_group_name_H-M   'P 1'
_cell_length_a   9.59448179
_cell_length_b   9.67220284
_cell_length_c   9.67220200
_cell_angle_alpha   59.99999603
_cell_angle_beta   59.73166657
_cell_angle_gamma   59.73166407
_symmetry_Int_Tables_number   1
_chemical_formula_structural   Dy16Cd4Ru3Pt
_chemical_formula_sum   'Dy16 Cd4 Ru3 Pt1'
_cell_volume   632.09719285
_cell_formula_units_Z   1
loop_
 _symmetry_equiv_pos_site_id
 _symmetry_equiv_pos_as_xyz
  1  'x, y, z'
loop_
 _atom_site_type_symbol
 _atom_site_label
 _atom_site_symmetry_multiplicity
 _atom_site_fract_x
 _atom_site_fract_y
 _atom_site_fract_z
 _atom_site_occupancy
  Dy  Dy0  1  0.345292  0.350793  0.350793  1
  Dy  Dy1  1  0.345292  0.350793  0.953123  1
  Dy  Dy2  1  0.345292  0.953123  0.350793  1
  Dy  Dy3  1  0.963113  0.345629  0.345629  1
  Dy  Dy4  1  0.815436  0.189265  0.189265  1
  Dy  Dy5  1  0.188524  0.811409  0.811409  1
  Dy  Dy6  1  0.188524  0.811409  0.188658  1
  Dy  Dy7  1  0.815436  0.189265  0.806034  1
  Dy  Dy8  1  0.188524  0.188658  0.811409  1
  Dy  Dy9  1  0.815436  0.806034  0.189265  1
  Dy  Dy10  1  0.935322  0.562999  0.562999  1
  Dy  Dy11  1  0.559092  0.937577  0.937577  1
  Dy  Dy12  1  0.559092  0.937577  0.565753  1
  Dy  Dy13  1  0.935322  0.562998  0.938679  1
  Dy  Dy14  1  0.559092  0.565753  0.937577  1
  Dy  Dy15  1  0.935322  0.938679  0.562998  1
  Cd  Cd16  1  0.580218  0.579809  0.579809  1
  Cd  Cd17  1  0.580218  0.579809  0.260163  1
  Cd  Cd18  1  0.580218  0.260163  0.579809  1
  Cd  Cd19  1  0.257160  0.580946  0.580946  1
  Ru  Ru20  1  0.144899  0.138562  0.138562  1
  Ru  Ru21  1  0.144899  0.138562  0.577978  1
  Ru  Ru22  1  0.144899  0.577978  0.138562  1
  Pt  Pt23  1  0.573384  0.142206  0.142206  1
