# generated using pymatgen
data_TbZr5Co16(TcP6)2
_symmetry_space_group_name_H-M   'P 1'
_cell_length_a   3.66886600
_cell_length_b   10.37032400
_cell_length_c   12.03240800
_cell_angle_alpha   90.00000000
_cell_angle_beta   90.00000000
_cell_angle_gamma   90.00000000
_symmetry_Int_Tables_number   1
_chemical_formula_structural   TbZr5Co16(TcP6)2
_chemical_formula_sum   'Tb1 Zr5 Co16 Tc2 P12'
_cell_volume   457.80098743
_cell_formula_units_Z   1
loop_
 _symmetry_equiv_pos_site_id
 _symmetry_equiv_pos_as_xyz
  1  'x, y, z'
loop_
 _atom_site_type_symbol
 _atom_site_label
 _atom_site_symmetry_multiplicity
 _atom_site_fract_x
 _atom_site_fract_y
 _atom_site_fract_z
 _atom_site_occupancy
  Tb  Tb0  1  0.500000  0.000000  0.472299  1
  Zr  Zr1  1  0.000000  0.500000  0.529062  1
  Zr  Zr2  1  0.500000  0.819668  0.207165  1
  Zr  Zr3  1  0.500000  0.180332  0.207165  1
  Zr  Zr4  1  0.000000  0.678444  0.791843  1
  Zr  Zr5  1  0.000000  0.321556  0.791843  1
  Co  Co6  1  0.500000  0.500000  0.702936  1
  Co  Co7  1  0.000000  0.000000  0.293631  1
  Co  Co8  1  0.000000  0.500000  0.986581  1
  Co  Co9  1  0.500000  0.000000  0.013430  1
  Co  Co10  1  0.500000  0.332890  0.989116  1
  Co  Co11  1  0.500000  0.667110  0.989116  1
  Co  Co12  1  0.000000  0.168441  0.010354  1
  Co  Co13  1  0.000000  0.831559  0.010354  1
  Co  Co14  1  0.500000  0.301736  0.431781  1
  Co  Co15  1  0.500000  0.698264  0.431781  1
  Co  Co16  1  0.000000  0.204966  0.568707  1
  Co  Co17  1  0.000000  0.795034  0.568707  1
  Co  Co18  1  0.500000  0.875583  0.708999  1
  Co  Co19  1  0.500000  0.124417  0.708999  1
  Co  Co20  1  0.000000  0.622960  0.292519  1
  Co  Co21  1  0.000000  0.377040  0.292519  1
  Tc  Tc22  1  0.500000  0.500000  0.159183  1
  Tc  Tc23  1  0.000000  0.000000  0.842686  1
  P  P24  1  0.500000  0.500000  0.878065  1
  P  P25  1  0.000000  0.000000  0.119630  1
  P  P26  1  0.500000  0.500000  0.354366  1
  P  P27  1  0.000000  0.000000  0.649358  1
  P  P28  1  0.500000  0.316371  0.617145  1
  P  P29  1  0.500000  0.683629  0.617145  1
  P  P30  1  0.000000  0.186373  0.381422  1
  P  P31  1  0.000000  0.813627  0.381422  1
  P  P32  1  0.500000  0.843024  0.890883  1
  P  P33  1  0.500000  0.156976  0.890883  1
  P  P34  1  0.000000  0.655906  0.109453  1
  P  P35  1  0.000000  0.344094  0.109453  1
