# generated using pymatgen
data_U4TiRe3C8
_symmetry_space_group_name_H-M   'P 1'
_cell_length_a   3.19152900
_cell_length_b   5.59933297
_cell_length_c   11.05785691
_cell_angle_alpha   89.76481751
_cell_angle_beta   90.00000000
_cell_angle_gamma   90.00000000
_symmetry_Int_Tables_number   1
_chemical_formula_structural   U4TiRe3C8
_chemical_formula_sum   'U4 Ti1 Re3 C8'
_cell_volume   197.60703231
_cell_formula_units_Z   1
loop_
 _symmetry_equiv_pos_site_id
 _symmetry_equiv_pos_as_xyz
  1  'x, y, z'
loop_
 _atom_site_type_symbol
 _atom_site_label
 _atom_site_symmetry_multiplicity
 _atom_site_fract_x
 _atom_site_fract_y
 _atom_site_fract_z
 _atom_site_occupancy
  U  U0  1  0.250000  0.083298  0.858594  1
  U  U1  1  0.750000  0.914991  0.142762  1
  U  U2  1  0.250000  0.579130  0.639739  1
  U  U3  1  0.750000  0.419980  0.358316  1
  Ti  Ti4  1  0.750000  0.078789  0.601912  1
  Re  Re5  1  0.750000  0.582723  0.896682  1
  Re  Re6  1  0.250000  0.925592  0.397237  1
  Re  Re7  1  0.250000  0.416790  0.103655  1
  C  C8  1  0.250000  0.745368  0.993157  1
  C  C9  1  0.750000  0.252774  0.007643  1
  C  C10  1  0.250000  0.249355  0.506032  1
  C  C11  1  0.750000  0.756063  0.491916  1
  C  C12  1  0.250000  0.161848  0.244753  1
  C  C13  1  0.750000  0.338264  0.746604  1
  C  C14  1  0.250000  0.661087  0.254040  1
  C  C15  1  0.750000  0.833949  0.756959  1
