# generated using pymatgen
data_TmMn2(Ga3Fe2)2
_symmetry_space_group_name_H-M   'P 1'
_cell_length_a   5.07048993
_cell_length_b   6.58326921
_cell_length_c   6.58326897
_cell_angle_alpha   79.76020142
_cell_angle_beta   67.34978552
_cell_angle_gamma   67.34978435
_symmetry_Int_Tables_number   1
_chemical_formula_structural   TmMn2(Ga3Fe2)2
_chemical_formula_sum   'Tm1 Mn2 Ga6 Fe4'
_cell_volume   187.04971835
_cell_formula_units_Z   1
loop_
 _symmetry_equiv_pos_site_id
 _symmetry_equiv_pos_as_xyz
  1  'x, y, z'
loop_
 _atom_site_type_symbol
 _atom_site_label
 _atom_site_symmetry_multiplicity
 _atom_site_fract_x
 _atom_site_fract_y
 _atom_site_fract_z
 _atom_site_occupancy
  Tm  Tm0  1  0.000000  0.000000  0.000000  1
  Mn  Mn1  1  0.500000  0.239197  0.760803  1
  Mn  Mn2  1  0.500000  0.760803  0.239197  1
  Ga  Ga3  1  0.000000  0.666595  0.333405  1
  Ga  Ga4  1  0.000000  0.333405  0.666595  1
  Ga  Ga5  1  0.338832  0.661168  0.661168  1
  Ga  Ga6  1  0.661168  0.338832  0.338832  1
  Ga  Ga7  1  0.307100  0.192900  0.192900  1
  Ga  Ga8  1  0.692900  0.807100  0.807100  1
  Fe  Fe9  1  0.000000  0.500000  0.000000  1
  Fe  Fe10  1  0.500000  0.500000  0.000000  1
  Fe  Fe11  1  0.000000  0.000000  0.500000  1
  Fe  Fe12  1  0.500000  0.000000  0.500000  1
