# generated using pymatgen
data_Th8Al4Si11Pt
_symmetry_space_group_name_H-M   'P 1'
_cell_length_a   8.36681600
_cell_length_b   8.36681334
_cell_length_c   8.35555800
_cell_angle_alpha   90.00120524
_cell_angle_beta   89.99880845
_cell_angle_gamma   120.11371255
_symmetry_Int_Tables_number   1
_chemical_formula_structural   Th8Al4Si11Pt
_chemical_formula_sum   'Th8 Al4 Si11 Pt1'
_cell_volume   505.97331586
_cell_formula_units_Z   1
loop_
 _symmetry_equiv_pos_site_id
 _symmetry_equiv_pos_as_xyz
  1  'x, y, z'
loop_
 _atom_site_type_symbol
 _atom_site_label
 _atom_site_symmetry_multiplicity
 _atom_site_fract_x
 _atom_site_fract_y
 _atom_site_fract_z
 _atom_site_occupancy
  Th  Th0  1  0.499019  0.500981  0.748211  1
  Th  Th1  1  0.499148  0.500852  0.251784  1
  Th  Th2  1  0.000158  0.501934  0.745691  1
  Th  Th3  1  0.999944  0.501844  0.254305  1
  Th  Th4  1  0.498067  0.999843  0.745692  1
  Th  Th5  1  0.498156  0.000055  0.254305  1
  Th  Th6  1  0.001038  0.998963  0.745216  1
  Th  Th7  1  0.001040  0.998960  0.254763  1
  Al  Al8  1  0.667436  0.332564  0.999885  1
  Al  Al9  1  0.333207  0.666793  0.000140  1
  Al  Al10  1  0.332889  0.667111  0.499878  1
  Al  Al11  1  0.666201  0.333799  0.500146  1
  Si  Si12  1  0.166262  0.833738  0.000033  1
  Si  Si13  1  0.329009  0.165250  0.999962  1
  Si  Si14  1  0.166144  0.833856  0.499965  1
  Si  Si15  1  0.668322  0.832851  0.000033  1
  Si  Si16  1  0.835069  0.164931  0.500021  1
  Si  Si17  1  0.834750  0.670991  0.999962  1
  Si  Si18  1  0.668274  0.834117  0.499976  1
  Si  Si19  1  0.167149  0.331678  0.000033  1
  Si  Si20  1  0.329501  0.162674  0.500022  1
  Si  Si21  1  0.165883  0.331726  0.499976  1
  Si  Si22  1  0.837326  0.670499  0.500022  1
  Pt  Pt23  1  0.836010  0.163990  0.999977  1
