# generated using pymatgen
data_Sr5(InN2)2
_symmetry_space_group_name_H-M   'P 1'
_cell_length_a   6.64818754
_cell_length_b   6.64818819
_cell_length_c   15.59019300
_cell_angle_alpha   90.00000000
_cell_angle_beta   90.00000000
_cell_angle_gamma   133.26448662
_symmetry_Int_Tables_number   1
_chemical_formula_structural   Sr5(InN2)2
_chemical_formula_sum   'Sr10 In4 N8'
_cell_volume   501.77308733
_cell_formula_units_Z   2
loop_
 _symmetry_equiv_pos_site_id
 _symmetry_equiv_pos_as_xyz
  1  'x, y, z'
loop_
 _atom_site_type_symbol
 _atom_site_label
 _atom_site_symmetry_multiplicity
 _atom_site_fract_x
 _atom_site_fract_y
 _atom_site_fract_z
 _atom_site_occupancy
  Sr  Sr0  1  0.381925  0.618075  0.325674  1
  Sr  Sr1  1  0.118075  0.881925  0.825674  1
  Sr  Sr2  1  0.618075  0.381925  0.674326  1
  Sr  Sr3  1  0.500000  0.500000  0.000000  1
  Sr  Sr4  1  0.231098  0.768902  0.079408  1
  Sr  Sr5  1  0.731098  0.268902  0.420592  1
  Sr  Sr6  1  0.268902  0.731098  0.579408  1
  Sr  Sr7  1  0.000000  0.000000  0.500000  1
  Sr  Sr8  1  0.881925  0.118075  0.174326  1
  Sr  Sr9  1  0.768902  0.231098  0.920592  1
  In  In10  1  0.904665  0.095335  0.694399  1
  In  In11  1  0.095335  0.904665  0.305601  1
  In  In12  1  0.404665  0.595335  0.805601  1
  In  In13  1  0.595335  0.404665  0.194399  1
  N  N14  1  0.083085  0.916915  0.655544  1
  N  N15  1  0.195296  0.804704  0.423220  1
  N  N16  1  0.804704  0.195296  0.576780  1
  N  N17  1  0.583085  0.416915  0.844456  1
  N  N18  1  0.416915  0.583085  0.155544  1
  N  N19  1  0.304704  0.695296  0.923220  1
  N  N20  1  0.916915  0.083085  0.344456  1
  N  N21  1  0.695296  0.304704  0.076780  1
