# generated using pymatgen
data_Ti11V8Si16Rh
_symmetry_space_group_name_H-M   'P 1'
_cell_length_a   6.53761544
_cell_length_b   6.53761538
_cell_length_c   11.99366886
_cell_angle_alpha   89.74242186
_cell_angle_beta   90.25757817
_cell_angle_gamma   89.76711448
_symmetry_Int_Tables_number   1
_chemical_formula_structural   Ti11V8Si16Rh
_chemical_formula_sum   'Ti11 V8 Si16 Rh1'
_cell_volume   512.59975089
_cell_formula_units_Z   1
loop_
 _symmetry_equiv_pos_site_id
 _symmetry_equiv_pos_as_xyz
  1  'x, y, z'
loop_
 _atom_site_type_symbol
 _atom_site_label
 _atom_site_symmetry_multiplicity
 _atom_site_fract_x
 _atom_site_fract_y
 _atom_site_fract_z
 _atom_site_occupancy
  Ti  Ti0  1  0.001449  0.343461  0.220392  1
  Ti  Ti1  1  0.160242  0.502559  0.469324  1
  Ti  Ti2  1  0.835549  0.498085  0.969601  1
  Ti  Ti3  1  0.502559  0.160242  0.530676  1
  Ti  Ti4  1  0.498085  0.835549  0.030399  1
  Ti  Ti5  1  0.998314  0.659119  0.720795  1
  Ti  Ti6  1  0.343461  0.001449  0.779608  1
  Ti  Ti7  1  0.659119  0.998314  0.279205  1
  Ti  Ti8  1  0.332641  0.667460  0.248253  1
  Ti  Ti9  1  0.667460  0.332641  0.751747  1
  Ti  Ti10  1  0.834058  0.834058  0.500000  1
  V  V11  1  0.995136  0.153522  0.623274  1
  V  V12  1  0.347335  0.501066  0.869795  1
  V  V13  1  0.653285  0.505565  0.371580  1
  V  V14  1  0.501066  0.347335  0.130205  1
  V  V15  1  0.505565  0.653285  0.628420  1
  V  V16  1  0.003659  0.836351  0.120782  1
  V  V17  1  0.153522  0.995136  0.376726  1
  V  V18  1  0.836351  0.003659  0.879218  1
  Si  Si19  1  0.044697  0.294913  0.816630  1
  Si  Si20  1  0.206827  0.538773  0.059295  1
  Si  Si21  1  0.798766  0.457762  0.563054  1
  Si  Si22  1  0.538773  0.206827  0.940705  1
  Si  Si23  1  0.457762  0.798766  0.436946  1
  Si  Si24  1  0.958076  0.702489  0.312853  1
  Si  Si25  1  0.294913  0.044697  0.183370  1
  Si  Si26  1  0.702489  0.958076  0.687147  1
  Si  Si27  1  0.290355  0.365581  0.673699  1
  Si  Si28  1  0.129488  0.793383  0.923262  1
  Si  Si29  1  0.866533  0.209008  0.423193  1
  Si  Si30  1  0.793383  0.129488  0.076738  1
  Si  Si31  1  0.209008  0.866533  0.576807  1
  Si  Si32  1  0.709171  0.633982  0.173294  1
  Si  Si33  1  0.365581  0.290355  0.326301  1
  Si  Si34  1  0.633982  0.709171  0.826706  1
  Rh  Rh35  1  0.171341  0.171341  0.000000  1
