# generated using pymatgen
data_Ba5Ho2Al2PbO13
_symmetry_space_group_name_H-M   'P 1'
_cell_length_a   6.03317300
_cell_length_b   6.03317231
_cell_length_c   25.19068900
_cell_angle_alpha   90.00000000
_cell_angle_beta   90.00000000
_cell_angle_gamma   120.00000926
_symmetry_Int_Tables_number   1
_chemical_formula_structural   Ba5Ho2Al2PbO13
_chemical_formula_sum   'Ba10 Ho4 Al4 Pb2 O26'
_cell_volume   794.07613762
_cell_formula_units_Z   2
loop_
 _symmetry_equiv_pos_site_id
 _symmetry_equiv_pos_as_xyz
  1  'x, y, z'
loop_
 _atom_site_type_symbol
 _atom_site_label
 _atom_site_symmetry_multiplicity
 _atom_site_fract_x
 _atom_site_fract_y
 _atom_site_fract_z
 _atom_site_occupancy
  Ba  Ba0  1  0.333333  0.666667  0.541404  1
  Ba  Ba1  1  0.666667  0.333333  0.458596  1
  Ba  Ba2  1  0.666667  0.333333  0.041404  1
  Ba  Ba3  1  0.333333  0.666667  0.958596  1
  Ba  Ba4  1  0.000000  0.000000  0.137649  1
  Ba  Ba5  1  0.000000  0.000000  0.862351  1
  Ba  Ba6  1  0.000000  0.000000  0.637649  1
  Ba  Ba7  1  0.000000  0.000000  0.362351  1
  Ba  Ba8  1  0.333333  0.666667  0.250000  1
  Ba  Ba9  1  0.666667  0.333333  0.750000  1
  Ho  Ho10  1  0.333333  0.666667  0.105261  1
  Ho  Ho11  1  0.666667  0.333333  0.894739  1
  Ho  Ho12  1  0.666667  0.333333  0.605261  1
  Ho  Ho13  1  0.333333  0.666667  0.394739  1
  Al  Al14  1  0.333333  0.666667  0.681218  1
  Al  Al15  1  0.666667  0.333333  0.318782  1
  Al  Al16  1  0.666667  0.333333  0.181218  1
  Al  Al17  1  0.333333  0.666667  0.818782  1
  Pb  Pb18  1  0.000000  0.000000  0.000000  1
  Pb  Pb19  1  0.000000  0.000000  0.500000  1
  O  O20  1  0.505386  0.010771  0.158863  1
  O  O21  1  0.494614  0.989229  0.841137  1
  O  O22  1  0.989229  0.494614  0.158863  1
  O  O23  1  0.494614  0.989229  0.658863  1
  O  O24  1  0.010771  0.505386  0.841137  1
  O  O25  1  0.505386  0.010771  0.341137  1
  O  O26  1  0.505386  0.494614  0.158863  1
  O  O27  1  0.010771  0.505386  0.658863  1
  O  O28  1  0.494614  0.505386  0.841137  1
  O  O29  1  0.989229  0.494614  0.341137  1
  O  O30  1  0.494614  0.505386  0.658863  1
  O  O31  1  0.505386  0.494614  0.341137  1
  O  O32  1  0.165932  0.331864  0.051905  1
  O  O33  1  0.834068  0.668136  0.948095  1
  O  O34  1  0.668136  0.834068  0.051905  1
  O  O35  1  0.834068  0.668136  0.551905  1
  O  O36  1  0.331864  0.165932  0.948095  1
  O  O37  1  0.165932  0.331864  0.448095  1
  O  O38  1  0.165932  0.834068  0.051905  1
  O  O39  1  0.331864  0.165932  0.551905  1
  O  O40  1  0.834068  0.165932  0.948095  1
  O  O41  1  0.668136  0.834068  0.448095  1
  O  O42  1  0.834068  0.165932  0.551905  1
  O  O43  1  0.165932  0.834068  0.448095  1
  O  O44  1  0.333333  0.666667  0.750000  1
  O  O45  1  0.666667  0.333333  0.250000  1
