# generated using pymatgen
data_CaAc4Sn3
_symmetry_space_group_name_H-M   'P 1'
_cell_length_a   10.01612935
_cell_length_b   10.01612944
_cell_length_c   10.01612966
_cell_angle_alpha   129.56603511
_cell_angle_beta   129.56603582
_cell_angle_gamma   74.10148684
_symmetry_Int_Tables_number   1
_chemical_formula_structural   CaAc4Sn3
_chemical_formula_sum   'Ca2 Ac8 Sn6'
_cell_volume   582.28319332
_cell_formula_units_Z   2
loop_
 _symmetry_equiv_pos_site_id
 _symmetry_equiv_pos_as_xyz
  1  'x, y, z'
loop_
 _atom_site_type_symbol
 _atom_site_label
 _atom_site_symmetry_multiplicity
 _atom_site_fract_x
 _atom_site_fract_y
 _atom_site_fract_z
 _atom_site_occupancy
  Ca  Ca0  1  0.000000  0.000000  0.000000  1
  Ca  Ca1  1  0.500000  0.500000  0.000000  1
  Ac  Ac2  1  0.816315  0.316315  0.836392  1
  Ac  Ac3  1  0.183685  0.683685  0.163608  1
  Ac  Ac4  1  0.479923  0.979923  0.163608  1
  Ac  Ac5  1  0.316315  0.479923  0.500000  1
  Ac  Ac6  1  0.020077  0.183685  0.500000  1
  Ac  Ac7  1  0.520077  0.020077  0.836392  1
  Ac  Ac8  1  0.683685  0.520077  0.500000  1
  Ac  Ac9  1  0.979923  0.816315  0.500000  1
  Sn  Sn10  1  0.131373  0.631373  0.762747  1
  Sn  Sn11  1  0.868627  0.368627  0.237253  1
  Sn  Sn12  1  0.631373  0.868627  0.500000  1
  Sn  Sn13  1  0.368627  0.131373  0.500000  1
  Sn  Sn14  1  0.250000  0.250000  0.000000  1
  Sn  Sn15  1  0.750000  0.750000  0.000000  1
