# generated using pymatgen
data_Rb4Li2YInAs4
_symmetry_space_group_name_H-M   'P 1'
_cell_length_a   9.38732811
_cell_length_b   9.38733303
_cell_length_c   9.38732840
_cell_angle_alpha   137.75307324
_cell_angle_beta   61.33226143
_cell_angle_gamma   137.68667397
_symmetry_Int_Tables_number   1
_chemical_formula_structural   Rb4Li2YInAs4
_chemical_formula_sum   'Rb4 Li2 Y1 In1 As4'
_cell_volume   370.19603227
_cell_formula_units_Z   1
loop_
 _symmetry_equiv_pos_site_id
 _symmetry_equiv_pos_as_xyz
  1  'x, y, z'
loop_
 _atom_site_type_symbol
 _atom_site_label
 _atom_site_symmetry_multiplicity
 _atom_site_fract_x
 _atom_site_fract_y
 _atom_site_fract_z
 _atom_site_occupancy
  Rb  Rb0  1  0.333873  0.786042  0.098926  1
  Rb  Rb1  1  0.166129  0.265054  0.452170  1
  Rb  Rb2  1  0.812885  0.713959  0.547832  1
  Rb  Rb3  1  0.687116  0.234947  0.901076  1
  Li  Li4  1  0.750001  0.250000  0.500001  1
  Li  Li5  1  0.250000  0.750000  0.500000  1
  Y  Y6  1  0.250001  0.250000  0.000001  1
  In  In7  1  0.749996  0.750000  0.999996  1
  As  As8  1  0.903670  0.239810  0.152096  1
  As  As9  1  0.596332  0.748432  0.336144  1
  As  As10  1  0.412286  0.260190  0.663858  1
  As  As11  1  0.087713  0.751570  0.847901  1
