# generated using pymatgen
data_Pr6BCCl6
_symmetry_space_group_name_H-M   'P 1'
_cell_length_a   9.78800863
_cell_length_b   9.78800296
_cell_length_c   9.87207548
_cell_angle_alpha   109.47125863
_cell_angle_beta   109.47122740
_cell_angle_gamma   109.12356821
_symmetry_Int_Tables_number   1
_chemical_formula_structural   Pr6BCCl6
_chemical_formula_sum   'Pr12 B2 C2 Cl12'
_cell_volume   731.17312540
_cell_formula_units_Z   2
loop_
 _symmetry_equiv_pos_site_id
 _symmetry_equiv_pos_as_xyz
  1  'x, y, z'
loop_
 _atom_site_type_symbol
 _atom_site_label
 _atom_site_symmetry_multiplicity
 _atom_site_fract_x
 _atom_site_fract_y
 _atom_site_fract_z
 _atom_site_occupancy
  Pr  Pr0  1  0.472010  0.481528  0.238535  1
  Pr  Pr1  1  0.742993  0.233475  0.261465  1
  Pr  Pr2  1  0.743634  0.011991  0.481263  1
  Pr  Pr3  1  0.237627  0.469271  0.481262  1
  Pr  Pr4  1  0.266526  0.757007  0.238536  1
  Pr  Pr5  1  0.030729  0.262372  0.018737  1
  Pr  Pr6  1  0.018472  0.027991  0.261465  1
  Pr  Pr7  1  0.488008  0.756366  0.018738  1
  Pr  Pr8  1  0.482931  0.232931  0.465860  1
  Pr  Pr9  1  0.011827  0.488172  0.750000  1
  Pr  Pr10  1  0.267070  0.017070  0.034140  1
  Pr  Pr11  1  0.238173  0.261826  0.750000  1
  B  B12  1  0.999631  0.249630  0.499260  1
  B  B13  1  0.250370  0.500370  0.000740  1
  C  C14  1  0.249670  0.250330  0.250000  1
  C  C15  1  0.500330  0.999670  0.250000  1
  Cl  Cl16  1  0.251769  0.757785  0.746412  1
  Cl  Cl17  1  0.511375  0.505359  0.753589  1
  Cl  Cl18  1  0.989054  0.746045  0.994461  1
  Cl  Cl19  1  0.742213  0.248232  0.753589  1
  Cl  Cl20  1  0.994641  0.988623  0.746410  1
  Cl  Cl21  1  0.251583  0.994593  0.505538  1
  Cl  Cl22  1  0.753956  0.510947  0.505539  1
  Cl  Cl23  1  0.505409  0.248417  0.994462  1
  Cl  Cl24  1  0.754942  0.745057  0.249999  1
  Cl  Cl25  1  0.744493  0.994493  0.988988  1
  Cl  Cl26  1  0.995058  0.504943  0.250001  1
  Cl  Cl27  1  0.505507  0.755506  0.511012  1
