# generated using pymatgen
data_SmU2Pa3(Ni3Bi4)2
_symmetry_space_group_name_H-M   'P 1'
_cell_length_a   8.34608177
_cell_length_b   8.39777874
_cell_length_c   8.36226563
_cell_angle_alpha   109.60400722
_cell_angle_beta   109.30776406
_cell_angle_gamma   109.40355402
_symmetry_Int_Tables_number   1
_chemical_formula_structural   SmU2Pa3(Ni3Bi4)2
_chemical_formula_sum   'Sm1 U2 Pa3 Ni6 Bi8'
_cell_volume   451.72362773
_cell_formula_units_Z   1
loop_
 _symmetry_equiv_pos_site_id
 _symmetry_equiv_pos_as_xyz
  1  'x, y, z'
loop_
 _atom_site_type_symbol
 _atom_site_label
 _atom_site_symmetry_multiplicity
 _atom_site_fract_x
 _atom_site_fract_y
 _atom_site_fract_z
 _atom_site_occupancy
  Sm  Sm0  1  0.750474  0.374465  0.625058  1
  U  U1  1  0.621672  0.750811  0.380723  1
  U  U2  1  0.258078  0.130921  0.878506  1
  Pa  Pa3  1  0.125629  0.876835  0.249106  1
  Pa  Pa4  1  0.370868  0.622353  0.745161  1
  Pa  Pa5  1  0.873593  0.251133  0.123734  1
  Ni  Ni6  1  0.629262  0.363688  0.236558  1
  Ni  Ni7  1  0.880744  0.129537  0.768607  1
  Ni  Ni8  1  0.365695  0.247124  0.622117  1
  Ni  Ni9  1  0.133058  0.753626  0.880188  1
  Ni  Ni10  1  0.239197  0.618676  0.371820  1
  Ni  Ni11  1  0.755447  0.882069  0.120922  1
  Bi  Bi12  1  0.334132  0.331404  0.330831  1
  Bi  Bi13  1  0.168887  0.500380  0.999386  1
  Bi  Bi14  1  0.995747  0.164492  0.500597  1
  Bi  Bi15  1  0.834486  0.831472  0.831390  1
  Bi  Bi16  1  0.500132  0.996679  0.167494  1
  Bi  Bi17  1  0.666922  0.504180  0.999886  1
  Bi  Bi18  1  0.498271  0.000253  0.666111  1
  Bi  Bi19  1  0.997706  0.669899  0.501806  1
