# generated using pymatgen
data_Ca3(SnPt)2
_symmetry_space_group_name_H-M   'P 1'
_cell_length_a   5.86028600
_cell_length_b   8.52582500
_cell_length_c   14.01409000
_cell_angle_alpha   90.00000000
_cell_angle_beta   90.00000000
_cell_angle_gamma   90.00000000
_symmetry_Int_Tables_number   1
_chemical_formula_structural   Ca3(SnPt)2
_chemical_formula_sum   'Ca12 Sn8 Pt8'
_cell_volume   700.19680996
_cell_formula_units_Z   4
loop_
 _symmetry_equiv_pos_site_id
 _symmetry_equiv_pos_as_xyz
  1  'x, y, z'
loop_
 _atom_site_type_symbol
 _atom_site_label
 _atom_site_symmetry_multiplicity
 _atom_site_fract_x
 _atom_site_fract_y
 _atom_site_fract_z
 _atom_site_occupancy
  Ca  Ca0  1  0.151587  0.607487  0.096642  1
  Ca  Ca1  1  0.151587  0.892513  0.903358  1
  Ca  Ca2  1  0.848413  0.107487  0.403358  1
  Ca  Ca3  1  0.848413  0.392513  0.596642  1
  Ca  Ca4  1  0.848413  0.392513  0.903358  1
  Ca  Ca5  1  0.848413  0.107487  0.096642  1
  Ca  Ca6  1  0.151587  0.892513  0.596642  1
  Ca  Ca7  1  0.151587  0.607487  0.403358  1
  Ca  Ca8  1  0.371297  0.245516  0.250000  1
  Ca  Ca9  1  0.371297  0.254484  0.750000  1
  Ca  Ca10  1  0.628703  0.745516  0.250000  1
  Ca  Ca11  1  0.628703  0.754484  0.750000  1
  Sn  Sn12  1  0.348985  0.250000  0.000000  1
  Sn  Sn13  1  0.651015  0.750000  0.500000  1
  Sn  Sn14  1  0.651015  0.750000  0.000000  1
  Sn  Sn15  1  0.348985  0.250000  0.500000  1
  Sn  Sn16  1  0.874358  0.403464  0.250000  1
  Sn  Sn17  1  0.874358  0.096536  0.750000  1
  Sn  Sn18  1  0.125642  0.903464  0.250000  1
  Sn  Sn19  1  0.125642  0.596536  0.750000  1
  Pt  Pt20  1  0.627626  0.462411  0.091146  1
  Pt  Pt21  1  0.627626  0.037589  0.908854  1
  Pt  Pt22  1  0.372374  0.962411  0.408854  1
  Pt  Pt23  1  0.372374  0.537589  0.591146  1
  Pt  Pt24  1  0.372374  0.537589  0.908854  1
  Pt  Pt25  1  0.372374  0.962411  0.091146  1
  Pt  Pt26  1  0.627626  0.037589  0.591146  1
  Pt  Pt27  1  0.627626  0.462411  0.408854  1
