# generated using pymatgen
data_Ac12Co3Si8Ni
_symmetry_space_group_name_H-M   'P 1'
_cell_length_a   4.37866300
_cell_length_b   12.47853837
_cell_length_c   12.44138572
_cell_angle_alpha   90.30346579
_cell_angle_beta   90.00000000
_cell_angle_gamma   90.00000000
_symmetry_Int_Tables_number   1
_chemical_formula_structural   Ac12Co3Si8Ni
_chemical_formula_sum   'Ac12 Co3 Si8 Ni1'
_cell_volume   679.77924937
_cell_formula_units_Z   1
loop_
 _symmetry_equiv_pos_site_id
 _symmetry_equiv_pos_as_xyz
  1  'x, y, z'
loop_
 _atom_site_type_symbol
 _atom_site_label
 _atom_site_symmetry_multiplicity
 _atom_site_fract_x
 _atom_site_fract_y
 _atom_site_fract_z
 _atom_site_occupancy
  Ac  Ac0  1  0.250000  0.056771  0.886251  1
  Ac  Ac1  1  0.250000  0.443764  0.386126  1
  Ac  Ac2  1  0.750000  0.943760  0.115110  1
  Ac  Ac3  1  0.750000  0.556889  0.615085  1
  Ac  Ac4  1  0.250000  0.128081  0.559853  1
  Ac  Ac5  1  0.250000  0.370639  0.060662  1
  Ac  Ac6  1  0.750000  0.873299  0.439063  1
  Ac  Ac7  1  0.750000  0.625182  0.940498  1
  Ac  Ac8  1  0.250000  0.806252  0.709025  1
  Ac  Ac9  1  0.250000  0.696870  0.212503  1
  Ac  Ac10  1  0.750000  0.197167  0.288060  1
  Ac  Ac11  1  0.750000  0.302210  0.787922  1
  Co  Co12  1  0.250000  0.364906  0.631230  1
  Co  Co13  1  0.250000  0.133742  0.131081  1
  Co  Co14  1  0.750000  0.634623  0.369543  1
  Si  Si15  1  0.250000  0.816691  0.960923  1
  Si  Si16  1  0.250000  0.681433  0.462271  1
  Si  Si17  1  0.750000  0.179474  0.038218  1
  Si  Si18  1  0.750000  0.319726  0.538597  1
  Si  Si19  1  0.250000  0.486823  0.795686  1
  Si  Si20  1  0.250000  0.012271  0.295259  1
  Si  Si21  1  0.750000  0.511888  0.204265  1
  Si  Si22  1  0.750000  0.990728  0.701703  1
  Ni  Ni23  1  0.750000  0.866812  0.871063  1
