# generated using pymatgen
data_Pr3NdCl6
_symmetry_space_group_name_H-M   'P 1'
_cell_length_a   8.20056722
_cell_length_b   8.20056571
_cell_length_c   10.66191773
_cell_angle_alpha   117.02842991
_cell_angle_beta   117.02842360
_cell_angle_gamma   28.88950966
_symmetry_Int_Tables_number   1
_chemical_formula_structural   Pr3NdCl6
_chemical_formula_sum   'Pr3 Nd1 Cl6'
_cell_volume   305.89220894
_cell_formula_units_Z   1
loop_
 _symmetry_equiv_pos_site_id
 _symmetry_equiv_pos_as_xyz
  1  'x, y, z'
loop_
 _atom_site_type_symbol
 _atom_site_label
 _atom_site_symmetry_multiplicity
 _atom_site_fract_x
 _atom_site_fract_y
 _atom_site_fract_z
 _atom_site_occupancy
  Pr  Pr0  1  0.140100  0.140100  0.295048  1
  Pr  Pr1  1  0.859415  0.859415  0.704995  1
  Pr  Pr2  1  0.591398  0.591398  0.947262  1
  Nd  Nd3  1  0.409285  0.409285  0.052708  1
  Cl  Cl4  1  0.228360  0.228360  0.117860  1
  Cl  Cl5  1  0.952150  0.952150  0.259098  1
  Cl  Cl6  1  0.342000  0.342000  0.493635  1
  Cl  Cl7  1  0.657390  0.657390  0.506598  1
  Cl  Cl8  1  0.046428  0.046428  0.737743  1
  Cl  Cl9  1  0.773473  0.773473  0.885054  1
