# generated using pymatgen
data_Pr3In2Pt3Au
_symmetry_space_group_name_H-M   'P 1'
_cell_length_a   7.94926600
_cell_length_b   7.77509552
_cell_length_c   3.97302000
_cell_angle_alpha   90.00000000
_cell_angle_beta   90.00000000
_cell_angle_gamma   120.74382998
_symmetry_Int_Tables_number   1
_chemical_formula_structural   Pr3In2Pt3Au
_chemical_formula_sum   'Pr3 In2 Pt3 Au1'
_cell_volume   211.04736024
_cell_formula_units_Z   1
loop_
 _symmetry_equiv_pos_site_id
 _symmetry_equiv_pos_as_xyz
  1  'x, y, z'
loop_
 _atom_site_type_symbol
 _atom_site_label
 _atom_site_symmetry_multiplicity
 _atom_site_fract_x
 _atom_site_fract_y
 _atom_site_fract_z
 _atom_site_occupancy
  Pr  Pr0  1  0.578925  0.000000  0.000000  1
  Pr  Pr1  1  0.015225  0.615892  0.000000  1
  Pr  Pr2  1  0.399334  0.384108  0.000000  1
  In  In3  1  0.996495  0.254477  0.500000  1
  In  In4  1  0.742018  0.745523  0.500000  1
  Pt  Pt5  1  0.339246  0.653588  0.500000  1
  Pt  Pt6  1  0.685660  0.346412  0.500000  1
  Pt  Pt7  1  0.981521  0.000000  0.000000  1
  Au  Au8  1  0.261576  0.000000  0.500000  1
