# generated using pymatgen
data_Nd5MgRuO12
_symmetry_space_group_name_H-M   'P 1'
_cell_length_a   7.08505465
_cell_length_b   7.08505454
_cell_length_c   7.60706744
_cell_angle_alpha   74.26231480
_cell_angle_beta   74.26231673
_cell_angle_gamma   50.52125642
_symmetry_Int_Tables_number   1
_chemical_formula_structural   Nd5MgRuO12
_chemical_formula_sum   'Nd5 Mg1 Ru1 O12'
_cell_volume   281.17436919
_cell_formula_units_Z   1
loop_
 _symmetry_equiv_pos_site_id
 _symmetry_equiv_pos_as_xyz
  1  'x, y, z'
loop_
 _atom_site_type_symbol
 _atom_site_label
 _atom_site_symmetry_multiplicity
 _atom_site_fract_x
 _atom_site_fract_y
 _atom_site_fract_z
 _atom_site_occupancy
  Nd  Nd0  1  0.319013  0.291864  0.355694  1
  Nd  Nd1  1  0.708136  0.680987  0.644306  1
  Nd  Nd2  1  0.689438  0.691895  0.166620  1
  Nd  Nd3  1  0.308105  0.310562  0.833380  1
  Nd  Nd4  1  0.010207  0.989793  0.500000  1
  Mg  Mg5  1  0.748758  0.251242  0.000000  1
  Ru  Ru6  1  0.235468  0.764532  0.000000  1
  O  O7  1  0.101994  0.594286  0.569693  1
  O  O8  1  0.015759  0.984978  0.176391  1
  O  O9  1  0.405714  0.898006  0.430307  1
  O  O10  1  0.476525  0.524876  0.177305  1
  O  O11  1  0.100113  0.590338  0.081628  1
  O  O12  1  0.911860  0.398996  0.420326  1
  O  O13  1  0.015022  0.984241  0.823609  1
  O  O14  1  0.601004  0.088139  0.579674  1
  O  O15  1  0.475124  0.523475  0.822695  1
  O  O16  1  0.565444  0.097346  0.080952  1
  O  O17  1  0.409662  0.899887  0.918372  1
  O  O18  1  0.902654  0.434556  0.919048  1
