# generated using pymatgen
data_Dy3ErBeCo3I2
_symmetry_space_group_name_H-M   'P 1'
_cell_length_a   3.92657100
_cell_length_b   3.92657105
_cell_length_c   16.86405700
_cell_angle_alpha   90.00000000
_cell_angle_beta   90.00000000
_cell_angle_gamma   120.00000804
_symmetry_Int_Tables_number   1
_chemical_formula_structural   Dy3ErBeCo3I2
_chemical_formula_sum   'Dy3 Er1 Be1 Co3 I2'
_cell_volume   225.17468948
_cell_formula_units_Z   1
loop_
 _symmetry_equiv_pos_site_id
 _symmetry_equiv_pos_as_xyz
  1  'x, y, z'
loop_
 _atom_site_type_symbol
 _atom_site_label
 _atom_site_symmetry_multiplicity
 _atom_site_fract_x
 _atom_site_fract_y
 _atom_site_fract_z
 _atom_site_occupancy
  Dy  Dy0  1  0.000000  0.000000  0.896071  1
  Dy  Dy1  1  0.000000  0.000000  0.601288  1
  Dy  Dy2  1  0.000000  0.000000  0.398692  1
  Er  Er3  1  0.000000  0.000000  0.103450  1
  Be  Be4  1  0.333333  0.666667  0.500393  1
  Co  Co5  1  0.666667  0.333333  0.498842  1
  Co  Co6  1  0.666667  0.333333  0.002852  1
  Co  Co7  1  0.333333  0.666667  0.999159  1
  I  I8  1  0.333333  0.666667  0.249103  1
  I  I9  1  0.666667  0.333333  0.750149  1
