# generated using pymatgen
data_Er3Tm14Lu3Pt16
_symmetry_space_group_name_H-M   'P 1'
_cell_length_a   7.41127600
_cell_length_b   7.49907708
_cell_length_c   14.60017500
_cell_angle_alpha   90.00659365
_cell_angle_beta   90.00142248
_cell_angle_gamma   89.94845020
_symmetry_Int_Tables_number   1
_chemical_formula_structural   Er3Tm14Lu3Pt16
_chemical_formula_sum   'Er3 Tm14 Lu3 Pt16'
_cell_volume   811.44425061
_cell_formula_units_Z   1
loop_
 _symmetry_equiv_pos_site_id
 _symmetry_equiv_pos_as_xyz
  1  'x, y, z'
loop_
 _atom_site_type_symbol
 _atom_site_label
 _atom_site_symmetry_multiplicity
 _atom_site_fract_x
 _atom_site_fract_y
 _atom_site_fract_z
 _atom_site_occupancy
  Er  Er0  1  0.501212  0.320816  0.907296  1
  Er  Er1  1  0.498550  0.679319  0.407229  1
  Er  Er2  1  0.998711  0.820731  0.092728  1
  Tm  Tm3  1  0.318915  0.010206  0.749835  1
  Tm  Tm4  1  0.656683  0.832783  0.622337  1
  Tm  Tm5  1  0.155779  0.667038  0.877323  1
  Tm  Tm6  1  0.844486  0.332453  0.377561  1
  Tm  Tm7  1  0.343995  0.167392  0.122558  1
  Tm  Tm8  1  0.344208  0.167343  0.377809  1
  Tm  Tm9  1  0.844277  0.332382  0.122239  1
  Tm  Tm10  1  0.155637  0.667448  0.622084  1
  Tm  Tm11  1  0.656197  0.832201  0.877702  1
  Tm  Tm12  1  0.997790  0.820451  0.406755  1
  Tm  Tm13  1  0.497337  0.680211  0.093403  1
  Tm  Tm14  1  0.502650  0.319826  0.593196  1
  Tm  Tm15  1  0.002246  0.180480  0.906773  1
  Tm  Tm16  1  0.001824  0.179963  0.592765  1
  Lu  Lu17  1  0.681214  0.989711  0.250091  1
  Lu  Lu18  1  0.181065  0.510408  0.250050  1
  Lu  Lu19  1  0.818862  0.489354  0.749635  1
  Pt  Pt20  1  0.818843  0.645084  0.250412  1
  Pt  Pt21  1  0.319091  0.854704  0.250060  1
  Pt  Pt22  1  0.682503  0.145608  0.749573  1
  Pt  Pt23  1  0.179905  0.356174  0.749715  1
  Pt  Pt24  1  0.546064  0.386697  0.250038  1
  Pt  Pt25  1  0.046008  0.113115  0.250173  1
  Pt  Pt26  1  0.952824  0.886429  0.749980  1
  Pt  Pt27  1  0.453920  0.612226  0.749699  1
  Pt  Pt28  1  0.814886  0.531412  0.542751  1
  Pt  Pt29  1  0.314743  0.967610  0.957924  1
  Pt  Pt30  1  0.684998  0.032645  0.458336  1
  Pt  Pt31  1  0.185292  0.467791  0.041938  1
  Pt  Pt32  1  0.184112  0.467469  0.458100  1
  Pt  Pt33  1  0.683905  0.032093  0.042099  1
  Pt  Pt34  1  0.315206  0.968565  0.542377  1
  Pt  Pt35  1  0.816065  0.531865  0.957460  1
