# generated using pymatgen
data_Hf16Co2Ni2Mo3Rh
_symmetry_space_group_name_H-M   'P 1'
_cell_length_a   8.66296074
_cell_length_b   8.66296108
_cell_length_c   8.65827257
_cell_angle_alpha   60.02302844
_cell_angle_beta   60.02301664
_cell_angle_gamma   60.03588326
_symmetry_Int_Tables_number   1
_chemical_formula_structural   Hf16Co2Ni2Mo3Rh
_chemical_formula_sum   'Hf16 Co2 Ni2 Mo3 Rh1'
_cell_volume   459.74575185
_cell_formula_units_Z   1
loop_
 _symmetry_equiv_pos_site_id
 _symmetry_equiv_pos_as_xyz
  1  'x, y, z'
loop_
 _atom_site_type_symbol
 _atom_site_label
 _atom_site_symmetry_multiplicity
 _atom_site_fract_x
 _atom_site_fract_y
 _atom_site_fract_z
 _atom_site_occupancy
  Hf  Hf0  1  0.692459  0.104443  0.101689  1
  Hf  Hf1  1  0.104443  0.692459  0.101689  1
  Hf  Hf2  1  0.101642  0.101642  0.697586  1
  Hf  Hf3  1  0.102077  0.102077  0.099093  1
  Hf  Hf4  1  0.315204  0.315204  0.686799  1
  Hf  Hf5  1  0.686036  0.686036  0.314663  1
  Hf  Hf6  1  0.315571  0.687491  0.314592  1
  Hf  Hf7  1  0.685629  0.315867  0.684899  1
  Hf  Hf8  1  0.687491  0.315571  0.314592  1
  Hf  Hf9  1  0.315867  0.685629  0.684899  1
  Hf  Hf10  1  0.954802  0.954802  0.544811  1
  Hf  Hf11  1  0.553250  0.553250  0.945903  1
  Hf  Hf12  1  0.952667  0.544083  0.951994  1
  Hf  Hf13  1  0.547728  0.948631  0.553930  1
  Hf  Hf14  1  0.544083  0.952667  0.951994  1
  Hf  Hf15  1  0.948631  0.547728  0.553930  1
  Co  Co16  1  0.325206  0.889350  0.890563  1
  Co  Co17  1  0.889350  0.325206  0.890563  1
  Ni  Ni18  1  0.889952  0.889952  0.325893  1
  Ni  Ni19  1  0.890469  0.890469  0.892276  1
  Mo  Mo20  1  0.999005  0.332402  0.332593  1
  Mo  Mo21  1  0.332402  0.999005  0.332593  1
  Mo  Mo22  1  0.332256  0.332256  0.998658  1
  Rh  Rh23  1  0.333777  0.333777  0.333793  1
