# generated using pymatgen
data_Sm6Pa2NiPd24
_symmetry_space_group_name_H-M   'P 1'
_cell_length_a   8.44336260
_cell_length_b   8.44336282
_cell_length_c   8.44336200
_cell_angle_alpha   89.45029330
_cell_angle_beta   89.45029328
_cell_angle_gamma   89.45029681
_symmetry_Int_Tables_number   1
_chemical_formula_structural   Sm6Pa2NiPd24
_chemical_formula_sum   'Sm6 Pa2 Ni1 Pd24'
_cell_volume   601.84785189
_cell_formula_units_Z   1
loop_
 _symmetry_equiv_pos_site_id
 _symmetry_equiv_pos_as_xyz
  1  'x, y, z'
loop_
 _atom_site_type_symbol
 _atom_site_label
 _atom_site_symmetry_multiplicity
 _atom_site_fract_x
 _atom_site_fract_y
 _atom_site_fract_z
 _atom_site_occupancy
  Sm  Sm0  1  0.750458  0.750458  0.245503  1
  Sm  Sm1  1  0.750458  0.245503  0.750458  1
  Sm  Sm2  1  0.249542  0.249542  0.754497  1
  Sm  Sm3  1  0.249542  0.754497  0.249542  1
  Sm  Sm4  1  0.245503  0.750458  0.750458  1
  Sm  Sm5  1  0.754497  0.249542  0.249542  1
  Pa  Pa6  1  0.251192  0.251192  0.251192  1
  Pa  Pa7  1  0.748808  0.748808  0.748808  1
  Ni  Ni8  1  0.000000  0.000000  0.000000  1
  Pd  Pd9  1  0.260606  0.498671  0.008298  1
  Pd  Pd10  1  0.739394  0.501329  0.991702  1
  Pd  Pd11  1  0.008298  0.260606  0.498671  1
  Pd  Pd12  1  0.498671  0.260606  0.008298  1
  Pd  Pd13  1  0.991702  0.739394  0.501329  1
  Pd  Pd14  1  0.501329  0.739394  0.991702  1
  Pd  Pd15  1  0.498671  0.008298  0.260606  1
  Pd  Pd16  1  0.260606  0.008298  0.498671  1
  Pd  Pd17  1  0.501329  0.991702  0.739394  1
  Pd  Pd18  1  0.739394  0.991702  0.501329  1
  Pd  Pd19  1  0.008298  0.498671  0.260606  1
  Pd  Pd20  1  0.991702  0.501329  0.739394  1
  Pd  Pd21  1  0.254198  0.496615  0.496615  1
  Pd  Pd22  1  0.745802  0.503385  0.503385  1
  Pd  Pd23  1  0.496615  0.254198  0.496615  1
  Pd  Pd24  1  0.503385  0.745802  0.503385  1
  Pd  Pd25  1  0.496615  0.496615  0.254198  1
  Pd  Pd26  1  0.503385  0.503385  0.745802  1
  Pd  Pd27  1  0.292435  0.006299  0.006299  1
  Pd  Pd28  1  0.707565  0.993701  0.993701  1
  Pd  Pd29  1  0.006299  0.292435  0.006299  1
  Pd  Pd30  1  0.993701  0.707565  0.993701  1
  Pd  Pd31  1  0.006299  0.006299  0.292435  1
  Pd  Pd32  1  0.993701  0.993701  0.707565  1
