# generated using pymatgen
data_BaNb8AsS16
_symmetry_space_group_name_H-M   'P 1'
_cell_length_a   6.75381900
_cell_length_b   6.75381940
_cell_length_c   14.17854300
_cell_angle_alpha   90.00000000
_cell_angle_beta   90.00000000
_cell_angle_gamma   120.00000294
_symmetry_Int_Tables_number   1
_chemical_formula_structural   BaNb8AsS16
_chemical_formula_sum   'Ba1 Nb8 As1 S16'
_cell_volume   560.09421141
_cell_formula_units_Z   1
loop_
 _symmetry_equiv_pos_site_id
 _symmetry_equiv_pos_as_xyz
  1  'x, y, z'
loop_
 _atom_site_type_symbol
 _atom_site_label
 _atom_site_symmetry_multiplicity
 _atom_site_fract_x
 _atom_site_fract_y
 _atom_site_fract_z
 _atom_site_occupancy
  Ba  Ba0  1  0.000000  0.000000  0.000000  1
  Nb  Nb1  1  0.989885  0.494943  0.278326  1
  Nb  Nb2  1  0.010115  0.505057  0.721674  1
  Nb  Nb3  1  0.494943  0.505057  0.721674  1
  Nb  Nb4  1  0.505057  0.010115  0.278326  1
  Nb  Nb5  1  0.000000  0.000000  0.725228  1
  Nb  Nb6  1  0.000000  0.000000  0.274772  1
  Nb  Nb7  1  0.505057  0.494943  0.278326  1
  Nb  Nb8  1  0.494943  0.989885  0.721674  1
  As  As9  1  0.000000  0.000000  0.500000  1
  S  S10  1  0.333333  0.666667  0.610190  1
  S  S11  1  0.666667  0.333333  0.165157  1
  S  S12  1  0.666667  0.333333  0.389810  1
  S  S13  1  0.333333  0.666667  0.834843  1
  S  S14  1  0.168003  0.336006  0.385579  1
  S  S15  1  0.830647  0.169353  0.831740  1
  S  S16  1  0.338709  0.169353  0.831740  1
  S  S17  1  0.663994  0.831997  0.385579  1
  S  S18  1  0.168003  0.831997  0.385579  1
  S  S19  1  0.830647  0.661291  0.831740  1
  S  S20  1  0.169353  0.338709  0.168260  1
  S  S21  1  0.831997  0.168003  0.614421  1
  S  S22  1  0.336006  0.168003  0.614421  1
  S  S23  1  0.661291  0.830647  0.168260  1
  S  S24  1  0.169353  0.830647  0.168260  1
  S  S25  1  0.831997  0.663994  0.614421  1
