# generated using pymatgen
data_Dy2LuGa5
_symmetry_space_group_name_H-M   'P 1'
_cell_length_a   6.05550000
_cell_length_b   9.56227700
_cell_length_c   11.56988300
_cell_angle_alpha   90.00000000
_cell_angle_beta   90.00000000
_cell_angle_gamma   90.00000000
_symmetry_Int_Tables_number   1
_chemical_formula_structural   Dy2LuGa5
_chemical_formula_sum   'Dy8 Lu4 Ga20'
_cell_volume   669.94676727
_cell_formula_units_Z   4
loop_
 _symmetry_equiv_pos_site_id
 _symmetry_equiv_pos_as_xyz
  1  'x, y, z'
loop_
 _atom_site_type_symbol
 _atom_site_label
 _atom_site_symmetry_multiplicity
 _atom_site_fract_x
 _atom_site_fract_y
 _atom_site_fract_z
 _atom_site_occupancy
  Dy  Dy0  1  0.891736  0.506360  0.350858  1
  Dy  Dy1  1  0.608264  0.993640  0.850858  1
  Dy  Dy2  1  0.108264  0.006360  0.649142  1
  Dy  Dy3  1  0.391736  0.493640  0.149142  1
  Dy  Dy4  1  0.108264  0.493640  0.649142  1
  Dy  Dy5  1  0.391736  0.006360  0.149142  1
  Dy  Dy6  1  0.891736  0.993640  0.350858  1
  Dy  Dy7  1  0.608264  0.506360  0.850858  1
  Lu  Lu8  1  0.849724  0.750000  0.074741  1
  Lu  Lu9  1  0.650276  0.750000  0.574741  1
  Lu  Lu10  1  0.150276  0.250000  0.925259  1
  Lu  Lu11  1  0.349724  0.250000  0.425259  1
  Ga  Ga12  1  0.876801  0.053623  0.089435  1
  Ga  Ga13  1  0.623199  0.446377  0.589435  1
  Ga  Ga14  1  0.123199  0.553623  0.910565  1
  Ga  Ga15  1  0.376801  0.946377  0.410565  1
  Ga  Ga16  1  0.123199  0.946377  0.910565  1
  Ga  Ga17  1  0.376801  0.553623  0.410565  1
  Ga  Ga18  1  0.876801  0.446377  0.089435  1
  Ga  Ga19  1  0.623199  0.053623  0.589435  1
  Ga  Ga20  1  0.166797  0.750000  0.254385  1
  Ga  Ga21  1  0.333203  0.750000  0.754385  1
  Ga  Ga22  1  0.833203  0.250000  0.745615  1
  Ga  Ga23  1  0.666797  0.250000  0.245615  1
  Ga  Ga24  1  0.379584  0.750000  0.000840  1
  Ga  Ga25  1  0.120416  0.750000  0.500840  1
  Ga  Ga26  1  0.620416  0.250000  0.999160  1
  Ga  Ga27  1  0.879584  0.250000  0.499160  1
  Ga  Ga28  1  0.603232  0.750000  0.298655  1
  Ga  Ga29  1  0.896768  0.750000  0.798655  1
  Ga  Ga30  1  0.396768  0.250000  0.701345  1
  Ga  Ga31  1  0.103232  0.250000  0.201345  1
