# generated using pymatgen
data_Tm5InSn2Se
_symmetry_space_group_name_H-M   'P 1'
_cell_length_a   8.97066334
_cell_length_b   8.98187395
_cell_length_c   6.68740600
_cell_angle_alpha   90.00000000
_cell_angle_beta   90.00000000
_cell_angle_gamma   120.04134974
_symmetry_Int_Tables_number   1
_chemical_formula_structural   Tm5InSn2Se
_chemical_formula_sum   'Tm10 In2 Sn4 Se2'
_cell_volume   466.44316028
_cell_formula_units_Z   2
loop_
 _symmetry_equiv_pos_site_id
 _symmetry_equiv_pos_as_xyz
  1  'x, y, z'
loop_
 _atom_site_type_symbol
 _atom_site_label
 _atom_site_symmetry_multiplicity
 _atom_site_fract_x
 _atom_site_fract_y
 _atom_site_fract_z
 _atom_site_occupancy
  Tm  Tm0  1  0.666752  0.333232  0.998679  1
  Tm  Tm1  1  0.333248  0.666481  0.998679  1
  Tm  Tm2  1  0.333248  0.666481  0.501321  1
  Tm  Tm3  1  0.666752  0.333232  0.501321  1
  Tm  Tm4  1  0.746967  0.746813  0.750000  1
  Tm  Tm5  1  0.253033  0.999845  0.750000  1
  Tm  Tm6  1  0.000000  0.253387  0.750000  1
  Tm  Tm7  1  0.252560  0.253228  0.250000  1
  Tm  Tm8  1  0.747440  0.000668  0.250000  1
  Tm  Tm9  1  0.000000  0.747556  0.250000  1
  In  In10  1  0.396596  0.396542  0.750000  1
  In  In11  1  0.603404  0.999946  0.750000  1
  Sn  Sn12  1  0.000000  0.604673  0.750000  1
  Sn  Sn13  1  0.603285  0.602966  0.250000  1
  Sn  Sn14  1  0.396715  0.999681  0.250000  1
  Sn  Sn15  1  0.000000  0.395419  0.250000  1
  Se  Se16  1  0.000000  0.999924  0.000507  1
  Se  Se17  1  0.000000  0.999924  0.499493  1
