# generated using pymatgen
data_LiEr2Ni11As7
_symmetry_space_group_name_H-M   'P 1'
_cell_length_a   3.82817500
_cell_length_b   9.38419057
_cell_length_c   9.38558700
_cell_angle_alpha   120.30653882
_cell_angle_beta   90.00000000
_cell_angle_gamma   90.00000000
_symmetry_Int_Tables_number   1
_chemical_formula_structural   LiEr2Ni11As7
_chemical_formula_sum   'Li1 Er2 Ni11 As7'
_cell_volume   291.09240953
_cell_formula_units_Z   1
loop_
 _symmetry_equiv_pos_site_id
 _symmetry_equiv_pos_as_xyz
  1  'x, y, z'
loop_
 _atom_site_type_symbol
 _atom_site_label
 _atom_site_symmetry_multiplicity
 _atom_site_fract_x
 _atom_site_fract_y
 _atom_site_fract_z
 _atom_site_occupancy
  Li  Li0  1  0.500000  0.108590  0.895503  1
  Er  Er1  1  0.500000  0.331084  0.665332  1
  Er  Er2  1  0.000000  0.670648  0.338043  1
  Ni  Ni3  1  0.000000  0.874381  0.722982  1
  Ni  Ni4  1  0.000000  0.283519  0.154758  1
  Ni  Ni5  1  0.000000  0.840425  0.126702  1
  Ni  Ni6  1  0.500000  0.950547  0.567872  1
  Ni  Ni7  1  0.500000  0.429871  0.381525  1
  Ni  Ni8  1  0.500000  0.616208  0.043757  1
  Ni  Ni9  1  0.000000  0.379702  0.944212  1
  Ni  Ni10  1  0.000000  0.056885  0.431841  1
  Ni  Ni11  1  0.000000  0.562121  0.617758  1
  Ni  Ni12  1  0.500000  0.097388  0.212523  1
  Ni  Ni13  1  0.500000  0.794300  0.893009  1
  As  As14  1  0.500000  0.708484  0.598762  1
  As  As15  1  0.500000  0.414898  0.117949  1
  As  As16  1  0.500000  0.886407  0.292926  1
  As  As17  1  0.000000  0.998250  0.006244  1
  As  As18  1  0.000000  0.115721  0.704883  1
  As  As19  1  0.000000  0.288330  0.404247  1
  As  As20  1  0.000000  0.592241  0.879168  1
