# generated using pymatgen
data_Rb2I4O11
_symmetry_space_group_name_H-M   'P 1'
_cell_length_a   7.37399700
_cell_length_b   7.37399748
_cell_length_c   13.66797900
_cell_angle_alpha   90.00000000
_cell_angle_beta   90.00000000
_cell_angle_gamma   120.00000231
_symmetry_Int_Tables_number   1
_chemical_formula_structural   Rb2I4O11
_chemical_formula_sum   'Rb4 I8 O22'
_cell_volume   643.63679875
_cell_formula_units_Z   2
loop_
 _symmetry_equiv_pos_site_id
 _symmetry_equiv_pos_as_xyz
  1  'x, y, z'
loop_
 _atom_site_type_symbol
 _atom_site_label
 _atom_site_symmetry_multiplicity
 _atom_site_fract_x
 _atom_site_fract_y
 _atom_site_fract_z
 _atom_site_occupancy
  Rb  Rb0  1  0.666667  0.333333  0.018426  1
  Rb  Rb1  1  0.333333  0.666667  0.518426  1
  Rb  Rb2  1  0.333333  0.666667  0.147568  1
  Rb  Rb3  1  0.666667  0.333333  0.647568  1
  I  I4  1  0.809576  0.666099  0.319682  1
  I  I5  1  0.333901  0.143478  0.319682  1
  I  I6  1  0.856522  0.190424  0.319682  1
  I  I7  1  0.190424  0.333901  0.819682  1
  I  I8  1  0.666099  0.856522  0.819682  1
  I  I9  1  0.143478  0.809576  0.819682  1
  I  I10  1  0.000000  0.000000  0.070789  1
  I  I11  1  0.000000  0.000000  0.570789  1
  O  O12  1  0.056805  0.666559  0.327048  1
  O  O13  1  0.333441  0.390246  0.327048  1
  O  O14  1  0.609754  0.943195  0.327048  1
  O  O15  1  0.943195  0.333441  0.827048  1
  O  O16  1  0.666559  0.609754  0.827048  1
  O  O17  1  0.390246  0.056805  0.827048  1
  O  O18  1  0.761935  0.647374  0.188546  1
  O  O19  1  0.352626  0.114561  0.188546  1
  O  O20  1  0.885439  0.238065  0.188546  1
  O  O21  1  0.238065  0.352626  0.688546  1
  O  O22  1  0.647374  0.885439  0.688546  1
  O  O23  1  0.114561  0.761935  0.688546  1
  O  O24  1  0.666667  0.333333  0.341693  1
  O  O25  1  0.333333  0.666667  0.841693  1
  O  O26  1  0.000000  0.000000  0.311910  1
  O  O27  1  0.000000  0.000000  0.811910  1
  O  O28  1  0.164472  0.254427  0.009849  1
  O  O29  1  0.745573  0.910045  0.009849  1
  O  O30  1  0.089955  0.835528  0.009849  1
  O  O31  1  0.835528  0.745573  0.509849  1
  O  O32  1  0.254427  0.089955  0.509849  1
  O  O33  1  0.910045  0.164472  0.509849  1
