# generated using pymatgen
data_Pa2Mn3Ga
_symmetry_space_group_name_H-M   'P 1'
_cell_length_a   5.29948932
_cell_length_b   5.29964777
_cell_length_c   8.17455000
_cell_angle_alpha   90.00000000
_cell_angle_beta   90.00000000
_cell_angle_gamma   59.99901881
_symmetry_Int_Tables_number   1
_chemical_formula_structural   Pa2Mn3Ga
_chemical_formula_sum   'Pa4 Mn6 Ga2'
_cell_volume   198.82510446
_cell_formula_units_Z   2
loop_
 _symmetry_equiv_pos_site_id
 _symmetry_equiv_pos_as_xyz
  1  'x, y, z'
loop_
 _atom_site_type_symbol
 _atom_site_label
 _atom_site_symmetry_multiplicity
 _atom_site_fract_x
 _atom_site_fract_y
 _atom_site_fract_z
 _atom_site_occupancy
  Pa  Pa0  1  0.333337  0.333331  0.568359  1
  Pa  Pa1  1  0.666663  0.666669  0.431641  1
  Pa  Pa2  1  0.666663  0.666669  0.068359  1
  Pa  Pa3  1  0.333337  0.333331  0.931641  1
  Mn  Mn4  1  0.828815  0.342536  0.750000  1
  Mn  Mn5  1  0.342714  0.828643  0.750000  1
  Mn  Mn6  1  0.828815  0.828650  0.750000  1
  Mn  Mn7  1  0.171185  0.657464  0.250000  1
  Mn  Mn8  1  0.657286  0.171357  0.250000  1
  Mn  Mn9  1  0.171185  0.171350  0.250000  1
  Ga  Ga10  1  0.000000  0.000000  0.500000  1
  Ga  Ga11  1  0.000000  0.000000  0.000000  1
