# generated using pymatgen
data_Ho11ScSi12Ir3Rh
_symmetry_space_group_name_H-M   'P 1'
_cell_length_a   4.19376400
_cell_length_b   10.60627817
_cell_length_c   12.19706142
_cell_angle_alpha   89.82151402
_cell_angle_beta   90.00000000
_cell_angle_gamma   90.00000000
_symmetry_Int_Tables_number   1
_chemical_formula_structural   Ho11ScSi12Ir3Rh
_chemical_formula_sum   'Ho11 Sc1 Si12 Ir3 Rh1'
_cell_volume   542.52543519
_cell_formula_units_Z   1
loop_
 _symmetry_equiv_pos_site_id
 _symmetry_equiv_pos_as_xyz
  1  'x, y, z'
loop_
 _atom_site_type_symbol
 _atom_site_label
 _atom_site_symmetry_multiplicity
 _atom_site_fract_x
 _atom_site_fract_y
 _atom_site_fract_z
 _atom_site_occupancy
  Ho  Ho0  1  0.250000  0.880972  0.018768  1
  Ho  Ho1  1  0.250000  0.619554  0.520371  1
  Ho  Ho2  1  0.750000  0.120248  0.977443  1
  Ho  Ho3  1  0.750000  0.376976  0.481998  1
  Ho  Ho4  1  0.250000  0.921249  0.603908  1
  Ho  Ho5  1  0.250000  0.580931  0.102368  1
  Ho  Ho6  1  0.750000  0.080469  0.398512  1
  Ho  Ho7  1  0.750000  0.418004  0.895536  1
  Ho  Ho8  1  0.250000  0.658599  0.800854  1
  Ho  Ho9  1  0.250000  0.842231  0.301133  1
  Ho  Ho10  1  0.750000  0.340399  0.198995  1
  Sc  Sc11  1  0.750000  0.160428  0.701829  1
  Si  Si12  1  0.250000  0.013665  0.819484  1
  Si  Si13  1  0.250000  0.486562  0.321945  1
  Si  Si14  1  0.750000  0.990044  0.178624  1
  Si  Si15  1  0.750000  0.511806  0.678168  1
  Si  Si16  1  0.250000  0.244573  0.836780  1
  Si  Si17  1  0.250000  0.252305  0.342512  1
  Si  Si18  1  0.750000  0.753879  0.158266  1
  Si  Si19  1  0.750000  0.746880  0.658730  1
  Si  Si20  1  0.250000  0.197670  0.551197  1
  Si  Si21  1  0.250000  0.298807  0.041883  1
  Si  Si22  1  0.750000  0.800778  0.458193  1
  Si  Si23  1  0.750000  0.701312  0.955756  1
  Ir  Ir24  1  0.250000  0.388362  0.680411  1
  Ir  Ir25  1  0.250000  0.110720  0.180764  1
  Ir  Ir26  1  0.750000  0.892083  0.816797  1
  Rh  Rh27  1  0.750000  0.610491  0.318772  1
