# generated using pymatgen
data_GdY3B16
_symmetry_space_group_name_H-M   'P 1'
_cell_length_a   7.12167176
_cell_length_b   7.12167176
_cell_length_c   4.03522900
_cell_angle_alpha   90.00000000
_cell_angle_beta   90.00000000
_cell_angle_gamma   89.86744608
_symmetry_Int_Tables_number   1
_chemical_formula_structural   GdY3B16
_chemical_formula_sum   'Gd1 Y3 B16'
_cell_volume   204.65903897
_cell_formula_units_Z   1
loop_
 _symmetry_equiv_pos_site_id
 _symmetry_equiv_pos_as_xyz
  1  'x, y, z'
loop_
 _atom_site_type_symbol
 _atom_site_label
 _atom_site_symmetry_multiplicity
 _atom_site_fract_x
 _atom_site_fract_y
 _atom_site_fract_z
 _atom_site_occupancy
  Gd  Gd0  1  0.683160  0.816840  0.000000  1
  Y  Y1  1  0.817516  0.317560  0.000000  1
  Y  Y2  1  0.182440  0.682484  0.000000  1
  Y  Y3  1  0.317572  0.182428  0.000000  1
  B  B4  1  0.499476  0.499747  0.796587  1
  B  B5  1  0.000253  0.000524  0.796587  1
  B  B6  1  0.499476  0.499747  0.203413  1
  B  B7  1  0.000253  0.000524  0.203413  1
  B  B8  1  0.675783  0.538033  0.500000  1
  B  B9  1  0.323674  0.461186  0.500000  1
  B  B10  1  0.176441  0.961442  0.500000  1
  B  B11  1  0.824155  0.038915  0.500000  1
  B  B12  1  0.461085  0.675845  0.500000  1
  B  B13  1  0.538558  0.323559  0.500000  1
  B  B14  1  0.038814  0.176326  0.500000  1
  B  B15  1  0.961967  0.824217  0.500000  1
  B  B16  1  0.912838  0.587162  0.500000  1
  B  B17  1  0.086825  0.413175  0.500000  1
  B  B18  1  0.413149  0.913435  0.500000  1
  B  B19  1  0.586565  0.086851  0.500000  1
