# generated using pymatgen
data_Rb4NaAlTe4
_symmetry_space_group_name_H-M   'P 1'
_cell_length_a   9.13475432
_cell_length_b   9.13475521
_cell_length_c   9.13475325
_cell_angle_alpha   131.08470249
_cell_angle_beta   129.87566517
_cell_angle_gamma   72.64460913
_symmetry_Int_Tables_number   1
_chemical_formula_structural   Rb4NaAlTe4
_chemical_formula_sum   'Rb4 Na1 Al1 Te4'
_cell_volume   430.82607411
_cell_formula_units_Z   1
loop_
 _symmetry_equiv_pos_site_id
 _symmetry_equiv_pos_as_xyz
  1  'x, y, z'
loop_
 _atom_site_type_symbol
 _atom_site_label
 _atom_site_symmetry_multiplicity
 _atom_site_fract_x
 _atom_site_fract_y
 _atom_site_fract_z
 _atom_site_occupancy
  Rb  Rb0  1  0.469149  0.141292  0.323310  1
  Rb  Rb1  1  0.817982  0.645839  0.176690  1
  Rb  Rb2  1  0.530851  0.854161  0.672143  1
  Rb  Rb3  1  0.182018  0.358708  0.827857  1
  Na  Na4  1  0.000000  0.750000  0.750000  1
  Al  Al5  1  0.000000  0.250000  0.250000  1
  Te  Te6  1  0.087001  0.934236  0.232684  1
  Te  Te7  1  0.912999  0.145681  0.847233  1
  Te  Te8  1  0.298448  0.565764  0.652767  1
  Te  Te9  1  0.701552  0.354319  0.267316  1
