# generated using pymatgen
data_K5Th2F13
_symmetry_space_group_name_H-M   'P 1'
_cell_length_a   7.37866310
_cell_length_b   7.37866361
_cell_length_c   9.64776848
_cell_angle_alpha   83.24040286
_cell_angle_beta   83.24039996
_cell_angle_gamma   50.51242635
_symmetry_Int_Tables_number   1
_chemical_formula_structural   K5Th2F13
_chemical_formula_sum   'K5 Th2 F13'
_cell_volume   401.93562269
_cell_formula_units_Z   1
loop_
 _symmetry_equiv_pos_site_id
 _symmetry_equiv_pos_as_xyz
  1  'x, y, z'
loop_
 _atom_site_type_symbol
 _atom_site_label
 _atom_site_symmetry_multiplicity
 _atom_site_fract_x
 _atom_site_fract_y
 _atom_site_fract_z
 _atom_site_occupancy
  K  K0  1  0.221445  0.221445  0.847794  1
  K  K1  1  0.778555  0.778555  0.152206  1
  K  K2  1  0.500000  0.500000  0.000000  1
  K  K3  1  0.661208  0.661208  0.572900  1
  K  K4  1  0.338792  0.338792  0.427100  1
  Th  Th5  1  0.927335  0.927335  0.739593  1
  Th  Th6  1  0.072665  0.072665  0.260407  1
  F  F7  1  0.049312  0.591520  0.644374  1
  F  F8  1  0.591520  0.049312  0.644374  1
  F  F9  1  0.950688  0.408480  0.355626  1
  F  F10  1  0.408480  0.950688  0.355626  1
  F  F11  1  0.647705  0.085354  0.920100  1
  F  F12  1  0.085354  0.647705  0.920100  1
  F  F13  1  0.352295  0.914646  0.079900  1
  F  F14  1  0.914646  0.352295  0.079900  1
  F  F15  1  0.287867  0.826994  0.753081  1
  F  F16  1  0.826994  0.287867  0.753081  1
  F  F17  1  0.712133  0.173006  0.246919  1
  F  F18  1  0.173006  0.712133  0.246919  1
  F  F19  1  0.000000  0.000000  0.500000  1
