# generated using pymatgen
data_CdSi6Ag6(GeP4)3
_symmetry_space_group_name_H-M   'P 1'
_cell_length_a   8.94575681
_cell_length_b   8.82640640
_cell_length_c   8.94575710
_cell_angle_alpha   109.20119101
_cell_angle_beta   109.73991366
_cell_angle_gamma   109.20117335
_symmetry_Int_Tables_number   1
_chemical_formula_structural   CdSi6Ag6(GeP4)3
_chemical_formula_sum   'Cd1 Si6 Ag6 Ge3 P12'
_cell_volume   545.54762865
_cell_formula_units_Z   1
loop_
 _symmetry_equiv_pos_site_id
 _symmetry_equiv_pos_as_xyz
  1  'x, y, z'
loop_
 _atom_site_type_symbol
 _atom_site_label
 _atom_site_symmetry_multiplicity
 _atom_site_fract_x
 _atom_site_fract_y
 _atom_site_fract_z
 _atom_site_occupancy
  Cd  Cd0  1  0.000000  0.403445  0.000000  1
  Si  Si1  1  0.498325  0.252283  0.752127  1
  Si  Si2  1  0.501675  0.753958  0.253801  1
  Si  Si3  1  0.746201  0.500156  0.247875  1
  Si  Si4  1  0.253801  0.753958  0.501675  1
  Si  Si5  1  0.247875  0.500156  0.746201  1
  Si  Si6  1  0.752127  0.252283  0.498325  1
  Ag  Ag7  1  0.000000  0.197110  0.204990  1
  Ag  Ag8  1  0.000000  0.796636  0.796380  1
  Ag  Ag9  1  0.203620  0.000256  0.203620  1
  Ag  Ag10  1  0.204990  0.197110  0.000000  1
  Ag  Ag11  1  0.795010  0.992118  0.795010  1
  Ag  Ag12  1  0.796380  0.796636  0.000000  1
  Ge  Ge13  1  0.582257  0.586406  0.582257  1
  Ge  Ge14  1  0.000000  0.004149  0.417743  1
  Ge  Ge15  1  0.417743  0.004149  0.000000  1
  P  P16  1  0.498869  0.499611  0.263169  1
  P  P17  1  0.235699  0.236441  0.736830  1
  P  P18  1  0.497448  0.761547  0.000000  1
  P  P19  1  0.750198  0.499536  0.000000  1
  P  P20  1  0.263169  0.499611  0.498869  1
  P  P21  1  0.502551  0.264099  0.502551  1
  P  P22  1  0.000000  0.761547  0.497448  1
  P  P23  1  0.249800  0.749337  0.249800  1
  P  P24  1  0.736830  0.236441  0.235699  1
  P  P25  1  0.764299  0.000742  0.501130  1
  P  P26  1  0.000000  0.499536  0.750198  1
  P  P27  1  0.501130  0.000742  0.764299  1
