# generated using pymatgen
data_HfBi2PbO7
_symmetry_space_group_name_H-M   'P 1'
_cell_length_a   7.81672698
_cell_length_b   7.80926021
_cell_length_c   7.81380490
_cell_angle_alpha   60.01802498
_cell_angle_beta   60.00199640
_cell_angle_gamma   90.02602506
_symmetry_Int_Tables_number   1
_chemical_formula_structural   HfBi2PbO7
_chemical_formula_sum   'Hf2 Bi4 Pb2 O14'
_cell_volume   337.29906915
_cell_formula_units_Z   2
loop_
 _symmetry_equiv_pos_site_id
 _symmetry_equiv_pos_as_xyz
  1  'x, y, z'
loop_
 _atom_site_type_symbol
 _atom_site_label
 _atom_site_symmetry_multiplicity
 _atom_site_fract_x
 _atom_site_fract_y
 _atom_site_fract_z
 _atom_site_occupancy
  Hf  Hf0  1  0.120503  0.877790  0.253520  1
  Hf  Hf1  1  0.118575  0.376618  0.753797  1
  Bi  Bi2  1  0.686021  0.413424  0.716027  1
  Bi  Bi3  1  0.122510  0.348154  0.214556  1
  Bi  Bi4  1  0.569195  0.871755  0.801748  1
  Bi  Bi5  1  0.576212  0.377165  0.304461  1
  Pb  Pb6  1  0.626173  0.878233  0.247348  1
  Pb  Pb7  1  0.124438  0.877357  0.747152  1
  O  O8  1  0.806337  0.207263  0.959057  1
  O  O9  1  0.473137  0.505820  0.003987  1
  O  O10  1  0.221651  0.214208  0.594758  1
  O  O11  1  0.441303  0.932181  0.095732  1
  O  O12  1  0.149335  0.187169  0.033690  1
  O  O13  1  0.474492  0.971048  0.496279  1
  O  O14  1  0.443483  0.539000  0.493081  1
  O  O15  1  0.086044  0.986502  0.457038  1
  O  O16  1  0.732901  0.266515  0.508641  1
  O  O17  1  0.029140  0.567138  0.534015  1
  O  O18  1  0.783774  0.780395  0.995933  1
  O  O19  1  0.082864  0.545887  0.898510  1
  O  O20  1  0.806139  0.768105  0.398861  1
  O  O21  1  0.218774  0.815271  0.991808  1
