# generated using pymatgen
data_Tm4Re3PN12
_symmetry_space_group_name_H-M   'P 1'
_cell_length_a   7.25734401
_cell_length_b   7.23594002
_cell_length_c   6.06370954
_cell_angle_alpha   73.58592453
_cell_angle_beta   73.63961865
_cell_angle_gamma   82.44486227
_symmetry_Int_Tables_number   1
_chemical_formula_structural   Tm4Re3PN12
_chemical_formula_sum   'Tm4 Re3 P1 N12'
_cell_volume   292.61616969
_cell_formula_units_Z   1
loop_
 _symmetry_equiv_pos_site_id
 _symmetry_equiv_pos_as_xyz
  1  'x, y, z'
loop_
 _atom_site_type_symbol
 _atom_site_label
 _atom_site_symmetry_multiplicity
 _atom_site_fract_x
 _atom_site_fract_y
 _atom_site_fract_z
 _atom_site_occupancy
  Tm  Tm0  1  0.902726  0.085452  0.762842  1
  Tm  Tm1  1  0.105199  0.903613  0.250196  1
  Tm  Tm2  1  0.704773  0.275310  0.259255  1
  Tm  Tm3  1  0.300787  0.710587  0.736050  1
  Re  Re4  1  0.198242  0.380356  0.221029  1
  Re  Re5  1  0.379968  0.198866  0.722085  1
  Re  Re6  1  0.784922  0.628982  0.787071  1
  P  P7  1  0.615714  0.810664  0.279961  1
  N  N8  1  0.668743  0.650025  0.097600  1
  N  N9  1  0.388387  0.864114  0.334367  1
  N  N10  1  0.365160  0.340597  0.419954  1
  N  N11  1  0.124878  0.630385  0.149051  1
  N  N12  1  0.002226  0.214387  0.338142  1
  N  N13  1  0.770156  0.978654  0.164773  1
  N  N14  1  0.217174  0.000292  0.839621  1
  N  N15  1  0.633891  0.121712  0.657738  1
  N  N16  1  0.344254  0.368041  0.914332  1
  N  N17  1  0.860555  0.379179  0.843997  1
  N  N18  1  0.639258  0.682483  0.559126  1
  N  N19  1  0.992985  0.776303  0.662814  1
