# generated using pymatgen
data_Tb12Zn11Si12Ag
_symmetry_space_group_name_H-M   'P 1'
_cell_length_a   4.13205800
_cell_length_b   7.17528414
_cell_length_c   24.21267600
_cell_angle_alpha   89.98864510
_cell_angle_beta   90.00000000
_cell_angle_gamma   90.00000000
_symmetry_Int_Tables_number   1
_chemical_formula_structural   Tb12Zn11Si12Ag
_chemical_formula_sum   'Tb12 Zn11 Si12 Ag1'
_cell_volume   717.87411643
_cell_formula_units_Z   1
loop_
 _symmetry_equiv_pos_site_id
 _symmetry_equiv_pos_as_xyz
  1  'x, y, z'
loop_
 _atom_site_type_symbol
 _atom_site_label
 _atom_site_symmetry_multiplicity
 _atom_site_fract_x
 _atom_site_fract_y
 _atom_site_fract_z
 _atom_site_occupancy
  Tb  Tb0  1  0.250000  0.750070  0.333326  1
  Tb  Tb1  1  0.750000  0.253332  0.667293  1
  Tb  Tb2  1  0.750000  0.250419  0.167085  1
  Tb  Tb3  1  0.250000  0.749468  0.833096  1
  Tb  Tb4  1  0.250000  0.750698  0.167170  1
  Tb  Tb5  1  0.750000  0.249663  0.832839  1
  Tb  Tb6  1  0.750000  0.250772  0.333263  1
  Tb  Tb7  1  0.250000  0.746163  0.666751  1
  Tb  Tb8  1  0.250000  0.750344  0.999647  1
  Tb  Tb9  1  0.750000  0.249578  0.999571  1
  Tb  Tb10  1  0.750000  0.251203  0.500415  1
  Tb  Tb11  1  0.250000  0.748188  0.500354  1
  Zn  Zn12  1  0.250000  0.417237  0.250317  1
  Zn  Zn13  1  0.750000  0.584005  0.751500  1
  Zn  Zn14  1  0.750000  0.917322  0.250359  1
  Zn  Zn15  1  0.250000  0.081859  0.751451  1
  Zn  Zn16  1  0.250000  0.416645  0.411950  1
  Zn  Zn17  1  0.750000  0.582410  0.589674  1
  Zn  Zn18  1  0.750000  0.916826  0.086577  1
  Zn  Zn19  1  0.250000  0.083090  0.913290  1
  Zn  Zn20  1  0.250000  0.416762  0.086222  1
  Zn  Zn21  1  0.750000  0.583251  0.913751  1
  Zn  Zn22  1  0.750000  0.916964  0.412252  1
  Si  Si23  1  0.250000  0.084005  0.080535  1
  Si  Si24  1  0.750000  0.916305  0.918789  1
  Si  Si25  1  0.750000  0.583610  0.419177  1
  Si  Si26  1  0.250000  0.423229  0.578456  1
  Si  Si27  1  0.250000  0.084447  0.250080  1
  Si  Si28  1  0.750000  0.916391  0.749446  1
  Si  Si29  1  0.750000  0.584260  0.249741  1
  Si  Si30  1  0.250000  0.415438  0.749771  1
  Si  Si31  1  0.250000  0.083751  0.419591  1
  Si  Si32  1  0.750000  0.908114  0.578447  1
  Si  Si33  1  0.750000  0.583630  0.080958  1
  Si  Si34  1  0.250000  0.416015  0.918464  1
  Ag  Ag35  1  0.250000  0.084535  0.588395  1
