# generated using pymatgen
data_Dy4Al17Pd7
_symmetry_space_group_name_H-M   'P 1'
_cell_length_a   7.60377000
_cell_length_b   7.60376792
_cell_length_c   9.44796800
_cell_angle_alpha   90.00000000
_cell_angle_beta   90.00000000
_cell_angle_gamma   118.66228540
_symmetry_Int_Tables_number   1
_chemical_formula_structural   Dy4Al17Pd7
_chemical_formula_sum   'Dy4 Al17 Pd7'
_cell_volume   479.31894499
_cell_formula_units_Z   1
loop_
 _symmetry_equiv_pos_site_id
 _symmetry_equiv_pos_as_xyz
  1  'x, y, z'
loop_
 _atom_site_type_symbol
 _atom_site_label
 _atom_site_symmetry_multiplicity
 _atom_site_fract_x
 _atom_site_fract_y
 _atom_site_fract_z
 _atom_site_occupancy
  Dy  Dy0  1  0.990811  0.676720  0.250000  1
  Dy  Dy1  1  0.007296  0.323985  0.750000  1
  Dy  Dy2  1  0.676720  0.990811  0.250000  1
  Dy  Dy3  1  0.323985  0.007296  0.750000  1
  Al  Al4  1  0.861026  0.861026  0.750000  1
  Al  Al5  1  0.003628  0.330208  0.084875  1
  Al  Al6  1  0.999508  0.660857  0.920829  1
  Al  Al7  1  0.999508  0.660857  0.579171  1
  Al  Al8  1  0.330208  0.003628  0.415125  1
  Al  Al9  1  0.003628  0.330208  0.415125  1
  Al  Al10  1  0.660857  0.999508  0.579171  1
  Al  Al11  1  0.660857  0.999508  0.920829  1
  Al  Al12  1  0.330208  0.003628  0.084875  1
  Al  Al13  1  0.329256  0.329256  0.537584  1
  Al  Al14  1  0.666373  0.666374  0.447604  1
  Al  Al15  1  0.666373  0.666374  0.052396  1
  Al  Al16  1  0.329256  0.329256  0.962416  1
  Al  Al17  1  0.342609  0.552407  0.250000  1
  Al  Al18  1  0.654556  0.446571  0.750000  1
  Al  Al19  1  0.552407  0.342609  0.250000  1
  Al  Al20  1  0.446571  0.654556  0.750000  1
  Pd  Pd21  1  0.169950  0.169950  0.250000  1
  Pd  Pd22  1  0.677468  0.327667  0.999612  1
  Pd  Pd23  1  0.327667  0.677468  0.999612  1
  Pd  Pd24  1  0.327667  0.677468  0.500388  1
  Pd  Pd25  1  0.677468  0.327667  0.500388  1
  Pd  Pd26  1  0.992071  0.992071  0.989410  1
  Pd  Pd27  1  0.992071  0.992071  0.510590  1
