# generated using pymatgen
data_Pm3F10
_symmetry_space_group_name_H-M   'P 1'
_cell_length_a   4.53731095
_cell_length_b   4.15840503
_cell_length_c   13.28783005
_cell_angle_alpha   117.47234027
_cell_angle_beta   69.90775037
_cell_angle_gamma   88.93132575
_symmetry_Int_Tables_number   1
_chemical_formula_structural   Pm3F10
_chemical_formula_sum   'Pm3 F10'
_cell_volume   204.12984816
_cell_formula_units_Z   1
loop_
 _symmetry_equiv_pos_site_id
 _symmetry_equiv_pos_as_xyz
  1  'x, y, z'
loop_
 _atom_site_type_symbol
 _atom_site_label
 _atom_site_symmetry_multiplicity
 _atom_site_fract_x
 _atom_site_fract_y
 _atom_site_fract_z
 _atom_site_occupancy
  Pm  Pm0  1  0.112927  0.650651  0.317610  1
  Pm  Pm1  1  0.463156  0.654903  0.988470  1
  Pm  Pm2  1  0.791109  0.647598  0.648596  1
  F  F3  1  0.947826  0.656421  0.002805  1
  F  F4  1  0.321786  0.605568  0.619469  1
  F  F5  1  0.053403  0.311450  0.424842  1
  F  F6  1  0.898718  0.311206  0.761943  1
  F  F7  1  0.603429  0.672694  0.327678  1
  F  F8  1  0.556710  0.983419  0.874357  1
  F  F9  1  0.436052  0.319617  0.099611  1
  F  F10  1  0.873548  0.991470  0.543963  1
  F  F11  1  0.454235  0.328270  0.767185  1
  F  F12  1  0.143088  0.981410  0.203540  1
