# generated using pymatgen
data_YLu3Cr4F28
_symmetry_space_group_name_H-M   'P 1'
_cell_length_a   5.42744883
_cell_length_b   8.62847832
_cell_length_c   11.55726100
_cell_angle_alpha   63.34083806
_cell_angle_beta   90.08398889
_cell_angle_gamma   90.00063804
_symmetry_Int_Tables_number   1
_chemical_formula_structural   YLu3Cr4F28
_chemical_formula_sum   'Y1 Lu3 Cr4 F28'
_cell_volume   483.69531169
_cell_formula_units_Z   1
loop_
 _symmetry_equiv_pos_site_id
 _symmetry_equiv_pos_as_xyz
  1  'x, y, z'
loop_
 _atom_site_type_symbol
 _atom_site_label
 _atom_site_symmetry_multiplicity
 _atom_site_fract_x
 _atom_site_fract_y
 _atom_site_fract_z
 _atom_site_occupancy
  Y  Y0  1  0.734300  0.811566  0.265914  1
  Lu  Lu1  1  0.767479  0.811637  0.765389  1
  Lu  Lu2  1  0.267593  0.189188  0.734373  1
  Lu  Lu3  1  0.232207  0.193428  0.233423  1
  Cr  Cr4  1  0.759005  0.275031  0.954905  1
  Cr  Cr5  1  0.258257  0.726052  0.546323  1
  Cr  Cr6  1  0.242718  0.726196  0.041508  1
  Cr  Cr7  1  0.741620  0.271227  0.457144  1
  F  F8  1  0.435809  0.704977  0.919753  1
  F  F9  1  0.936354  0.293403  0.578574  1
  F  F10  1  0.565023  0.295040  0.077173  1
  F  F11  1  0.066754  0.704544  0.423303  1
  F  F12  1  0.449768  0.277134  0.547092  1
  F  F13  1  0.948383  0.721757  0.952681  1
  F  F14  1  0.549468  0.718987  0.458709  1
  F  F15  1  0.050937  0.279313  0.045373  1
  F  F16  1  0.771152  0.512713  0.860806  1
  F  F17  1  0.269369  0.487358  0.639935  1
  F  F18  1  0.228534  0.487779  0.137030  1
  F  F19  1  0.727354  0.508306  0.362580  1
  F  F20  1  0.755441  0.038614  0.044789  1
  F  F21  1  0.255032  0.961811  0.454959  1
  F  F22  1  0.245219  0.962671  0.952475  1
  F  F23  1  0.744935  0.035110  0.547287  1
  F  F24  1  0.973842  0.728996  0.640629  1
  F  F25  1  0.475437  0.271221  0.859679  1
  F  F26  1  0.025574  0.271218  0.361488  1
  F  F27  1  0.526342  0.726524  0.135824  1
  F  F28  1  0.054595  0.744703  0.169105  1
  F  F29  1  0.547391  0.251826  0.330421  1
  F  F30  1  0.952976  0.253508  0.829364  1
  F  F31  1  0.451649  0.746612  0.672163  1
  F  F32  1  0.407617  0.979298  0.227625  1
  F  F33  1  0.917075  0.031990  0.272141  1
  F  F34  1  0.582362  0.023712  0.771237  1
  F  F35  1  0.082430  0.976549  0.728825  1
