# generated using pymatgen
data_H11(RuI2)2
_symmetry_space_group_name_H-M   'P 1'
_cell_length_a   6.52441164
_cell_length_b   8.30023743
_cell_length_c   14.85341551
_cell_angle_alpha   58.52652989
_cell_angle_beta   81.25907489
_cell_angle_gamma   90.53953353
_symmetry_Int_Tables_number   1
_chemical_formula_structural   H11(RuI2)2
_chemical_formula_sum   'H22 Ru4 I8'
_cell_volume   674.29931165
_cell_formula_units_Z   2
loop_
 _symmetry_equiv_pos_site_id
 _symmetry_equiv_pos_as_xyz
  1  'x, y, z'
loop_
 _atom_site_type_symbol
 _atom_site_label
 _atom_site_symmetry_multiplicity
 _atom_site_fract_x
 _atom_site_fract_y
 _atom_site_fract_z
 _atom_site_occupancy
  H  H0  1  0.681027  0.617402  0.818728  1
  H  H1  1  0.316351  0.381981  0.184218  1
  H  H2  1  0.729060  0.541549  0.642987  1
  H  H3  1  0.273272  0.456657  0.355949  1
  H  H4  1  0.789914  0.993104  0.669958  1
  H  H5  1  0.207501  0.006764  0.330863  1
  H  H6  1  0.667043  0.657442  0.865593  1
  H  H7  1  0.333236  0.342984  0.136593  1
  H  H8  1  0.892160  0.758326  0.664899  1
  H  H9  1  0.099731  0.239058  0.336243  1
  H  H10  1  0.840794  0.608337  0.588980  1
  H  H11  1  0.161783  0.390336  0.410235  1
  H  H12  1  0.824245  0.912448  0.839058  1
  H  H13  1  0.178452  0.089459  0.160032  1
  H  H14  1  0.921936  0.839130  0.868065  1
  H  H15  1  0.081396  0.162961  0.130572  1
  H  H16  1  0.962159  0.338817  0.681894  1
  H  H17  1  0.041222  0.659820  0.318648  1
  H  H18  1  0.051957  0.322204  0.725510  1
  H  H19  1  0.952601  0.679173  0.273890  1
  H  H20  1  0.674081  0.921984  0.717555  1
  H  H21  1  0.323740  0.076789  0.283153  1
  Ru  Ru22  1  0.876829  0.796446  0.769575  1
  Ru  Ru23  1  0.121957  0.203327  0.230612  1
  Ru  Ru24  1  0.933855  0.519290  0.705201  1
  Ru  Ru25  1  0.066953  0.480537  0.294420  1
  I  I26  1  0.724955  0.305326  0.445212  1
  I  I27  1  0.275061  0.698765  0.554980  1
  I  I28  1  0.880567  0.490321  0.141553  1
  I  I29  1  0.118354  0.509792  0.858514  1
  I  I30  1  0.774629  0.955442  0.348929  1
  I  I31  1  0.223719  0.043476  0.648657  1
  I  I32  1  0.623174  0.249727  0.860116  1
  I  I33  1  0.376291  0.750828  0.138610  1
