# generated using pymatgen
data_UPa(AlC)6
_symmetry_space_group_name_H-M   'P 1'
_cell_length_a   3.39569000
_cell_length_b   3.39569017
_cell_length_c   17.51947900
_cell_angle_alpha   90.00000000
_cell_angle_beta   90.00000000
_cell_angle_gamma   119.99999834
_symmetry_Int_Tables_number   1
_chemical_formula_structural   UPa(AlC)6
_chemical_formula_sum   'U1 Pa1 Al6 C6'
_cell_volume   174.94757176
_cell_formula_units_Z   1
loop_
 _symmetry_equiv_pos_site_id
 _symmetry_equiv_pos_as_xyz
  1  'x, y, z'
loop_
 _atom_site_type_symbol
 _atom_site_label
 _atom_site_symmetry_multiplicity
 _atom_site_fract_x
 _atom_site_fract_y
 _atom_site_fract_z
 _atom_site_occupancy
  U  U0  1  0.000000  0.000000  0.502957  1
  Pa  Pa1  1  0.000000  0.000000  0.002986  1
  Al  Al2  1  0.333333  0.666667  0.139025  1
  Al  Al3  1  0.666667  0.333333  0.867638  1
  Al  Al4  1  0.666667  0.333333  0.636301  1
  Al  Al5  1  0.333333  0.666667  0.753791  1
  Al  Al6  1  0.333333  0.666667  0.370256  1
  Al  Al7  1  0.666667  0.333333  0.256201  1
  C  C8  1  0.333333  0.666667  0.596118  1
  C  C9  1  0.666667  0.333333  0.408323  1
  C  C10  1  0.333333  0.666667  0.905325  1
  C  C11  1  0.666667  0.333333  0.099367  1
  C  C12  1  0.666667  0.333333  0.751885  1
  C  C13  1  0.333333  0.666667  0.254425  1
