# generated using pymatgen
data_Ta12Al7V(TcC)4
_symmetry_space_group_name_H-M   'P 1'
_cell_length_a   8.35597535
_cell_length_b   8.35597455
_cell_length_c   8.35597345
_cell_angle_alpha   59.68789526
_cell_angle_beta   59.68789407
_cell_angle_gamma   59.68789392
_symmetry_Int_Tables_number   1
_chemical_formula_structural   Ta12Al7V(TcC)4
_chemical_formula_sum   'Ta12 Al7 V1 Tc4 C4'
_cell_volume   409.62476793
_cell_formula_units_Z   1
loop_
 _symmetry_equiv_pos_site_id
 _symmetry_equiv_pos_as_xyz
  1  'x, y, z'
loop_
 _atom_site_type_symbol
 _atom_site_label
 _atom_site_symmetry_multiplicity
 _atom_site_fract_x
 _atom_site_fract_y
 _atom_site_fract_z
 _atom_site_occupancy
  Ta  Ta0  1  0.559632  0.939407  0.559632  1
  Ta  Ta1  1  0.311253  0.688195  0.688195  1
  Ta  Ta2  1  0.693066  0.308874  0.308874  1
  Ta  Ta3  1  0.308874  0.693066  0.308874  1
  Ta  Ta4  1  0.688195  0.688195  0.311253  1
  Ta  Ta5  1  0.308874  0.308874  0.693066  1
  Ta  Ta6  1  0.559632  0.559632  0.939407  1
  Ta  Ta7  1  0.939407  0.559632  0.559632  1
  Ta  Ta8  1  0.562263  0.938959  0.938959  1
  Ta  Ta9  1  0.938959  0.938959  0.562263  1
  Ta  Ta10  1  0.688195  0.311253  0.688195  1
  Ta  Ta11  1  0.938959  0.562263  0.938959  1
  Al  Al12  1  0.996385  0.333638  0.333638  1
  Al  Al13  1  0.333638  0.996385  0.333638  1
  Al  Al14  1  0.333638  0.333638  0.996385  1
  Al  Al15  1  0.916329  0.255326  0.916329  1
  Al  Al16  1  0.916329  0.916329  0.255326  1
  Al  Al17  1  0.255326  0.916329  0.916329  1
  Al  Al18  1  0.334990  0.334990  0.334990  1
  V  V19  1  0.923510  0.923510  0.923510  1
  Tc  Tc20  1  0.125366  0.125366  0.125366  1
  Tc  Tc21  1  0.629412  0.119587  0.119587  1
  Tc  Tc22  1  0.119587  0.629412  0.119587  1
  Tc  Tc23  1  0.119587  0.119587  0.629412  1
  C  C24  1  0.624786  0.624786  0.624786  1
  C  C25  1  0.124710  0.624549  0.624549  1
  C  C26  1  0.624549  0.124710  0.624549  1
  C  C27  1  0.624549  0.624549  0.124710  1
