# generated using pymatgen
data_ThNi2GeAs
_symmetry_space_group_name_H-M   'P 1'
_cell_length_a   4.18045800
_cell_length_b   4.18045800
_cell_length_c   9.54899500
_cell_angle_alpha   90.00000000
_cell_angle_beta   90.00000000
_cell_angle_gamma   90.00000000
_symmetry_Int_Tables_number   1
_chemical_formula_structural   ThNi2GeAs
_chemical_formula_sum   'Th2 Ni4 Ge2 As2'
_cell_volume   166.88042420
_cell_formula_units_Z   2
loop_
 _symmetry_equiv_pos_site_id
 _symmetry_equiv_pos_as_xyz
  1  'x, y, z'
loop_
 _atom_site_type_symbol
 _atom_site_label
 _atom_site_symmetry_multiplicity
 _atom_site_fract_x
 _atom_site_fract_y
 _atom_site_fract_z
 _atom_site_occupancy
  Th  Th0  1  0.000000  0.500000  0.245467  1
  Th  Th1  1  0.500000  0.000000  0.754533  1
  Ni  Ni2  1  0.000000  0.000000  0.000000  1
  Ni  Ni3  1  0.500000  0.500000  0.000000  1
  Ni  Ni4  1  0.000000  0.500000  0.625303  1
  Ni  Ni5  1  0.500000  0.000000  0.374697  1
  Ge  Ge6  1  0.000000  0.000000  0.500000  1
  Ge  Ge7  1  0.500000  0.500000  0.500000  1
  As  As8  1  0.000000  0.500000  0.871930  1
  As  As9  1  0.500000  0.000000  0.128070  1
