# generated using pymatgen
data_NdThSi4Tc3
_symmetry_space_group_name_H-M   'P 1'
_cell_length_a   8.21440900
_cell_length_b   5.73329968
_cell_length_c   7.00385134
_cell_angle_alpha   76.69379254
_cell_angle_beta   90.00000000
_cell_angle_gamma   90.00000000
_symmetry_Int_Tables_number   1
_chemical_formula_structural   NdThSi4Tc3
_chemical_formula_sum   'Nd2 Th2 Si8 Tc6'
_cell_volume   320.99586081
_cell_formula_units_Z   2
loop_
 _symmetry_equiv_pos_site_id
 _symmetry_equiv_pos_as_xyz
  1  'x, y, z'
loop_
 _atom_site_type_symbol
 _atom_site_label
 _atom_site_symmetry_multiplicity
 _atom_site_fract_x
 _atom_site_fract_y
 _atom_site_fract_z
 _atom_site_occupancy
  Nd  Nd0  1  0.071785  0.437858  0.744441  1
  Nd  Nd1  1  0.571785  0.062142  0.255559  1
  Th  Th2  1  0.935350  0.568117  0.249383  1
  Th  Th3  1  0.435350  0.931883  0.750617  1
  Si  Si4  1  0.586904  0.607177  0.119155  1
  Si  Si5  1  0.086904  0.892823  0.880845  1
  Si  Si6  1  0.410883  0.381901  0.892948  1
  Si  Si7  1  0.910883  0.118099  0.107052  1
  Si  Si8  1  0.753342  0.710122  0.592639  1
  Si  Si9  1  0.253342  0.789878  0.407361  1
  Si  Si10  1  0.249972  0.275238  0.407629  1
  Si  Si11  1  0.749972  0.224762  0.592371  1
  Tc  Tc12  1  0.290005  0.613394  0.117391  1
  Tc  Tc13  1  0.790005  0.886606  0.882609  1
  Tc  Tc14  1  0.704656  0.388884  0.885130  1
  Tc  Tc15  1  0.204656  0.111116  0.114870  1
  Tc  Tc16  1  0.497102  0.497260  0.501450  1
  Tc  Tc17  1  0.997102  0.002740  0.498550  1
