# generated using pymatgen
data_TiNb4Co16Si7Mo
_symmetry_space_group_name_H-M   'P 1'
_cell_length_a   7.87880076
_cell_length_b   7.88352045
_cell_length_c   7.88853719
_cell_angle_alpha   59.93935751
_cell_angle_beta   59.99870200
_cell_angle_gamma   60.06942246
_symmetry_Int_Tables_number   1
_chemical_formula_structural   TiNb4Co16Si7Mo
_chemical_formula_sum   'Ti1 Nb4 Co16 Si7 Mo1'
_cell_volume   346.48563188
_cell_formula_units_Z   1
loop_
 _symmetry_equiv_pos_site_id
 _symmetry_equiv_pos_as_xyz
  1  'x, y, z'
loop_
 _atom_site_type_symbol
 _atom_site_label
 _atom_site_symmetry_multiplicity
 _atom_site_fract_x
 _atom_site_fract_y
 _atom_site_fract_z
 _atom_site_occupancy
  Ti  Ti0  1  0.205377  0.794623  0.204154  1
  Nb  Nb1  1  0.800263  0.797423  0.201110  1
  Nb  Nb2  1  0.796703  0.203297  0.204527  1
  Nb  Nb3  1  0.202577  0.199737  0.798796  1
  Nb  Nb4  1  0.798436  0.201564  0.797159  1
  Co  Co5  1  0.618830  0.619626  0.142137  1
  Co  Co6  1  0.165803  0.503586  0.165741  1
  Co  Co7  1  0.857231  0.381410  0.380640  1
  Co  Co8  1  0.496414  0.834197  0.835130  1
  Co  Co9  1  0.499959  0.167068  0.166452  1
  Co  Co10  1  0.834331  0.834363  0.497534  1
  Co  Co11  1  0.165996  0.166833  0.500546  1
  Co  Co12  1  0.144859  0.619560  0.619112  1
  Co  Co13  1  0.165637  0.165669  0.166227  1
  Co  Co14  1  0.380566  0.384110  0.854549  1
  Co  Co15  1  0.615890  0.619434  0.619225  1
  Co  Co16  1  0.380440  0.855141  0.383530  1
  Co  Co17  1  0.380374  0.381170  0.380592  1
  Co  Co18  1  0.833167  0.834004  0.833377  1
  Co  Co19  1  0.618590  0.142769  0.619280  1
  Co  Co20  1  0.832932  0.500041  0.833480  1
  Si  Si21  1  0.498846  0.997793  0.500676  1
  Si  Si22  1  0.498065  0.501935  0.999271  1
  Si  Si23  1  0.501137  0.498863  0.497781  1
  Si  Si24  1  0.003811  0.996189  0.499891  1
  Si  Si25  1  0.002207  0.501154  0.997315  1
  Si  Si26  1  0.001244  0.501675  0.499295  1
  Si  Si27  1  0.498325  0.998756  0.002214  1
  Mo  Mo28  1  0.201989  0.798011  0.800261  1
