# generated using pymatgen
data_Tb7CeBePd24
_symmetry_space_group_name_H-M   'P 1'
_cell_length_a   8.33807741
_cell_length_b   8.33807776
_cell_length_c   8.33807705
_cell_angle_alpha   89.93939091
_cell_angle_beta   90.06060772
_cell_angle_gamma   90.06061265
_symmetry_Int_Tables_number   1
_chemical_formula_structural   Tb7CeBePd24
_chemical_formula_sum   'Tb7 Ce1 Be1 Pd24'
_cell_volume   579.69164339
_cell_formula_units_Z   1
loop_
 _symmetry_equiv_pos_site_id
 _symmetry_equiv_pos_as_xyz
  1  'x, y, z'
loop_
 _atom_site_type_symbol
 _atom_site_label
 _atom_site_symmetry_multiplicity
 _atom_site_fract_x
 _atom_site_fract_y
 _atom_site_fract_z
 _atom_site_occupancy
  Tb  Tb0  1  0.251007  0.251335  0.251335  1
  Tb  Tb1  1  0.749259  0.749714  0.749714  1
  Tb  Tb2  1  0.748665  0.748993  0.251335  1
  Tb  Tb3  1  0.748665  0.251335  0.748993  1
  Tb  Tb4  1  0.250286  0.250741  0.749714  1
  Tb  Tb5  1  0.250286  0.749714  0.250741  1
  Tb  Tb6  1  0.252031  0.747969  0.747969  1
  Ce  Ce7  1  0.747298  0.252702  0.252702  1
  Be  Be8  1  0.002171  0.997829  0.997829  1
  Pd  Pd9  1  0.254887  0.499844  0.999944  1
  Pd  Pd10  1  0.745371  0.499343  0.001564  1
  Pd  Pd11  1  0.998436  0.254629  0.499343  1
  Pd  Pd12  1  0.500657  0.254629  0.001564  1
  Pd  Pd13  1  0.000056  0.745113  0.499844  1
  Pd  Pd14  1  0.500156  0.745113  0.999944  1
  Pd  Pd15  1  0.500657  0.001564  0.254629  1
  Pd  Pd16  1  0.254887  0.999944  0.499844  1
  Pd  Pd17  1  0.500156  0.999944  0.745113  1
  Pd  Pd18  1  0.745371  0.001564  0.499343  1
  Pd  Pd19  1  0.998436  0.499343  0.254629  1
  Pd  Pd20  1  0.000056  0.499844  0.745113  1
  Pd  Pd21  1  0.251103  0.499785  0.499785  1
  Pd  Pd22  1  0.748190  0.499589  0.499589  1
  Pd  Pd23  1  0.500411  0.251810  0.499589  1
  Pd  Pd24  1  0.500215  0.748897  0.499785  1
  Pd  Pd25  1  0.500411  0.499589  0.251810  1
  Pd  Pd26  1  0.500215  0.499785  0.748897  1
  Pd  Pd27  1  0.269635  0.999539  0.999539  1
  Pd  Pd28  1  0.732152  0.001023  0.001023  1
  Pd  Pd29  1  0.998977  0.267848  0.001023  1
  Pd  Pd30  1  0.000461  0.730365  0.999539  1
  Pd  Pd31  1  0.998977  0.001023  0.267848  1
  Pd  Pd32  1  0.000461  0.999539  0.730365  1
