# generated using pymatgen
data_NdHo2Co8ReP6
_symmetry_space_group_name_H-M   'P 1'
_cell_length_a   3.73440100
_cell_length_b   10.54104400
_cell_length_c   12.26469200
_cell_angle_alpha   90.00000000
_cell_angle_beta   90.00000000
_cell_angle_gamma   90.00000000
_symmetry_Int_Tables_number   1
_chemical_formula_structural   NdHo2Co8ReP6
_chemical_formula_sum   'Nd2 Ho4 Co16 Re2 P12'
_cell_volume   482.79328739
_cell_formula_units_Z   2
loop_
 _symmetry_equiv_pos_site_id
 _symmetry_equiv_pos_as_xyz
  1  'x, y, z'
loop_
 _atom_site_type_symbol
 _atom_site_label
 _atom_site_symmetry_multiplicity
 _atom_site_fract_x
 _atom_site_fract_y
 _atom_site_fract_z
 _atom_site_occupancy
  Nd  Nd0  1  0.000000  0.500000  0.524301  1
  Nd  Nd1  1  0.500000  0.000000  0.475699  1
  Ho  Ho2  1  0.500000  0.817921  0.204598  1
  Ho  Ho3  1  0.500000  0.182079  0.204598  1
  Ho  Ho4  1  0.000000  0.682079  0.795402  1
  Ho  Ho5  1  0.000000  0.317921  0.795402  1
  Co  Co6  1  0.500000  0.500000  0.705157  1
  Co  Co7  1  0.000000  0.000000  0.294843  1
  Co  Co8  1  0.000000  0.500000  0.987469  1
  Co  Co9  1  0.500000  0.000000  0.012531  1
  Co  Co10  1  0.500000  0.332262  0.989772  1
  Co  Co11  1  0.500000  0.667738  0.989772  1
  Co  Co12  1  0.000000  0.167738  0.010228  1
  Co  Co13  1  0.000000  0.832262  0.010228  1
  Co  Co14  1  0.500000  0.296002  0.429331  1
  Co  Co15  1  0.500000  0.703998  0.429331  1
  Co  Co16  1  0.000000  0.203998  0.570669  1
  Co  Co17  1  0.000000  0.796002  0.570669  1
  Co  Co18  1  0.500000  0.879416  0.711431  1
  Co  Co19  1  0.500000  0.120584  0.711431  1
  Co  Co20  1  0.000000  0.620584  0.288569  1
  Co  Co21  1  0.000000  0.379416  0.288569  1
  Re  Re22  1  0.500000  0.500000  0.153980  1
  Re  Re23  1  0.000000  0.000000  0.846020  1
  P  P24  1  0.500000  0.500000  0.881073  1
  P  P25  1  0.000000  0.000000  0.118927  1
  P  P26  1  0.500000  0.500000  0.345112  1
  P  P27  1  0.000000  0.000000  0.654888  1
  P  P28  1  0.500000  0.308559  0.617883  1
  P  P29  1  0.500000  0.691441  0.617883  1
  P  P30  1  0.000000  0.191441  0.382117  1
  P  P31  1  0.000000  0.808559  0.382117  1
  P  P32  1  0.500000  0.845502  0.893343  1
  P  P33  1  0.500000  0.154498  0.893343  1
  P  P34  1  0.000000  0.654498  0.106657  1
  P  P35  1  0.000000  0.345502  0.106657  1
