# generated using pymatgen
data_Tb12Ga4Ge4IrRh7
_symmetry_space_group_name_H-M   'P 1'
_cell_length_a   5.56705034
_cell_length_b   7.98440903
_cell_length_c   13.35762793
_cell_angle_alpha   90.04234914
_cell_angle_beta   90.00527995
_cell_angle_gamma   90.03971212
_symmetry_Int_Tables_number   1
_chemical_formula_structural   Tb12Ga4Ge4IrRh7
_chemical_formula_sum   'Tb12 Ga4 Ge4 Ir1 Rh7'
_cell_volume   593.74100414
_cell_formula_units_Z   1
loop_
 _symmetry_equiv_pos_site_id
 _symmetry_equiv_pos_as_xyz
  1  'x, y, z'
loop_
 _atom_site_type_symbol
 _atom_site_label
 _atom_site_symmetry_multiplicity
 _atom_site_fract_x
 _atom_site_fract_y
 _atom_site_fract_z
 _atom_site_occupancy
  Tb  Tb0  1  0.632023  0.259504  0.249683  1
  Tb  Tb1  1  0.367332  0.739679  0.749945  1
  Tb  Tb2  1  0.367791  0.760699  0.249626  1
  Tb  Tb3  1  0.632772  0.239785  0.750050  1
  Tb  Tb4  1  0.152235  0.399378  0.100718  1
  Tb  Tb5  1  0.847831  0.599681  0.899071  1
  Tb  Tb6  1  0.847976  0.599783  0.600746  1
  Tb  Tb7  1  0.848011  0.900321  0.399405  1
  Tb  Tb8  1  0.151947  0.400250  0.399192  1
  Tb  Tb9  1  0.151968  0.099559  0.600669  1
  Tb  Tb10  1  0.152137  0.099767  0.899351  1
  Tb  Tb11  1  0.849081  0.900552  0.100951  1
  Ga  Ga12  1  0.639054  0.250123  0.000016  1
  Ga  Ga13  1  0.360453  0.749911  0.000099  1
  Ga  Ga14  1  0.360575  0.749946  0.499979  1
  Ga  Ga15  1  0.639863  0.249969  0.499977  1
  Ge  Ge16  1  0.129627  0.116883  0.250425  1
  Ge  Ge17  1  0.870226  0.882990  0.750015  1
  Ge  Ge18  1  0.870181  0.616730  0.250127  1
  Ge  Ge19  1  0.129680  0.383160  0.749977  1
  Ir  Ir20  1  0.360921  0.031020  0.093671  1
  Rh  Rh21  1  0.637767  0.969381  0.906113  1
  Rh  Rh22  1  0.637690  0.969772  0.593765  1
  Rh  Rh23  1  0.637900  0.530382  0.406454  1
  Rh  Rh24  1  0.362015  0.030310  0.406393  1
  Rh  Rh25  1  0.362247  0.469824  0.593699  1
  Rh  Rh26  1  0.362248  0.470484  0.906216  1
  Rh  Rh27  1  0.638449  0.530155  0.093667  1
