# generated using pymatgen
data_Li2Pr8Ho8Sc2Ga3Si13
_symmetry_space_group_name_H-M   'P 1'
_cell_length_a   7.31375500
_cell_length_b   7.76482500
_cell_length_c   14.78882400
_cell_angle_alpha   90.00000000
_cell_angle_beta   90.00000000
_cell_angle_gamma   90.00000000
_symmetry_Int_Tables_number   1
_chemical_formula_structural   Li2Pr8Ho8Sc2Ga3Si13
_chemical_formula_sum   'Li2 Pr8 Ho8 Sc2 Ga3 Si13'
_cell_volume   839.85772414
_cell_formula_units_Z   1
loop_
 _symmetry_equiv_pos_site_id
 _symmetry_equiv_pos_as_xyz
  1  'x, y, z'
loop_
 _atom_site_type_symbol
 _atom_site_label
 _atom_site_symmetry_multiplicity
 _atom_site_fract_x
 _atom_site_fract_y
 _atom_site_fract_z
 _atom_site_occupancy
  Li  Li0  1  0.655940  0.991818  0.750241  1
  Li  Li1  1  0.844017  0.491945  0.249967  1
  Pr  Pr2  1  0.015364  0.187816  0.398491  1
  Pr  Pr3  1  0.523604  0.325106  0.397704  1
  Pr  Pr4  1  0.484464  0.686973  0.897552  1
  Pr  Pr5  1  0.486484  0.688895  0.601416  1
  Pr  Pr6  1  0.975863  0.824570  0.601851  1
  Pr  Pr7  1  0.977026  0.826628  0.897638  1
  Pr  Pr8  1  0.521705  0.323577  0.102401  1
  Pr  Pr9  1  0.013695  0.187860  0.102040  1
  Ho  Ho10  1  0.333515  0.171786  0.624840  1
  Ho  Ho11  1  0.676963  0.811573  0.373735  1
  Ho  Ho12  1  0.167187  0.673911  0.375689  1
  Ho  Ho13  1  0.823462  0.311044  0.873114  1
  Ho  Ho14  1  0.821314  0.312290  0.625761  1
  Ho  Ho15  1  0.334287  0.173399  0.875243  1
  Ho  Ho16  1  0.167186  0.670909  0.124248  1
  Ho  Ho17  1  0.677586  0.814442  0.126894  1
  Sc  Sc18  1  0.343538  0.004811  0.250531  1
  Sc  Sc19  1  0.156236  0.504728  0.751515  1
  Ga  Ga20  1  0.155326  0.467237  0.543471  1
  Ga  Ga21  1  0.844086  0.538781  0.030111  1
  Ga  Ga22  1  0.345173  0.967633  0.043159  1
  Si  Si23  1  0.272284  0.875445  0.749544  1
  Si  Si24  1  0.463612  0.608318  0.250867  1
  Si  Si25  1  0.036246  0.108323  0.750157  1
  Si  Si26  1  0.524387  0.403015  0.749485  1
  Si  Si27  1  0.976471  0.902772  0.250858  1
  Si  Si28  1  0.717141  0.108758  0.250574  1
  Si  Si29  1  0.153384  0.468276  0.955759  1
  Si  Si30  1  0.650282  0.037398  0.528355  1
  Si  Si31  1  0.351105  0.969293  0.456987  1
  Si  Si32  1  0.845264  0.538006  0.469969  1
  Si  Si33  1  0.783515  0.608503  0.749756  1
  Si  Si34  1  0.227433  0.376028  0.250389  1
  Si  Si35  1  0.654852  0.038128  0.969687  1
