# generated using pymatgen
data_Lu2Sc2BeB7Ru10
_symmetry_space_group_name_H-M   'P 1'
_cell_length_a   3.04658000
_cell_length_b   8.59829354
_cell_length_c   10.17839199
_cell_angle_alpha   90.46608937
_cell_angle_beta   90.00000000
_cell_angle_gamma   90.00000000
_symmetry_Int_Tables_number   1
_chemical_formula_structural   Lu2Sc2BeB7Ru10
_chemical_formula_sum   'Lu2 Sc2 Be1 B7 Ru10'
_cell_volume   266.61811688
_cell_formula_units_Z   1
loop_
 _symmetry_equiv_pos_site_id
 _symmetry_equiv_pos_as_xyz
  1  'x, y, z'
loop_
 _atom_site_type_symbol
 _atom_site_label
 _atom_site_symmetry_multiplicity
 _atom_site_fract_x
 _atom_site_fract_y
 _atom_site_fract_z
 _atom_site_occupancy
  Lu  Lu0  1  0.500000  0.841060  0.183773  1
  Lu  Lu1  1  0.500000  0.157029  0.816978  1
  Sc  Sc2  1  0.500000  0.655719  0.682102  1
  Sc  Sc3  1  0.500000  0.343759  0.322385  1
  Be  Be4  1  0.500000  0.963373  0.589978  1
  B  B5  1  0.500000  0.038769  0.407480  1
  B  B6  1  0.500000  0.849518  0.897507  1
  B  B7  1  0.500000  0.149032  0.100734  1
  B  B8  1  0.500000  0.650403  0.400887  1
  B  B9  1  0.500000  0.352375  0.597483  1
  B  B10  1  0.500000  0.466534  0.910434  1
  B  B11  1  0.500000  0.531963  0.090038  1
  Ru  Ru12  1  0.000000  0.655758  0.956710  1
  Ru  Ru13  1  0.000000  0.340775  0.045117  1
  Ru  Ru14  1  0.000000  0.840521  0.446267  1
  Ru  Ru15  1  0.000000  0.166534  0.542997  1
  Ru  Ru16  1  0.000000  0.999723  0.001872  1
  Ru  Ru17  1  0.000000  0.409250  0.759891  1
  Ru  Ru18  1  0.000000  0.588282  0.240003  1
  Ru  Ru19  1  0.000000  0.503189  0.500331  1
  Ru  Ru20  1  0.000000  0.893501  0.746188  1
  Ru  Ru21  1  0.000000  0.102930  0.260845  1
