# generated using pymatgen
data_Tm9Si4TcB16
_symmetry_space_group_name_H-M   'P 1'
_cell_length_a   7.09035000
_cell_length_b   7.09035000
_cell_length_c   7.72622700
_cell_angle_alpha   90.00000000
_cell_angle_beta   90.00000000
_cell_angle_gamma   90.00000000
_symmetry_Int_Tables_number   1
_chemical_formula_structural   Tm9Si4TcB16
_chemical_formula_sum   'Tm9 Si4 Tc1 B16'
_cell_volume   388.42109767
_cell_formula_units_Z   1
loop_
 _symmetry_equiv_pos_site_id
 _symmetry_equiv_pos_as_xyz
  1  'x, y, z'
loop_
 _atom_site_type_symbol
 _atom_site_label
 _atom_site_symmetry_multiplicity
 _atom_site_fract_x
 _atom_site_fract_y
 _atom_site_fract_z
 _atom_site_occupancy
  Tm  Tm0  1  0.682170  0.178897  0.231012  1
  Tm  Tm1  1  0.317830  0.821103  0.768988  1
  Tm  Tm2  1  0.317830  0.821103  0.231012  1
  Tm  Tm3  1  0.821103  0.682170  0.231012  1
  Tm  Tm4  1  0.821103  0.682170  0.768988  1
  Tm  Tm5  1  0.682170  0.178897  0.768988  1
  Tm  Tm6  1  0.178897  0.317830  0.768988  1
  Tm  Tm7  1  0.178897  0.317830  0.231012  1
  Tm  Tm8  1  0.500000  0.500000  0.500000  1
  Si  Si9  1  0.107731  0.634333  0.500000  1
  Si  Si10  1  0.892269  0.365667  0.500000  1
  Si  Si11  1  0.365667  0.107731  0.500000  1
  Si  Si12  1  0.634333  0.892269  0.500000  1
  Tc  Tc13  1  0.000000  0.000000  0.500000  1
  B  B14  1  0.173103  0.039304  0.000000  1
  B  B15  1  0.826897  0.960696  0.000000  1
  B  B16  1  0.960696  0.173103  0.000000  1
  B  B17  1  0.327662  0.539623  0.000000  1
  B  B18  1  0.039304  0.826897  0.000000  1
  B  B19  1  0.672338  0.460377  0.000000  1
  B  B20  1  0.539623  0.672338  0.000000  1
  B  B21  1  0.460377  0.327662  0.000000  1
  B  B22  1  0.089932  0.589027  0.000000  1
  B  B23  1  0.910068  0.410973  0.000000  1
  B  B24  1  0.410973  0.089932  0.000000  1
  B  B25  1  0.589027  0.910068  0.000000  1
  B  B26  1  0.000000  0.000000  0.173193  1
  B  B27  1  0.000000  0.000000  0.826807  1
  B  B28  1  0.500000  0.500000  0.831550  1
  B  B29  1  0.500000  0.500000  0.168450  1
