# generated using pymatgen
data_TbDy3(AuBr6)4
_symmetry_space_group_name_H-M   'P 1'
_cell_length_a   8.31284051
_cell_length_b   10.44982886
_cell_length_c   14.85335143
_cell_angle_alpha   103.38136464
_cell_angle_beta   96.46893739
_cell_angle_gamma   112.71441871
_symmetry_Int_Tables_number   1
_chemical_formula_structural   TbDy3(AuBr6)4
_chemical_formula_sum   'Tb1 Dy3 Au4 Br24'
_cell_volume   1128.16812550
_cell_formula_units_Z   1
loop_
 _symmetry_equiv_pos_site_id
 _symmetry_equiv_pos_as_xyz
  1  'x, y, z'
loop_
 _atom_site_type_symbol
 _atom_site_label
 _atom_site_symmetry_multiplicity
 _atom_site_fract_x
 _atom_site_fract_y
 _atom_site_fract_z
 _atom_site_occupancy
  Tb  Tb0  1  0.024386  0.686951  0.129014  1
  Dy  Dy1  1  0.580043  0.924513  0.621938  1
  Dy  Dy2  1  0.419999  0.075523  0.378090  1
  Dy  Dy3  1  0.975354  0.313093  0.870976  1
  Au  Au4  1  0.295029  0.631762  0.762657  1
  Au  Au5  1  0.704908  0.368161  0.237361  1
  Au  Au6  1  0.500002  0.500007  0.500008  1
  Au  Au7  1  0.000003  0.000073  0.999973  1
  Br  Br8  1  0.610417  0.737687  0.748062  1
  Br  Br9  1  0.389569  0.262305  0.251931  1
  Br  Br10  1  0.278864  0.849913  0.732397  1
  Br  Br11  1  0.721117  0.150078  0.267599  1
  Br  Br12  1  0.977158  0.529042  0.772795  1
  Br  Br13  1  0.022907  0.470496  0.227426  1
  Br  Br14  1  0.309280  0.410145  0.788668  1
  Br  Br15  1  0.690228  0.589718  0.211433  1
  Br  Br16  1  0.686116  0.363466  0.506150  1
  Br  Br17  1  0.313874  0.636527  0.493851  1
  Br  Br18  1  0.763999  0.733369  0.527714  1
  Br  Br19  1  0.236023  0.266660  0.472300  1
  Br  Br20  1  0.790918  0.112980  0.976745  1
  Br  Br21  1  0.209531  0.887446  0.023033  1
  Br  Br22  1  0.768438  0.791806  0.032981  1
  Br  Br23  1  0.231201  0.208289  0.966899  1
  Br  Br24  1  0.620963  0.192248  0.746087  1
  Br  Br25  1  0.379797  0.807969  0.254135  1
  Br  Br26  1  0.944916  0.057469  0.727479  1
  Br  Br27  1  0.055182  0.943195  0.272885  1
  Br  Br28  1  0.721186  0.046764  0.481312  1
  Br  Br29  1  0.278832  0.953249  0.518708  1
  Br  Br30  1  0.767321  0.436776  0.976345  1
  Br  Br31  1  0.232438  0.562319  0.023048  1
