# generated using pymatgen
data_Ho5Tl2(HgPd)2
_symmetry_space_group_name_H-M   'P 1'
_cell_length_a   3.60621400
_cell_length_b   8.01019000
_cell_length_c   18.28975900
_cell_angle_alpha   90.00000000
_cell_angle_beta   90.00000000
_cell_angle_gamma   90.00000000
_symmetry_Int_Tables_number   1
_chemical_formula_structural   Ho5Tl2(HgPd)2
_chemical_formula_sum   'Ho10 Tl4 Hg4 Pd4'
_cell_volume   528.32637934
_cell_formula_units_Z   2
loop_
 _symmetry_equiv_pos_site_id
 _symmetry_equiv_pos_as_xyz
  1  'x, y, z'
loop_
 _atom_site_type_symbol
 _atom_site_label
 _atom_site_symmetry_multiplicity
 _atom_site_fract_x
 _atom_site_fract_y
 _atom_site_fract_z
 _atom_site_occupancy
  Ho  Ho0  1  0.000000  0.500000  0.500000  1
  Ho  Ho1  1  0.000000  0.000000  0.000000  1
  Ho  Ho2  1  0.000000  0.743518  0.284115  1
  Ho  Ho3  1  0.000000  0.256482  0.715885  1
  Ho  Ho4  1  0.000000  0.756482  0.784115  1
  Ho  Ho5  1  0.000000  0.243518  0.215885  1
  Ho  Ho6  1  0.000000  0.608265  0.083404  1
  Ho  Ho7  1  0.000000  0.391735  0.916596  1
  Ho  Ho8  1  0.000000  0.891735  0.583404  1
  Ho  Ho9  1  0.000000  0.108265  0.416596  1
  Tl  Tl10  1  0.500000  0.580718  0.647856  1
  Tl  Tl11  1  0.500000  0.419282  0.352144  1
  Tl  Tl12  1  0.500000  0.919282  0.147856  1
  Tl  Tl13  1  0.500000  0.080718  0.852144  1
  Hg  Hg14  1  0.500000  0.711556  0.933161  1
  Hg  Hg15  1  0.500000  0.288444  0.066839  1
  Hg  Hg16  1  0.500000  0.788444  0.433161  1
  Hg  Hg17  1  0.500000  0.211556  0.566839  1
  Pd  Pd18  1  0.500000  0.528690  0.196585  1
  Pd  Pd19  1  0.500000  0.471310  0.803415  1
  Pd  Pd20  1  0.500000  0.971310  0.696585  1
  Pd  Pd21  1  0.500000  0.028690  0.303415  1
