# generated using pymatgen
data_Hf10Sn6S
_symmetry_space_group_name_H-M   'P 1'
_cell_length_a   8.49023100
_cell_length_b   8.49022925
_cell_length_c   5.77751900
_cell_angle_alpha   90.00000000
_cell_angle_beta   90.00000000
_cell_angle_gamma   120.00000292
_symmetry_Int_Tables_number   1
_chemical_formula_structural   Hf10Sn6S
_chemical_formula_sum   'Hf10 Sn6 S1'
_cell_volume   360.67075174
_cell_formula_units_Z   1
loop_
 _symmetry_equiv_pos_site_id
 _symmetry_equiv_pos_as_xyz
  1  'x, y, z'
loop_
 _atom_site_type_symbol
 _atom_site_label
 _atom_site_symmetry_multiplicity
 _atom_site_fract_x
 _atom_site_fract_y
 _atom_site_fract_z
 _atom_site_occupancy
  Hf  Hf0  1  0.666667  0.333333  0.500000  1
  Hf  Hf1  1  0.333333  0.666667  0.500000  1
  Hf  Hf2  1  0.333333  0.666667  0.000000  1
  Hf  Hf3  1  0.666667  0.333333  0.000000  1
  Hf  Hf4  1  0.750035  0.750035  0.241239  1
  Hf  Hf5  1  0.249965  0.000000  0.241239  1
  Hf  Hf6  1  0.000000  0.249965  0.241239  1
  Hf  Hf7  1  0.249965  0.249965  0.758761  1
  Hf  Hf8  1  0.750035  0.000000  0.758761  1
  Hf  Hf9  1  0.000000  0.750035  0.758761  1
  Sn  Sn10  1  0.394279  0.394279  0.249880  1
  Sn  Sn11  1  0.605721  0.000000  0.249880  1
  Sn  Sn12  1  0.000000  0.605721  0.249880  1
  Sn  Sn13  1  0.605721  0.605721  0.750120  1
  Sn  Sn14  1  0.394279  0.000000  0.750120  1
  Sn  Sn15  1  0.000000  0.394279  0.750120  1
  S  S16  1  0.000000  0.000000  0.500000  1
