# generated using pymatgen
data_Nd2Zr3Pb4
_symmetry_space_group_name_H-M   'P 1'
_cell_length_a   8.02172800
_cell_length_b   8.05480700
_cell_length_c   15.07949900
_cell_angle_alpha   90.00000000
_cell_angle_beta   90.00000000
_cell_angle_gamma   90.00000000
_symmetry_Int_Tables_number   1
_chemical_formula_structural   Nd2Zr3Pb4
_chemical_formula_sum   'Nd8 Zr12 Pb16'
_cell_volume   974.33876902
_cell_formula_units_Z   4
loop_
 _symmetry_equiv_pos_site_id
 _symmetry_equiv_pos_as_xyz
  1  'x, y, z'
loop_
 _atom_site_type_symbol
 _atom_site_label
 _atom_site_symmetry_multiplicity
 _atom_site_fract_x
 _atom_site_fract_y
 _atom_site_fract_z
 _atom_site_occupancy
  Nd  Nd0  1  0.512402  0.323882  0.907808  1
  Nd  Nd1  1  0.012402  0.176118  0.592192  1
  Nd  Nd2  1  0.487598  0.676118  0.407808  1
  Nd  Nd3  1  0.987598  0.823882  0.092192  1
  Nd  Nd4  1  0.487598  0.676118  0.092192  1
  Nd  Nd5  1  0.987598  0.823882  0.407808  1
  Nd  Nd6  1  0.512402  0.323882  0.592192  1
  Nd  Nd7  1  0.012402  0.176118  0.907808  1
  Zr  Zr8  1  0.344597  0.842211  0.870977  1
  Zr  Zr9  1  0.844597  0.657789  0.629023  1
  Zr  Zr10  1  0.655403  0.157789  0.370977  1
  Zr  Zr11  1  0.155403  0.342211  0.129023  1
  Zr  Zr12  1  0.655403  0.157789  0.129023  1
  Zr  Zr13  1  0.155403  0.342211  0.370977  1
  Zr  Zr14  1  0.344597  0.842211  0.629023  1
  Zr  Zr15  1  0.844597  0.657789  0.870977  1
  Zr  Zr16  1  0.165161  0.511766  0.750000  1
  Zr  Zr17  1  0.665161  0.988234  0.750000  1
  Zr  Zr18  1  0.834839  0.488234  0.250000  1
  Zr  Zr19  1  0.334839  0.011766  0.250000  1
  Pb  Pb20  1  0.311966  0.043569  0.044591  1
  Pb  Pb21  1  0.811966  0.456431  0.455409  1
  Pb  Pb22  1  0.688034  0.956431  0.544591  1
  Pb  Pb23  1  0.188034  0.543569  0.955409  1
  Pb  Pb24  1  0.688034  0.956431  0.955409  1
  Pb  Pb25  1  0.188034  0.543569  0.544591  1
  Pb  Pb26  1  0.311966  0.043569  0.455409  1
  Pb  Pb27  1  0.811966  0.456431  0.044591  1
  Pb  Pb28  1  0.537171  0.622332  0.750000  1
  Pb  Pb29  1  0.037171  0.877668  0.750000  1
  Pb  Pb30  1  0.462829  0.377668  0.250000  1
  Pb  Pb31  1  0.962829  0.122332  0.250000  1
  Pb  Pb32  1  0.316748  0.157300  0.750000  1
  Pb  Pb33  1  0.816748  0.342700  0.750000  1
  Pb  Pb34  1  0.683252  0.842700  0.250000  1
  Pb  Pb35  1  0.183252  0.657300  0.250000  1
