# generated using pymatgen
data_Ho17Er3Si15Rh
_symmetry_space_group_name_H-M   'P 1'
_cell_length_a   7.40066075
_cell_length_b   7.64534778
_cell_length_c   14.52042366
_cell_angle_alpha   89.72019929
_cell_angle_beta   89.69615227
_cell_angle_gamma   90.19413174
_symmetry_Int_Tables_number   1
_chemical_formula_structural   Ho17Er3Si15Rh
_chemical_formula_sum   'Ho17 Er3 Si15 Rh1'
_cell_volume   821.54851193
_cell_formula_units_Z   1
loop_
 _symmetry_equiv_pos_site_id
 _symmetry_equiv_pos_as_xyz
  1  'x, y, z'
loop_
 _atom_site_type_symbol
 _atom_site_label
 _atom_site_symmetry_multiplicity
 _atom_site_fract_x
 _atom_site_fract_y
 _atom_site_fract_z
 _atom_site_occupancy
  Ho  Ho0  1  0.351503  0.010448  0.751873  1
  Ho  Ho1  1  0.974650  0.816397  0.097456  1
  Ho  Ho2  1  0.472604  0.682171  0.401734  1
  Ho  Ho3  1  0.528060  0.322782  0.901011  1
  Ho  Ho4  1  0.027818  0.183740  0.599125  1
  Ho  Ho5  1  0.026661  0.184826  0.902087  1
  Ho  Ho6  1  0.528269  0.318492  0.598442  1
  Ho  Ho7  1  0.475349  0.681325  0.098668  1
  Ho  Ho8  1  0.971667  0.817659  0.401074  1
  Ho  Ho9  1  0.682907  0.811890  0.881986  1
  Ho  Ho10  1  0.178348  0.681046  0.622102  1
  Ho  Ho11  1  0.818039  0.333282  0.118654  1
  Ho  Ho12  1  0.317223  0.177973  0.375957  1
  Ho  Ho13  1  0.321720  0.179142  0.123638  1
  Ho  Ho14  1  0.820107  0.319597  0.377214  1
  Ho  Ho15  1  0.175500  0.675434  0.878221  1
  Ho  Ho16  1  0.682325  0.819258  0.622718  1
  Er  Er17  1  0.649336  0.992310  0.248870  1
  Er  Er18  1  0.149139  0.510659  0.247674  1
  Er  Er19  1  0.846961  0.488023  0.757532  1
  Si  Si20  1  0.766596  0.629784  0.251838  1
  Si  Si21  1  0.267638  0.871420  0.250669  1
  Si  Si22  1  0.731709  0.124887  0.748684  1
  Si  Si23  1  0.233243  0.372516  0.746715  1
  Si  Si24  1  0.020126  0.106056  0.249065  1
  Si  Si25  1  0.523227  0.396382  0.251427  1
  Si  Si26  1  0.472375  0.605569  0.746914  1
  Si  Si27  1  0.976705  0.897387  0.748574  1
  Si  Si28  1  0.352863  0.971560  0.539688  1
  Si  Si29  1  0.647944  0.028024  0.041674  1
  Si  Si30  1  0.148762  0.470266  0.460053  1
  Si  Si31  1  0.155727  0.471842  0.041195  1
  Si  Si32  1  0.645344  0.028534  0.459581  1
  Si  Si33  1  0.352056  0.969513  0.961057  1
  Si  Si34  1  0.853158  0.528841  0.539054  1
  Rh  Rh35  1  0.854341  0.520965  0.957775  1
