# generated using pymatgen
data_Ce2Dy14CdHg3Ru4
_symmetry_space_group_name_H-M   'P 1'
_cell_length_a   9.68568202
_cell_length_b   9.59274194
_cell_length_c   9.59274126
_cell_angle_alpha   59.81137798
_cell_angle_beta   59.74972799
_cell_angle_gamma   59.74972298
_symmetry_Int_Tables_number   1
_chemical_formula_structural   Ce2Dy14CdHg3Ru4
_chemical_formula_sum   'Ce2 Dy14 Cd1 Hg3 Ru4'
_cell_volume   626.94465638
_cell_formula_units_Z   1
loop_
 _symmetry_equiv_pos_site_id
 _symmetry_equiv_pos_as_xyz
  1  'x, y, z'
loop_
 _atom_site_type_symbol
 _atom_site_label
 _atom_site_symmetry_multiplicity
 _atom_site_fract_x
 _atom_site_fract_y
 _atom_site_fract_z
 _atom_site_occupancy
  Ce  Ce0  1  0.969990  0.341633  0.341633  1
  Ce  Ce1  1  0.350583  0.341906  0.341906  1
  Dy  Dy2  1  0.562820  0.562602  0.937400  1
  Dy  Dy3  1  0.936205  0.562104  0.939168  1
  Dy  Dy4  1  0.559840  0.939370  0.939370  1
  Dy  Dy5  1  0.936205  0.939168  0.562104  1
  Dy  Dy6  1  0.562820  0.937400  0.562602  1
  Dy  Dy7  1  0.939943  0.560672  0.560672  1
  Dy  Dy8  1  0.189869  0.190386  0.811401  1
  Dy  Dy9  1  0.809590  0.188973  0.812030  1
  Dy  Dy10  1  0.187590  0.811159  0.811158  1
  Dy  Dy11  1  0.809590  0.812031  0.188973  1
  Dy  Dy12  1  0.189868  0.811401  0.190385  1
  Dy  Dy13  1  0.809980  0.190753  0.190753  1
  Dy  Dy14  1  0.349533  0.351515  0.948252  1
  Dy  Dy15  1  0.349533  0.948252  0.351515  1
  Cd  Cd16  1  0.580846  0.577089  0.577089  1
  Hg  Hg17  1  0.586148  0.583654  0.245327  1
  Hg  Hg18  1  0.586148  0.245327  0.583654  1
  Hg  Hg19  1  0.245116  0.585209  0.585209  1
  Ru  Ru20  1  0.140260  0.151496  0.572798  1
  Ru  Ru21  1  0.140260  0.572798  0.151496  1
  Ru  Ru22  1  0.571983  0.149073  0.149073  1
  Ru  Ru23  1  0.135280  0.146033  0.146033  1
