# generated using pymatgen
data_Y4Al24Cu2Pd7
_symmetry_space_group_name_H-M   'P 1'
_cell_length_a   7.53776777
_cell_length_b   7.54946831
_cell_length_c   13.09466374
_cell_angle_alpha   84.61636463
_cell_angle_beta   79.01599742
_cell_angle_gamma   59.95465293
_symmetry_Int_Tables_number   1
_chemical_formula_structural   Y4Al24Cu2Pd7
_chemical_formula_sum   'Y4 Al24 Cu2 Pd7'
_cell_volume   633.22033777
_cell_formula_units_Z   1
loop_
 _symmetry_equiv_pos_site_id
 _symmetry_equiv_pos_as_xyz
  1  'x, y, z'
loop_
 _atom_site_type_symbol
 _atom_site_label
 _atom_site_symmetry_multiplicity
 _atom_site_fract_x
 _atom_site_fract_y
 _atom_site_fract_z
 _atom_site_occupancy
  Y  Y0  1  0.393096  0.169190  0.807539  1
  Y  Y1  1  0.606904  0.830810  0.192461  1
  Y  Y2  1  0.734275  0.498670  0.807703  1
  Y  Y3  1  0.265725  0.501330  0.192297  1
  Al  Al4  1  0.684352  0.833615  0.944809  1
  Al  Al5  1  0.315648  0.166385  0.055191  1
  Al  Al6  1  0.144717  0.833985  0.564076  1
  Al  Al7  1  0.855283  0.166015  0.435924  1
  Al  Al8  1  0.479078  0.167714  0.561480  1
  Al  Al9  1  0.520922  0.832286  0.438520  1
  Al  Al10  1  0.214587  0.167289  0.329728  1
  Al  Al11  1  0.785413  0.832711  0.670272  1
  Al  Al12  1  0.434064  0.506807  0.670459  1
  Al  Al13  1  0.565936  0.493193  0.329541  1
  Al  Al14  1  0.110431  0.162174  0.668951  1
  Al  Al15  1  0.889569  0.837826  0.331049  1
  Al  Al16  1  0.351938  0.499541  0.944464  1
  Al  Al17  1  0.648062  0.500459  0.055536  1
  Al  Al18  1  0.015049  0.167325  0.954868  1
  Al  Al19  1  0.984951  0.832675  0.045132  1
  Al  Al20  1  0.185544  0.499847  0.441511  1
  Al  Al21  1  0.814456  0.500153  0.558489  1
  Al  Al22  1  0.733331  0.164596  0.184622  1
  Al  Al23  1  0.266669  0.835404  0.815378  1
  Al  Al24  1  0.061753  0.629392  0.812793  1
  Al  Al25  1  0.938247  0.370608  0.187207  1
  Al  Al26  1  0.855932  0.041321  0.815207  1
  Al  Al27  1  0.144068  0.958679  0.184793  1
  Cu  Cu28  1  0.119896  0.492564  0.638245  1
  Cu  Cu29  1  0.880104  0.507436  0.361755  1
  Pd  Pd30  1  0.656905  0.171980  0.999866  1
  Pd  Pd31  1  0.343095  0.828020  0.000134  1
  Pd  Pd32  1  0.536186  0.167780  0.363709  1
  Pd  Pd33  1  0.463814  0.832220  0.636291  1
  Pd  Pd34  1  0.779926  0.176393  0.636003  1
  Pd  Pd35  1  0.220074  0.823607  0.363997  1
  Pd  Pd36  1  0.000000  0.500000  0.000000  1
