# generated using pymatgen
data_Sr4IrRu5O18
_symmetry_space_group_name_H-M   'P 1'
_cell_length_a   8.01277206
_cell_length_b   8.01565197
_cell_length_c   8.01277261
_cell_angle_alpha   109.53156992
_cell_angle_beta   109.32418495
_cell_angle_gamma   109.54339997
_symmetry_Int_Tables_number   1
_chemical_formula_structural   Sr4IrRu5O18
_chemical_formula_sum   'Sr4 Ir1 Ru5 O18'
_cell_volume   396.24043485
_cell_formula_units_Z   1
loop_
 _symmetry_equiv_pos_site_id
 _symmetry_equiv_pos_as_xyz
  1  'x, y, z'
loop_
 _atom_site_type_symbol
 _atom_site_label
 _atom_site_symmetry_multiplicity
 _atom_site_fract_x
 _atom_site_fract_y
 _atom_site_fract_z
 _atom_site_occupancy
  Sr  Sr0  1  0.999804  0.000124  0.404057  1
  Sr  Sr1  1  0.998873  0.403647  0.000373  1
  Sr  Sr2  1  0.596726  0.596353  0.595226  1
  Sr  Sr3  1  0.403934  0.999876  0.999680  1
  Ir  Ir4  1  0.363565  0.500000  0.863565  1
  Ru  Ru5  1  0.864583  0.365518  0.499192  1
  Ru  Ru6  1  0.500582  0.134644  0.635138  1
  Ru  Ru7  1  0.133674  0.634482  0.499065  1
  Ru  Ru8  1  0.500494  0.865356  0.365938  1
  Ru  Ru9  1  0.635915  0.500000  0.135915  1
  O  O10  1  0.333784  0.000000  0.333784  1
  O  O11  1  0.334864  0.333811  0.001564  1
  O  O12  1  0.000230  0.667147  0.666886  1
  O  O13  1  0.667752  0.666189  0.001052  1
  O  O14  1  0.999739  0.332853  0.333083  1
  O  O15  1  0.667242  0.000000  0.667242  1
  O  O16  1  0.361524  0.299675  0.632734  1
  O  O17  1  0.062507  0.335184  0.700029  1
  O  O18  1  0.726528  0.362336  0.662817  1
  O  O19  1  0.364846  0.664816  0.727324  1
  O  O20  1  0.273778  0.936693  0.636255  1
  O  O21  1  0.639555  0.364842  0.300831  1
  O  O22  1  0.300482  0.637664  0.364193  1
  O  O23  1  0.699563  0.063307  0.337086  1
  O  O24  1  0.935990  0.635158  0.274713  1
  O  O25  1  0.663687  0.727710  0.364430  1
  O  O26  1  0.636718  0.272290  0.935978  1
  O  O27  1  0.333060  0.700325  0.061847  1
