# generated using pymatgen
data_Dy5In4NiRh
_symmetry_space_group_name_H-M   'P 1'
_cell_length_a   3.61317400
_cell_length_b   8.04458200
_cell_length_c   18.10011100
_cell_angle_alpha   90.00000000
_cell_angle_beta   90.00000000
_cell_angle_gamma   90.00000000
_symmetry_Int_Tables_number   1
_chemical_formula_structural   Dy5In4NiRh
_chemical_formula_sum   'Dy10 In8 Ni2 Rh2'
_cell_volume   526.10641525
_cell_formula_units_Z   2
loop_
 _symmetry_equiv_pos_site_id
 _symmetry_equiv_pos_as_xyz
  1  'x, y, z'
loop_
 _atom_site_type_symbol
 _atom_site_label
 _atom_site_symmetry_multiplicity
 _atom_site_fract_x
 _atom_site_fract_y
 _atom_site_fract_z
 _atom_site_occupancy
  Dy  Dy0  1  0.500000  0.383823  0.589231  1
  Dy  Dy1  1  0.500000  0.883158  0.913013  1
  Dy  Dy2  1  0.500000  0.116177  0.089231  1
  Dy  Dy3  1  0.500000  0.753938  0.720877  1
  Dy  Dy4  1  0.500000  0.253744  0.778009  1
  Dy  Dy5  1  0.500000  0.500142  0.000165  1
  Dy  Dy6  1  0.500000  0.746062  0.220877  1
  Dy  Dy7  1  0.500000  0.246256  0.278009  1
  Dy  Dy8  1  0.500000  0.999858  0.500165  1
  Dy  Dy9  1  0.500000  0.616842  0.413013  1
  In  In10  1  0.000000  0.794316  0.068985  1
  In  In11  1  0.000000  0.927316  0.347856  1
  In  In12  1  0.000000  0.072269  0.650351  1
  In  In13  1  0.000000  0.572684  0.847856  1
  In  In14  1  0.000000  0.705684  0.568985  1
  In  In15  1  0.000000  0.207637  0.931687  1
  In  In16  1  0.000000  0.292363  0.431687  1
  In  In17  1  0.000000  0.427731  0.150351  1
  Ni  Ni18  1  0.000000  0.477707  0.695160  1
  Ni  Ni19  1  0.000000  0.022293  0.195160  1
  Rh  Rh20  1  0.000000  0.975634  0.804665  1
  Rh  Rh21  1  0.000000  0.524366  0.304665  1
