# generated using pymatgen
data_LiTcSn3Sb
_symmetry_space_group_name_H-M   'P 1'
_cell_length_a   7.41702232
_cell_length_b   7.42392696
_cell_length_c   7.41702221
_cell_angle_alpha   126.07559181
_cell_angle_beta   126.02484254
_cell_angle_gamma   79.78332660
_symmetry_Int_Tables_number   1
_chemical_formula_structural   LiTcSn3Sb
_chemical_formula_sum   'Li2 Tc2 Sn6 Sb2'
_cell_volume   257.89352384
_cell_formula_units_Z   2
loop_
 _symmetry_equiv_pos_site_id
 _symmetry_equiv_pos_as_xyz
  1  'x, y, z'
loop_
 _atom_site_type_symbol
 _atom_site_label
 _atom_site_symmetry_multiplicity
 _atom_site_fract_x
 _atom_site_fract_y
 _atom_site_fract_z
 _atom_site_occupancy
  Li  Li0  1  0.999723  0.000159  0.999685  1
  Li  Li1  1  0.500474  0.500159  0.000436  1
  Tc  Tc2  1  0.256149  0.252614  0.004361  1
  Tc  Tc3  1  0.748253  0.752614  0.996466  1
  Sn  Sn4  1  0.202101  0.703182  0.181593  1
  Sn  Sn5  1  0.798977  0.297437  0.821074  1
  Sn  Sn6  1  0.477430  0.975555  0.182086  1
  Sn  Sn7  1  0.293469  0.475555  0.498124  1
  Sn  Sn8  1  0.976363  0.797437  0.498460  1
  Sn  Sn9  1  0.021589  0.203182  0.501081  1
  Sb  Sb10  1  0.705094  0.521053  0.500674  1
  Sb  Sb11  1  0.520379  0.021053  0.815959  1
