# generated using pymatgen
data_Pm3Hg5
_symmetry_space_group_name_H-M   'P 1'
_cell_length_a   7.72189300
_cell_length_b   6.56159678
_cell_length_c   5.23775700
_cell_angle_alpha   90.00000000
_cell_angle_beta   90.00000000
_cell_angle_gamma   126.04466663
_symmetry_Int_Tables_number   1
_chemical_formula_structural   Pm3Hg5
_chemical_formula_sum   'Pm3 Hg5'
_cell_volume   214.58043605
_cell_formula_units_Z   1
loop_
 _symmetry_equiv_pos_site_id
 _symmetry_equiv_pos_as_xyz
  1  'x, y, z'
loop_
 _atom_site_type_symbol
 _atom_site_label
 _atom_site_symmetry_multiplicity
 _atom_site_fract_x
 _atom_site_fract_y
 _atom_site_fract_z
 _atom_site_occupancy
  Pm  Pm0  1  0.092691  0.185383  0.250000  1
  Pm  Pm1  1  0.671044  0.342088  0.250000  1
  Pm  Pm2  1  0.366118  0.732236  0.750000  1
  Hg  Hg3  1  0.860257  0.230361  0.750000  1
  Hg  Hg4  1  0.370105  0.230361  0.750000  1
  Hg  Hg5  1  0.872098  0.744195  0.750000  1
  Hg  Hg6  1  0.167638  0.767688  0.250000  1
  Hg  Hg7  1  0.600049  0.767688  0.250000  1
