# generated using pymatgen
data_Cs2Ir3RhSe8
_symmetry_space_group_name_H-M   'P 1'
_cell_length_a   6.55000100
_cell_length_b   7.59828600
_cell_length_c   16.59173300
_cell_angle_alpha   90.00000000
_cell_angle_beta   90.00000000
_cell_angle_gamma   90.00000000
_symmetry_Int_Tables_number   1
_chemical_formula_structural   Cs2Ir3RhSe8
_chemical_formula_sum   'Cs4 Ir6 Rh2 Se16'
_cell_volume   825.75032440
_cell_formula_units_Z   2
loop_
 _symmetry_equiv_pos_site_id
 _symmetry_equiv_pos_as_xyz
  1  'x, y, z'
loop_
 _atom_site_type_symbol
 _atom_site_label
 _atom_site_symmetry_multiplicity
 _atom_site_fract_x
 _atom_site_fract_y
 _atom_site_fract_z
 _atom_site_occupancy
  Cs  Cs0  1  0.353952  0.000000  0.000000  1
  Cs  Cs1  1  0.650127  0.500000  0.500000  1
  Cs  Cs2  1  0.031577  0.000000  0.500000  1
  Cs  Cs3  1  0.971350  0.500000  0.000000  1
  Ir  Ir4  1  0.003315  0.000000  0.250211  1
  Ir  Ir5  1  0.003315  0.000000  0.749789  1
  Ir  Ir6  1  0.499328  0.252761  0.250041  1
  Ir  Ir7  1  0.499328  0.747239  0.749959  1
  Ir  Ir8  1  0.499328  0.747239  0.250041  1
  Ir  Ir9  1  0.499328  0.252761  0.749959  1
  Rh  Rh10  1  0.997064  0.500000  0.248807  1
  Rh  Rh11  1  0.997064  0.500000  0.751193  1
  Se  Se12  1  0.834758  0.249328  0.325539  1
  Se  Se13  1  0.834758  0.750672  0.674461  1
  Se  Se14  1  0.164827  0.751199  0.174274  1
  Se  Se15  1  0.164827  0.248801  0.825726  1
  Se  Se16  1  0.164827  0.248801  0.174274  1
  Se  Se17  1  0.164827  0.751199  0.825726  1
  Se  Se18  1  0.834758  0.750672  0.325539  1
  Se  Se19  1  0.834758  0.249328  0.674461  1
  Se  Se20  1  0.668052  0.000000  0.175677  1
  Se  Se21  1  0.668052  0.000000  0.824323  1
  Se  Se22  1  0.331215  0.500000  0.326358  1
  Se  Se23  1  0.331215  0.500000  0.673642  1
  Se  Se24  1  0.340213  0.000000  0.325083  1
  Se  Se25  1  0.340213  0.000000  0.674917  1
  Se  Se26  1  0.658814  0.500000  0.172728  1
  Se  Se27  1  0.658814  0.500000  0.827272  1
