# generated using pymatgen
data_Hf5Sc3MnSi16Ru11
_symmetry_space_group_name_H-M   'P 1'
_cell_length_a   9.90493298
_cell_length_b   9.90973934
_cell_length_c   13.33288137
_cell_angle_alpha   53.82888195
_cell_angle_beta   53.79221622
_cell_angle_gamma   31.03790676
_symmetry_Int_Tables_number   1
_chemical_formula_structural   Hf5Sc3MnSi16Ru11
_chemical_formula_sum   'Hf5 Sc3 Mn1 Si16 Ru11'
_cell_volume   533.22834128
_cell_formula_units_Z   1
loop_
 _symmetry_equiv_pos_site_id
 _symmetry_equiv_pos_as_xyz
  1  'x, y, z'
loop_
 _atom_site_type_symbol
 _atom_site_label
 _atom_site_symmetry_multiplicity
 _atom_site_fract_x
 _atom_site_fract_y
 _atom_site_fract_z
 _atom_site_occupancy
  Hf  Hf0  1  0.558871  0.289896  0.148966  1
  Hf  Hf1  1  0.039028  0.296583  0.633577  1
  Hf  Hf2  1  0.704377  0.961509  0.864381  1
  Hf  Hf3  1  0.956749  0.704382  0.363993  1
  Hf  Hf4  1  0.296156  0.038620  0.136535  1
  Sc  Sc5  1  0.292423  0.562056  0.645462  1
  Sc  Sc6  1  0.438034  0.708194  0.853847  1
  Sc  Sc7  1  0.707331  0.441587  0.353069  1
  Mn  Mn8  1  0.653067  0.828482  0.280314  1
  Si  Si9  1  0.877163  0.122924  0.250633  1
  Si  Si10  1  0.123202  0.876943  0.750169  1
  Si  Si11  1  0.383108  0.616359  0.250956  1
  Si  Si12  1  0.617799  0.382868  0.749525  1
  Si  Si13  1  0.971514  0.256653  0.891678  1
  Si  Si14  1  0.746297  0.027645  0.607506  1
  Si  Si15  1  0.017249  0.748687  0.111778  1
  Si  Si16  1  0.266870  0.967556  0.389687  1
  Si  Si17  1  0.577069  0.076328  0.069285  1
  Si  Si18  1  0.907700  0.435763  0.430512  1
  Si  Si19  1  0.425427  0.917566  0.933892  1
  Si  Si20  1  0.084009  0.574670  0.564525  1
  Si  Si21  1  0.390152  0.138537  0.394112  1
  Si  Si22  1  0.851730  0.615045  0.108065  1
  Si  Si23  1  0.613574  0.855052  0.604236  1
  Si  Si24  1  0.145016  0.387778  0.895427  1
  Ru  Ru25  1  0.173493  0.349066  0.218725  1
  Ru  Ru26  1  0.759544  0.482388  0.069912  1
  Ru  Ru27  1  0.829863  0.649360  0.782017  1
  Ru  Ru28  1  0.898925  0.143575  0.584679  1
  Ru  Ru29  1  0.852708  0.106015  0.916236  1
  Ru  Ru30  1  0.104430  0.857334  0.413883  1
  Ru  Ru31  1  0.144607  0.893505  0.086062  1
  Ru  Ru32  1  0.241351  0.515301  0.930763  1
  Ru  Ru33  1  0.484058  0.760678  0.568882  1
  Ru  Ru34  1  0.515634  0.240423  0.429434  1
  Ru  Ru35  1  0.351475  0.170674  0.717281  1
