# generated using pymatgen
data_Tb3Ho7(IrPb3)2
_symmetry_space_group_name_H-M   'P 1'
_cell_length_a   9.20279800
_cell_length_b   9.20279813
_cell_length_c   6.85839800
_cell_angle_alpha   90.00000000
_cell_angle_beta   90.00000000
_cell_angle_gamma   119.99999955
_symmetry_Int_Tables_number   1
_chemical_formula_structural   Tb3Ho7(IrPb3)2
_chemical_formula_sum   'Tb3 Ho7 Ir2 Pb6'
_cell_volume   503.02909199
_cell_formula_units_Z   1
loop_
 _symmetry_equiv_pos_site_id
 _symmetry_equiv_pos_as_xyz
  1  'x, y, z'
loop_
 _atom_site_type_symbol
 _atom_site_label
 _atom_site_symmetry_multiplicity
 _atom_site_fract_x
 _atom_site_fract_y
 _atom_site_fract_z
 _atom_site_occupancy
  Tb  Tb0  1  0.333333  0.666667  0.500000  1
  Tb  Tb1  1  0.666667  0.333333  0.500000  1
  Tb  Tb2  1  0.333333  0.666667  0.000000  1
  Ho  Ho3  1  0.999934  0.764210  0.750053  1
  Ho  Ho4  1  0.764276  0.764210  0.249947  1
  Ho  Ho5  1  0.764276  0.000066  0.750053  1
  Ho  Ho6  1  0.235790  0.000066  0.249947  1
  Ho  Ho7  1  0.235790  0.235724  0.750053  1
  Ho  Ho8  1  0.999934  0.235724  0.249947  1
  Ho  Ho9  1  0.666667  0.333333  0.000000  1
  Ir  Ir10  1  0.000000  0.000000  0.000000  1
  Ir  Ir11  1  0.000000  0.000000  0.500000  1
  Pb  Pb12  1  0.405202  0.404943  0.249795  1
  Pb  Pb13  1  0.595057  0.594798  0.750205  1
  Pb  Pb14  1  0.595057  0.000260  0.249795  1
  Pb  Pb15  1  0.405202  0.000260  0.750205  1
  Pb  Pb16  1  0.999740  0.594798  0.249795  1
  Pb  Pb17  1  0.999740  0.404943  0.750205  1
