# generated using pymatgen
data_Ho2NiOs3
_symmetry_space_group_name_H-M   'P 1'
_cell_length_a   5.31254418
_cell_length_b   5.24253034
_cell_length_c   5.24253000
_cell_angle_alpha   119.99999783
_cell_angle_beta   90.00000000
_cell_angle_gamma   119.56498337
_symmetry_Int_Tables_number   1
_chemical_formula_structural   Ho2NiOs3
_chemical_formula_sum   'Ho2 Ni1 Os3'
_cell_volume   103.91876496
_cell_formula_units_Z   1
loop_
 _symmetry_equiv_pos_site_id
 _symmetry_equiv_pos_as_xyz
  1  'x, y, z'
loop_
 _atom_site_type_symbol
 _atom_site_label
 _atom_site_symmetry_multiplicity
 _atom_site_fract_x
 _atom_site_fract_y
 _atom_site_fract_z
 _atom_site_occupancy
  Ho  Ho0  1  0.005243  0.003495  0.001748  1
  Ho  Ho1  1  0.744758  0.496506  0.248252  1
  Ni  Ni2  1  0.875000  0.250000  0.625000  1
  Os  Os3  1  0.374999  0.749999  0.124999  1
  Os  Os4  1  0.374999  0.250000  0.625000  1
  Os  Os5  1  0.374999  0.749999  0.625000  1
