# generated using pymatgen
data_YHo3ReSi4Rh
_symmetry_space_group_name_H-M   'P 1'
_cell_length_a   5.72173269
_cell_length_b   5.72173357
_cell_length_c   10.07329698
_cell_angle_alpha   63.37704435
_cell_angle_beta   63.37703827
_cell_angle_gamma   43.40638783
_symmetry_Int_Tables_number   1
_chemical_formula_structural   YHo3ReSi4Rh
_chemical_formula_sum   'Y1 Ho3 Re1 Si4 Rh1'
_cell_volume   198.51588691
_cell_formula_units_Z   1
loop_
 _symmetry_equiv_pos_site_id
 _symmetry_equiv_pos_as_xyz
  1  'x, y, z'
loop_
 _atom_site_type_symbol
 _atom_site_label
 _atom_site_symmetry_multiplicity
 _atom_site_fract_x
 _atom_site_fract_y
 _atom_site_fract_z
 _atom_site_occupancy
  Y  Y0  1  0.812720  0.812720  0.109517  1
  Ho  Ho1  1  0.007637  0.007637  0.321035  1
  Ho  Ho2  1  0.183864  0.183864  0.890505  1
  Ho  Ho3  1  0.995230  0.995230  0.678012  1
  Re  Re4  1  0.727970  0.727970  0.626375  1
  Si  Si5  1  0.356156  0.356156  0.562152  1
  Si  Si6  1  0.495595  0.495595  0.877231  1
  Si  Si7  1  0.641373  0.641373  0.438524  1
  Si  Si8  1  0.507891  0.507891  0.122702  1
  Rh  Rh9  1  0.271564  0.271564  0.373946  1
