# generated using pymatgen
data_Tb2Sc3(In2Pt)2
_symmetry_space_group_name_H-M   'P 1'
_cell_length_a   3.57675700
_cell_length_b   7.92000700
_cell_length_c   17.68164500
_cell_angle_alpha   90.00181085
_cell_angle_beta   90.00000000
_cell_angle_gamma   90.00000000
_symmetry_Int_Tables_number   1
_chemical_formula_structural   Tb2Sc3(In2Pt)2
_chemical_formula_sum   'Tb4 Sc6 In8 Pt4'
_cell_volume   500.88458698
_cell_formula_units_Z   2
loop_
 _symmetry_equiv_pos_site_id
 _symmetry_equiv_pos_as_xyz
  1  'x, y, z'
loop_
 _atom_site_type_symbol
 _atom_site_label
 _atom_site_symmetry_multiplicity
 _atom_site_fract_x
 _atom_site_fract_y
 _atom_site_fract_z
 _atom_site_occupancy
  Tb  Tb0  1  0.000000  0.242584  0.216799  1
  Tb  Tb1  1  0.000000  0.757392  0.783158  1
  Tb  Tb2  1  0.000000  0.257471  0.716710  1
  Tb  Tb3  1  0.000000  0.742555  0.283254  1
  Sc  Sc4  1  0.000000  0.114047  0.416047  1
  Sc  Sc5  1  0.000000  0.885936  0.583953  1
  Sc  Sc6  1  0.000000  0.385920  0.915987  1
  Sc  Sc7  1  0.000000  0.614111  0.084028  1
  Sc  Sc8  1  0.000000  0.000002  0.000012  1
  Sc  Sc9  1  0.000000  0.500055  0.500003  1
  In  In10  1  0.500000  0.416417  0.356427  1
  In  In11  1  0.500000  0.583590  0.643570  1
  In  In12  1  0.500000  0.083719  0.856405  1
  In  In13  1  0.500000  0.916279  0.143598  1
  In  In14  1  0.500000  0.295608  0.058649  1
  In  In15  1  0.500000  0.704387  0.941349  1
  In  In16  1  0.500000  0.204434  0.558543  1
  In  In17  1  0.500000  0.795523  0.441459  1
  Pt  Pt18  1  0.500000  0.032754  0.308143  1
  Pt  Pt19  1  0.500000  0.967165  0.691876  1
  Pt  Pt20  1  0.500000  0.467243  0.808093  1
  Pt  Pt21  1  0.500000  0.532807  0.191938  1
