# generated using pymatgen
data_NaCu4(AuO4)2
_symmetry_space_group_name_H-M   'P 1'
_cell_length_a   6.63552322
_cell_length_b   6.63880174
_cell_length_c   6.73413206
_cell_angle_alpha   59.52750578
_cell_angle_beta   59.52272495
_cell_angle_gamma   60.96346247
_symmetry_Int_Tables_number   1
_chemical_formula_structural   NaCu4(AuO4)2
_chemical_formula_sum   'Na1 Cu4 Au2 O8'
_cell_volume   209.69698034
_cell_formula_units_Z   1
loop_
 _symmetry_equiv_pos_site_id
 _symmetry_equiv_pos_as_xyz
  1  'x, y, z'
loop_
 _atom_site_type_symbol
 _atom_site_label
 _atom_site_symmetry_multiplicity
 _atom_site_fract_x
 _atom_site_fract_y
 _atom_site_fract_z
 _atom_site_occupancy
  Na  Na0  1  0.000000  0.000000  0.000000  1
  Cu  Cu1  1  0.500000  0.000000  0.000000  1
  Cu  Cu2  1  0.000000  0.500000  0.000000  1
  Cu  Cu3  1  0.500000  0.000000  0.500000  1
  Cu  Cu4  1  0.000000  0.500000  0.500000  1
  Au  Au5  1  0.500000  0.500000  0.000000  1
  Au  Au6  1  0.000000  0.000000  0.500000  1
  O  O7  1  0.847755  0.847998  0.432000  1
  O  O8  1  0.152300  0.152084  0.127704  1
  O  O9  1  0.567808  0.127671  0.152220  1
  O  O10  1  0.872251  0.431969  0.847944  1
  O  O11  1  0.432192  0.872329  0.847780  1
  O  O12  1  0.127749  0.568031  0.152056  1
  O  O13  1  0.847700  0.847916  0.872296  1
  O  O14  1  0.152245  0.152002  0.568000  1
