# generated using pymatgen
data_TbWN2
_symmetry_space_group_name_H-M   'P 1'
_cell_length_a   3.22662900
_cell_length_b   5.74608500
_cell_length_c   10.58592600
_cell_angle_alpha   90.00000000
_cell_angle_beta   90.00000000
_cell_angle_gamma   90.00000000
_symmetry_Int_Tables_number   1
_chemical_formula_structural   TbWN2
_chemical_formula_sum   'Tb4 W4 N8'
_cell_volume   196.26819689
_cell_formula_units_Z   4
loop_
 _symmetry_equiv_pos_site_id
 _symmetry_equiv_pos_as_xyz
  1  'x, y, z'
loop_
 _atom_site_type_symbol
 _atom_site_label
 _atom_site_symmetry_multiplicity
 _atom_site_fract_x
 _atom_site_fract_y
 _atom_site_fract_z
 _atom_site_occupancy
  Tb  Tb0  1  0.250000  0.080399  0.854912  1
  Tb  Tb1  1  0.250000  0.580399  0.645088  1
  Tb  Tb2  1  0.750000  0.919601  0.145088  1
  Tb  Tb3  1  0.750000  0.419601  0.354912  1
  W  W4  1  0.250000  0.433676  0.094968  1
  W  W5  1  0.250000  0.933676  0.405032  1
  W  W6  1  0.750000  0.566324  0.905032  1
  W  W7  1  0.750000  0.066324  0.594968  1
  N  N8  1  0.250000  0.164095  0.249476  1
  N  N9  1  0.250000  0.664095  0.250524  1
  N  N10  1  0.750000  0.835905  0.750524  1
  N  N11  1  0.750000  0.335905  0.749476  1
  N  N12  1  0.250000  0.758988  0.992270  1
  N  N13  1  0.250000  0.258988  0.507730  1
  N  N14  1  0.750000  0.241012  0.007730  1
  N  N15  1  0.750000  0.741012  0.492270  1
