# generated using pymatgen
data_Nb4Al2FeB4Ru7Rh2
_symmetry_space_group_name_H-M   'P 1'
_cell_length_a   9.24166000
_cell_length_b   9.24166024
_cell_length_c   2.99821300
_cell_angle_alpha   90.00000000
_cell_angle_beta   90.00000000
_cell_angle_gamma   89.77189901
_symmetry_Int_Tables_number   1
_chemical_formula_structural   Nb4Al2FeB4Ru7Rh2
_chemical_formula_sum   'Nb4 Al2 Fe1 B4 Ru7 Rh2'
_cell_volume   256.07019135
_cell_formula_units_Z   1
loop_
 _symmetry_equiv_pos_site_id
 _symmetry_equiv_pos_as_xyz
  1  'x, y, z'
loop_
 _atom_site_type_symbol
 _atom_site_label
 _atom_site_symmetry_multiplicity
 _atom_site_fract_x
 _atom_site_fract_y
 _atom_site_fract_z
 _atom_site_occupancy
  Nb  Nb0  1  0.825359  0.678846  0.000000  1
  Nb  Nb1  1  0.174641  0.321154  0.000000  1
  Nb  Nb2  1  0.323009  0.828940  0.000000  1
  Nb  Nb3  1  0.676991  0.171060  0.000000  1
  Al  Al4  1  0.500000  0.500000  0.000000  1
  Al  Al5  1  0.000000  0.000000  0.000000  1
  Fe  Fe6  1  0.500000  0.000000  0.500000  1
  B  B7  1  0.617258  0.889037  0.000000  1
  B  B8  1  0.382742  0.110963  0.000000  1
  B  B9  1  0.125383  0.625489  0.000000  1
  B  B10  1  0.874617  0.374511  0.000000  1
  Ru  Ru11  1  0.068870  0.786303  0.500000  1
  Ru  Ru12  1  0.931130  0.213697  0.500000  1
  Ru  Ru13  1  0.286625  0.567947  0.500000  1
  Ru  Ru14  1  0.713375  0.432053  0.500000  1
  Ru  Ru15  1  0.220876  0.067874  0.500000  1
  Ru  Ru16  1  0.779124  0.932126  0.500000  1
  Ru  Ru17  1  0.000000  0.500000  0.500000  1
  Rh  Rh18  1  0.565159  0.719977  0.500000  1
  Rh  Rh19  1  0.434841  0.280023  0.500000  1
