# generated using pymatgen
data_Y2BPtRh5
_symmetry_space_group_name_H-M   'P 1'
_cell_length_a   5.87247069
_cell_length_b   5.84199906
_cell_length_c   5.84199989
_cell_angle_alpha   60.34538202
_cell_angle_beta   59.82731012
_cell_angle_gamma   59.82730916
_symmetry_Int_Tables_number   1
_chemical_formula_structural   Y2BPtRh5
_chemical_formula_sum   'Y2 B1 Pt1 Rh5'
_cell_volume   141.71151351
_cell_formula_units_Z   1
loop_
 _symmetry_equiv_pos_site_id
 _symmetry_equiv_pos_as_xyz
  1  'x, y, z'
loop_
 _atom_site_type_symbol
 _atom_site_label
 _atom_site_symmetry_multiplicity
 _atom_site_fract_x
 _atom_site_fract_y
 _atom_site_fract_z
 _atom_site_occupancy
  Y  Y0  1  0.249645  0.250355  0.250355  1
  Y  Y1  1  0.749645  0.750355  0.750355  1
  B  B2  1  0.003115  0.996885  0.996885  1
  Pt  Pt3  1  0.740591  0.259410  0.259410  1
  Rh  Rh4  1  0.255589  0.744412  0.256597  1
  Rh  Rh5  1  0.743403  0.744411  0.256598  1
  Rh  Rh6  1  0.259024  0.740977  0.740977  1
  Rh  Rh7  1  0.255589  0.256597  0.744412  1
  Rh  Rh8  1  0.743403  0.256598  0.744411  1
