# generated using pymatgen
data_Nd18Pa2Ir5Rh11
_symmetry_space_group_name_H-M   'P 1'
_cell_length_a   7.61865277
_cell_length_b   7.67424782
_cell_length_c   14.94830420
_cell_angle_alpha   90.11904189
_cell_angle_beta   90.02816955
_cell_angle_gamma   90.09296336
_symmetry_Int_Tables_number   1
_chemical_formula_structural   Nd18Pa2Ir5Rh11
_chemical_formula_sum   'Nd18 Pa2 Ir5 Rh11'
_cell_volume   873.98577602
_cell_formula_units_Z   1
loop_
 _symmetry_equiv_pos_site_id
 _symmetry_equiv_pos_as_xyz
  1  'x, y, z'
loop_
 _atom_site_type_symbol
 _atom_site_label
 _atom_site_symmetry_multiplicity
 _atom_site_fract_x
 _atom_site_fract_y
 _atom_site_fract_z
 _atom_site_occupancy
  Nd  Nd0  1  0.338884  0.834523  0.120067  1
  Nd  Nd1  1  0.838833  0.665038  0.379942  1
  Nd  Nd2  1  0.337620  0.834505  0.378914  1
  Nd  Nd3  1  0.837486  0.665743  0.121223  1
  Nd  Nd4  1  0.659846  0.164647  0.879061  1
  Nd  Nd5  1  0.160141  0.335323  0.620948  1
  Nd  Nd6  1  0.515116  0.683459  0.592482  1
  Nd  Nd7  1  0.015133  0.817570  0.907518  1
  Nd  Nd8  1  0.487628  0.316490  0.094061  1
  Nd  Nd9  1  0.988952  0.183016  0.406369  1
  Nd  Nd10  1  0.487967  0.319260  0.409460  1
  Nd  Nd11  1  0.989246  0.179208  0.091213  1
  Nd  Nd12  1  0.508034  0.680259  0.908807  1
  Nd  Nd13  1  0.009461  0.821641  0.590648  1
  Nd  Nd14  1  0.819069  0.514230  0.748582  1
  Nd  Nd15  1  0.318708  0.985931  0.750431  1
  Nd  Nd16  1  0.176215  0.489533  0.248719  1
  Nd  Nd17  1  0.676534  0.010405  0.251575  1
  Pa  Pa18  1  0.658889  0.158578  0.623724  1
  Pa  Pa19  1  0.160286  0.341423  0.875897  1
  Ir  Ir20  1  0.691812  0.973272  0.471906  1
  Ir  Ir21  1  0.190673  0.526652  0.027675  1
  Ir  Ir22  1  0.302078  0.060255  0.956186  1
  Ir  Ir23  1  0.802194  0.439718  0.543906  1
  Ir  Ir24  1  0.340268  0.034122  0.548184  1
  Rh  Rh25  1  0.842242  0.464337  0.951631  1
  Rh  Rh26  1  0.669826  0.967528  0.042063  1
  Rh  Rh27  1  0.169222  0.532341  0.457405  1
  Rh  Rh28  1  0.460951  0.371564  0.748128  1
  Rh  Rh29  1  0.960565  0.129687  0.753493  1
  Rh  Rh30  1  0.541574  0.602971  0.251009  1
  Rh  Rh31  1  0.041751  0.897174  0.248403  1
  Rh  Rh32  1  0.700159  0.880707  0.740208  1
  Rh  Rh33  1  0.199354  0.618419  0.761092  1
  Rh  Rh34  1  0.301832  0.142961  0.250132  1
  Rh  Rh35  1  0.801453  0.357512  0.248938  1
