# generated using pymatgen
data_SmZnInPt3
_symmetry_space_group_name_H-M   'P 1'
_cell_length_a   5.52810084
_cell_length_b   5.52810131
_cell_length_c   5.28705467
_cell_angle_alpha   58.48002570
_cell_angle_beta   58.48002323
_cell_angle_gamma   59.99999924
_symmetry_Int_Tables_number   1
_chemical_formula_structural   SmZnInPt3
_chemical_formula_sum   'Sm1 Zn1 In1 Pt3'
_cell_volume   111.55300887
_cell_formula_units_Z   1
loop_
 _symmetry_equiv_pos_site_id
 _symmetry_equiv_pos_as_xyz
  1  'x, y, z'
loop_
 _atom_site_type_symbol
 _atom_site_label
 _atom_site_symmetry_multiplicity
 _atom_site_fract_x
 _atom_site_fract_y
 _atom_site_fract_z
 _atom_site_occupancy
  Sm  Sm0  1  0.002531  0.002531  0.992406  1
  Zn  Zn1  1  0.623816  0.623816  0.128551  1
  In  In2  1  0.252909  0.252909  0.241273  1
  Pt  Pt3  1  0.622872  0.124999  0.629256  1
  Pt  Pt4  1  0.124999  0.622872  0.629256  1
  Pt  Pt5  1  0.622872  0.622872  0.629256  1
