# generated using pymatgen
data_Na3In(IO3)6
_symmetry_space_group_name_H-M   'P 1'
_cell_length_a   6.84920283
_cell_length_b   6.91307676
_cell_length_c   10.44135716
_cell_angle_alpha   98.87185724
_cell_angle_beta   108.78496920
_cell_angle_gamma   101.10600141
_symmetry_Int_Tables_number   1
_chemical_formula_structural   Na3In(IO3)6
_chemical_formula_sum   'Na3 In1 I6 O18'
_cell_volume   446.67185457
_cell_formula_units_Z   1
loop_
 _symmetry_equiv_pos_site_id
 _symmetry_equiv_pos_as_xyz
  1  'x, y, z'
loop_
 _atom_site_type_symbol
 _atom_site_label
 _atom_site_symmetry_multiplicity
 _atom_site_fract_x
 _atom_site_fract_y
 _atom_site_fract_z
 _atom_site_occupancy
  Na  Na0  1  0.393043  0.538036  0.302794  1
  Na  Na1  1  0.606957  0.461964  0.697206  1
  Na  Na2  1  0.000000  0.500000  0.500000  1
  In  In3  1  0.000000  0.000000  0.000000  1
  I  I4  1  0.565297  0.033233  0.200324  1
  I  I5  1  0.434703  0.966767  0.799676  1
  I  I6  1  0.788922  0.528349  0.111661  1
  I  I7  1  0.211078  0.471651  0.888339  1
  I  I8  1  0.150287  0.077873  0.389766  1
  I  I9  1  0.849713  0.922127  0.610234  1
  O  O10  1  0.586987  0.655544  0.136181  1
  O  O11  1  0.413013  0.344456  0.863819  1
  O  O12  1  0.990564  0.360635  0.721738  1
  O  O13  1  0.009436  0.639365  0.278262  1
  O  O14  1  0.593524  0.307531  0.242267  1
  O  O15  1  0.406476  0.692469  0.757733  1
  O  O16  1  0.060661  0.135645  0.214883  1
  O  O17  1  0.939339  0.864355  0.785117  1
  O  O18  1  0.313518  0.950583  0.039764  1
  O  O19  1  0.686482  0.049417  0.960236  1
  O  O20  1  0.305355  0.335620  0.481046  1
  O  O21  1  0.694645  0.664380  0.518954  1
  O  O22  1  0.897202  0.108990  0.413287  1
  O  O23  1  0.102798  0.891010  0.586713  1
  O  O24  1  0.555954  0.048523  0.677332  1
  O  O25  1  0.444046  0.951477  0.322668  1
  O  O26  1  0.116681  0.324104  0.001966  1
  O  O27  1  0.883319  0.675896  0.998034  1
