# generated using pymatgen
data_Ho11In9Co4
_symmetry_space_group_name_H-M   'P 1'
_cell_length_a   12.99411693
_cell_length_b   12.99411762
_cell_length_c   3.62659000
_cell_angle_alpha   90.00000000
_cell_angle_beta   90.00000000
_cell_angle_gamma   112.37743514
_symmetry_Int_Tables_number   1
_chemical_formula_structural   Ho11In9Co4
_chemical_formula_sum   'Ho11 In9 Co4'
_cell_volume   566.22758227
_cell_formula_units_Z   1
loop_
 _symmetry_equiv_pos_site_id
 _symmetry_equiv_pos_as_xyz
  1  'x, y, z'
loop_
 _atom_site_type_symbol
 _atom_site_label
 _atom_site_symmetry_multiplicity
 _atom_site_fract_x
 _atom_site_fract_y
 _atom_site_fract_z
 _atom_site_occupancy
  Ho  Ho0  1  0.082433  0.417173  0.000000  1
  Ho  Ho1  1  0.917567  0.582827  0.000000  1
  Ho  Ho2  1  0.417173  0.082433  0.000000  1
  Ho  Ho3  1  0.582827  0.917567  0.000000  1
  Ho  Ho4  1  0.624503  0.375497  0.000000  1
  Ho  Ho5  1  0.375497  0.624503  0.000000  1
  Ho  Ho6  1  0.838374  0.161626  0.000000  1
  Ho  Ho7  1  0.161626  0.838374  0.000000  1
  Ho  Ho8  1  0.000000  0.000000  0.000000  1
  Ho  Ho9  1  0.313433  0.313433  0.000000  1
  Ho  Ho10  1  0.686567  0.686567  0.000000  1
  In  In11  1  0.840937  0.369538  0.500000  1
  In  In12  1  0.159063  0.630462  0.500000  1
  In  In13  1  0.369538  0.840937  0.500000  1
  In  In14  1  0.630462  0.159063  0.500000  1
  In  In15  1  0.077139  0.219505  0.500000  1
  In  In16  1  0.922861  0.780495  0.500000  1
  In  In17  1  0.219505  0.077139  0.500000  1
  In  In18  1  0.780495  0.922861  0.500000  1
  In  In19  1  0.500000  0.500000  0.500000  1
  Co  Co20  1  0.245892  0.448249  0.500000  1
  Co  Co21  1  0.754108  0.551751  0.500000  1
  Co  Co22  1  0.448249  0.245892  0.500000  1
  Co  Co23  1  0.551751  0.754108  0.500000  1
