# generated using pymatgen
data_Tb15HoCd4Ru3Au
_symmetry_space_group_name_H-M   'P 1'
_cell_length_a   9.66005634
_cell_length_b   9.72841392
_cell_length_c   9.72841500
_cell_angle_alpha   59.99999293
_cell_angle_beta   59.76563294
_cell_angle_gamma   59.76563387
_symmetry_Int_Tables_number   1
_chemical_formula_structural   Tb15HoCd4Ru3Au
_chemical_formula_sum   'Tb15 Ho1 Cd4 Ru3 Au1'
_cell_volume   644.17102098
_cell_formula_units_Z   1
loop_
 _symmetry_equiv_pos_site_id
 _symmetry_equiv_pos_as_xyz
  1  'x, y, z'
loop_
 _atom_site_type_symbol
 _atom_site_label
 _atom_site_symmetry_multiplicity
 _atom_site_fract_x
 _atom_site_fract_y
 _atom_site_fract_z
 _atom_site_occupancy
  Tb  Tb0  1  0.691860  0.312883  0.682373  1
  Tb  Tb1  1  0.315615  0.686302  0.311781  1
  Tb  Tb2  1  0.060670  0.438394  0.438394  1
  Tb  Tb3  1  0.691860  0.312883  0.312883  1
  Tb  Tb4  1  0.430040  0.059567  0.450826  1
  Tb  Tb5  1  0.430040  0.059567  0.059567  1
  Tb  Tb6  1  0.907944  0.895509  0.895509  1
  Tb  Tb7  1  0.060670  0.438394  0.062540  1
  Tb  Tb8  1  0.907944  0.301039  0.895509  1
  Tb  Tb9  1  0.315615  0.686302  0.686302  1
  Tb  Tb10  1  0.907944  0.895509  0.301039  1
  Tb  Tb11  1  0.430040  0.450826  0.059567  1
  Tb  Tb12  1  0.315615  0.311781  0.686302  1
  Tb  Tb13  1  0.691860  0.682373  0.312883  1
  Tb  Tb14  1  0.060670  0.062540  0.438394  1
  Ho  Ho15  1  0.286685  0.904438  0.904438  1
  Cd  Cd16  1  0.992816  0.669061  0.669061  1
  Cd  Cd17  1  0.668543  0.990513  0.670472  1
  Cd  Cd18  1  0.668543  0.670472  0.990513  1
  Cd  Cd19  1  0.668543  0.670472  0.670472  1
  Ru  Ru20  1  0.106093  0.110010  0.673887  1
  Ru  Ru21  1  0.106093  0.673887  0.110010  1
  Ru  Ru22  1  0.106093  0.110010  0.110010  1
  Au  Au23  1  0.678204  0.107266  0.107266  1
