# generated using pymatgen
data_HfSc7Fe2(Co7P6)2
_symmetry_space_group_name_H-M   'P 1'
_cell_length_a   12.09296889
_cell_length_b   12.07786667
_cell_length_c   3.65846000
_cell_angle_alpha   90.00000000
_cell_angle_beta   90.00000000
_cell_angle_gamma   120.16331879
_symmetry_Int_Tables_number   1
_chemical_formula_structural   HfSc7Fe2(Co7P6)2
_chemical_formula_sum   'Hf1 Sc7 Fe2 Co14 P12'
_cell_volume   461.99261384
_cell_formula_units_Z   1
loop_
 _symmetry_equiv_pos_site_id
 _symmetry_equiv_pos_as_xyz
  1  'x, y, z'
loop_
 _atom_site_type_symbol
 _atom_site_label
 _atom_site_symmetry_multiplicity
 _atom_site_fract_x
 _atom_site_fract_y
 _atom_site_fract_z
 _atom_site_occupancy
  Hf  Hf0  1  0.999682  0.557510  0.000000  1
  Sc  Sc1  1  0.816924  0.816380  0.500000  1
  Sc  Sc2  1  0.442359  0.442432  0.000000  1
  Sc  Sc3  1  0.998988  0.182130  0.500000  1
  Sc  Sc4  1  0.557832  0.999739  0.000000  1
  Sc  Sc5  1  0.332506  0.665844  0.000000  1
  Sc  Sc6  1  0.666828  0.333801  0.000000  1
  Sc  Sc7  1  0.183570  0.998375  0.500000  1
  Fe  Fe8  1  0.000182  0.723033  0.500000  1
  Fe  Fe9  1  0.277141  0.276867  0.500000  1
  Co  Co10  1  0.627789  0.821750  0.000000  1
  Co  Co11  1  0.374142  0.193992  0.000000  1
  Co  Co12  1  0.873397  0.355258  0.500000  1
  Co  Co13  1  0.723380  0.000146  0.500000  1
  Co  Co14  1  0.820135  0.627764  0.000000  1
  Co  Co15  1  0.180480  0.806909  0.000000  1
  Co  Co16  1  0.356014  0.873827  0.500000  1
  Co  Co17  1  0.124486  0.480401  0.500000  1
  Co  Co18  1  0.644077  0.518739  0.500000  1
  Co  Co19  1  0.001282  0.001642  0.000000  1
  Co  Co20  1  0.519251  0.645308  0.500000  1
  Co  Co21  1  0.480275  0.124856  0.500000  1
  Co  Co22  1  0.193573  0.373391  0.000000  1
  Co  Co23  1  0.805729  0.178404  0.000000  1
  P  P24  1  0.999951  0.347755  0.000000  1
  P  P25  1  0.826548  0.519706  0.500000  1
  P  P26  1  0.689878  0.173181  0.500000  1
  P  P27  1  0.179315  0.178524  0.000000  1
  P  P28  1  0.649844  0.650443  0.000000  1
  P  P29  1  0.823591  0.999986  0.000000  1
  P  P30  1  0.517033  0.826409  0.500000  1
  P  P31  1  0.172937  0.692195  0.500000  1
  P  P32  1  0.350770  0.000552  0.000000  1
  P  P33  1  0.480950  0.308463  0.500000  1
  P  P34  1  0.000931  0.823514  0.000000  1
  P  P35  1  0.308227  0.480774  0.500000  1
