# generated using pymatgen
data_NdSmTa2Bi2O11
_symmetry_space_group_name_H-M   'P 1'
_cell_length_a   6.66264856
_cell_length_b   7.74704729
_cell_length_c   9.87902179
_cell_angle_alpha   101.28218440
_cell_angle_beta   90.53457518
_cell_angle_gamma   90.07344740
_symmetry_Int_Tables_number   1
_chemical_formula_structural   NdSmTa2Bi2O11
_chemical_formula_sum   'Nd2 Sm2 Ta4 Bi4 O22'
_cell_volume   500.03605023
_cell_formula_units_Z   2
loop_
 _symmetry_equiv_pos_site_id
 _symmetry_equiv_pos_as_xyz
  1  'x, y, z'
loop_
 _atom_site_type_symbol
 _atom_site_label
 _atom_site_symmetry_multiplicity
 _atom_site_fract_x
 _atom_site_fract_y
 _atom_site_fract_z
 _atom_site_occupancy
  Nd  Nd0  1  0.750042  0.368883  0.483512  1
  Nd  Nd1  1  0.249958  0.631117  0.516488  1
  Sm  Sm2  1  0.758876  0.872846  0.487580  1
  Sm  Sm3  1  0.241124  0.127154  0.512420  1
  Ta  Ta4  1  0.914352  0.701971  0.807071  1
  Ta  Ta5  1  0.085648  0.298029  0.192929  1
  Ta  Ta6  1  0.915775  0.200207  0.807704  1
  Ta  Ta7  1  0.084225  0.799793  0.192296  1
  Bi  Bi8  1  0.433023  0.955825  0.815820  1
  Bi  Bi9  1  0.566977  0.044175  0.184180  1
  Bi  Bi10  1  0.393563  0.454991  0.826941  1
  Bi  Bi11  1  0.606437  0.545009  0.173059  1
  O  O12  1  0.217406  0.726898  0.762312  1
  O  O13  1  0.782594  0.273102  0.237688  1
  O  O14  1  0.633605  0.662631  0.840911  1
  O  O15  1  0.366395  0.337369  0.159089  1
  O  O16  1  0.633528  0.254201  0.841241  1
  O  O17  1  0.366472  0.745799  0.158759  1
  O  O18  1  0.894622  0.151506  0.593168  1
  O  O19  1  0.105378  0.848494  0.406832  1
  O  O20  1  0.216546  0.151791  0.758323  1
  O  O21  1  0.783454  0.848209  0.241677  1
  O  O22  1  0.895779  0.645113  0.594912  1
  O  O23  1  0.104221  0.354887  0.405088  1
  O  O24  1  0.026061  0.550891  0.200249  1
  O  O25  1  0.973939  0.449109  0.799751  1
  O  O26  1  0.997938  0.779194  0.000817  1
  O  O27  1  0.002062  0.220806  0.999183  1
  O  O28  1  0.572966  0.599810  0.390804  1
  O  O29  1  0.427034  0.400190  0.609196  1
  O  O30  1  0.160956  0.054472  0.215877  1
  O  O31  1  0.839044  0.945528  0.784123  1
  O  O32  1  0.544430  0.099483  0.399839  1
  O  O33  1  0.455570  0.900517  0.600161  1
