# generated using pymatgen
data_Tb3Dy9Co4
_symmetry_space_group_name_H-M   'P 1'
_cell_length_a   6.92861019
_cell_length_b   9.48881300
_cell_length_c   6.20698917
_cell_angle_alpha   90.00000000
_cell_angle_beta   89.97319742
_cell_angle_gamma   90.00000000
_symmetry_Int_Tables_number   1
_chemical_formula_structural   Tb3Dy9Co4
_chemical_formula_sum   'Tb3 Dy9 Co4'
_cell_volume   408.07402925
_cell_formula_units_Z   1
loop_
 _symmetry_equiv_pos_site_id
 _symmetry_equiv_pos_as_xyz
  1  'x, y, z'
loop_
 _atom_site_type_symbol
 _atom_site_label
 _atom_site_symmetry_multiplicity
 _atom_site_fract_x
 _atom_site_fract_y
 _atom_site_fract_z
 _atom_site_occupancy
  Tb  Tb0  1  0.956286  0.750000  0.357614  1
  Tb  Tb1  1  0.043976  0.250000  0.641944  1
  Tb  Tb2  1  0.543694  0.250000  0.857780  1
  Dy  Dy3  1  0.456022  0.750000  0.142485  1
  Dy  Dy4  1  0.175034  0.067982  0.175801  1
  Dy  Dy5  1  0.175034  0.432018  0.175801  1
  Dy  Dy6  1  0.674504  0.067933  0.324300  1
  Dy  Dy7  1  0.674504  0.432067  0.324300  1
  Dy  Dy8  1  0.325294  0.568340  0.675959  1
  Dy  Dy9  1  0.325294  0.931660  0.675959  1
  Dy  Dy10  1  0.825129  0.568133  0.824240  1
  Dy  Dy11  1  0.825129  0.931867  0.824240  1
  Co  Co12  1  0.887328  0.250000  0.050246  1
  Co  Co13  1  0.387289  0.250000  0.449646  1
  Co  Co14  1  0.612624  0.750000  0.549699  1
  Co  Co15  1  0.112858  0.750000  0.949984  1
