# generated using pymatgen
data_Li3Ac2(BO3)3
_symmetry_space_group_name_H-M   'P 1'
_cell_length_a   9.06940135
_cell_length_b   14.50265800
_cell_length_c   5.89991900
_cell_angle_alpha   90.00000000
_cell_angle_beta   103.68398362
_cell_angle_gamma   90.00000000
_symmetry_Int_Tables_number   1
_chemical_formula_structural   Li3Ac2(BO3)3
_chemical_formula_sum   'Li12 Ac8 B12 O36'
_cell_volume   753.99178746
_cell_formula_units_Z   4
loop_
 _symmetry_equiv_pos_site_id
 _symmetry_equiv_pos_as_xyz
  1  'x, y, z'
loop_
 _atom_site_type_symbol
 _atom_site_label
 _atom_site_symmetry_multiplicity
 _atom_site_fract_x
 _atom_site_fract_y
 _atom_site_fract_z
 _atom_site_occupancy
  Li  Li0  1  0.494221  0.333262  0.073936  1
  Li  Li1  1  0.207594  0.889583  0.153952  1
  Li  Li2  1  0.791035  0.214576  0.209749  1
  Li  Li3  1  0.708965  0.714576  0.290252  1
  Li  Li4  1  0.292406  0.389584  0.346051  1
  Li  Li5  1  0.005779  0.833262  0.426063  1
  Li  Li6  1  0.994223  0.166738  0.573937  1
  Li  Li7  1  0.707595  0.610418  0.653955  1
  Li  Li8  1  0.291034  0.285424  0.709746  1
  Li  Li9  1  0.208967  0.785424  0.790255  1
  Li  Li10  1  0.792406  0.110418  0.846048  1
  Li  Li11  1  0.505775  0.666737  0.926065  1
  Ac  Ac12  1  0.189396  0.164591  0.134527  1
  Ac  Ac13  1  0.838526  0.498764  0.185887  1
  Ac  Ac14  1  0.661474  0.998765  0.314113  1
  Ac  Ac15  1  0.310605  0.664591  0.365474  1
  Ac  Ac16  1  0.689396  0.335409  0.634528  1
  Ac  Ac17  1  0.338526  0.001235  0.685887  1
  Ac  Ac18  1  0.161472  0.501235  0.814113  1
  Ac  Ac19  1  0.810604  0.835410  0.865472  1
  B  B20  1  0.470395  0.834275  0.087258  1
  B  B21  1  0.982367  0.678054  0.097801  1
  B  B22  1  0.987606  0.012501  0.251643  1
  B  B23  1  0.512394  0.512501  0.248356  1
  B  B24  1  0.517634  0.178054  0.402199  1
  B  B25  1  0.029605  0.334276  0.412742  1
  B  B26  1  0.970395  0.665725  0.587258  1
  B  B27  1  0.482367  0.821945  0.597801  1
  B  B28  1  0.487605  0.487499  0.751642  1
  B  B29  1  0.012395  0.987499  0.748357  1
  B  B30  1  0.017633  0.321946  0.902199  1
  B  B31  1  0.529605  0.165725  0.912742  1
  O  O32  1  0.824433  0.671148  0.036487  1
  O  O33  1  0.379202  0.756835  0.042488  1
  O  O34  1  0.404506  0.921130  0.079628  1
  O  O35  1  0.065692  0.596881  0.115765  1
  O  O36  1  0.627022  0.827763  0.142162  1
  O  O37  1  0.055314  0.762093  0.145927  1
  O  O38  1  0.356428  0.503232  0.211206  1
  O  O39  1  0.900420  0.933125  0.231820  1
  O  O40  1  0.919550  0.099020  0.233103  1
  O  O41  1  0.580450  0.599020  0.266896  1
  O  O42  1  0.599579  0.433124  0.268179  1
  O  O43  1  0.143572  0.003232  0.288794  1
  O  O44  1  0.444686  0.262093  0.354074  1
  O  O45  1  0.872978  0.327764  0.357838  1
  O  O46  1  0.434309  0.096881  0.384236  1
  O  O47  1  0.095494  0.421130  0.420373  1
  O  O48  1  0.120797  0.256835  0.457514  1
  O  O49  1  0.675567  0.171148  0.463512  1
  O  O50  1  0.324434  0.828852  0.536489  1
  O  O51  1  0.879202  0.743166  0.542484  1
  O  O52  1  0.904506  0.578871  0.579627  1
  O  O53  1  0.565692  0.903119  0.615763  1
  O  O54  1  0.127022  0.672237  0.642164  1
  O  O55  1  0.555314  0.737906  0.645926  1
  O  O56  1  0.856428  0.996768  0.711206  1
  O  O57  1  0.400419  0.566875  0.731819  1
  O  O58  1  0.419550  0.400979  0.733101  1
  O  O59  1  0.080451  0.900980  0.766898  1
  O  O60  1  0.099580  0.066875  0.768180  1
  O  O61  1  0.643571  0.496769  0.788793  1
  O  O62  1  0.944686  0.237907  0.854073  1
  O  O63  1  0.372978  0.172237  0.857837  1
  O  O64  1  0.934308  0.403119  0.884237  1
  O  O65  1  0.595493  0.078870  0.920372  1
  O  O66  1  0.620799  0.243165  0.957516  1
  O  O67  1  0.175567  0.328852  0.963510  1
