# generated using pymatgen
data_HoTh2(InRh)3
_symmetry_space_group_name_H-M   'P 1'
_cell_length_a   7.63506200
_cell_length_b   7.75435591
_cell_length_c   3.92199000
_cell_angle_alpha   90.00000000
_cell_angle_beta   90.00000000
_cell_angle_gamma   119.49238910
_symmetry_Int_Tables_number   1
_chemical_formula_structural   HoTh2(InRh)3
_chemical_formula_sum   'Ho1 Th2 In3 Rh3'
_cell_volume   202.11297313
_cell_formula_units_Z   1
loop_
 _symmetry_equiv_pos_site_id
 _symmetry_equiv_pos_as_xyz
  1  'x, y, z'
loop_
 _atom_site_type_symbol
 _atom_site_label
 _atom_site_symmetry_multiplicity
 _atom_site_fract_x
 _atom_site_fract_y
 _atom_site_fract_z
 _atom_site_occupancy
  Ho  Ho0  1  0.407092  0.000000  0.500000  1
  Th  Th1  1  0.002109  0.413437  0.500000  1
  Th  Th2  1  0.588672  0.586563  0.500000  1
  In  In3  1  0.253689  0.240238  0.000000  1
  In  In4  1  0.013451  0.759762  0.000000  1
  In  In5  1  0.732505  0.000000  0.000000  1
  Rh  Rh6  1  0.330888  0.647875  0.000000  1
  Rh  Rh7  1  0.988580  0.000000  0.500000  1
  Rh  Rh8  1  0.683014  0.352125  0.000000  1
