# generated using pymatgen
data_YHo5Si4(GeRh6)2
_symmetry_space_group_name_H-M   'P 1'
_cell_length_a   5.58246200
_cell_length_b   5.58245962
_cell_length_c   15.19465600
_cell_angle_alpha   90.00000000
_cell_angle_beta   90.00000000
_cell_angle_gamma   120.00007888
_symmetry_Int_Tables_number   1
_chemical_formula_structural   YHo5Si4(GeRh6)2
_chemical_formula_sum   'Y1 Ho5 Si4 Ge2 Rh12'
_cell_volume   410.08371605
_cell_formula_units_Z   1
loop_
 _symmetry_equiv_pos_site_id
 _symmetry_equiv_pos_as_xyz
  1  'x, y, z'
loop_
 _atom_site_type_symbol
 _atom_site_label
 _atom_site_symmetry_multiplicity
 _atom_site_fract_x
 _atom_site_fract_y
 _atom_site_fract_z
 _atom_site_occupancy
  Y  Y0  1  0.333324  0.666676  0.250000  1
  Ho  Ho1  1  0.666666  0.333335  0.962320  1
  Ho  Ho2  1  0.666666  0.333335  0.537680  1
  Ho  Ho3  1  0.333335  0.666661  0.037417  1
  Ho  Ho4  1  0.666665  0.333325  0.750000  1
  Ho  Ho5  1  0.333335  0.666661  0.462583  1
  Si  Si6  1  0.666667  0.333334  0.250000  1
  Si  Si7  1  0.000000  0.999996  0.250000  1
  Si  Si8  1  0.000000  0.000000  0.750000  1
  Si  Si9  1  0.333333  0.666665  0.750000  1
  Ge  Ge10  1  0.000000  0.000000  0.500120  1
  Ge  Ge11  1  0.000000  0.000000  0.999880  1
  Rh  Rh12  1  0.167607  0.335214  0.867428  1
  Rh  Rh13  1  0.167607  0.335214  0.632572  1
  Rh  Rh14  1  0.664786  0.832395  0.867425  1
  Rh  Rh15  1  0.335296  0.167652  0.367996  1
  Rh  Rh16  1  0.832351  0.664700  0.367996  1
  Rh  Rh17  1  0.832356  0.167652  0.367994  1
  Rh  Rh18  1  0.832356  0.167652  0.132006  1
  Rh  Rh19  1  0.335296  0.167652  0.132004  1
  Rh  Rh20  1  0.664786  0.832395  0.632575  1
  Rh  Rh21  1  0.167608  0.832394  0.632574  1
  Rh  Rh22  1  0.832351  0.664700  0.132004  1
  Rh  Rh23  1  0.167608  0.832394  0.867426  1
