# generated using pymatgen
data_TbNdHo2(Mo2O7)2
_symmetry_space_group_name_H-M   'P 1'
_cell_length_a   7.32142519
_cell_length_b   7.44057412
_cell_length_c   7.36671973
_cell_angle_alpha   60.58963862
_cell_angle_beta   60.20318428
_cell_angle_gamma   60.52831192
_symmetry_Int_Tables_number   1
_chemical_formula_structural   TbNdHo2(Mo2O7)2
_chemical_formula_sum   'Tb1 Nd1 Ho2 Mo4 O14'
_cell_volume   286.58443524
_cell_formula_units_Z   1
loop_
 _symmetry_equiv_pos_site_id
 _symmetry_equiv_pos_as_xyz
  1  'x, y, z'
loop_
 _atom_site_type_symbol
 _atom_site_label
 _atom_site_symmetry_multiplicity
 _atom_site_fract_x
 _atom_site_fract_y
 _atom_site_fract_z
 _atom_site_occupancy
  Tb  Tb0  1  0.125000  0.125000  0.625000  1
  Nd  Nd1  1  0.125000  0.625000  0.125000  1
  Ho  Ho2  1  0.125000  0.125000  0.125000  1
  Ho  Ho3  1  0.625000  0.125000  0.125000  1
  Mo  Mo4  1  0.625000  0.625000  0.625000  1
  Mo  Mo5  1  0.125000  0.625000  0.625000  1
  Mo  Mo6  1  0.625000  0.625000  0.125000  1
  Mo  Mo7  1  0.625000  0.125000  0.625000  1
  O  O8  1  0.997723  0.006033  0.998521  1
  O  O9  1  0.252277  0.243967  0.251479  1
  O  O10  1  0.287272  0.285703  0.717598  1
  O  O11  1  0.544608  0.533007  0.959900  1
  O  O12  1  0.709428  0.285703  0.717598  1
  O  O13  1  0.717734  0.284984  0.279549  1
  O  O14  1  0.287188  0.721452  0.704173  1
  O  O15  1  0.287515  0.716993  0.290100  1
  O  O16  1  0.705392  0.716993  0.290100  1
  O  O17  1  0.962812  0.528548  0.545827  1
  O  O18  1  0.532266  0.965016  0.970451  1
  O  O19  1  0.962728  0.964297  0.532402  1
  O  O20  1  0.962485  0.533007  0.959900  1
  O  O21  1  0.540572  0.964297  0.532402  1
