# generated using pymatgen
data_Yb3SmPt3RhO14
_symmetry_space_group_name_H-M   'P 1'
_cell_length_a   7.26245173
_cell_length_b   7.26244984
_cell_length_c   7.27626040
_cell_angle_alpha   60.06275215
_cell_angle_beta   60.06276270
_cell_angle_gamma   59.99999274
_symmetry_Int_Tables_number   1
_chemical_formula_structural   Yb3SmPt3RhO14
_chemical_formula_sum   'Yb3 Sm1 Pt3 Rh1 O14'
_cell_volume   271.62574302
_cell_formula_units_Z   1
loop_
 _symmetry_equiv_pos_site_id
 _symmetry_equiv_pos_as_xyz
  1  'x, y, z'
loop_
 _atom_site_type_symbol
 _atom_site_label
 _atom_site_symmetry_multiplicity
 _atom_site_fract_x
 _atom_site_fract_y
 _atom_site_fract_z
 _atom_site_occupancy
  Yb  Yb0  1  0.125000  0.125000  0.125000  1
  Yb  Yb1  1  0.625000  0.125000  0.125000  1
  Yb  Yb2  1  0.125000  0.625000  0.125000  1
  Sm  Sm3  1  0.125000  0.125000  0.625000  1
  Pt  Pt4  1  0.625000  0.625000  0.625000  1
  Pt  Pt5  1  0.625000  0.125000  0.625000  1
  Pt  Pt6  1  0.125000  0.625000  0.625000  1
  Rh  Rh7  1  0.625000  0.625000  0.125000  1
  O  O8  1  0.703738  0.296839  0.295684  1
  O  O9  1  0.707856  0.290692  0.710759  1
  O  O10  1  0.000630  0.000630  0.998110  1
  O  O11  1  0.296839  0.703738  0.295684  1
  O  O12  1  0.703738  0.703738  0.295684  1
  O  O13  1  0.959308  0.542144  0.539241  1
  O  O14  1  0.290692  0.707856  0.710759  1
  O  O15  1  0.249370  0.249370  0.251890  1
  O  O16  1  0.953161  0.546262  0.954316  1
  O  O17  1  0.542144  0.959308  0.539241  1
  O  O18  1  0.546262  0.546262  0.954316  1
  O  O19  1  0.959308  0.959308  0.539241  1
  O  O20  1  0.546262  0.953161  0.954316  1
  O  O21  1  0.290692  0.290692  0.710759  1
