# generated using pymatgen
data_Ho4V3RuF28
_symmetry_space_group_name_H-M   'P 1'
_cell_length_a   5.50754721
_cell_length_b   8.81551294
_cell_length_c   11.79957000
_cell_angle_alpha   63.38516366
_cell_angle_beta   90.22957709
_cell_angle_gamma   90.13819184
_symmetry_Int_Tables_number   1
_chemical_formula_structural   Ho4V3RuF28
_chemical_formula_sum   'Ho4 V3 Ru1 F28'
_cell_volume   512.18223791
_cell_formula_units_Z   1
loop_
 _symmetry_equiv_pos_site_id
 _symmetry_equiv_pos_as_xyz
  1  'x, y, z'
loop_
 _atom_site_type_symbol
 _atom_site_label
 _atom_site_symmetry_multiplicity
 _atom_site_fract_x
 _atom_site_fract_y
 _atom_site_fract_z
 _atom_site_occupancy
  Ho  Ho0  1  0.760912  0.810998  0.768675  1
  Ho  Ho1  1  0.259581  0.192214  0.728908  1
  Ho  Ho2  1  0.242596  0.190371  0.233539  1
  Ho  Ho3  1  0.738033  0.809161  0.268825  1
  V  V4  1  0.254957  0.727727  0.544112  1
  V  V5  1  0.243385  0.724761  0.046104  1
  V  V6  1  0.746870  0.274737  0.455019  1
  Ru  Ru7  1  0.755271  0.272120  0.955318  1
  F  F8  1  0.449945  0.708201  0.925876  1
  F  F9  1  0.956836  0.293240  0.575215  1
  F  F10  1  0.558999  0.297041  0.084586  1
  F  F11  1  0.049088  0.704625  0.426522  1
  F  F12  1  0.466313  0.285208  0.546629  1
  F  F13  1  0.960911  0.715513  0.953938  1
  F  F14  1  0.537074  0.716182  0.453527  1
  F  F15  1  0.055634  0.279687  0.044396  1
  F  F16  1  0.764361  0.514018  0.856882  1
  F  F17  1  0.261924  0.492289  0.636843  1
  F  F18  1  0.227352  0.490485  0.140594  1
  F  F19  1  0.736175  0.508078  0.363349  1
  F  F20  1  0.755928  0.031356  0.048111  1
  F  F21  1  0.260070  0.961532  0.452617  1
  F  F22  1  0.247305  0.956718  0.952487  1
  F  F23  1  0.742716  0.044062  0.546331  1
  F  F24  1  0.983521  0.736636  0.640248  1
  F  F25  1  0.461770  0.271070  0.860591  1
  F  F26  1  0.017626  0.268440  0.358525  1
  F  F27  1  0.515844  0.727598  0.144961  1
  F  F28  1  0.039380  0.743242  0.169684  1
  F  F29  1  0.540576  0.254156  0.332299  1
  F  F30  1  0.948730  0.248794  0.823379  1
  F  F31  1  0.458769  0.751925  0.665199  1
  F  F32  1  0.421865  0.974217  0.230804  1
  F  F33  1  0.923825  0.025131  0.266896  1
  F  F34  1  0.576586  0.025575  0.767818  1
  F  F35  1  0.079271  0.972892  0.731194  1
