# generated using pymatgen
data_Pr3Nd(As4O9)2
_symmetry_space_group_name_H-M   'P 1'
_cell_length_a   7.02643524
_cell_length_b   7.79962866
_cell_length_c   10.04618900
_cell_angle_alpha   95.00670723
_cell_angle_beta   104.17474675
_cell_angle_gamma   104.86816263
_symmetry_Int_Tables_number   1
_chemical_formula_structural   Pr3Nd(As4O9)2
_chemical_formula_sum   'Pr3 Nd1 As8 O18'
_cell_volume   509.26968346
_cell_formula_units_Z   1
loop_
 _symmetry_equiv_pos_site_id
 _symmetry_equiv_pos_as_xyz
  1  'x, y, z'
loop_
 _atom_site_type_symbol
 _atom_site_label
 _atom_site_symmetry_multiplicity
 _atom_site_fract_x
 _atom_site_fract_y
 _atom_site_fract_z
 _atom_site_occupancy
  Pr  Pr0  1  0.253491  0.940535  0.617441  1
  Pr  Pr1  1  0.749440  0.059712  0.381785  1
  Pr  Pr2  1  0.716442  0.532130  0.404926  1
  Nd  Nd3  1  0.281059  0.467360  0.594979  1
  As  As4  1  0.675764  0.783062  0.071577  1
  As  As5  1  0.323991  0.219514  0.927145  1
  As  As6  1  0.180452  0.755593  0.913572  1
  As  As7  1  0.819818  0.247173  0.085482  1
  As  As8  1  0.751045  0.914594  0.706970  1
  As  As9  1  0.249560  0.081837  0.293112  1
  As  As10  1  0.806092  0.344662  0.698701  1
  As  As11  1  0.191575  0.653910  0.302574  1
  O  O12  1  0.721719  0.755528  0.248090  1
  O  O13  1  0.279794  0.247430  0.751032  1
  O  O14  1  0.316801  0.979568  0.877265  1
  O  O15  1  0.683760  0.023212  0.121562  1
  O  O16  1  0.603435  0.313939  0.983363  1
  O  O17  1  0.396276  0.690754  0.018486  1
  O  O18  1  0.147366  0.655474  0.743188  1
  O  O19  1  0.855737  0.345970  0.256905  1
  O  O20  1  0.844278  0.867787  0.558843  1
  O  O21  1  0.156939  0.132977  0.440702  1
  O  O22  1  0.501278  0.770436  0.667297  1
  O  O23  1  0.499041  0.225460  0.329646  1
  O  O24  1  0.369967  0.543990  0.378031  1
  O  O25  1  0.624294  0.450283  0.621297  1
  O  O26  1  0.090192  0.665204  0.452052  1
  O  O27  1  0.909307  0.333379  0.549754  1
  O  O28  1  0.362253  0.899943  0.364246  1
  O  O29  1  0.638834  0.098582  0.639979  1
