# generated using pymatgen
data_Ac11La(Si7I3)2
_symmetry_space_group_name_H-M   'P 1'
_cell_length_a   4.29220700
_cell_length_b   12.73705700
_cell_length_c   17.75947600
_cell_angle_alpha   90.00000000
_cell_angle_beta   90.00000000
_cell_angle_gamma   90.00000000
_symmetry_Int_Tables_number   1
_chemical_formula_structural   Ac11La(Si7I3)2
_chemical_formula_sum   'Ac11 La1 Si14 I6'
_cell_volume   970.91206629
_cell_formula_units_Z   1
loop_
 _symmetry_equiv_pos_site_id
 _symmetry_equiv_pos_as_xyz
  1  'x, y, z'
loop_
 _atom_site_type_symbol
 _atom_site_label
 _atom_site_symmetry_multiplicity
 _atom_site_fract_x
 _atom_site_fract_y
 _atom_site_fract_z
 _atom_site_occupancy
  Ac  Ac0  1  0.500000  0.354681  0.500000  1
  Ac  Ac1  1  0.000000  0.644603  0.000000  1
  Ac  Ac2  1  0.500000  0.366348  0.754393  1
  Ac  Ac3  1  0.000000  0.634513  0.741544  1
  Ac  Ac4  1  0.500000  0.366348  0.245607  1
  Ac  Ac5  1  0.000000  0.634513  0.258456  1
  Ac  Ac6  1  0.500000  0.078969  0.882533  1
  Ac  Ac7  1  0.000000  0.919707  0.616828  1
  Ac  Ac8  1  0.500000  0.078969  0.117467  1
  Ac  Ac9  1  0.000000  0.919707  0.383172  1
  Ac  Ac10  1  0.500000  0.363105  0.000000  1
  La  La11  1  0.000000  0.638738  0.500000  1
  Si  Si12  1  0.000000  0.167742  0.000000  1
  Si  Si13  1  0.500000  0.829961  0.500000  1
  Si  Si14  1  0.500000  0.557885  0.876932  1
  Si  Si15  1  0.000000  0.445584  0.619170  1
  Si  Si16  1  0.500000  0.557885  0.123068  1
  Si  Si17  1  0.000000  0.445584  0.380830  1
  Si  Si18  1  0.000000  0.264116  0.877926  1
  Si  Si19  1  0.500000  0.734085  0.618928  1
  Si  Si20  1  0.000000  0.264116  0.122074  1
  Si  Si21  1  0.500000  0.734085  0.381072  1
  Si  Si22  1  0.000000  0.457485  0.874707  1
  Si  Si23  1  0.500000  0.543747  0.620655  1
  Si  Si24  1  0.500000  0.543747  0.379345  1
  Si  Si25  1  0.000000  0.457485  0.125293  1
  I  I26  1  0.500000  0.111262  0.689819  1
  I  I27  1  0.000000  0.887564  0.809227  1
  I  I28  1  0.000000  0.136588  0.500000  1
  I  I29  1  0.500000  0.862056  0.000000  1
  I  I30  1  0.500000  0.111262  0.310181  1
  I  I31  1  0.000000  0.887564  0.190773  1
