# generated using pymatgen
data_Er4Al18OsPd5
_symmetry_space_group_name_H-M   'P 1'
_cell_length_a   7.60838907
_cell_length_b   7.60839123
_cell_length_c   9.45363383
_cell_angle_alpha   89.92092500
_cell_angle_beta   89.92103367
_cell_angle_gamma   119.51642189
_symmetry_Int_Tables_number   1
_chemical_formula_structural   Er4Al18OsPd5
_chemical_formula_sum   'Er4 Al18 Os1 Pd5'
_cell_volume   476.22152905
_cell_formula_units_Z   1
loop_
 _symmetry_equiv_pos_site_id
 _symmetry_equiv_pos_as_xyz
  1  'x, y, z'
loop_
 _atom_site_type_symbol
 _atom_site_label
 _atom_site_symmetry_multiplicity
 _atom_site_fract_x
 _atom_site_fract_y
 _atom_site_fract_z
 _atom_site_occupancy
  Er  Er0  1  0.994486  0.670109  0.248563  1
  Er  Er1  1  0.005514  0.329891  0.751437  1
  Er  Er2  1  0.670106  0.994489  0.248560  1
  Er  Er3  1  0.329894  0.005511  0.751440  1
  Al  Al4  1  0.128834  0.128835  0.247046  1
  Al  Al5  1  0.871166  0.871165  0.752954  1
  Al  Al6  1  0.999142  0.329986  0.074969  1
  Al  Al7  1  0.000858  0.670014  0.925031  1
  Al  Al8  1  0.999830  0.664726  0.578728  1
  Al  Al9  1  0.335274  0.000170  0.421273  1
  Al  Al10  1  0.000170  0.335274  0.421272  1
  Al  Al11  1  0.664726  0.999830  0.578727  1
  Al  Al12  1  0.670016  0.000858  0.925030  1
  Al  Al13  1  0.329984  0.999142  0.074970  1
  Al  Al14  1  0.333770  0.333769  0.559750  1
  Al  Al15  1  0.666230  0.666231  0.440250  1
  Al  Al16  1  0.671336  0.671335  0.056158  1
  Al  Al17  1  0.328664  0.328665  0.943842  1
  Al  Al18  1  0.339949  0.548172  0.249034  1
  Al  Al19  1  0.660051  0.451828  0.750966  1
  Al  Al20  1  0.548172  0.339949  0.249034  1
  Al  Al21  1  0.451828  0.660051  0.750966  1
  Os  Os22  1  0.000000  0.000000  0.000000  1
  Pd  Pd23  1  0.672119  0.327879  0.999999  1
  Pd  Pd24  1  0.327881  0.672121  0.000001  1
  Pd  Pd25  1  0.327703  0.672298  0.499999  1
  Pd  Pd26  1  0.672297  0.327702  0.500001  1
  Pd  Pd27  1  0.000000  0.000000  0.500000  1
