# generated using pymatgen
data_K2HfGe2O7
_symmetry_space_group_name_H-M   'P 1'
_cell_length_a   5.75072268
_cell_length_b   5.75072317
_cell_length_c   13.11468809
_cell_angle_alpha   77.12557891
_cell_angle_beta   77.12557742
_cell_angle_gamma   58.36933258
_symmetry_Int_Tables_number   1
_chemical_formula_structural   K2HfGe2O7
_chemical_formula_sum   'K4 Hf2 Ge4 O14'
_cell_volume   357.05475676
_cell_formula_units_Z   2
loop_
 _symmetry_equiv_pos_site_id
 _symmetry_equiv_pos_as_xyz
  1  'x, y, z'
loop_
 _atom_site_type_symbol
 _atom_site_label
 _atom_site_symmetry_multiplicity
 _atom_site_fract_x
 _atom_site_fract_y
 _atom_site_fract_z
 _atom_site_occupancy
  K  K0  1  0.640384  0.063985  0.178131  1
  K  K1  1  0.936015  0.359616  0.321869  1
  K  K2  1  0.359616  0.936015  0.821869  1
  K  K3  1  0.063985  0.640384  0.678131  1
  Hf  Hf4  1  0.500000  0.000000  0.500000  1
  Hf  Hf5  1  0.000000  0.500000  0.000000  1
  Ge  Ge6  1  0.758101  0.317310  0.621021  1
  Ge  Ge7  1  0.317310  0.758101  0.121021  1
  Ge  Ge8  1  0.241899  0.682690  0.378979  1
  Ge  Ge9  1  0.682690  0.241899  0.878979  1
  O  O10  1  0.813062  0.920886  0.956790  1
  O  O11  1  0.324397  0.425205  0.873928  1
  O  O12  1  0.425205  0.324397  0.373928  1
  O  O13  1  0.675603  0.574795  0.126072  1
  O  O14  1  0.859738  0.140262  0.750000  1
  O  O15  1  0.140262  0.859738  0.250000  1
  O  O16  1  0.212713  0.535417  0.099902  1
  O  O17  1  0.464583  0.787287  0.400098  1
  O  O18  1  0.079114  0.186938  0.543210  1
  O  O19  1  0.535417  0.212713  0.599902  1
  O  O20  1  0.186938  0.079114  0.043210  1
  O  O21  1  0.920886  0.813062  0.456790  1
  O  O22  1  0.787287  0.464583  0.900098  1
  O  O23  1  0.574795  0.675603  0.626072  1
