# generated using pymatgen
data_Ca5TbPd6
_symmetry_space_group_name_H-M   'P 1'
_cell_length_a   5.76121158
_cell_length_b   4.47748100
_cell_length_c   22.18682224
_cell_angle_alpha   90.00000000
_cell_angle_beta   97.03415495
_cell_angle_gamma   90.00000000
_symmetry_Int_Tables_number   1
_chemical_formula_structural   Ca5TbPd6
_chemical_formula_sum   'Ca10 Tb2 Pd12'
_cell_volume   568.01724872
_cell_formula_units_Z   2
loop_
 _symmetry_equiv_pos_site_id
 _symmetry_equiv_pos_as_xyz
  1  'x, y, z'
loop_
 _atom_site_type_symbol
 _atom_site_label
 _atom_site_symmetry_multiplicity
 _atom_site_fract_x
 _atom_site_fract_y
 _atom_site_fract_z
 _atom_site_occupancy
  Ca  Ca0  1  0.509163  0.250001  0.228226  1
  Ca  Ca1  1  0.026030  0.750000  0.273636  1
  Ca  Ca2  1  0.810118  0.250001  0.394232  1
  Ca  Ca3  1  0.332732  0.750000  0.439641  1
  Ca  Ca4  1  0.665755  0.250001  0.560390  1
  Ca  Ca5  1  0.189194  0.750000  0.605669  1
  Ca  Ca6  1  0.973992  0.250001  0.726222  1
  Ca  Ca7  1  0.495678  0.750000  0.772627  1
  Ca  Ca8  1  0.824974  0.250001  0.893156  1
  Ca  Ca9  1  0.333171  0.750000  0.938957  1
  Tb  Tb10  1  0.663156  0.250001  0.060336  1
  Tb  Tb11  1  0.177405  0.750000  0.106711  1
  Pd  Pd12  1  0.154810  0.250001  0.020732  1
  Pd  Pd13  1  0.684549  0.750000  0.147287  1
  Pd  Pd14  1  0.989136  0.250001  0.172593  1
  Pd  Pd15  1  0.551545  0.750000  0.320404  1
  Pd  Pd16  1  0.281703  0.250001  0.344924  1
  Pd  Pd17  1  0.853191  0.750000  0.487722  1
  Pd  Pd18  1  0.145850  0.250001  0.511761  1
  Pd  Pd19  1  0.716571  0.750000  0.654393  1
  Pd  Pd20  1  0.448485  0.250001  0.679129  1
  Pd  Pd21  1  0.013857  0.750000  0.820340  1
  Pd  Pd22  1  0.305532  0.250001  0.846543  1
  Pd  Pd23  1  0.853404  0.750000  0.994369  1
