# generated using pymatgen
data_Ba3SrCr4(P2O7)4
_symmetry_space_group_name_H-M   'P 1'
_cell_length_a   5.66695685
_cell_length_b   8.55158372
_cell_length_c   12.89578271
_cell_angle_alpha   89.59901369
_cell_angle_beta   90.02837446
_cell_angle_gamma   90.09046223
_symmetry_Int_Tables_number   1
_chemical_formula_structural   Ba3SrCr4(P2O7)4
_chemical_formula_sum   'Ba3 Sr1 Cr4 P8 O28'
_cell_volume   624.93224860
_cell_formula_units_Z   1
loop_
 _symmetry_equiv_pos_site_id
 _symmetry_equiv_pos_as_xyz
  1  'x, y, z'
loop_
 _atom_site_type_symbol
 _atom_site_label
 _atom_site_symmetry_multiplicity
 _atom_site_fract_x
 _atom_site_fract_y
 _atom_site_fract_z
 _atom_site_occupancy
  Ba  Ba0  1  0.217395  0.357347  0.218208  1
  Ba  Ba1  1  0.282339  0.857218  0.281880  1
  Ba  Ba2  1  0.780769  0.643968  0.779680  1
  Sr  Sr3  1  0.710031  0.147911  0.720664  1
  Cr  Cr4  1  0.215329  0.347699  0.885889  1
  Cr  Cr5  1  0.716251  0.151154  0.390055  1
  Cr  Cr6  1  0.782415  0.652381  0.112494  1
  Cr  Cr7  1  0.288213  0.848040  0.613516  1
  P  P8  1  0.243323  0.958098  0.836613  1
  P  P9  1  0.743578  0.547473  0.340229  1
  P  P10  1  0.756786  0.048371  0.161082  1
  P  P11  1  0.257497  0.446427  0.661312  1
  P  P12  1  0.684523  0.308306  0.012874  1
  P  P13  1  0.185099  0.189625  0.516777  1
  P  P14  1  0.311171  0.693228  0.983643  1
  P  P15  1  0.816240  0.807263  0.486531  1
  O  O16  1  0.785241  0.320949  0.903612  1
  O  O17  1  0.279149  0.174983  0.406633  1
  O  O18  1  0.210169  0.678019  0.092632  1
  O  O19  1  0.713951  0.819831  0.595150  1
  O  O20  1  0.415228  0.333621  0.020010  1
  O  O21  1  0.915531  0.163388  0.527651  1
  O  O22  1  0.581497  0.671096  0.977759  1
  O  O23  1  0.085839  0.831601  0.480127  1
  O  O24  1  0.506489  0.411663  0.700771  1
  O  O25  1  0.008320  0.076028  0.198106  1
  O  O26  1  0.493156  0.575735  0.301683  1
  O  O27  1  0.991424  0.940578  0.796085  1
  O  O28  1  0.323653  0.126719  0.852418  1
  O  O29  1  0.807442  0.375743  0.355624  1
  O  O30  1  0.690942  0.876662  0.147407  1
  O  O31  1  0.203408  0.620392  0.649237  1
  O  O32  1  0.257562  0.873654  0.949257  1
  O  O33  1  0.768697  0.626589  0.453081  1
  O  O34  1  0.730834  0.127509  0.047546  1
  O  O35  1  0.232214  0.371998  0.547137  1
  O  O36  1  0.426655  0.877788  0.765179  1
  O  O37  1  0.926673  0.624387  0.266255  1
  O  O38  1  0.575799  0.125795  0.235021  1
  O  O39  1  0.067871  0.369596  0.732352  1
  O  O40  1  0.813839  0.410688  0.093556  1
  O  O41  1  0.324807  0.090591  0.596848  1
  O  O42  1  0.184655  0.590192  0.902502  1
  O  O43  1  0.687995  0.909695  0.404908  1
