# generated using pymatgen
data_Dy3Fe7Co2
_symmetry_space_group_name_H-M   'P 1'
_cell_length_a   5.08569829
_cell_length_b   5.08247754
_cell_length_c   8.65454376
_cell_angle_alpha   72.92456670
_cell_angle_beta   73.00578656
_cell_angle_gamma   60.02093603
_symmetry_Int_Tables_number   1
_chemical_formula_structural   Dy3Fe7Co2
_chemical_formula_sum   'Dy3 Fe7 Co2'
_cell_volume   182.34669934
_cell_formula_units_Z   1
loop_
 _symmetry_equiv_pos_site_id
 _symmetry_equiv_pos_as_xyz
  1  'x, y, z'
loop_
 _atom_site_type_symbol
 _atom_site_label
 _atom_site_symmetry_multiplicity
 _atom_site_fract_x
 _atom_site_fract_y
 _atom_site_fract_z
 _atom_site_occupancy
  Dy  Dy0  1  0.141128  0.141654  0.575565  1
  Dy  Dy1  1  0.858379  0.857668  0.426285  1
  Dy  Dy2  1  0.999928  0.999813  0.000446  1
  Fe  Fe3  1  0.581580  0.581609  0.754477  1
  Fe  Fe4  1  0.581580  0.082334  0.754477  1
  Fe  Fe5  1  0.918529  0.418301  0.244868  1
  Fe  Fe6  1  0.418322  0.418316  0.244854  1
  Fe  Fe7  1  0.418322  0.918508  0.244854  1
  Fe  Fe8  1  0.332676  0.332907  0.001510  1
  Fe  Fe9  1  0.667711  0.667087  0.998112  1
  Co  Co10  1  0.081436  0.581409  0.755746  1
  Co  Co11  1  0.500408  0.500393  0.498806  1
