# generated using pymatgen
data_Al3Zn(GaIr2)4
_symmetry_space_group_name_H-M   'P 1'
_cell_length_a   6.07479201
_cell_length_b   6.07478101
_cell_length_c   6.08896300
_cell_angle_alpha   89.99829482
_cell_angle_beta   89.99941588
_cell_angle_gamma   89.99537845
_symmetry_Int_Tables_number   1
_chemical_formula_structural   Al3Zn(GaIr2)4
_chemical_formula_sum   'Al3 Zn1 Ga4 Ir8'
_cell_volume   224.70119005
_cell_formula_units_Z   1
loop_
 _symmetry_equiv_pos_site_id
 _symmetry_equiv_pos_as_xyz
  1  'x, y, z'
loop_
 _atom_site_type_symbol
 _atom_site_label
 _atom_site_symmetry_multiplicity
 _atom_site_fract_x
 _atom_site_fract_y
 _atom_site_fract_z
 _atom_site_occupancy
  Al  Al0  1  0.749976  0.249999  0.999987  1
  Al  Al1  1  0.250022  0.750000  0.000005  1
  Al  Al2  1  0.249977  0.750000  0.499975  1
  Zn  Zn3  1  0.750017  0.250000  0.500033  1
  Ga  Ga4  1  0.249897  0.249999  0.000007  1
  Ga  Ga5  1  0.750102  0.749999  0.999990  1
  Ga  Ga6  1  0.250104  0.249999  0.499981  1
  Ga  Ga7  1  0.749898  0.750000  0.500024  1
  Ir  Ir8  1  0.498216  0.998192  0.248280  1
  Ir  Ir9  1  0.498217  0.501814  0.248278  1
  Ir  Ir10  1  0.001822  0.998187  0.248341  1
  Ir  Ir11  1  0.001820  0.501802  0.248343  1
  Ir  Ir12  1  0.001803  0.998187  0.751661  1
  Ir  Ir13  1  0.001805  0.501822  0.751659  1
  Ir  Ir14  1  0.498163  0.998187  0.751717  1
  Ir  Ir15  1  0.498160  0.501807  0.751721  1
