# generated using pymatgen
data_YHo7Sc12Si15Os
_symmetry_space_group_name_H-M   'P 1'
_cell_length_a   7.08043101
_cell_length_b   7.43530175
_cell_length_c   13.95549308
_cell_angle_alpha   90.01192522
_cell_angle_beta   90.00235145
_cell_angle_gamma   90.22390403
_symmetry_Int_Tables_number   1
_chemical_formula_structural   YHo7Sc12Si15Os
_chemical_formula_sum   'Y1 Ho7 Sc12 Si15 Os1'
_cell_volume   734.68327496
_cell_formula_units_Z   1
loop_
 _symmetry_equiv_pos_site_id
 _symmetry_equiv_pos_as_xyz
  1  'x, y, z'
loop_
 _atom_site_type_symbol
 _atom_site_label
 _atom_site_symmetry_multiplicity
 _atom_site_fract_x
 _atom_site_fract_y
 _atom_site_fract_z
 _atom_site_occupancy
  Y  Y0  1  0.011134  0.178747  0.095998  1
  Ho  Ho1  1  0.990921  0.827707  0.903659  1
  Ho  Ho2  1  0.488532  0.676811  0.904236  1
  Ho  Ho3  1  0.990931  0.827805  0.596245  1
  Ho  Ho4  1  0.510875  0.322956  0.096235  1
  Ho  Ho5  1  0.011358  0.178975  0.403785  1
  Ho  Ho6  1  0.510898  0.322890  0.403800  1
  Ho  Ho7  1  0.488509  0.676816  0.595753  1
  Sc  Sc8  1  0.156115  0.497427  0.749997  1
  Sc  Sc9  1  0.837985  0.495461  0.250091  1
  Sc  Sc10  1  0.339410  0.005580  0.250094  1
  Sc  Sc11  1  0.668880  0.997714  0.749992  1
  Sc  Sc12  1  0.317972  0.172002  0.627340  1
  Sc  Sc13  1  0.671850  0.825455  0.373809  1
  Sc  Sc14  1  0.171169  0.678086  0.374044  1
  Sc  Sc15  1  0.671734  0.825362  0.126222  1
  Sc  Sc16  1  0.837442  0.318899  0.627506  1
  Sc  Sc17  1  0.318033  0.171990  0.872611  1
  Sc  Sc18  1  0.837349  0.318982  0.872385  1
  Sc  Sc19  1  0.171197  0.678039  0.125982  1
  Si  Si20  1  0.968650  0.885518  0.250159  1
  Si  Si21  1  0.469097  0.613577  0.250017  1
  Si  Si22  1  0.529429  0.389699  0.749998  1
  Si  Si23  1  0.286388  0.866162  0.750001  1
  Si  Si24  1  0.713018  0.130728  0.250171  1
  Si  Si25  1  0.214133  0.370657  0.250263  1
  Si  Si26  1  0.778732  0.627285  0.749993  1
  Si  Si27  1  0.160185  0.468999  0.536918  1
  Si  Si28  1  0.843958  0.535815  0.461501  1
  Si  Si29  1  0.344562  0.966017  0.459967  1
  Si  Si30  1  0.843759  0.536282  0.038414  1
  Si  Si31  1  0.655716  0.034021  0.538186  1
  Si  Si32  1  0.160315  0.469358  0.962930  1
  Si  Si33  1  0.655554  0.033943  0.961749  1
  Si  Si34  1  0.345108  0.965680  0.039948  1
  Os  Os35  1  0.029100  0.108557  0.750000  1
