# generated using pymatgen
data_Dy4Lu4Mn(B8Rh)3
_symmetry_space_group_name_H-M   'P 1'
_cell_length_a   3.60720600
_cell_length_b   9.08280859
_cell_length_c   11.44288915
_cell_angle_alpha   90.05314620
_cell_angle_beta   90.00000000
_cell_angle_gamma   90.00000000
_symmetry_Int_Tables_number   1
_chemical_formula_structural   Dy4Lu4Mn(B8Rh)3
_chemical_formula_sum   'Dy4 Lu4 Mn1 B24 Rh3'
_cell_volume   374.90964245
_cell_formula_units_Z   1
loop_
 _symmetry_equiv_pos_site_id
 _symmetry_equiv_pos_as_xyz
  1  'x, y, z'
loop_
 _atom_site_type_symbol
 _atom_site_label
 _atom_site_symmetry_multiplicity
 _atom_site_fract_x
 _atom_site_fract_y
 _atom_site_fract_z
 _atom_site_occupancy
  Dy  Dy0  1  0.500000  0.317708  0.410017  1
  Dy  Dy1  1  0.500000  0.678661  0.585514  1
  Dy  Dy2  1  0.500000  0.178371  0.918930  1
  Dy  Dy3  1  0.500000  0.825855  0.087569  1
  Lu  Lu4  1  0.500000  0.439806  0.126910  1
  Lu  Lu5  1  0.500000  0.556350  0.873595  1
  Lu  Lu6  1  0.500000  0.056388  0.627248  1
  Lu  Lu7  1  0.500000  0.947769  0.370502  1
  Mn  Mn8  1  0.500000  0.139119  0.180354  1
  B  B9  1  0.000000  0.104198  0.471698  1
  B  B10  1  0.000000  0.895823  0.528326  1
  B  B11  1  0.000000  0.395316  0.971418  1
  B  B12  1  0.000000  0.604972  0.028673  1
  B  B13  1  0.000000  0.131164  0.314084  1
  B  B14  1  0.000000  0.868348  0.683320  1
  B  B15  1  0.000000  0.369198  0.817094  1
  B  B16  1  0.000000  0.631046  0.182891  1
  B  B17  1  0.000000  0.055152  0.068863  1
  B  B18  1  0.000000  0.946230  0.934493  1
  B  B19  1  0.000000  0.444830  0.565505  1
  B  B20  1  0.000000  0.553561  0.433017  1
  B  B21  1  0.000000  0.481833  0.285585  1
  B  B22  1  0.000000  0.518031  0.713975  1
  B  B23  1  0.000000  0.018071  0.786970  1
  B  B24  1  0.000000  0.985692  0.212998  1
  B  B25  1  0.000000  0.248010  0.082589  1
  B  B26  1  0.000000  0.749870  0.920474  1
  B  B27  1  0.000000  0.248886  0.579225  1
  B  B28  1  0.000000  0.751535  0.419506  1
  B  B29  1  0.000000  0.290717  0.233850  1
  B  B30  1  0.000000  0.705871  0.764205  1
  B  B31  1  0.000000  0.206917  0.735500  1
  B  B32  1  0.000000  0.793751  0.265048  1
  Rh  Rh33  1  0.500000  0.861006  0.820616  1
  Rh  Rh34  1  0.500000  0.360657  0.679553  1
  Rh  Rh35  1  0.500000  0.639293  0.319885  1
