# generated using pymatgen
data_Y20In5Ni2Hg
_symmetry_space_group_name_H-M   'P 1'
_cell_length_a   9.76002125
_cell_length_b   9.83953921
_cell_length_c   9.64413000
_cell_angle_alpha   90.00000000
_cell_angle_beta   90.00000000
_cell_angle_gamma   120.26982403
_symmetry_Int_Tables_number   1
_chemical_formula_structural   Y20In5Ni2Hg
_chemical_formula_sum   'Y20 In5 Ni2 Hg1'
_cell_volume   799.89312516
_cell_formula_units_Z   1
loop_
 _symmetry_equiv_pos_site_id
 _symmetry_equiv_pos_as_xyz
  1  'x, y, z'
loop_
 _atom_site_type_symbol
 _atom_site_label
 _atom_site_symmetry_multiplicity
 _atom_site_fract_x
 _atom_site_fract_y
 _atom_site_fract_z
 _atom_site_occupancy
  Y  Y0  1  0.993223  0.996617  0.506093  1
  Y  Y1  1  0.993223  0.996617  0.993907  1
  Y  Y2  1  0.544734  0.454772  0.250000  1
  Y  Y3  1  0.544715  0.089970  0.250000  1
  Y  Y4  1  0.915474  0.457715  0.250000  1
  Y  Y5  1  0.463324  0.550040  0.750000  1
  Y  Y6  1  0.463294  0.913293  0.750000  1
  Y  Y7  1  0.090399  0.545205  0.750000  1
  Y  Y8  1  0.211903  0.789528  0.439413  1
  Y  Y9  1  0.211901  0.422381  0.439412  1
  Y  Y10  1  0.575709  0.787856  0.434845  1
  Y  Y11  1  0.789705  0.213180  0.561586  1
  Y  Y12  1  0.789707  0.576524  0.561585  1
  Y  Y13  1  0.420669  0.210342  0.563996  1
  Y  Y14  1  0.789705  0.213180  0.938414  1
  Y  Y15  1  0.789707  0.576524  0.938415  1
  Y  Y16  1  0.420669  0.210342  0.936004  1
  Y  Y17  1  0.211903  0.789528  0.060587  1
  Y  Y18  1  0.211901  0.422381  0.060588  1
  Y  Y19  1  0.575709  0.787856  0.065155  1
  In  In20  1  0.882237  0.119059  0.250000  1
  In  In21  1  0.882304  0.763109  0.250000  1
  In  In22  1  0.231560  0.115770  0.250000  1
  In  In23  1  0.120840  0.879765  0.750000  1
  In  In24  1  0.120927  0.241141  0.750000  1
  Ni  Ni25  1  0.328173  0.664095  0.250000  1
  Ni  Ni26  1  0.667138  0.333551  0.750000  1
  Hg  Hg27  1  0.759249  0.879660  0.750000  1
