# generated using pymatgen
data_La3Gd5Np4O24
_symmetry_space_group_name_H-M   'P 1'
_cell_length_a   5.66146700
_cell_length_b   7.97444222
_cell_length_c   11.96239900
_cell_angle_alpha   74.36785780
_cell_angle_beta   90.00000000
_cell_angle_gamma   90.00000000
_symmetry_Int_Tables_number   1
_chemical_formula_structural   La3Gd5Np4O24
_chemical_formula_sum   'La3 Gd5 Np4 O24'
_cell_volume   520.09068788
_cell_formula_units_Z   1
loop_
 _symmetry_equiv_pos_site_id
 _symmetry_equiv_pos_as_xyz
  1  'x, y, z'
loop_
 _atom_site_type_symbol
 _atom_site_label
 _atom_site_symmetry_multiplicity
 _atom_site_fract_x
 _atom_site_fract_y
 _atom_site_fract_z
 _atom_site_occupancy
  La  La0  1  0.745636  0.000000  0.750000  1
  La  La1  1  0.694137  0.500000  0.750000  1
  La  La2  1  0.304501  0.500000  0.250000  1
  Gd  Gd3  1  0.254561  0.000000  0.250000  1
  Gd  Gd4  1  0.189126  0.795945  0.577738  1
  Gd  Gd5  1  0.813265  0.792803  0.080190  1
  Gd  Gd6  1  0.189126  0.204055  0.922262  1
  Gd  Gd7  1  0.813265  0.207197  0.419810  1
  Np  Np8  1  0.253332  0.719339  0.888721  1
  Np  Np9  1  0.745700  0.727641  0.385435  1
  Np  Np10  1  0.253332  0.280661  0.611279  1
  Np  Np11  1  0.745700  0.272359  0.114565  1
  O  O12  1  0.053154  0.938907  0.901146  1
  O  O13  1  0.545734  0.840948  0.936413  1
  O  O14  1  0.953190  0.944958  0.396203  1
  O  O15  1  0.442137  0.793854  0.730403  1
  O  O16  1  0.450159  0.850642  0.431307  1
  O  O17  1  0.974020  0.715931  0.768256  1
  O  O18  1  0.552707  0.801211  0.228078  1
  O  O19  1  0.874770  0.635592  0.549916  1
  O  O20  1  0.376549  0.481601  0.888697  1
  O  O21  1  0.029172  0.721939  0.266518  1
  O  O22  1  0.376549  0.518399  0.611303  1
  O  O23  1  0.874770  0.364408  0.950084  1
  O  O24  1  0.121123  0.625924  0.052153  1
  O  O25  1  0.626445  0.488927  0.384977  1
  O  O26  1  0.974020  0.284069  0.731744  1
  O  O27  1  0.626445  0.511073  0.115023  1
  O  O28  1  0.121123  0.374076  0.447847  1
  O  O29  1  0.442137  0.206146  0.769597  1
  O  O30  1  0.029172  0.278061  0.233482  1
  O  O31  1  0.545734  0.159052  0.563587  1
  O  O32  1  0.552707  0.198789  0.271922  1
  O  O33  1  0.053154  0.061093  0.598854  1
  O  O34  1  0.450159  0.149358  0.068693  1
  O  O35  1  0.953190  0.055042  0.103797  1
