# generated using pymatgen
data_Th3TlIn2CuIr2
_symmetry_space_group_name_H-M   'P 1'
_cell_length_a   7.75738777
_cell_length_b   7.75738708
_cell_length_c   3.96464200
_cell_angle_alpha   90.00000000
_cell_angle_beta   90.00000000
_cell_angle_gamma   119.30933444
_symmetry_Int_Tables_number   1
_chemical_formula_structural   Th3TlIn2CuIr2
_chemical_formula_sum   'Th3 Tl1 In2 Cu1 Ir2'
_cell_volume   208.03969709
_cell_formula_units_Z   1
loop_
 _symmetry_equiv_pos_site_id
 _symmetry_equiv_pos_as_xyz
  1  'x, y, z'
loop_
 _atom_site_type_symbol
 _atom_site_label
 _atom_site_symmetry_multiplicity
 _atom_site_fract_x
 _atom_site_fract_y
 _atom_site_fract_z
 _atom_site_occupancy
  Th  Th0  1  0.417872  0.997692  0.500000  1
  Th  Th1  1  0.997692  0.417872  0.500000  1
  Th  Th2  1  0.581627  0.581627  0.500000  1
  Tl  Tl3  1  0.246175  0.246175  0.000000  1
  In  In4  1  0.753777  0.996652  0.000000  1
  In  In5  1  0.996652  0.753777  0.000000  1
  Cu  Cu6  1  0.992657  0.992657  0.500000  1
  Ir  Ir7  1  0.336030  0.677517  0.000000  1
  Ir  Ir8  1  0.677517  0.336030  0.000000  1
