# generated using pymatgen
data_TbTh2InGa8Ru3
_symmetry_space_group_name_H-M   'P 1'
_cell_length_a   6.63823300
_cell_length_b   6.52941100
_cell_length_c   6.52923700
_cell_angle_alpha   89.99979818
_cell_angle_beta   90.00137669
_cell_angle_gamma   89.99942473
_symmetry_Int_Tables_number   1
_chemical_formula_structural   TbTh2InGa8Ru3
_chemical_formula_sum   'Tb1 Th2 In1 Ga8 Ru3'
_cell_volume   283.00162643
_cell_formula_units_Z   1
loop_
 _symmetry_equiv_pos_site_id
 _symmetry_equiv_pos_as_xyz
  1  'x, y, z'
loop_
 _atom_site_type_symbol
 _atom_site_label
 _atom_site_symmetry_multiplicity
 _atom_site_fract_x
 _atom_site_fract_y
 _atom_site_fract_z
 _atom_site_occupancy
  Tb  Tb0  1  0.000050  0.500053  0.499969  1
  Th  Th1  1  0.500010  0.499975  0.000049  1
  Th  Th2  1  0.499948  0.999971  0.499984  1
  In  In3  1  0.500085  0.499930  0.500091  1
  Ga  Ga4  1  0.199779  0.207035  0.792971  1
  Ga  Ga5  1  0.199804  0.792978  0.207000  1
  Ga  Ga6  1  0.800207  0.207023  0.207053  1
  Ga  Ga7  1  0.800158  0.792965  0.792929  1
  Ga  Ga8  1  0.800229  0.793048  0.206961  1
  Ga  Ga9  1  0.800198  0.207031  0.792923  1
  Ga  Ga10  1  0.199763  0.793018  0.793060  1
  Ga  Ga11  1  0.199741  0.206976  0.206976  1
  Ru  Ru12  1  0.000033  0.999988  0.500005  1
  Ru  Ru13  1  0.999980  0.499976  0.999996  1
  Ru  Ru14  1  0.500016  0.000032  0.000033  1
