# generated using pymatgen
data_CaNd9(Sn3H)2
_symmetry_space_group_name_H-M   'P 1'
_cell_length_a   9.33154017
_cell_length_b   9.33154014
_cell_length_c   9.33154127
_cell_angle_alpha   127.02681071
_cell_angle_beta   127.02681172
_cell_angle_gamma   78.20694812
_symmetry_Int_Tables_number   1
_chemical_formula_structural   CaNd9(Sn3H)2
_chemical_formula_sum   'Ca1 Nd9 Sn6 H2'
_cell_volume   501.68771929
_cell_formula_units_Z   1
loop_
 _symmetry_equiv_pos_site_id
 _symmetry_equiv_pos_as_xyz
  1  'x, y, z'
loop_
 _atom_site_type_symbol
 _atom_site_label
 _atom_site_symmetry_multiplicity
 _atom_site_fract_x
 _atom_site_fract_y
 _atom_site_fract_z
 _atom_site_occupancy
  Ca  Ca0  1  0.500000  0.500000  0.000000  1
  Nd  Nd1  1  0.000000  0.000000  0.000000  1
  Nd  Nd2  1  0.511071  0.015435  0.826876  1
  Nd  Nd3  1  0.188559  0.684196  0.173124  1
  Nd  Nd4  1  0.015435  0.188559  0.504364  1
  Nd  Nd5  1  0.684196  0.511071  0.495636  1
  Nd  Nd6  1  0.488929  0.984565  0.173124  1
  Nd  Nd7  1  0.811441  0.315804  0.826876  1
  Nd  Nd8  1  0.984565  0.811441  0.495636  1
  Nd  Nd9  1  0.315804  0.488929  0.504364  1
  Sn  Sn10  1  0.248120  0.248120  0.000000  1
  Sn  Sn11  1  0.751880  0.751880  0.000000  1
  Sn  Sn12  1  0.870570  0.366906  0.237477  1
  Sn  Sn13  1  0.129430  0.633094  0.762523  1
  Sn  Sn14  1  0.366906  0.129430  0.496336  1
  Sn  Sn15  1  0.633094  0.870570  0.503664  1
  H  H16  1  0.250000  0.750000  0.500000  1
  H  H17  1  0.750000  0.250000  0.500000  1
