# generated using pymatgen
data_DyHo9(In2Cu)4
_symmetry_space_group_name_H-M   'P 1'
_cell_length_a   3.64728500
_cell_length_b   8.01166906
_cell_length_c   17.93392114
_cell_angle_alpha   90.01453024
_cell_angle_beta   90.00000000
_cell_angle_gamma   90.00000000
_symmetry_Int_Tables_number   1
_chemical_formula_structural   DyHo9(In2Cu)4
_chemical_formula_sum   'Dy1 Ho9 In8 Cu4'
_cell_volume   524.04423071
_cell_formula_units_Z   1
loop_
 _symmetry_equiv_pos_site_id
 _symmetry_equiv_pos_as_xyz
  1  'x, y, z'
loop_
 _atom_site_type_symbol
 _atom_site_label
 _atom_site_symmetry_multiplicity
 _atom_site_fract_x
 _atom_site_fract_y
 _atom_site_fract_z
 _atom_site_occupancy
  Dy  Dy0  1  0.000000  0.500000  0.500000  1
  Ho  Ho1  1  0.000000  0.000000  0.000000  1
  Ho  Ho2  1  0.000000  0.738309  0.279849  1
  Ho  Ho3  1  0.000000  0.261691  0.720151  1
  Ho  Ho4  1  0.000000  0.761670  0.779907  1
  Ho  Ho5  1  0.000000  0.238330  0.220093  1
  Ho  Ho6  1  0.000000  0.616175  0.082842  1
  Ho  Ho7  1  0.000000  0.383825  0.917158  1
  Ho  Ho8  1  0.000000  0.883763  0.582876  1
  Ho  Ho9  1  0.000000  0.116237  0.417124  1
  In  In10  1  0.500000  0.709918  0.930487  1
  In  In11  1  0.500000  0.290082  0.069513  1
  In  In12  1  0.500000  0.790566  0.430400  1
  In  In13  1  0.500000  0.209434  0.569600  1
  In  In14  1  0.500000  0.580436  0.650238  1
  In  In15  1  0.500000  0.419564  0.349762  1
  In  In16  1  0.500000  0.919706  0.150020  1
  In  In17  1  0.500000  0.080294  0.849980  1
  Cu  Cu18  1  0.500000  0.524049  0.197166  1
  Cu  Cu19  1  0.500000  0.475951  0.802834  1
  Cu  Cu20  1  0.500000  0.975967  0.697216  1
  Cu  Cu21  1  0.500000  0.024033  0.302784  1
