# generated using pymatgen
data_RbAsPbO4
_symmetry_space_group_name_H-M   'P 1'
_cell_length_a   5.91405200
_cell_length_b   9.66776800
_cell_length_c   9.78278800
_cell_angle_alpha   90.00000000
_cell_angle_beta   90.00000000
_cell_angle_gamma   90.00000000
_symmetry_Int_Tables_number   1
_chemical_formula_structural   RbAsPbO4
_chemical_formula_sum   'Rb4 As4 Pb4 O16'
_cell_volume   559.33758237
_cell_formula_units_Z   4
loop_
 _symmetry_equiv_pos_site_id
 _symmetry_equiv_pos_as_xyz
  1  'x, y, z'
loop_
 _atom_site_type_symbol
 _atom_site_label
 _atom_site_symmetry_multiplicity
 _atom_site_fract_x
 _atom_site_fract_y
 _atom_site_fract_z
 _atom_site_occupancy
  Rb  Rb0  1  0.750000  0.659797  0.014240  1
  Rb  Rb1  1  0.750000  0.840203  0.514240  1
  Rb  Rb2  1  0.250000  0.340203  0.985760  1
  Rb  Rb3  1  0.250000  0.159797  0.485760  1
  As  As4  1  0.750000  0.071120  0.816248  1
  As  As5  1  0.750000  0.428880  0.316248  1
  As  As6  1  0.250000  0.928880  0.183752  1
  As  As7  1  0.250000  0.571120  0.683752  1
  Pb  Pb8  1  0.750000  0.096363  0.166680  1
  Pb  Pb9  1  0.750000  0.403637  0.666680  1
  Pb  Pb10  1  0.250000  0.903637  0.833320  1
  Pb  Pb11  1  0.250000  0.596363  0.333320  1
  O  O12  1  0.750000  0.948895  0.945244  1
  O  O13  1  0.750000  0.551105  0.445244  1
  O  O14  1  0.250000  0.051105  0.054756  1
  O  O15  1  0.250000  0.448895  0.554756  1
  O  O16  1  0.750000  0.237515  0.878129  1
  O  O17  1  0.750000  0.262485  0.378129  1
  O  O18  1  0.250000  0.762485  0.121871  1
  O  O19  1  0.250000  0.737515  0.621871  1
  O  O20  1  0.987461  0.042345  0.715061  1
  O  O21  1  0.512539  0.457655  0.215061  1
  O  O22  1  0.487461  0.957655  0.284939  1
  O  O23  1  0.012539  0.542345  0.784939  1
  O  O24  1  0.012539  0.957655  0.284939  1
  O  O25  1  0.487461  0.542345  0.784939  1
  O  O26  1  0.512539  0.042345  0.715061  1
  O  O27  1  0.987461  0.457655  0.215061  1
