# generated using pymatgen
data_Sr10CuTc3N14
_symmetry_space_group_name_H-M   'P 1'
_cell_length_a   6.43481542
_cell_length_b   9.15293490
_cell_length_c   9.33809855
_cell_angle_alpha   113.35142062
_cell_angle_beta   99.72978356
_cell_angle_gamma   89.71852516
_symmetry_Int_Tables_number   1
_chemical_formula_structural   Sr10CuTc3N14
_chemical_formula_sum   'Sr10 Cu1 Tc3 N14'
_cell_volume   496.50544993
_cell_formula_units_Z   1
loop_
 _symmetry_equiv_pos_site_id
 _symmetry_equiv_pos_as_xyz
  1  'x, y, z'
loop_
 _atom_site_type_symbol
 _atom_site_label
 _atom_site_symmetry_multiplicity
 _atom_site_fract_x
 _atom_site_fract_y
 _atom_site_fract_z
 _atom_site_occupancy
  Sr  Sr0  1  0.870172  0.568766  0.345426  1
  Sr  Sr1  1  0.263453  0.985180  0.564144  1
  Sr  Sr2  1  0.687975  0.398970  0.824532  1
  Sr  Sr3  1  0.292536  0.587483  0.145380  1
  Sr  Sr4  1  0.388967  0.788506  0.911738  1
  Sr  Sr5  1  0.618136  0.214690  0.105642  1
  Sr  Sr6  1  0.142780  0.396443  0.640452  1
  Sr  Sr7  1  0.879167  0.840489  0.762189  1
  Sr  Sr8  1  0.134596  0.160980  0.250328  1
  Sr  Sr9  1  0.726157  0.039920  0.434515  1
  Cu  Cu10  1  0.580881  0.338184  0.456674  1
  Tc  Tc11  1  0.431797  0.639435  0.530526  1
  Tc  Tc12  1  0.123026  0.217932  0.912280  1
  Tc  Tc13  1  0.871043  0.775030  0.085740  1
  N  N14  1  0.576225  0.601318  0.696872  1
  N  N15  1  0.413595  0.463062  0.340941  1
  N  N16  1  0.171814  0.704851  0.587775  1
  N  N17  1  0.858088  0.302973  0.389358  1
  N  N18  1  0.407041  0.197177  0.509986  1
  N  N19  1  0.583473  0.802195  0.516951  1
  N  N20  1  0.954490  0.146459  0.714498  1
  N  N21  1  0.041010  0.841121  0.280515  1
  N  N22  1  0.229019  0.053204  0.961313  1
  N  N23  1  0.763886  0.942444  0.042196  1
  N  N24  1  0.352538  0.334274  0.913686  1
  N  N25  1  0.971703  0.343542  0.060632  1
  N  N26  1  0.024182  0.659351  0.932372  1
  N  N27  1  0.642249  0.656021  0.083339  1
