# generated using pymatgen
data_Bi4Ru2O11
_symmetry_space_group_name_H-M   'P 1'
_cell_length_a   6.58800899
_cell_length_b   7.56128097
_cell_length_c   9.94250586
_cell_angle_alpha   100.98398434
_cell_angle_beta   91.29109128
_cell_angle_gamma   89.99833622
_symmetry_Int_Tables_number   1
_chemical_formula_structural   Bi4Ru2O11
_chemical_formula_sum   'Bi8 Ru4 O22'
_cell_volume   486.07266800
_cell_formula_units_Z   2
loop_
 _symmetry_equiv_pos_site_id
 _symmetry_equiv_pos_as_xyz
  1  'x, y, z'
loop_
 _atom_site_type_symbol
 _atom_site_label
 _atom_site_symmetry_multiplicity
 _atom_site_fract_x
 _atom_site_fract_y
 _atom_site_fract_z
 _atom_site_occupancy
  Bi  Bi0  1  0.753970  0.370490  0.479607  1
  Bi  Bi1  1  0.246030  0.629510  0.520393  1
  Bi  Bi2  1  0.754938  0.873854  0.482263  1
  Bi  Bi3  1  0.245062  0.126146  0.517737  1
  Bi  Bi4  1  0.474483  0.954359  0.821883  1
  Bi  Bi5  1  0.525517  0.045641  0.178117  1
  Bi  Bi6  1  0.397989  0.454220  0.828597  1
  Bi  Bi7  1  0.602011  0.545780  0.171403  1
  Ru  Ru8  1  0.931938  0.703428  0.812800  1
  Ru  Ru9  1  0.068062  0.296572  0.187200  1
  Ru  Ru10  1  0.930553  0.204048  0.814135  1
  Ru  Ru11  1  0.069447  0.795952  0.185865  1
  O  O12  1  0.226284  0.723892  0.766956  1
  O  O13  1  0.773716  0.276108  0.233044  1
  O  O14  1  0.635399  0.673978  0.833189  1
  O  O15  1  0.364601  0.326022  0.166811  1
  O  O16  1  0.635823  0.244553  0.847180  1
  O  O17  1  0.364177  0.755447  0.152820  1
  O  O18  1  0.889663  0.172840  0.610493  1
  O  O19  1  0.110337  0.827160  0.389507  1
  O  O20  1  0.224349  0.158589  0.764570  1
  O  O21  1  0.775651  0.841411  0.235430  1
  O  O22  1  0.904044  0.636138  0.605824  1
  O  O23  1  0.095956  0.363862  0.394176  1
  O  O24  1  0.011424  0.543397  0.175156  1
  O  O25  1  0.988576  0.456603  0.824844  1
  O  O26  1  0.995808  0.782439  0.999872  1
  O  O27  1  0.004192  0.217561  0.000128  1
  O  O28  1  0.576928  0.607622  0.390926  1
  O  O29  1  0.423072  0.392378  0.609074  1
  O  O30  1  0.156185  0.053477  0.214247  1
  O  O31  1  0.843815  0.946523  0.785753  1
  O  O32  1  0.542459  0.093247  0.397084  1
  O  O33  1  0.457541  0.906753  0.602916  1
