# generated using pymatgen
data_Zr2AlZnFe8
_symmetry_space_group_name_H-M   'P 1'
_cell_length_a   8.41225499
_cell_length_b   8.41225518
_cell_length_c   8.41225469
_cell_angle_alpha   33.50321216
_cell_angle_beta   33.50320820
_cell_angle_gamma   33.50320677
_symmetry_Int_Tables_number   1
_chemical_formula_structural   Zr2AlZnFe8
_chemical_formula_sum   'Zr2 Al1 Zn1 Fe8'
_cell_volume   161.54521189
_cell_formula_units_Z   1
loop_
 _symmetry_equiv_pos_site_id
 _symmetry_equiv_pos_as_xyz
  1  'x, y, z'
loop_
 _atom_site_type_symbol
 _atom_site_label
 _atom_site_symmetry_multiplicity
 _atom_site_fract_x
 _atom_site_fract_y
 _atom_site_fract_z
 _atom_site_occupancy
  Zr  Zr0  1  0.999355  0.999355  0.999355  1
  Zr  Zr1  1  0.500574  0.500574  0.500574  1
  Al  Al2  1  0.124959  0.124959  0.124959  1
  Zn  Zn3  1  0.625116  0.625116  0.625116  1
  Fe  Fe4  1  0.564192  0.061133  0.564192  1
  Fe  Fe5  1  0.064294  0.558018  0.064294  1
  Fe  Fe6  1  0.061133  0.564192  0.564192  1
  Fe  Fe7  1  0.558018  0.064294  0.064294  1
  Fe  Fe8  1  0.811972  0.811972  0.811972  1
  Fe  Fe9  1  0.311903  0.311903  0.311903  1
  Fe  Fe10  1  0.564192  0.564192  0.061133  1
  Fe  Fe11  1  0.064294  0.064294  0.558018  1
