# generated using pymatgen
data_La5(Sn5Pd2)2
_symmetry_space_group_name_H-M   'P 1'
_cell_length_a   14.41736200
_cell_length_b   14.41736200
_cell_length_c   4.73321200
_cell_angle_alpha   90.00000000
_cell_angle_beta   90.00000000
_cell_angle_gamma   90.00000000
_symmetry_Int_Tables_number   1
_chemical_formula_structural   La5(Sn5Pd2)2
_chemical_formula_sum   'La10 Sn20 Pd8'
_cell_volume   983.84699427
_cell_formula_units_Z   2
loop_
 _symmetry_equiv_pos_site_id
 _symmetry_equiv_pos_as_xyz
  1  'x, y, z'
loop_
 _atom_site_type_symbol
 _atom_site_label
 _atom_site_symmetry_multiplicity
 _atom_site_fract_x
 _atom_site_fract_y
 _atom_site_fract_z
 _atom_site_occupancy
  La  La0  1  0.500000  0.500000  0.000000  1
  La  La1  1  0.000000  0.000000  0.000000  1
  La  La2  1  0.678223  0.178223  0.500000  1
  La  La3  1  0.321777  0.821777  0.500000  1
  La  La4  1  0.178223  0.321777  0.500000  1
  La  La5  1  0.821777  0.678223  0.500000  1
  La  La6  1  0.889829  0.389829  0.500000  1
  La  La7  1  0.110171  0.610171  0.500000  1
  La  La8  1  0.389829  0.110171  0.500000  1
  La  La9  1  0.610171  0.889829  0.500000  1
  Sn  Sn10  1  0.568494  0.068494  0.000000  1
  Sn  Sn11  1  0.431506  0.931506  0.000000  1
  Sn  Sn12  1  0.068494  0.431506  0.000000  1
  Sn  Sn13  1  0.931506  0.568494  0.000000  1
  Sn  Sn14  1  0.654341  0.698899  0.000000  1
  Sn  Sn15  1  0.345659  0.301101  0.000000  1
  Sn  Sn16  1  0.154341  0.801101  0.000000  1
  Sn  Sn17  1  0.845659  0.198899  0.000000  1
  Sn  Sn18  1  0.301101  0.654341  0.000000  1
  Sn  Sn19  1  0.698899  0.345659  0.000000  1
  Sn  Sn20  1  0.198899  0.154341  0.000000  1
  Sn  Sn21  1  0.801101  0.845659  0.000000  1
  Sn  Sn22  1  0.662274  0.502302  0.500000  1
  Sn  Sn23  1  0.337726  0.497698  0.500000  1
  Sn  Sn24  1  0.162274  0.997698  0.500000  1
  Sn  Sn25  1  0.837726  0.002302  0.500000  1
  Sn  Sn26  1  0.497698  0.662274  0.500000  1
  Sn  Sn27  1  0.502302  0.337726  0.500000  1
  Sn  Sn28  1  0.002302  0.162274  0.500000  1
  Sn  Sn29  1  0.997698  0.837726  0.500000  1
  Pd  Pd30  1  0.745569  0.528358  0.000000  1
  Pd  Pd31  1  0.254431  0.471642  0.000000  1
  Pd  Pd32  1  0.245569  0.971642  0.000000  1
  Pd  Pd33  1  0.754431  0.028358  0.000000  1
  Pd  Pd34  1  0.471642  0.745569  0.000000  1
  Pd  Pd35  1  0.528358  0.254431  0.000000  1
  Pd  Pd36  1  0.028358  0.245569  0.000000  1
  Pd  Pd37  1  0.971642  0.754431  0.000000  1
