# generated using pymatgen
data_TbYAl9Ir2Pd
_symmetry_space_group_name_H-M   'P 1'
_cell_length_a   7.58912449
_cell_length_b   7.59070927
_cell_length_c   9.47935532
_cell_angle_alpha   89.93795310
_cell_angle_beta   89.92091454
_cell_angle_gamma   119.59191146
_symmetry_Int_Tables_number   1
_chemical_formula_structural   TbYAl9Ir2Pd
_chemical_formula_sum   'Tb2 Y2 Al18 Ir4 Pd2'
_cell_volume   474.84668082
_cell_formula_units_Z   2
loop_
 _symmetry_equiv_pos_site_id
 _symmetry_equiv_pos_as_xyz
  1  'x, y, z'
loop_
 _atom_site_type_symbol
 _atom_site_label
 _atom_site_symmetry_multiplicity
 _atom_site_fract_x
 _atom_site_fract_y
 _atom_site_fract_z
 _atom_site_occupancy
  Tb  Tb0  1  0.995298  0.670637  0.251300  1
  Tb  Tb1  1  0.004702  0.329363  0.748700  1
  Y  Y2  1  0.670624  0.995294  0.251338  1
  Y  Y3  1  0.329376  0.004706  0.748662  1
  Al  Al4  1  0.127952  0.127958  0.250634  1
  Al  Al5  1  0.872048  0.872042  0.749366  1
  Al  Al6  1  0.001137  0.331406  0.077359  1
  Al  Al7  1  0.998863  0.668594  0.922641  1
  Al  Al8  1  0.000011  0.664966  0.573968  1
  Al  Al9  1  0.335245  0.000066  0.426102  1
  Al  Al10  1  0.999989  0.335034  0.426032  1
  Al  Al11  1  0.664755  0.999934  0.573898  1
  Al  Al12  1  0.668407  0.998794  0.922699  1
  Al  Al13  1  0.331593  0.001206  0.077301  1
  Al  Al14  1  0.332783  0.332705  0.549714  1
  Al  Al15  1  0.667217  0.667295  0.450286  1
  Al  Al16  1  0.668771  0.668843  0.057185  1
  Al  Al17  1  0.331229  0.331157  0.942815  1
  Al  Al18  1  0.340246  0.547188  0.253102  1
  Al  Al19  1  0.659754  0.452812  0.746898  1
  Al  Al20  1  0.547139  0.340207  0.253091  1
  Al  Al21  1  0.452861  0.659793  0.746909  1
  Ir  Ir22  1  0.328233  0.671852  0.499989  1
  Ir  Ir23  1  0.671767  0.328148  0.500011  1
  Ir  Ir24  1  0.000000  0.000000  0.000000  1
  Ir  Ir25  1  0.000000  0.000000  0.500000  1
  Pd  Pd26  1  0.671975  0.327791  0.999992  1
  Pd  Pd27  1  0.328025  0.672209  0.000008  1
