# generated using pymatgen
data_MnZnF36
_symmetry_space_group_name_H-M   'P 1'
_cell_length_a   6.64767035
_cell_length_b   9.86029042
_cell_length_c   10.13020200
_cell_angle_alpha   92.06019557
_cell_angle_beta   95.69986180
_cell_angle_gamma   73.82670724
_symmetry_Int_Tables_number   1
_chemical_formula_structural   MnZnF36
_chemical_formula_sum   'Mn1 Zn1 F36'
_cell_volume   634.55787901
_cell_formula_units_Z   1
loop_
 _symmetry_equiv_pos_site_id
 _symmetry_equiv_pos_as_xyz
  1  'x, y, z'
loop_
 _atom_site_type_symbol
 _atom_site_label
 _atom_site_symmetry_multiplicity
 _atom_site_fract_x
 _atom_site_fract_y
 _atom_site_fract_z
 _atom_site_occupancy
  Mn  Mn0  1  0.711474  0.809850  0.842278  1
  Zn  Zn1  1  0.313096  0.186404  0.172474  1
  F  F2  1  0.314398  0.395530  0.896379  1
  F  F3  1  0.689626  0.586693  0.105401  1
  F  F4  1  0.270866  0.296219  0.578159  1
  F  F5  1  0.722491  0.713372  0.418572  1
  F  F6  1  0.918343  0.214620  0.818237  1
  F  F7  1  0.080352  0.799089  0.169304  1
  F  F8  1  0.632848  0.853775  0.998291  1
  F  F9  1  0.305294  0.111653  0.995639  1
  F  F10  1  0.884332  0.649964  0.909536  1
  F  F11  1  0.140632  0.377012  0.134524  1
  F  F12  1  0.473280  0.411410  0.818283  1
  F  F13  1  0.531384  0.576239  0.187105  1
  F  F14  1  0.648923  0.710418  0.708643  1
  F  F15  1  0.294719  0.325441  0.313601  1
  F  F16  1  0.736293  0.020020  0.505420  1
  F  F17  1  0.257248  0.987728  0.490600  1
  F  F18  1  0.280941  0.183315  0.664745  1
  F  F19  1  0.714559  0.818798  0.324081  1
  F  F20  1  0.794882  0.100878  0.615071  1
  F  F21  1  0.199884  0.913874  0.374858  1
  F  F22  1  0.907492  0.882779  0.815814  1
  F  F23  1  0.112573  0.067821  0.123132  1
  F  F24  1  0.900339  0.361467  0.809263  1
  F  F25  1  0.098116  0.655749  0.199461  1
  F  F26  1  0.285839  0.682177  0.933780  1
  F  F27  1  0.730786  0.305734  0.065665  1
  F  F28  1  0.513798  0.959168  0.775689  1
  F  F29  1  0.539982  0.052913  0.251354  1
  F  F30  1  0.104105  0.750114  0.573146  1
  F  F31  1  0.907073  0.246870  0.418222  1
  F  F32  1  0.126681  0.620165  0.638123  1
  F  F33  1  0.849255  0.381642  0.356753  1
  F  F34  1  0.319847  0.786794  0.851390  1
  F  F35  1  0.682768  0.198585  0.141077  1
  F  F36  1  0.521595  0.438557  0.538066  1
  F  F37  1  0.483886  0.567163  0.467862  1
