# generated using pymatgen
data_CeNd7Si12AgRh3
_symmetry_space_group_name_H-M   'P 1'
_cell_length_a   8.27267800
_cell_length_b   8.27267893
_cell_length_c   8.44374800
_cell_angle_alpha   90.00019668
_cell_angle_beta   89.99974641
_cell_angle_gamma   119.99987689
_symmetry_Int_Tables_number   1
_chemical_formula_structural   CeNd7Si12AgRh3
_chemical_formula_sum   'Ce1 Nd7 Si12 Ag1 Rh3'
_cell_volume   500.44773020
_cell_formula_units_Z   1
loop_
 _symmetry_equiv_pos_site_id
 _symmetry_equiv_pos_as_xyz
  1  'x, y, z'
loop_
 _atom_site_type_symbol
 _atom_site_label
 _atom_site_symmetry_multiplicity
 _atom_site_fract_x
 _atom_site_fract_y
 _atom_site_fract_z
 _atom_site_occupancy
  Ce  Ce0  1  0.000001  0.000000  0.749091  1
  Nd  Nd1  1  0.000000  0.000000  0.251128  1
  Nd  Nd2  1  0.496503  0.503498  0.745471  1
  Nd  Nd3  1  0.496505  0.993011  0.745473  1
  Nd  Nd4  1  0.006991  0.503499  0.745473  1
  Nd  Nd5  1  0.497528  0.502469  0.254661  1
  Nd  Nd6  1  0.004943  0.502467  0.254665  1
  Nd  Nd7  1  0.497529  0.995058  0.254664  1
  Si  Si8  1  0.839837  0.160161  0.999011  1
  Si  Si9  1  0.839837  0.679674  0.999011  1
  Si  Si10  1  0.320325  0.160161  0.999011  1
  Si  Si11  1  0.832729  0.167270  0.502788  1
  Si  Si12  1  0.832730  0.665458  0.502788  1
  Si  Si13  1  0.334541  0.167270  0.502788  1
  Si  Si14  1  0.165900  0.834101  0.501949  1
  Si  Si15  1  0.668201  0.834102  0.501949  1
  Si  Si16  1  0.165899  0.331800  0.501949  1
  Si  Si17  1  0.168041  0.831961  0.996437  1
  Si  Si18  1  0.663919  0.831960  0.996437  1
  Si  Si19  1  0.168040  0.336082  0.996437  1
  Ag  Ag20  1  0.666667  0.333335  0.999292  1
  Rh  Rh21  1  0.666667  0.333336  0.497407  1
  Rh  Rh22  1  0.333333  0.666665  0.496796  1
  Rh  Rh23  1  0.333334  0.666665  0.005324  1
