# generated using pymatgen
data_Nb8Fe3Co4Si14Rh
_symmetry_space_group_name_H-M   'P 1'
_cell_length_a   9.27265821
_cell_length_b   9.28508666
_cell_length_c   9.25518734
_cell_angle_alpha   94.31429246
_cell_angle_beta   94.24286657
_cell_angle_gamma   148.33905481
_symmetry_Int_Tables_number   1
_chemical_formula_structural   Nb8Fe3Co4Si14Rh
_chemical_formula_sum   'Nb8 Fe3 Co4 Si14 Rh1'
_cell_volume   402.31247154
_cell_formula_units_Z   1
loop_
 _symmetry_equiv_pos_site_id
 _symmetry_equiv_pos_as_xyz
  1  'x, y, z'
loop_
 _atom_site_type_symbol
 _atom_site_label
 _atom_site_symmetry_multiplicity
 _atom_site_fract_x
 _atom_site_fract_y
 _atom_site_fract_z
 _atom_site_occupancy
  Nb  Nb0  1  0.309279  0.498894  0.808896  1
  Nb  Nb1  1  0.692010  0.501511  0.192407  1
  Nb  Nb2  1  0.500397  0.690896  0.192407  1
  Nb  Nb3  1  0.499617  0.310002  0.808896  1
  Nb  Nb4  1  0.134767  0.134767  0.269531  1
  Nb  Nb5  1  0.865325  0.865325  0.730651  1
  Nb  Nb6  1  0.134940  0.867630  0.001900  1
  Nb  Nb7  1  0.866959  0.134269  0.001900  1
  Fe  Fe8  1  0.104258  0.604258  0.208517  1
  Fe  Fe9  1  0.899093  0.095959  0.497251  1
  Fe  Fe10  1  0.598157  0.401291  0.497251  1
  Co  Co11  1  0.598343  0.098343  0.196687  1
  Co  Co12  1  0.900714  0.400714  0.801428  1
  Co  Co13  1  0.102967  0.899479  0.501225  1
  Co  Co14  1  0.398258  0.601746  0.501225  1
  Si  Si15  1  0.291428  0.291428  0.582857  1
  Si  Si16  1  0.708095  0.708095  0.416190  1
  Si  Si17  1  0.283330  0.697636  0.004647  1
  Si  Si18  1  0.721317  0.307011  0.004647  1
  Si  Si19  1  0.065274  0.467163  0.587953  1
  Si  Si20  1  0.898664  0.493937  0.406480  1
  Si  Si21  1  0.507817  0.912544  0.406480  1
  Si  Si22  1  0.522680  0.120789  0.587953  1
  Si  Si23  1  0.249515  0.249416  0.000378  1
  Si  Si24  1  0.750863  0.750961  0.000378  1
  Si  Si25  1  0.299903  0.003202  0.296849  1
  Si  Si26  1  0.718814  0.008877  0.702649  1
  Si  Si27  1  0.983835  0.693772  0.702649  1
  Si  Si28  1  0.996948  0.293648  0.296849  1
  Rh  Rh29  1  0.396434  0.896434  0.792868  1
