# generated using pymatgen
data_Tb3Yb(Ni5Sn)4
_symmetry_space_group_name_H-M   'P 1'
_cell_length_a   4.86370600
_cell_length_b   8.02666464
_cell_length_c   10.22705909
_cell_angle_alpha   89.92672428
_cell_angle_beta   90.00000000
_cell_angle_gamma   90.00000000
_symmetry_Int_Tables_number   1
_chemical_formula_structural   Tb3Yb(Ni5Sn)4
_chemical_formula_sum   'Tb3 Yb1 Ni20 Sn4'
_cell_volume   399.25727960
_cell_formula_units_Z   1
loop_
 _symmetry_equiv_pos_site_id
 _symmetry_equiv_pos_as_xyz
  1  'x, y, z'
loop_
 _atom_site_type_symbol
 _atom_site_label
 _atom_site_symmetry_multiplicity
 _atom_site_fract_x
 _atom_site_fract_y
 _atom_site_fract_z
 _atom_site_occupancy
  Tb  Tb0  1  0.750000  0.251866  0.941232  1
  Tb  Tb1  1  0.750000  0.751816  0.559290  1
  Tb  Tb2  1  0.250000  0.248539  0.440577  1
  Yb  Yb3  1  0.250000  0.746649  0.058404  1
  Ni  Ni4  1  0.250000  0.813012  0.745041  1
  Ni  Ni5  1  0.750000  0.187235  0.254519  1
  Ni  Ni6  1  0.750000  0.687000  0.244515  1
  Ni  Ni7  1  0.250000  0.313291  0.755553  1
  Ni  Ni8  1  0.501141  0.566633  0.810051  1
  Ni  Ni9  1  0.498665  0.433915  0.189825  1
  Ni  Ni10  1  0.498893  0.933343  0.309610  1
  Ni  Ni11  1  0.001335  0.433915  0.189825  1
  Ni  Ni12  1  0.501494  0.066227  0.690573  1
  Ni  Ni13  1  0.998859  0.566633  0.810051  1
  Ni  Ni14  1  0.998506  0.066227  0.690573  1
  Ni  Ni15  1  0.001107  0.933343  0.309610  1
  Ni  Ni16  1  0.250000  0.912766  0.518094  1
  Ni  Ni17  1  0.750000  0.086829  0.481883  1
  Ni  Ni18  1  0.750000  0.589302  0.018509  1
  Ni  Ni19  1  0.250000  0.415438  0.983250  1
  Ni  Ni20  1  0.250000  0.551840  0.599940  1
  Ni  Ni21  1  0.750000  0.448395  0.399774  1
  Ni  Ni22  1  0.750000  0.947868  0.100842  1
  Ni  Ni23  1  0.250000  0.050747  0.899325  1
  Sn  Sn24  1  0.250000  0.640895  0.357872  1
  Sn  Sn25  1  0.750000  0.359989  0.640032  1
  Sn  Sn26  1  0.750000  0.859023  0.861943  1
  Sn  Sn27  1  0.250000  0.137268  0.139286  1
