# generated using pymatgen
data_YbEu15(CdPt)4
_symmetry_space_group_name_H-M   'P 1'
_cell_length_a   10.21541146
_cell_length_b   10.21541088
_cell_length_c   10.21541052
_cell_angle_alpha   60.25011095
_cell_angle_beta   60.25011445
_cell_angle_gamma   60.25010984
_symmetry_Int_Tables_number   1
_chemical_formula_structural   YbEu15(CdPt)4
_chemical_formula_sum   'Yb1 Eu15 Cd4 Pt4'
_cell_volume   758.06146148
_cell_formula_units_Z   1
loop_
 _symmetry_equiv_pos_site_id
 _symmetry_equiv_pos_as_xyz
  1  'x, y, z'
loop_
 _atom_site_type_symbol
 _atom_site_label
 _atom_site_symmetry_multiplicity
 _atom_site_fract_x
 _atom_site_fract_y
 _atom_site_fract_z
 _atom_site_occupancy
  Yb  Yb0  1  0.345092  0.345092  0.345092  1
  Eu  Eu1  1  0.346895  0.346895  0.958948  1
  Eu  Eu2  1  0.346895  0.958948  0.346895  1
  Eu  Eu3  1  0.958948  0.346895  0.346895  1
  Eu  Eu4  1  0.806058  0.194019  0.194019  1
  Eu  Eu5  1  0.192878  0.807140  0.807140  1
  Eu  Eu6  1  0.194019  0.806058  0.194019  1
  Eu  Eu7  1  0.807140  0.192878  0.807140  1
  Eu  Eu8  1  0.194019  0.194019  0.806058  1
  Eu  Eu9  1  0.807140  0.807140  0.192878  1
  Eu  Eu10  1  0.943376  0.557401  0.557401  1
  Eu  Eu11  1  0.559540  0.940727  0.940727  1
  Eu  Eu12  1  0.557401  0.943376  0.557401  1
  Eu  Eu13  1  0.940727  0.559540  0.940727  1
  Eu  Eu14  1  0.557401  0.557401  0.943376  1
  Eu  Eu15  1  0.940727  0.940727  0.559540  1
  Cd  Cd16  1  0.578959  0.578959  0.578959  1
  Cd  Cd17  1  0.578151  0.578151  0.263220  1
  Cd  Cd18  1  0.578151  0.263220  0.578151  1
  Cd  Cd19  1  0.263220  0.578151  0.578151  1
  Pt  Pt20  1  0.140689  0.140689  0.140689  1
  Pt  Pt21  1  0.143530  0.143530  0.575515  1
  Pt  Pt22  1  0.143530  0.575515  0.143530  1
  Pt  Pt23  1  0.575515  0.143530  0.143530  1
