# generated using pymatgen
data_Sr2Ca(AgPb)3
_symmetry_space_group_name_H-M   'P 1'
_cell_length_a   5.00418100
_cell_length_b   5.00418173
_cell_length_c   12.02955800
_cell_angle_alpha   90.00000000
_cell_angle_beta   90.00000000
_cell_angle_gamma   119.99998858
_symmetry_Int_Tables_number   1
_chemical_formula_structural   Sr2Ca(AgPb)3
_chemical_formula_sum   'Sr2 Ca1 Ag3 Pb3'
_cell_volume   260.88339319
_cell_formula_units_Z   1
loop_
 _symmetry_equiv_pos_site_id
 _symmetry_equiv_pos_as_xyz
  1  'x, y, z'
loop_
 _atom_site_type_symbol
 _atom_site_label
 _atom_site_symmetry_multiplicity
 _atom_site_fract_x
 _atom_site_fract_y
 _atom_site_fract_z
 _atom_site_occupancy
  Sr  Sr0  1  0.666667  0.333333  0.824101  1
  Sr  Sr1  1  0.666667  0.333333  0.171280  1
  Ca  Ca2  1  0.666667  0.333333  0.497618  1
  Ag  Ag3  1  0.333333  0.666667  0.996927  1
  Ag  Ag4  1  0.000000  0.000000  0.662661  1
  Ag  Ag5  1  0.000000  0.000000  0.331305  1
  Pb  Pb6  1  0.333333  0.666667  0.634464  1
  Pb  Pb7  1  0.333333  0.666667  0.361311  1
  Pb  Pb8  1  0.000000  0.000000  0.998233  1
