# generated using pymatgen
data_HfZr2(AsPd)4
_symmetry_space_group_name_H-M   'P 1'
_cell_length_a   6.64965163
_cell_length_b   3.94182600
_cell_length_c   7.76839511
_cell_angle_alpha   90.00000000
_cell_angle_beta   90.39438454
_cell_angle_gamma   90.00000000
_symmetry_Int_Tables_number   1
_chemical_formula_structural   HfZr2(AsPd)4
_chemical_formula_sum   'Hf1 Zr2 As4 Pd4'
_cell_volume   203.61855975
_cell_formula_units_Z   1
loop_
 _symmetry_equiv_pos_site_id
 _symmetry_equiv_pos_as_xyz
  1  'x, y, z'
loop_
 _atom_site_type_symbol
 _atom_site_label
 _atom_site_symmetry_multiplicity
 _atom_site_fract_x
 _atom_site_fract_y
 _atom_site_fract_z
 _atom_site_occupancy
  Hf  Hf0  1  0.537796  0.250000  0.690788  1
  Zr  Zr1  1  0.965436  0.749998  0.183457  1
  Zr  Zr2  1  0.460775  0.749998  0.315104  1
  As  As3  1  0.239565  0.250000  0.119951  1
  As  As4  1  0.749937  0.250000  0.375363  1
  As  As5  1  0.254001  0.749998  0.627920  1
  As  As6  1  0.776893  0.749998  0.878819  1
  Pd  Pd7  1  0.639651  0.250000  0.058508  1
  Pd  Pd8  1  0.150612  0.250000  0.444453  1
  Pd  Pd9  1  0.852448  0.749998  0.566666  1
  Pd  Pd10  1  0.370855  0.749998  0.936227  1
