# generated using pymatgen
data_Ti12Cu(Sn2Sb)3
_symmetry_space_group_name_H-M   'P 1'
_cell_length_a   9.22369000
_cell_length_b   9.23329746
_cell_length_c   5.63531107
_cell_angle_alpha   90.01512173
_cell_angle_beta   90.00000000
_cell_angle_gamma   119.96559291
_symmetry_Int_Tables_number   1
_chemical_formula_structural   Ti12Cu(Sn2Sb)3
_chemical_formula_sum   'Ti12 Cu1 Sn6 Sb3'
_cell_volume   415.77703684
_cell_formula_units_Z   1
loop_
 _symmetry_equiv_pos_site_id
 _symmetry_equiv_pos_as_xyz
  1  'x, y, z'
loop_
 _atom_site_type_symbol
 _atom_site_label
 _atom_site_symmetry_multiplicity
 _atom_site_fract_x
 _atom_site_fract_y
 _atom_site_fract_z
 _atom_site_occupancy
  Ti  Ti0  1  0.844575  0.689151  0.746211  1
  Ti  Ti1  1  0.156360  0.849049  0.253631  1
  Ti  Ti2  1  0.692690  0.849049  0.253631  1
  Ti  Ti3  1  0.304390  0.154654  0.746933  1
  Ti  Ti4  1  0.850264  0.154654  0.746933  1
  Ti  Ti5  1  0.150663  0.301326  0.252552  1
  Ti  Ti6  1  0.501818  0.003637  0.498403  1
  Ti  Ti7  1  0.498477  0.498304  0.999665  1
  Ti  Ti8  1  0.999827  0.498304  0.999665  1
  Ti  Ti9  1  0.999950  0.499014  0.500452  1
  Ti  Ti10  1  0.502108  0.004218  0.001439  1
  Ti  Ti11  1  0.499064  0.499014  0.500452  1
  Cu  Cu12  1  0.995669  0.991337  0.501010  1
  Sn  Sn13  1  0.600036  0.801588  0.750247  1
  Sn  Sn14  1  0.201552  0.801588  0.750247  1
  Sn  Sn15  1  0.802021  0.604042  0.249770  1
  Sn  Sn16  1  0.667559  0.335117  0.751280  1
  Sn  Sn17  1  0.334406  0.668814  0.248993  1
  Sn  Sn18  1  0.996872  0.993743  0.997587  1
  Sb  Sb19  1  0.200770  0.401540  0.748910  1
  Sb  Sb20  1  0.802696  0.200928  0.250995  1
  Sb  Sb21  1  0.398233  0.200928  0.250995  1
