# generated using pymatgen
data_Nd8Mg2NiOs
_symmetry_space_group_name_H-M   'P 1'
_cell_length_a   9.95734151
_cell_length_b   9.95734017
_cell_length_c   10.07001600
_cell_angle_alpha   59.62496316
_cell_angle_beta   59.62496768
_cell_angle_gamma   59.57055775
_symmetry_Int_Tables_number   1
_chemical_formula_structural   Nd8Mg2NiOs
_chemical_formula_sum   'Nd16 Mg4 Ni2 Os2'
_cell_volume   699.68630714
_cell_formula_units_Z   2
loop_
 _symmetry_equiv_pos_site_id
 _symmetry_equiv_pos_as_xyz
  1  'x, y, z'
loop_
 _atom_site_type_symbol
 _atom_site_label
 _atom_site_symmetry_multiplicity
 _atom_site_fract_x
 _atom_site_fract_y
 _atom_site_fract_z
 _atom_site_occupancy
  Nd  Nd0  1  0.598208  0.598208  0.592591  1
  Nd  Nd1  1  0.598208  0.598208  0.210993  1
  Nd  Nd2  1  0.597452  0.214120  0.594214  1
  Nd  Nd3  1  0.214120  0.597452  0.594214  1
  Nd  Nd4  1  0.061790  0.435611  0.440413  1
  Nd  Nd5  1  0.435611  0.061790  0.062186  1
  Nd  Nd6  1  0.435611  0.061790  0.440413  1
  Nd  Nd7  1  0.061790  0.435611  0.062186  1
  Nd  Nd8  1  0.437656  0.437656  0.062344  1
  Nd  Nd9  1  0.057547  0.057547  0.442453  1
  Nd  Nd10  1  0.189472  0.804657  0.816431  1
  Nd  Nd11  1  0.804657  0.189472  0.189442  1
  Nd  Nd12  1  0.804657  0.189472  0.816431  1
  Nd  Nd13  1  0.189472  0.804657  0.189442  1
  Nd  Nd14  1  0.814813  0.814813  0.185187  1
  Nd  Nd15  1  0.191324  0.191324  0.808676  1
  Mg  Mg16  1  0.827950  0.827950  0.830423  1
  Mg  Mg17  1  0.827950  0.827950  0.513678  1
  Mg  Mg18  1  0.828795  0.512419  0.829394  1
  Mg  Mg19  1  0.512419  0.828795  0.829394  1
  Ni  Ni20  1  0.395243  0.827813  0.388473  1
  Ni  Ni21  1  0.827813  0.395243  0.388473  1
  Os  Os22  1  0.393723  0.393723  0.386238  1
  Os  Os23  1  0.393723  0.393723  0.826316  1
