# generated using pymatgen
data_Zr4AlVCo6
_symmetry_space_group_name_H-M   'P 1'
_cell_length_a   5.09182600
_cell_length_b   5.09182456
_cell_length_c   7.69224400
_cell_angle_alpha   90.00000000
_cell_angle_beta   90.00000000
_cell_angle_gamma   120.00000938
_symmetry_Int_Tables_number   1
_chemical_formula_structural   Zr4AlVCo6
_chemical_formula_sum   'Zr4 Al1 V1 Co6'
_cell_volume   172.71522705
_cell_formula_units_Z   1
loop_
 _symmetry_equiv_pos_site_id
 _symmetry_equiv_pos_as_xyz
  1  'x, y, z'
loop_
 _atom_site_type_symbol
 _atom_site_label
 _atom_site_symmetry_multiplicity
 _atom_site_fract_x
 _atom_site_fract_y
 _atom_site_fract_z
 _atom_site_occupancy
  Zr  Zr0  1  0.333333  0.666667  0.439894  1
  Zr  Zr1  1  0.666667  0.333333  0.560106  1
  Zr  Zr2  1  0.666667  0.333333  0.938444  1
  Zr  Zr3  1  0.333333  0.666667  0.061556  1
  Al  Al4  1  0.000000  0.000000  0.500000  1
  V  V5  1  0.000000  0.000000  0.000000  1
  Co  Co6  1  0.830019  0.169981  0.245730  1
  Co  Co7  1  0.830019  0.660039  0.245730  1
  Co  Co8  1  0.339961  0.169981  0.245730  1
  Co  Co9  1  0.169981  0.830019  0.754270  1
  Co  Co10  1  0.169981  0.339961  0.754270  1
  Co  Co11  1  0.660039  0.830019  0.754270  1
