# generated using pymatgen
data_Lu3Sc(Os3W)2
_symmetry_space_group_name_H-M   'P 1'
_cell_length_a   5.42626600
_cell_length_b   5.42626459
_cell_length_c   8.42719200
_cell_angle_alpha   90.00000000
_cell_angle_beta   90.00000000
_cell_angle_gamma   120.00002078
_symmetry_Int_Tables_number   1
_chemical_formula_structural   Lu3Sc(Os3W)2
_chemical_formula_sum   'Lu3 Sc1 Os6 W2'
_cell_volume   214.88963866
_cell_formula_units_Z   1
loop_
 _symmetry_equiv_pos_site_id
 _symmetry_equiv_pos_as_xyz
  1  'x, y, z'
loop_
 _atom_site_type_symbol
 _atom_site_label
 _atom_site_symmetry_multiplicity
 _atom_site_fract_x
 _atom_site_fract_y
 _atom_site_fract_z
 _atom_site_occupancy
  Lu  Lu0  1  0.333333  0.666667  0.432886  1
  Lu  Lu1  1  0.666667  0.333333  0.564423  1
  Lu  Lu2  1  0.666667  0.333333  0.937676  1
  Sc  Sc3  1  0.333333  0.666667  0.063861  1
  Os  Os4  1  0.174016  0.348030  0.751549  1
  Os  Os5  1  0.174016  0.825984  0.751549  1
  Os  Os6  1  0.346830  0.173415  0.248684  1
  Os  Os7  1  0.826585  0.653170  0.248684  1
  Os  Os8  1  0.651970  0.825984  0.751549  1
  Os  Os9  1  0.826585  0.173415  0.248684  1
  W  W10  1  0.000000  0.000000  0.000305  1
  W  W11  1  0.000000  0.000000  0.500152  1
