# generated using pymatgen
data_Er2Cr2Co9As7Rh
_symmetry_space_group_name_H-M   'P 1'
_cell_length_a   9.44511663
_cell_length_b   9.40239831
_cell_length_c   3.75255700
_cell_angle_alpha   89.99955058
_cell_angle_beta   90.00309020
_cell_angle_gamma   119.92827262
_symmetry_Int_Tables_number   1
_chemical_formula_structural   Er2Cr2Co9As7Rh
_chemical_formula_sum   'Er2 Cr2 Co9 As7 Rh1'
_cell_volume   288.81340158
_cell_formula_units_Z   1
loop_
 _symmetry_equiv_pos_site_id
 _symmetry_equiv_pos_as_xyz
  1  'x, y, z'
loop_
 _atom_site_type_symbol
 _atom_site_label
 _atom_site_symmetry_multiplicity
 _atom_site_fract_x
 _atom_site_fract_y
 _atom_site_fract_z
 _atom_site_occupancy
  Er  Er0  1  0.665935  0.334696  0.743210  1
  Er  Er1  1  0.333865  0.665479  0.243049  1
  Cr  Cr2  1  0.773968  0.894762  0.242896  1
  Cr  Cr3  1  0.107907  0.882038  0.242928  1
  Co  Co4  1  0.059722  0.630369  0.743145  1
  Co  Co5  1  0.370581  0.430435  0.743172  1
  Co  Co6  1  0.568592  0.938665  0.743188  1
  Co  Co7  1  0.946314  0.385206  0.243059  1
  Co  Co8  1  0.616920  0.564760  0.243075  1
  Co  Co9  1  0.436002  0.052813  0.243109  1
  Co  Co10  1  0.279762  0.120225  0.743112  1
  Co  Co11  1  0.876629  0.158839  0.743086  1
  Co  Co12  1  0.840385  0.719957  0.743159  1
  As  As13  1  0.998647  0.998782  0.742343  1
  As  As14  1  0.300067  0.884669  0.743006  1
  As  As15  1  0.112782  0.413893  0.742951  1
  As  As16  1  0.584897  0.699785  0.742867  1
  As  As17  1  0.708559  0.120156  0.243080  1
  As  As18  1  0.881691  0.591769  0.243082  1
  As  As19  1  0.412487  0.291850  0.243165  1
  Rh  Rh20  1  0.124288  0.220855  0.242939  1
