# generated using pymatgen
data_NaErTc2Ni10P7
_symmetry_space_group_name_H-M   'P 1'
_cell_length_a   9.03915019
_cell_length_b   9.13339641
_cell_length_c   3.65693000
_cell_angle_alpha   90.00000000
_cell_angle_beta   90.00000000
_cell_angle_gamma   119.67641882
_symmetry_Int_Tables_number   1
_chemical_formula_structural   NaErTc2Ni10P7
_chemical_formula_sum   'Na1 Er1 Tc2 Ni10 P7'
_cell_volume   262.30951402
_cell_formula_units_Z   1
loop_
 _symmetry_equiv_pos_site_id
 _symmetry_equiv_pos_as_xyz
  1  'x, y, z'
loop_
 _atom_site_type_symbol
 _atom_site_label
 _atom_site_symmetry_multiplicity
 _atom_site_fract_x
 _atom_site_fract_y
 _atom_site_fract_z
 _atom_site_occupancy
  Na  Na0  1  0.000081  0.001721  0.000000  1
  Er  Er1  1  0.331445  0.664663  0.500000  1
  Tc  Tc2  1  0.879203  0.454873  0.500000  1
  Tc  Tc3  1  0.546725  0.431137  0.500000  1
  Ni  Ni4  1  0.294182  0.395188  0.000000  1
  Ni  Ni5  1  0.100950  0.705372  0.000000  1
  Ni  Ni6  1  0.389113  0.173544  0.000000  1
  Ni  Ni7  1  0.792996  0.622022  0.000000  1
  Ni  Ni8  1  0.817449  0.206691  0.000000  1
  Ni  Ni9  1  0.235769  0.951894  0.500000  1
  Ni  Ni10  1  0.053155  0.279683  0.500000  1
  Ni  Ni11  1  0.720044  0.774014  0.500000  1
  Ni  Ni12  1  0.566347  0.103812  0.500000  1
  Ni  Ni13  1  0.604586  0.896844  0.000000  1
  P  P14  1  0.668086  0.336195  0.000000  1
  P  P15  1  0.072942  0.444957  0.000000  1
  P  P16  1  0.258428  0.215247  0.500000  1
  P  P17  1  0.782215  0.043529  0.500000  1
  P  P18  1  0.962470  0.745478  0.500000  1
  P  P19  1  0.552209  0.630485  0.000000  1
  P  P20  1  0.371606  0.922653  0.000000  1
