# generated using pymatgen
data_NaV3(NiO5)2
_symmetry_space_group_name_H-M   'P 1'
_cell_length_a   6.77821505
_cell_length_b   6.83654404
_cell_length_c   9.71547640
_cell_angle_alpha   105.06582636
_cell_angle_beta   100.25224370
_cell_angle_gamma   101.99789781
_symmetry_Int_Tables_number   1
_chemical_formula_structural   NaV3(NiO5)2
_chemical_formula_sum   'Na2 V6 Ni4 O20'
_cell_volume   412.21069879
_cell_formula_units_Z   2
loop_
 _symmetry_equiv_pos_site_id
 _symmetry_equiv_pos_as_xyz
  1  'x, y, z'
loop_
 _atom_site_type_symbol
 _atom_site_label
 _atom_site_symmetry_multiplicity
 _atom_site_fract_x
 _atom_site_fract_y
 _atom_site_fract_z
 _atom_site_occupancy
  Na  Na0  1  0.641347  0.020399  0.365351  1
  Na  Na1  1  0.358653  0.979601  0.634649  1
  V  V2  1  0.112892  0.045389  0.304493  1
  V  V3  1  0.887108  0.954611  0.695507  1
  V  V4  1  0.227730  0.427470  0.612119  1
  V  V5  1  0.772270  0.572530  0.387881  1
  V  V6  1  0.765837  0.336589  0.045402  1
  V  V7  1  0.234163  0.663411  0.954598  1
  Ni  Ni8  1  0.756459  0.432912  0.706313  1
  Ni  Ni9  1  0.243541  0.567088  0.293687  1
  Ni  Ni10  1  0.203370  0.184614  0.019779  1
  Ni  Ni11  1  0.796630  0.815386  0.980221  1
  O  O12  1  0.066076  0.190418  0.477390  1
  O  O13  1  0.726692  0.110663  0.657007  1
  O  O14  1  0.516767  0.237593  0.042456  1
  O  O15  1  0.230079  0.246932  0.242927  1
  O  O16  1  0.865740  0.907877  0.205092  1
  O  O17  1  0.869893  0.127372  0.984845  1
  O  O18  1  0.095769  0.519742  0.756802  1
  O  O19  1  0.904231  0.480258  0.243198  1
  O  O20  1  0.723241  0.395309  0.479612  1
  O  O21  1  0.276759  0.604691  0.520388  1
  O  O22  1  0.134260  0.092123  0.794908  1
  O  O23  1  0.785088  0.496446  0.931948  1
  O  O24  1  0.483233  0.762407  0.957544  1
  O  O25  1  0.933924  0.809582  0.522610  1
  O  O26  1  0.769921  0.753068  0.757073  1
  O  O27  1  0.273308  0.889337  0.342993  1
  O  O28  1  0.554749  0.634785  0.323175  1
  O  O29  1  0.130107  0.872628  0.015155  1
  O  O30  1  0.445251  0.365215  0.676825  1
  O  O31  1  0.214912  0.503554  0.068052  1
