# generated using pymatgen
data_Np4Al18(PdRh)3
_symmetry_space_group_name_H-M   'P 1'
_cell_length_a   7.64018181
_cell_length_b   7.64018188
_cell_length_c   9.50503207
_cell_angle_alpha   89.99735541
_cell_angle_beta   89.99734725
_cell_angle_gamma   119.48391893
_symmetry_Int_Tables_number   1
_chemical_formula_structural   Np4Al18(PdRh)3
_chemical_formula_sum   'Np4 Al18 Pd3 Rh3'
_cell_volume   482.97726993
_cell_formula_units_Z   1
loop_
 _symmetry_equiv_pos_site_id
 _symmetry_equiv_pos_as_xyz
  1  'x, y, z'
loop_
 _atom_site_type_symbol
 _atom_site_label
 _atom_site_symmetry_multiplicity
 _atom_site_fract_x
 _atom_site_fract_y
 _atom_site_fract_z
 _atom_site_occupancy
  Np  Np0  1  0.995989  0.668861  0.252087  1
  Np  Np1  1  0.007636  0.332354  0.748875  1
  Np  Np2  1  0.667646  0.992364  0.251125  1
  Np  Np3  1  0.331139  0.004011  0.747913  1
  Al  Al4  1  0.126026  0.126949  0.250033  1
  Al  Al5  1  0.873051  0.873974  0.749967  1
  Al  Al6  1  0.999767  0.332322  0.075325  1
  Al  Al7  1  0.000167  0.668671  0.924103  1
  Al  Al8  1  0.996181  0.664173  0.576242  1
  Al  Al9  1  0.335827  0.003819  0.423758  1
  Al  Al10  1  0.996949  0.331220  0.424613  1
  Al  Al11  1  0.668780  0.003051  0.575387  1
  Al  Al12  1  0.667678  0.000233  0.924675  1
  Al  Al13  1  0.331329  0.999833  0.075897  1
  Al  Al14  1  0.333142  0.330228  0.552328  1
  Al  Al15  1  0.669772  0.666858  0.447672  1
  Al  Al16  1  0.670612  0.670227  0.055631  1
  Al  Al17  1  0.329773  0.329388  0.944369  1
  Al  Al18  1  0.341193  0.547240  0.249911  1
  Al  Al19  1  0.658298  0.451349  0.747641  1
  Al  Al20  1  0.548651  0.341702  0.252359  1
  Al  Al21  1  0.452760  0.658807  0.750089  1
  Pd  Pd22  1  0.670647  0.329353  0.000000  1
  Pd  Pd23  1  0.328898  0.671102  0.000000  1
  Pd  Pd24  1  0.328228  0.671772  0.500000  1
  Rh  Rh25  1  0.671003  0.328997  0.500000  1
  Rh  Rh26  1  0.999007  0.000993  0.000000  1
  Rh  Rh27  1  0.999851  0.000149  0.500000  1
