# generated using pymatgen
data_Cs4Ti3O8
_symmetry_space_group_name_H-M   'P 1'
_cell_length_a   10.25238317
_cell_length_b   12.18621556
_cell_length_c   14.70674500
_cell_angle_alpha   101.53540854
_cell_angle_beta   100.69981639
_cell_angle_gamma   114.10554513
_symmetry_Int_Tables_number   1
_chemical_formula_structural   Cs4Ti3O8
_chemical_formula_sum   'Cs16 Ti12 O32'
_cell_volume   1568.18438567
_cell_formula_units_Z   4
loop_
 _symmetry_equiv_pos_site_id
 _symmetry_equiv_pos_as_xyz
  1  'x, y, z'
loop_
 _atom_site_type_symbol
 _atom_site_label
 _atom_site_symmetry_multiplicity
 _atom_site_fract_x
 _atom_site_fract_y
 _atom_site_fract_z
 _atom_site_occupancy
  Cs  Cs0  1  0.612130  0.259588  0.762468  1
  Cs  Cs1  1  0.387870  0.740412  0.237532  1
  Cs  Cs2  1  0.971410  0.731069  0.248353  1
  Cs  Cs3  1  0.028590  0.268931  0.751647  1
  Cs  Cs4  1  0.384354  0.900227  0.829128  1
  Cs  Cs5  1  0.615646  0.099773  0.170872  1
  Cs  Cs6  1  0.939611  0.905147  0.838332  1
  Cs  Cs7  1  0.060389  0.094853  0.161668  1
  Cs  Cs8  1  0.622736  0.931461  0.584944  1
  Cs  Cs9  1  0.377264  0.068539  0.415056  1
  Cs  Cs10  1  0.373992  0.257916  0.994066  1
  Cs  Cs11  1  0.626008  0.742084  0.005934  1
  Cs  Cs12  1  0.918279  0.542229  0.634033  1
  Cs  Cs13  1  0.081721  0.457771  0.365967  1
  Cs  Cs14  1  0.428028  0.559089  0.654918  1
  Cs  Cs15  1  0.571972  0.440911  0.345082  1
  Ti  Ti16  1  0.810680  0.949871  0.351653  1
  Ti  Ti17  1  0.189320  0.050129  0.648347  1
  Ti  Ti18  1  0.201085  0.786825  0.522180  1
  Ti  Ti19  1  0.798915  0.213175  0.477820  1
  Ti  Ti20  1  0.866220  0.787316  0.517162  1
  Ti  Ti21  1  0.133780  0.212684  0.482838  1
  Ti  Ti22  1  0.205366  0.605180  0.933839  1
  Ti  Ti23  1  0.794634  0.394820  0.066161  1
  Ti  Ti24  1  0.801582  0.129681  0.939457  1
  Ti  Ti25  1  0.198418  0.870319  0.060543  1
  Ti  Ti26  1  0.872917  0.604260  0.924241  1
  Ti  Ti27  1  0.127083  0.395740  0.075759  1
  O  O28  1  0.982956  0.941477  0.619235  1
  O  O29  1  0.017044  0.058523  0.380765  1
  O  O30  1  0.782576  0.816514  0.404420  1
  O  O31  1  0.217424  0.183486  0.595580  1
  O  O32  1  0.731795  0.889042  0.225314  1
  O  O33  1  0.268205  0.110958  0.774686  1
  O  O34  1  0.284227  0.962372  0.595856  1
  O  O35  1  0.715773  0.037628  0.404144  1
  O  O36  1  0.748471  0.223886  0.587806  1
  O  O37  1  0.251529  0.776114  0.412194  1
  O  O38  1  0.265372  0.707454  0.593618  1
  O  O39  1  0.734628  0.292546  0.406382  1
  O  O40  1  0.986226  0.712683  0.488927  1
  O  O41  1  0.013774  0.287317  0.511073  1
  O  O42  1  0.725117  0.686580  0.554877  1
  O  O43  1  0.274883  0.313420  0.445123  1
  O  O44  1  0.999709  0.548554  0.873783  1
  O  O45  1  0.000291  0.451446  0.126217  1
  O  O46  1  0.768874  0.495794  0.989752  1
  O  O47  1  0.231126  0.504206  0.010248  1
  O  O48  1  0.295383  0.601449  0.844627  1
  O  O49  1  0.704617  0.398551  0.155373  1
  O  O50  1  0.707479  0.229350  0.983247  1
  O  O51  1  0.292521  0.770650  0.016753  1
  O  O52  1  0.744376  0.076813  0.809769  1
  O  O53  1  0.255624  0.923187  0.190231  1
  O  O54  1  0.753936  0.000545  0.987366  1
  O  O55  1  0.246064  0.999455  0.012634  1
  O  O56  1  0.985232  0.766897  0.012416  1
  O  O57  1  0.014768  0.233103  0.987584  1
  O  O58  1  0.748450  0.608993  0.828567  1
  O  O59  1  0.251550  0.391007  0.171433  1
