# generated using pymatgen
data_Dy8Cu3Si12Ir
_symmetry_space_group_name_H-M   'P 1'
_cell_length_a   8.04615000
_cell_length_b   8.04615097
_cell_length_c   8.09664000
_cell_angle_alpha   90.00000000
_cell_angle_beta   90.00000000
_cell_angle_gamma   119.99998779
_symmetry_Int_Tables_number   1
_chemical_formula_structural   Dy8Cu3Si12Ir
_chemical_formula_sum   'Dy8 Cu3 Si12 Ir1'
_cell_volume   453.95396784
_cell_formula_units_Z   1
loop_
 _symmetry_equiv_pos_site_id
 _symmetry_equiv_pos_as_xyz
  1  'x, y, z'
loop_
 _atom_site_type_symbol
 _atom_site_label
 _atom_site_symmetry_multiplicity
 _atom_site_fract_x
 _atom_site_fract_y
 _atom_site_fract_z
 _atom_site_occupancy
  Dy  Dy0  1  0.000000  0.000000  0.248547  1
  Dy  Dy1  1  0.000000  0.000000  0.751265  1
  Dy  Dy2  1  0.998326  0.499163  0.251866  1
  Dy  Dy3  1  0.500837  0.499163  0.251866  1
  Dy  Dy4  1  0.502055  0.004110  0.748111  1
  Dy  Dy5  1  0.500837  0.001674  0.251866  1
  Dy  Dy6  1  0.502055  0.497945  0.748111  1
  Dy  Dy7  1  0.995890  0.497945  0.748111  1
  Cu  Cu8  1  0.333333  0.666667  0.997179  1
  Cu  Cu9  1  0.333333  0.666667  0.502117  1
  Cu  Cu10  1  0.666667  0.333333  0.002633  1
  Si  Si11  1  0.168686  0.337371  0.000012  1
  Si  Si12  1  0.662629  0.831314  0.000012  1
  Si  Si13  1  0.168413  0.336825  0.500533  1
  Si  Si14  1  0.337864  0.168933  0.999941  1
  Si  Si15  1  0.168686  0.831314  0.000012  1
  Si  Si16  1  0.663175  0.831587  0.500533  1
  Si  Si17  1  0.831067  0.662136  0.999941  1
  Si  Si18  1  0.333168  0.166584  0.499249  1
  Si  Si19  1  0.168413  0.831587  0.500533  1
  Si  Si20  1  0.833416  0.666832  0.499249  1
  Si  Si21  1  0.831067  0.168933  0.999941  1
  Si  Si22  1  0.833416  0.166584  0.499249  1
  Ir  Ir23  1  0.666667  0.333333  0.499118  1
