# generated using pymatgen
data_La2TcB4Ir3
_symmetry_space_group_name_H-M   'P 1'
_cell_length_a   7.00744154
_cell_length_b   6.14263168
_cell_length_c   5.61927590
_cell_angle_alpha   72.98240045
_cell_angle_beta   56.95111045
_cell_angle_gamma   50.51105955
_symmetry_Int_Tables_number   1
_chemical_formula_structural   La2TcB4Ir3
_chemical_formula_sum   'La2 Tc1 B4 Ir3'
_cell_volume   155.91701597
_cell_formula_units_Z   1
loop_
 _symmetry_equiv_pos_site_id
 _symmetry_equiv_pos_as_xyz
  1  'x, y, z'
loop_
 _atom_site_type_symbol
 _atom_site_label
 _atom_site_symmetry_multiplicity
 _atom_site_fract_x
 _atom_site_fract_y
 _atom_site_fract_z
 _atom_site_occupancy
  La  La0  1  0.502148  0.502148  0.497852  1
  La  La1  1  0.753559  0.753559  0.746441  1
  Tc  Tc2  1  0.863034  0.863034  0.136966  1
  B  B3  1  0.165945  0.825147  0.186306  1
  B  B4  1  0.078745  0.425938  0.059787  1
  B  B5  1  0.825147  0.165945  0.822602  1
  B  B6  1  0.425938  0.078745  0.435530  1
  Ir  Ir7  1  0.132131  0.132131  0.867869  1
  Ir  Ir8  1  0.385439  0.385439  0.114561  1
  Ir  Ir9  1  0.117914  0.117914  0.382086  1
