# generated using pymatgen
data_Dy4Y(SiB4)2
_symmetry_space_group_name_H-M   'P 1'
_cell_length_a   7.23127500
_cell_length_b   7.23127500
_cell_length_c   8.09590400
_cell_angle_alpha   90.00000000
_cell_angle_beta   90.00000000
_cell_angle_gamma   90.00000000
_symmetry_Int_Tables_number   1
_chemical_formula_structural   Dy4Y(SiB4)2
_chemical_formula_sum   'Dy8 Y2 Si4 B16'
_cell_volume   423.34565350
_cell_formula_units_Z   2
loop_
 _symmetry_equiv_pos_site_id
 _symmetry_equiv_pos_as_xyz
  1  'x, y, z'
loop_
 _atom_site_type_symbol
 _atom_site_label
 _atom_site_symmetry_multiplicity
 _atom_site_fract_x
 _atom_site_fract_y
 _atom_site_fract_z
 _atom_site_occupancy
  Dy  Dy0  1  0.680282  0.180282  0.224105  1
  Dy  Dy1  1  0.319718  0.819718  0.775895  1
  Dy  Dy2  1  0.319718  0.819718  0.224105  1
  Dy  Dy3  1  0.819718  0.680282  0.224105  1
  Dy  Dy4  1  0.819718  0.680282  0.775895  1
  Dy  Dy5  1  0.680282  0.180282  0.775895  1
  Dy  Dy6  1  0.180282  0.319718  0.775895  1
  Dy  Dy7  1  0.180282  0.319718  0.224105  1
  Y  Y8  1  0.000000  0.000000  0.500000  1
  Y  Y9  1  0.500000  0.500000  0.500000  1
  Si  Si10  1  0.114884  0.614884  0.500000  1
  Si  Si11  1  0.885116  0.385116  0.500000  1
  Si  Si12  1  0.385116  0.114884  0.500000  1
  Si  Si13  1  0.614884  0.885116  0.500000  1
  B  B14  1  0.172454  0.039100  0.000000  1
  B  B15  1  0.827546  0.960900  0.000000  1
  B  B16  1  0.960900  0.172454  0.000000  1
  B  B17  1  0.327546  0.539100  0.000000  1
  B  B18  1  0.039100  0.827546  0.000000  1
  B  B19  1  0.672454  0.460900  0.000000  1
  B  B20  1  0.539100  0.672454  0.000000  1
  B  B21  1  0.460900  0.327546  0.000000  1
  B  B22  1  0.089929  0.589929  0.000000  1
  B  B23  1  0.910071  0.410071  0.000000  1
  B  B24  1  0.410071  0.089929  0.000000  1
  B  B25  1  0.589929  0.910071  0.000000  1
  B  B26  1  0.000000  0.000000  0.162087  1
  B  B27  1  0.000000  0.000000  0.837913  1
  B  B28  1  0.500000  0.500000  0.837913  1
  B  B29  1  0.500000  0.500000  0.162087  1
