# generated using pymatgen
data_Ca2Ga5Pt3
_symmetry_space_group_name_H-M   'P 1'
_cell_length_a   8.71690346
_cell_length_b   8.71690259
_cell_length_c   8.71690273
_cell_angle_alpha   141.07496606
_cell_angle_beta   107.10981531
_cell_angle_gamma   85.86120793
_symmetry_Int_Tables_number   1
_chemical_formula_structural   Ca2Ga5Pt3
_chemical_formula_sum   'Ca4 Ga10 Pt6'
_cell_volume   383.95531684
_cell_formula_units_Z   2
loop_
 _symmetry_equiv_pos_site_id
 _symmetry_equiv_pos_as_xyz
  1  'x, y, z'
loop_
 _atom_site_type_symbol
 _atom_site_label
 _atom_site_symmetry_multiplicity
 _atom_site_fract_x
 _atom_site_fract_y
 _atom_site_fract_z
 _atom_site_occupancy
  Ca  Ca0  1  0.633849  0.361501  0.272348  1
  Ca  Ca1  1  0.366151  0.638499  0.727652  1
  Ca  Ca2  1  0.089153  0.861501  0.227652  1
  Ca  Ca3  1  0.910847  0.138499  0.772348  1
  Ga  Ga4  1  0.429388  0.096533  0.332856  1
  Ga  Ga5  1  0.570612  0.903467  0.667144  1
  Ga  Ga6  1  0.763676  0.596533  0.167144  1
  Ga  Ga7  1  0.236324  0.403467  0.832856  1
  Ga  Ga8  1  0.287216  0.537216  0.250000  1
  Ga  Ga9  1  0.712784  0.462784  0.750000  1
  Ga  Ga10  1  0.712784  0.962784  0.250000  1
  Ga  Ga11  1  0.287216  0.037216  0.750000  1
  Ga  Ga12  1  0.000000  0.250000  0.250000  1
  Ga  Ga13  1  0.000000  0.750000  0.750000  1
  Pt  Pt14  1  0.500000  0.250000  0.750000  1
  Pt  Pt15  1  0.500000  0.750000  0.250000  1
  Pt  Pt16  1  0.244188  0.143724  0.100464  1
  Pt  Pt17  1  0.755812  0.856276  0.899536  1
  Pt  Pt18  1  0.043260  0.643724  0.399536  1
  Pt  Pt19  1  0.956740  0.356276  0.600464  1
