# generated using pymatgen
data_Tm12InNi4Au
_symmetry_space_group_name_H-M   'P 1'
_cell_length_a   8.24986415
_cell_length_b   8.25193871
_cell_length_c   8.25190434
_cell_angle_alpha   106.58877953
_cell_angle_beta   109.35460060
_cell_angle_gamma   112.54239948
_symmetry_Int_Tables_number   1
_chemical_formula_structural   Tm12InNi4Au
_chemical_formula_sum   'Tm12 In1 Ni4 Au1'
_cell_volume   431.18632977
_cell_formula_units_Z   1
loop_
 _symmetry_equiv_pos_site_id
 _symmetry_equiv_pos_as_xyz
  1  'x, y, z'
loop_
 _atom_site_type_symbol
 _atom_site_label
 _atom_site_symmetry_multiplicity
 _atom_site_fract_x
 _atom_site_fract_y
 _atom_site_fract_z
 _atom_site_occupancy
  Tm  Tm0  1  0.698668  0.275627  0.974323  1
  Tm  Tm1  1  0.301321  0.724358  0.025667  1
  Tm  Tm2  1  0.698688  0.724264  0.422989  1
  Tm  Tm3  1  0.301293  0.275689  0.576953  1
  Tm  Tm4  1  0.806715  0.131643  0.324965  1
  Tm  Tm5  1  0.806714  0.481743  0.675131  1
  Tm  Tm6  1  0.193276  0.868361  0.675069  1
  Tm  Tm7  1  0.193318  0.518302  0.324901  1
  Tm  Tm8  1  0.609844  0.792382  0.817473  1
  Tm  Tm9  1  0.974916  0.792393  0.182506  1
  Tm  Tm10  1  0.025067  0.207594  0.817478  1
  Tm  Tm11  1  0.390133  0.207602  0.182514  1
  In  In12  1  0.500024  0.000022  0.499995  1
  Ni  Ni13  1  0.859111  0.500028  0.359046  1
  Ni  Ni14  1  0.140942  0.499953  0.640985  1
  Ni  Ni15  1  0.999998  0.124973  0.124965  1
  Ni  Ni16  1  0.999995  0.875076  0.875089  1
  Au  Au17  1  0.499976  0.499991  0.999950  1
