# generated using pymatgen
data_Er3NiRh2Pb3
_symmetry_space_group_name_H-M   'P 1'
_cell_length_a   7.67705600
_cell_length_b   7.67705555
_cell_length_c   3.78026900
_cell_angle_alpha   90.00000000
_cell_angle_beta   90.00000000
_cell_angle_gamma   120.00000195
_symmetry_Int_Tables_number   1
_chemical_formula_structural   Er3NiRh2Pb3
_chemical_formula_sum   'Er3 Ni1 Rh2 Pb3'
_cell_volume   192.94908330
_cell_formula_units_Z   1
loop_
 _symmetry_equiv_pos_site_id
 _symmetry_equiv_pos_as_xyz
  1  'x, y, z'
loop_
 _atom_site_type_symbol
 _atom_site_label
 _atom_site_symmetry_multiplicity
 _atom_site_fract_x
 _atom_site_fract_y
 _atom_site_fract_z
 _atom_site_occupancy
  Er  Er0  1  0.404094  0.404094  0.500000  1
  Er  Er1  1  0.595906  0.000000  0.500000  1
  Er  Er2  1  0.000000  0.595906  0.500000  1
  Ni  Ni3  1  0.000000  0.000000  0.500000  1
  Rh  Rh4  1  0.666667  0.333333  0.000000  1
  Rh  Rh5  1  0.333333  0.666667  0.000000  1
  Pb  Pb6  1  0.740428  0.740428  0.000000  1
  Pb  Pb7  1  0.259572  0.000000  0.000000  1
  Pb  Pb8  1  0.000000  0.259572  0.000000  1
