# generated using pymatgen
data_Y19InIr12
_symmetry_space_group_name_H-M   'P 1'
_cell_length_a   10.93151900
_cell_length_b   10.93151900
_cell_length_c   6.34807000
_cell_angle_alpha   90.00000000
_cell_angle_beta   90.00000000
_cell_angle_gamma   90.00000000
_symmetry_Int_Tables_number   1
_chemical_formula_structural   Y19InIr12
_chemical_formula_sum   'Y19 In1 Ir12'
_cell_volume   758.58235221
_cell_formula_units_Z   1
loop_
 _symmetry_equiv_pos_site_id
 _symmetry_equiv_pos_as_xyz
  1  'x, y, z'
loop_
 _atom_site_type_symbol
 _atom_site_label
 _atom_site_symmetry_multiplicity
 _atom_site_fract_x
 _atom_site_fract_y
 _atom_site_fract_z
 _atom_site_occupancy
  Y  Y0  1  0.283008  0.084371  0.380179  1
  Y  Y1  1  0.291179  0.911351  0.880976  1
  Y  Y2  1  0.708821  0.088649  0.880976  1
  Y  Y3  1  0.716992  0.915629  0.380179  1
  Y  Y4  1  0.588587  0.792048  0.881210  1
  Y  Y5  1  0.587707  0.207891  0.377830  1
  Y  Y6  1  0.412293  0.792109  0.377830  1
  Y  Y7  1  0.411413  0.207952  0.881210  1
  Y  Y8  1  0.207891  0.412293  0.622170  1
  Y  Y9  1  0.207952  0.588587  0.118790  1
  Y  Y10  1  0.792048  0.411413  0.118790  1
  Y  Y11  1  0.792109  0.587707  0.622170  1
  Y  Y12  1  0.911351  0.708821  0.119024  1
  Y  Y13  1  0.915629  0.283008  0.619821  1
  Y  Y14  1  0.084371  0.716992  0.619821  1
  Y  Y15  1  0.088649  0.291179  0.119024  1
  Y  Y16  1  0.000000  0.000000  0.000000  1
  Y  Y17  1  0.500000  0.500000  0.000000  1
  Y  Y18  1  0.500000  0.500000  0.500000  1
  In  In19  1  0.000000  0.000000  0.500000  1
  Ir  Ir20  1  0.846032  0.155619  0.245785  1
  Ir  Ir21  1  0.844381  0.846032  0.754215  1
  Ir  Ir22  1  0.155619  0.153968  0.754215  1
  Ir  Ir23  1  0.153968  0.844381  0.245785  1
  Ir  Ir24  1  0.654938  0.345900  0.746980  1
  Ir  Ir25  1  0.654100  0.654938  0.253020  1
  Ir  Ir26  1  0.345900  0.345062  0.253020  1
  Ir  Ir27  1  0.345062  0.654100  0.746980  1
  Ir  Ir28  1  0.500000  0.000000  0.127519  1
  Ir  Ir29  1  0.500000  0.000000  0.621783  1
  Ir  Ir30  1  0.000000  0.500000  0.872481  1
  Ir  Ir31  1  0.000000  0.500000  0.378217  1
