# generated using pymatgen
data_Zr6BiTe2
_symmetry_space_group_name_H-M   'P 1'
_cell_length_a   3.90183100
_cell_length_b   10.77678100
_cell_length_c   20.22158700
_cell_angle_alpha   90.00000000
_cell_angle_beta   90.00000000
_cell_angle_gamma   90.00000000
_symmetry_Int_Tables_number   1
_chemical_formula_structural   Zr6BiTe2
_chemical_formula_sum   'Zr24 Bi4 Te8'
_cell_volume   850.30111497
_cell_formula_units_Z   4
loop_
 _symmetry_equiv_pos_site_id
 _symmetry_equiv_pos_as_xyz
  1  'x, y, z'
loop_
 _atom_site_type_symbol
 _atom_site_label
 _atom_site_symmetry_multiplicity
 _atom_site_fract_x
 _atom_site_fract_y
 _atom_site_fract_z
 _atom_site_occupancy
  Zr  Zr0  1  0.250000  0.607330  0.983693  1
  Zr  Zr1  1  0.750000  0.392670  0.016307  1
  Zr  Zr2  1  0.750000  0.107330  0.516307  1
  Zr  Zr3  1  0.250000  0.892670  0.483693  1
  Zr  Zr4  1  0.250000  0.076872  0.642416  1
  Zr  Zr5  1  0.750000  0.923128  0.357584  1
  Zr  Zr6  1  0.750000  0.576872  0.857584  1
  Zr  Zr7  1  0.250000  0.423128  0.142416  1
  Zr  Zr8  1  0.250000  0.388794  0.532770  1
  Zr  Zr9  1  0.750000  0.611206  0.467230  1
  Zr  Zr10  1  0.750000  0.888794  0.967230  1
  Zr  Zr11  1  0.250000  0.111206  0.032770  1
  Zr  Zr12  1  0.250000  0.145096  0.398674  1
  Zr  Zr13  1  0.750000  0.854904  0.601326  1
  Zr  Zr14  1  0.750000  0.645096  0.101326  1
  Zr  Zr15  1  0.250000  0.354904  0.898674  1
  Zr  Zr16  1  0.250000  0.456661  0.344863  1
  Zr  Zr17  1  0.750000  0.543339  0.655137  1
  Zr  Zr18  1  0.750000  0.956661  0.155137  1
  Zr  Zr19  1  0.250000  0.043339  0.844863  1
  Zr  Zr20  1  0.250000  0.754957  0.223281  1
  Zr  Zr21  1  0.750000  0.245043  0.776719  1
  Zr  Zr22  1  0.750000  0.254957  0.276719  1
  Zr  Zr23  1  0.250000  0.745043  0.723281  1
  Bi  Bi24  1  0.250000  0.460938  0.760083  1
  Bi  Bi25  1  0.750000  0.539062  0.239917  1
  Bi  Bi26  1  0.750000  0.960938  0.739917  1
  Bi  Bi27  1  0.250000  0.039062  0.260083  1
  Te  Te28  1  0.250000  0.780748  0.869104  1
  Te  Te29  1  0.750000  0.219252  0.130896  1
  Te  Te30  1  0.750000  0.280748  0.630896  1
  Te  Te31  1  0.250000  0.719252  0.369104  1
  Te  Te32  1  0.250000  0.662115  0.571728  1
  Te  Te33  1  0.750000  0.337885  0.428272  1
  Te  Te34  1  0.750000  0.162115  0.928272  1
  Te  Te35  1  0.250000  0.837885  0.071728  1
