# generated using pymatgen
data_Tb16Cd2Hg2Ir3Pt
_symmetry_space_group_name_H-M   'P 1'
_cell_length_a   9.66297540
_cell_length_b   9.66297553
_cell_length_c   9.67442967
_cell_angle_alpha   60.03030540
_cell_angle_beta   60.03030429
_cell_angle_gamma   59.98919049
_symmetry_Int_Tables_number   1
_chemical_formula_structural   Tb16Cd2Hg2Ir3Pt
_chemical_formula_sum   'Tb16 Cd2 Hg2 Ir3 Pt1'
_cell_volume   638.99194550
_cell_formula_units_Z   1
loop_
 _symmetry_equiv_pos_site_id
 _symmetry_equiv_pos_as_xyz
  1  'x, y, z'
loop_
 _atom_site_type_symbol
 _atom_site_label
 _atom_site_symmetry_multiplicity
 _atom_site_fract_x
 _atom_site_fract_y
 _atom_site_fract_z
 _atom_site_occupancy
  Tb  Tb0  1  0.598295  0.598295  0.597793  1
  Tb  Tb1  1  0.603262  0.603262  0.197526  1
  Tb  Tb2  1  0.604069  0.195619  0.603380  1
  Tb  Tb3  1  0.195619  0.604069  0.603380  1
  Tb  Tb4  1  0.055566  0.440444  0.441566  1
  Tb  Tb5  1  0.437243  0.059844  0.059989  1
  Tb  Tb6  1  0.440444  0.055566  0.441566  1
  Tb  Tb7  1  0.059844  0.437243  0.059989  1
  Tb  Tb8  1  0.440243  0.440243  0.056307  1
  Tb  Tb9  1  0.058950  0.058950  0.438718  1
  Tb  Tb10  1  0.188429  0.811780  0.812918  1
  Tb  Tb11  1  0.812334  0.187113  0.188686  1
  Tb  Tb12  1  0.811780  0.188429  0.812918  1
  Tb  Tb13  1  0.187113  0.812334  0.188686  1
  Tb  Tb14  1  0.811896  0.811896  0.189698  1
  Tb  Tb15  1  0.187579  0.187579  0.813048  1
  Cd  Cd16  1  0.830227  0.507054  0.830967  1
  Cd  Cd17  1  0.507054  0.830227  0.830967  1
  Hg  Hg18  1  0.834132  0.834132  0.836264  1
  Hg  Hg19  1  0.834629  0.834629  0.493885  1
  Ir  Ir20  1  0.392194  0.392194  0.824020  1
  Ir  Ir21  1  0.392038  0.824197  0.392373  1
  Ir  Ir22  1  0.824197  0.392038  0.392373  1
  Pt  Pt23  1  0.392865  0.392865  0.392981  1
