# generated using pymatgen
data_Ba2AlBiS5
_symmetry_space_group_name_H-M   'P 1'
_cell_length_a   12.34027200
_cell_length_b   8.95749600
_cell_length_c   9.16609700
_cell_angle_alpha   90.00000000
_cell_angle_beta   90.00000000
_cell_angle_gamma   90.00000000
_symmetry_Int_Tables_number   1
_chemical_formula_structural   Ba2AlBiS5
_chemical_formula_sum   'Ba8 Al4 Bi4 S20'
_cell_volume   1013.20145345
_cell_formula_units_Z   4
loop_
 _symmetry_equiv_pos_site_id
 _symmetry_equiv_pos_as_xyz
  1  'x, y, z'
loop_
 _atom_site_type_symbol
 _atom_site_label
 _atom_site_symmetry_multiplicity
 _atom_site_fract_x
 _atom_site_fract_y
 _atom_site_fract_z
 _atom_site_occupancy
  Ba  Ba0  1  0.823385  0.008177  0.118127  1
  Ba  Ba1  1  0.823385  0.491822  0.118127  1
  Ba  Ba2  1  0.323385  0.008177  0.381873  1
  Ba  Ba3  1  0.323385  0.491822  0.381873  1
  Ba  Ba4  1  0.676616  0.508178  0.618127  1
  Ba  Ba5  1  0.676616  0.991823  0.618127  1
  Ba  Ba6  1  0.176616  0.508178  0.881873  1
  Ba  Ba7  1  0.176616  0.991823  0.881873  1
  Al  Al8  1  0.094538  0.250000  0.176706  1
  Al  Al9  1  0.594539  0.250000  0.323294  1
  Al  Al10  1  0.405461  0.750000  0.676706  1
  Al  Al11  1  0.905461  0.750000  0.823294  1
  Bi  Bi12  1  0.482288  0.750000  0.031544  1
  Bi  Bi13  1  0.982288  0.750000  0.468456  1
  Bi  Bi14  1  0.017712  0.250000  0.531544  1
  Bi  Bi15  1  0.517711  0.250000  0.968456  1
  S  S16  1  0.004528  0.750000  0.023260  1
  S  S17  1  0.271090  0.250000  0.122112  1
  S  S18  1  0.287488  0.750000  0.126369  1
  S  S19  1  0.556082  0.049694  0.177549  1
  S  S20  1  0.556082  0.450306  0.177549  1
  S  S21  1  0.056082  0.049694  0.322451  1
  S  S22  1  0.056082  0.450306  0.322451  1
  S  S23  1  0.787488  0.750000  0.373631  1
  S  S24  1  0.771089  0.250000  0.377888  1
  S  S25  1  0.504528  0.750000  0.476740  1
  S  S26  1  0.495472  0.250000  0.523260  1
  S  S27  1  0.228910  0.750000  0.622112  1
  S  S28  1  0.212512  0.250000  0.626369  1
  S  S29  1  0.943917  0.549694  0.677549  1
  S  S30  1  0.943917  0.950306  0.677549  1
  S  S31  1  0.443917  0.549694  0.822451  1
  S  S32  1  0.443917  0.950306  0.822451  1
  S  S33  1  0.712512  0.250000  0.873632  1
  S  S34  1  0.728910  0.750000  0.877888  1
  S  S35  1  0.995472  0.250000  0.976740  1
