# generated using pymatgen
data_Tm3HfGa2(B2Ir5)2
_symmetry_space_group_name_H-M   'P 1'
_cell_length_a   9.44733221
_cell_length_b   9.44741750
_cell_length_c   3.19347100
_cell_angle_alpha   90.00000000
_cell_angle_beta   90.00000000
_cell_angle_gamma   89.68218374
_symmetry_Int_Tables_number   1
_chemical_formula_structural   Tm3HfGa2(B2Ir5)2
_chemical_formula_sum   'Tm3 Hf1 Ga2 B4 Ir10'
_cell_volume   285.02213641
_cell_formula_units_Z   1
loop_
 _symmetry_equiv_pos_site_id
 _symmetry_equiv_pos_as_xyz
  1  'x, y, z'
loop_
 _atom_site_type_symbol
 _atom_site_label
 _atom_site_symmetry_multiplicity
 _atom_site_fract_x
 _atom_site_fract_y
 _atom_site_fract_z
 _atom_site_occupancy
  Tm  Tm0  1  0.676907  0.176788  0.000000  1
  Tm  Tm1  1  0.323209  0.823106  0.000000  1
  Tm  Tm2  1  0.176340  0.323651  0.000000  1
  Hf  Hf3  1  0.823409  0.676596  0.000000  1
  Ga  Ga4  1  0.000917  0.001791  0.000000  1
  Ga  Ga5  1  0.498215  0.499077  0.000000  1
  B  B6  1  0.120354  0.623408  0.000000  1
  B  B7  1  0.876591  0.379645  0.000000  1
  B  B8  1  0.623590  0.876412  0.000000  1
  B  B9  1  0.378687  0.121312  0.000000  1
  Ir  Ir10  1  0.219066  0.068821  0.500000  1
  Ir  Ir11  1  0.785119  0.923202  0.500000  1
  Ir  Ir12  1  0.063304  0.781374  0.500000  1
  Ir  Ir13  1  0.718625  0.436692  0.500000  1
  Ir  Ir14  1  0.929961  0.220078  0.500000  1
  Ir  Ir15  1  0.279921  0.570041  0.500000  1
  Ir  Ir16  1  0.576804  0.714880  0.500000  1
  Ir  Ir17  1  0.431179  0.280935  0.500000  1
  Ir  Ir18  1  0.502041  0.997958  0.500000  1
  Ir  Ir19  1  0.995761  0.504237  0.500000  1
