# generated using pymatgen
data_Tm6Ti4Al12Rh7
_symmetry_space_group_name_H-M   'P 1'
_cell_length_a   8.94429639
_cell_length_b   8.94429596
_cell_length_c   8.94429600
_cell_angle_alpha   59.99999985
_cell_angle_beta   60.00000143
_cell_angle_gamma   59.99999937
_symmetry_Int_Tables_number   1
_chemical_formula_structural   Tm6Ti4Al12Rh7
_chemical_formula_sum   'Tm6 Ti4 Al12 Rh7'
_cell_volume   505.96853579
_cell_formula_units_Z   1
loop_
 _symmetry_equiv_pos_site_id
 _symmetry_equiv_pos_as_xyz
  1  'x, y, z'
loop_
 _atom_site_type_symbol
 _atom_site_label
 _atom_site_symmetry_multiplicity
 _atom_site_fract_x
 _atom_site_fract_y
 _atom_site_fract_z
 _atom_site_occupancy
  Tm  Tm0  1  0.703451  0.296549  0.296549  1
  Tm  Tm1  1  0.703451  0.296549  0.703451  1
  Tm  Tm2  1  0.703451  0.703451  0.296549  1
  Tm  Tm3  1  0.296549  0.703451  0.703451  1
  Tm  Tm4  1  0.296549  0.703451  0.296549  1
  Tm  Tm5  1  0.296549  0.296549  0.703451  1
  Ti  Ti6  1  0.642301  0.119233  0.119233  1
  Ti  Ti7  1  0.119233  0.642301  0.119233  1
  Ti  Ti8  1  0.119233  0.119233  0.642301  1
  Ti  Ti9  1  0.119233  0.119233  0.119233  1
  Al  Al10  1  0.358152  0.880616  0.880616  1
  Al  Al11  1  0.880616  0.358152  0.880616  1
  Al  Al12  1  0.880616  0.880616  0.358152  1
  Al  Al13  1  0.880616  0.880616  0.880616  1
  Al  Al14  1  0.008702  0.330433  0.330433  1
  Al  Al15  1  0.330433  0.008702  0.330433  1
  Al  Al16  1  0.330433  0.330433  0.008702  1
  Al  Al17  1  0.330433  0.330433  0.330433  1
  Al  Al18  1  0.987021  0.670993  0.670993  1
  Al  Al19  1  0.670993  0.987021  0.670993  1
  Al  Al20  1  0.670993  0.670993  0.987021  1
  Al  Al21  1  0.670993  0.670993  0.670993  1
  Rh  Rh22  1  0.000000  0.000000  0.000000  1
  Rh  Rh23  1  0.498529  0.001471  0.001471  1
  Rh  Rh24  1  0.498529  0.001471  0.498529  1
  Rh  Rh25  1  0.498529  0.498529  0.001471  1
  Rh  Rh26  1  0.001471  0.498529  0.498529  1
  Rh  Rh27  1  0.001471  0.498529  0.001471  1
  Rh  Rh28  1  0.001471  0.001471  0.498529  1
