# generated using pymatgen
data_ErGeF7
_symmetry_space_group_name_H-M   'P 1'
_cell_length_a   5.38616600
_cell_length_b   8.65323055
_cell_length_c   11.60881683
_cell_angle_alpha   62.27818132
_cell_angle_beta   90.00000000
_cell_angle_gamma   90.00000000
_symmetry_Int_Tables_number   1
_chemical_formula_structural   ErGeF7
_chemical_formula_sum   'Er4 Ge4 F28'
_cell_volume   478.95585922
_cell_formula_units_Z   4
loop_
 _symmetry_equiv_pos_site_id
 _symmetry_equiv_pos_as_xyz
  1  'x, y, z'
loop_
 _atom_site_type_symbol
 _atom_site_label
 _atom_site_symmetry_multiplicity
 _atom_site_fract_x
 _atom_site_fract_y
 _atom_site_fract_z
 _atom_site_occupancy
  Er  Er0  1  0.760770  0.811294  0.764062  1
  Er  Er1  1  0.260770  0.188706  0.735938  1
  Er  Er2  1  0.239230  0.188706  0.235938  1
  Er  Er3  1  0.739230  0.811294  0.264062  1
  Ge  Ge4  1  0.757935  0.273889  0.957316  1
  Ge  Ge5  1  0.257935  0.726111  0.542684  1
  Ge  Ge6  1  0.242065  0.726111  0.042684  1
  Ge  Ge7  1  0.742065  0.273889  0.457316  1
  F  F8  1  0.433969  0.705668  0.921285  1
  F  F9  1  0.933969  0.294332  0.578715  1
  F  F10  1  0.566031  0.294332  0.078715  1
  F  F11  1  0.066031  0.705668  0.421285  1
  F  F12  1  0.454583  0.280641  0.540852  1
  F  F13  1  0.954583  0.719359  0.959148  1
  F  F14  1  0.545417  0.719359  0.459148  1
  F  F15  1  0.045417  0.280641  0.040852  1
  F  F16  1  0.773216  0.510883  0.862886  1
  F  F17  1  0.273216  0.489117  0.637114  1
  F  F18  1  0.226784  0.489117  0.137114  1
  F  F19  1  0.726784  0.510883  0.362886  1
  F  F20  1  0.759638  0.036701  0.047982  1
  F  F21  1  0.259638  0.963299  0.452018  1
  F  F22  1  0.240362  0.963299  0.952018  1
  F  F23  1  0.740362  0.036701  0.547982  1
  F  F24  1  0.981113  0.727551  0.633422  1
  F  F25  1  0.481113  0.272449  0.866578  1
  F  F26  1  0.018887  0.272449  0.366578  1
  F  F27  1  0.518887  0.727551  0.133422  1
  F  F28  1  0.052512  0.741597  0.169103  1
  F  F29  1  0.552512  0.258403  0.330897  1
  F  F30  1  0.947488  0.258403  0.830897  1
  F  F31  1  0.447488  0.741597  0.669103  1
  F  F32  1  0.405133  0.968676  0.227704  1
  F  F33  1  0.905133  0.031324  0.272296  1
  F  F34  1  0.594867  0.031324  0.772296  1
  F  F35  1  0.094867  0.968676  0.727704  1
