# generated using pymatgen
data_Ca2PrNd5(ReC2)4
_symmetry_space_group_name_H-M   'P 1'
_cell_length_a   5.32754200
_cell_length_b   6.66035537
_cell_length_c   10.40296615
_cell_angle_alpha   89.92640019
_cell_angle_beta   90.00000000
_cell_angle_gamma   90.00000000
_symmetry_Int_Tables_number   1
_chemical_formula_structural   Ca2PrNd5(ReC2)4
_chemical_formula_sum   'Ca2 Pr1 Nd5 Re4 C8'
_cell_volume   369.13150324
_cell_formula_units_Z   1
loop_
 _symmetry_equiv_pos_site_id
 _symmetry_equiv_pos_as_xyz
  1  'x, y, z'
loop_
 _atom_site_type_symbol
 _atom_site_label
 _atom_site_symmetry_multiplicity
 _atom_site_fract_x
 _atom_site_fract_y
 _atom_site_fract_z
 _atom_site_occupancy
  Ca  Ca0  1  0.250000  0.468842  0.777541  1
  Ca  Ca1  1  0.750000  0.031507  0.277738  1
  Pr  Pr2  1  0.250000  0.970737  0.720676  1
  Nd  Nd3  1  0.750000  0.529802  0.221599  1
  Nd  Nd4  1  0.250000  0.807739  0.050428  1
  Nd  Nd5  1  0.750000  0.692072  0.550195  1
  Nd  Nd6  1  0.250000  0.305435  0.449203  1
  Nd  Nd7  1  0.750000  0.195110  0.949515  1
  Re  Re8  1  0.250000  0.270143  0.144980  1
  Re  Re9  1  0.750000  0.230242  0.644904  1
  Re  Re10  1  0.250000  0.771115  0.354701  1
  Re  Re11  1  0.750000  0.728547  0.855145  1
  C  C12  1  0.250000  0.699301  0.531946  1
  C  C13  1  0.750000  0.797856  0.032666  1
  C  C14  1  0.250000  0.187123  0.968880  1
  C  C15  1  0.750000  0.313897  0.468530  1
  C  C16  1  0.250000  0.034483  0.258423  1
  C  C17  1  0.750000  0.465768  0.758438  1
  C  C18  1  0.250000  0.533971  0.242016  1
  C  C19  1  0.750000  0.966309  0.742476  1
