# generated using pymatgen
data_Tb4Dy16Cd6OsRu
_symmetry_space_group_name_H-M   'P 1'
_cell_length_a   9.59554401
_cell_length_b   9.59488982
_cell_length_c   9.86692600
_cell_angle_alpha   90.00000000
_cell_angle_beta   90.00000000
_cell_angle_gamma   119.99774697
_symmetry_Int_Tables_number   1
_chemical_formula_structural   Tb4Dy16Cd6OsRu
_chemical_formula_sum   'Tb4 Dy16 Cd6 Os1 Ru1'
_cell_volume   786.74131291
_cell_formula_units_Z   1
loop_
 _symmetry_equiv_pos_site_id
 _symmetry_equiv_pos_as_xyz
  1  'x, y, z'
loop_
 _atom_site_type_symbol
 _atom_site_label
 _atom_site_symmetry_multiplicity
 _atom_site_fract_x
 _atom_site_fract_y
 _atom_site_fract_z
 _atom_site_occupancy
  Tb  Tb0  1  0.539874  0.460170  0.250000  1
  Tb  Tb1  1  0.539874  0.079704  0.250000  1
  Tb  Tb2  1  0.920322  0.460161  0.250000  1
  Tb  Tb3  1  0.082557  0.541279  0.750000  1
  Dy  Dy4  1  0.000008  0.000004  0.499750  1
  Dy  Dy5  1  0.000008  0.000004  0.000250  1
  Dy  Dy6  1  0.209925  0.790209  0.440679  1
  Dy  Dy7  1  0.209925  0.419718  0.440679  1
  Dy  Dy8  1  0.580280  0.790140  0.440745  1
  Dy  Dy9  1  0.789956  0.209778  0.560099  1
  Dy  Dy10  1  0.789956  0.580176  0.560099  1
  Dy  Dy11  1  0.419803  0.209901  0.560133  1
  Dy  Dy12  1  0.789956  0.209778  0.939901  1
  Dy  Dy13  1  0.789956  0.580176  0.939901  1
  Dy  Dy14  1  0.419803  0.209901  0.939867  1
  Dy  Dy15  1  0.209925  0.790209  0.059321  1
  Dy  Dy16  1  0.209925  0.419718  0.059321  1
  Dy  Dy17  1  0.580280  0.790140  0.059255  1
  Dy  Dy18  1  0.458950  0.541219  0.750000  1
  Dy  Dy19  1  0.458950  0.917731  0.750000  1
  Cd  Cd20  1  0.885480  0.114446  0.250000  1
  Cd  Cd21  1  0.885480  0.771036  0.250000  1
  Cd  Cd22  1  0.228939  0.114470  0.250000  1
  Cd  Cd23  1  0.114637  0.885590  0.750000  1
  Cd  Cd24  1  0.114637  0.229046  0.750000  1
  Cd  Cd25  1  0.770742  0.885370  0.750000  1
  Os  Os26  1  0.333291  0.666646  0.250000  1
  Ru  Ru27  1  0.666560  0.333280  0.750000  1
