# generated using pymatgen
data_Tm4Al3GaRu4
_symmetry_space_group_name_H-M   'P 1'
_cell_length_a   4.49660200
_cell_length_b   7.16527691
_cell_length_c   7.01980535
_cell_angle_alpha   89.45996677
_cell_angle_beta   90.00000000
_cell_angle_gamma   90.00000000
_symmetry_Int_Tables_number   1
_chemical_formula_structural   Tm4Al3GaRu4
_chemical_formula_sum   'Tm4 Al3 Ga1 Ru4'
_cell_volume   226.16385971
_cell_formula_units_Z   1
loop_
 _symmetry_equiv_pos_site_id
 _symmetry_equiv_pos_as_xyz
  1  'x, y, z'
loop_
 _atom_site_type_symbol
 _atom_site_label
 _atom_site_symmetry_multiplicity
 _atom_site_fract_x
 _atom_site_fract_y
 _atom_site_fract_z
 _atom_site_occupancy
  Tm  Tm0  1  0.250000  0.980295  0.803364  1
  Tm  Tm1  1  0.750000  0.020876  0.195214  1
  Tm  Tm2  1  0.250000  0.478457  0.694616  1
  Tm  Tm3  1  0.750000  0.521176  0.306297  1
  Al  Al4  1  0.250000  0.308552  0.107394  1
  Al  Al5  1  0.750000  0.690436  0.893754  1
  Al  Al6  1  0.250000  0.806580  0.393985  1
  Ga  Ga7  1  0.750000  0.197743  0.603824  1
  Ru  Ru8  1  0.750000  0.838839  0.563241  1
  Ru  Ru9  1  0.250000  0.157955  0.435574  1
  Ru  Ru10  1  0.750000  0.338732  0.939534  1
  Ru  Ru11  1  0.250000  0.660361  0.063201  1
