# generated using pymatgen
data_YEr3TcOsC4
_symmetry_space_group_name_H-M   'P 1'
_cell_length_a   5.07016000
_cell_length_b   6.51086660
_cell_length_c   9.76373930
_cell_angle_alpha   89.52984089
_cell_angle_beta   90.00000000
_cell_angle_gamma   90.00000000
_symmetry_Int_Tables_number   1
_chemical_formula_structural   YEr3TcOsC4
_chemical_formula_sum   'Y2 Er6 Tc2 Os2 C8'
_cell_volume   322.30126874
_cell_formula_units_Z   2
loop_
 _symmetry_equiv_pos_site_id
 _symmetry_equiv_pos_as_xyz
  1  'x, y, z'
loop_
 _atom_site_type_symbol
 _atom_site_label
 _atom_site_symmetry_multiplicity
 _atom_site_fract_x
 _atom_site_fract_y
 _atom_site_fract_z
 _atom_site_occupancy
  Y  Y0  1  0.750000  0.970165  0.714329  1
  Y  Y1  1  0.250000  0.029835  0.285671  1
  Er  Er2  1  0.250000  0.677731  0.556066  1
  Er  Er3  1  0.750000  0.322269  0.443934  1
  Er  Er4  1  0.750000  0.822829  0.056449  1
  Er  Er5  1  0.250000  0.177171  0.943551  1
  Er  Er6  1  0.250000  0.531489  0.216746  1
  Er  Er7  1  0.750000  0.468511  0.783254  1
  Tc  Tc8  1  0.250000  0.721150  0.865880  1
  Tc  Tc9  1  0.750000  0.278850  0.134120  1
  Os  Os10  1  0.750000  0.776305  0.365656  1
  Os  Os11  1  0.250000  0.223695  0.634344  1
  C  C12  1  0.250000  0.455398  0.758715  1
  C  C13  1  0.750000  0.544602  0.241285  1
  C  C14  1  0.750000  0.043470  0.259311  1
  C  C15  1  0.250000  0.956530  0.740689  1
  C  C16  1  0.250000  0.822853  0.051712  1
  C  C17  1  0.750000  0.177147  0.948288  1
  C  C18  1  0.750000  0.672405  0.552004  1
  C  C19  1  0.250000  0.327595  0.447996  1
