# generated using pymatgen
data_Gd3In3Pt2Rh
_symmetry_space_group_name_H-M   'P 1'
_cell_length_a   7.74911100
_cell_length_b   7.74910990
_cell_length_c   3.85050400
_cell_angle_alpha   90.00000000
_cell_angle_beta   90.00000000
_cell_angle_gamma   120.00000043
_symmetry_Int_Tables_number   1
_chemical_formula_structural   Gd3In3Pt2Rh
_chemical_formula_sum   'Gd3 In3 Pt2 Rh1'
_cell_volume   200.24049524
_cell_formula_units_Z   1
loop_
 _symmetry_equiv_pos_site_id
 _symmetry_equiv_pos_as_xyz
  1  'x, y, z'
loop_
 _atom_site_type_symbol
 _atom_site_label
 _atom_site_symmetry_multiplicity
 _atom_site_fract_x
 _atom_site_fract_y
 _atom_site_fract_z
 _atom_site_occupancy
  Gd  Gd0  1  0.000000  0.592269  0.500000  1
  Gd  Gd1  1  0.592269  0.000000  0.500000  1
  Gd  Gd2  1  0.407731  0.407731  0.500000  1
  In  In3  1  0.000000  0.255072  0.000000  1
  In  In4  1  0.255072  0.000000  0.000000  1
  In  In5  1  0.744928  0.744928  0.000000  1
  Pt  Pt6  1  0.666667  0.333333  0.000000  1
  Pt  Pt7  1  0.333333  0.666667  0.000000  1
  Rh  Rh8  1  0.000000  0.000000  0.500000  1
