# generated using pymatgen
data_Cs12Ta3MnSe16
_symmetry_space_group_name_H-M   'P 1'
_cell_length_a   10.26155900
_cell_length_b   10.31582107
_cell_length_c   12.13509100
_cell_angle_alpha   90.00000000
_cell_angle_beta   90.00000000
_cell_angle_gamma   89.92832903
_symmetry_Int_Tables_number   1
_chemical_formula_structural   Cs12Ta3MnSe16
_chemical_formula_sum   'Cs12 Ta3 Mn1 Se16'
_cell_volume   1284.57612142
_cell_formula_units_Z   1
loop_
 _symmetry_equiv_pos_site_id
 _symmetry_equiv_pos_as_xyz
  1  'x, y, z'
loop_
 _atom_site_type_symbol
 _atom_site_label
 _atom_site_symmetry_multiplicity
 _atom_site_fract_x
 _atom_site_fract_y
 _atom_site_fract_z
 _atom_site_occupancy
  Cs  Cs0  1  0.548797  0.211568  0.044265  1
  Cs  Cs1  1  0.042795  0.294287  0.455924  1
  Cs  Cs2  1  0.455022  0.790246  0.540478  1
  Cs  Cs3  1  0.952377  0.706662  0.959909  1
  Cs  Cs4  1  0.455022  0.790246  0.959522  1
  Cs  Cs5  1  0.952377  0.706662  0.540091  1
  Cs  Cs6  1  0.548797  0.211568  0.455735  1
  Cs  Cs7  1  0.042795  0.294287  0.044076  1
  Cs  Cs8  1  0.647722  0.410007  0.750000  1
  Cs  Cs9  1  0.147028  0.088776  0.750000  1
  Cs  Cs10  1  0.354937  0.585932  0.250000  1
  Cs  Cs11  1  0.851182  0.911840  0.250000  1
  Ta  Ta12  1  0.722195  0.982948  0.750000  1
  Ta  Ta13  1  0.223125  0.516892  0.750000  1
  Ta  Ta14  1  0.277392  0.016134  0.250000  1
  Mn  Mn15  1  0.778040  0.482986  0.250000  1
  Se  Se16  1  0.834905  0.050056  0.585256  1
  Se  Se17  1  0.336026  0.450270  0.915122  1
  Se  Se18  1  0.164592  0.948775  0.085471  1
  Se  Se19  1  0.672206  0.546761  0.403347  1
  Se  Se20  1  0.164592  0.948775  0.414529  1
  Se  Se21  1  0.672206  0.546761  0.096653  1
  Se  Se22  1  0.834905  0.050056  0.914744  1
  Se  Se23  1  0.336026  0.450270  0.584878  1
  Se  Se24  1  0.504469  0.072521  0.750000  1
  Se  Se25  1  0.005334  0.427494  0.750000  1
  Se  Se26  1  0.495723  0.927070  0.250000  1
  Se  Se27  1  0.981219  0.567250  0.250000  1
  Se  Se28  1  0.708105  0.749383  0.750000  1
  Se  Se29  1  0.208307  0.749841  0.750000  1
  Se  Se30  1  0.290702  0.249358  0.250000  1
  Se  Se31  1  0.791075  0.264317  0.250000  1
