# generated using pymatgen
data_Tb2Sm4HoFeI12
_symmetry_space_group_name_H-M   'P 1'
_cell_length_a   9.90490775
_cell_length_b   9.82169778
_cell_length_c   9.88723716
_cell_angle_alpha   106.85556839
_cell_angle_beta   106.99618142
_cell_angle_gamma   107.15068383
_symmetry_Int_Tables_number   1
_chemical_formula_structural   Tb2Sm4HoFeI12
_chemical_formula_sum   'Tb2 Sm4 Ho1 Fe1 I12'
_cell_volume   801.02453671
_cell_formula_units_Z   1
loop_
 _symmetry_equiv_pos_site_id
 _symmetry_equiv_pos_as_xyz
  1  'x, y, z'
loop_
 _atom_site_type_symbol
 _atom_site_label
 _atom_site_symmetry_multiplicity
 _atom_site_fract_x
 _atom_site_fract_y
 _atom_site_fract_z
 _atom_site_occupancy
  Tb  Tb0  1  0.977296  0.906356  0.707989  1
  Tb  Tb1  1  0.707955  0.977583  0.905234  1
  Sm  Sm2  1  0.089923  0.282652  0.021764  1
  Sm  Sm3  1  0.022958  0.094969  0.297222  1
  Sm  Sm4  1  0.296851  0.021796  0.094144  1
  Sm  Sm5  1  0.908093  0.716667  0.977794  1
  Ho  Ho6  1  0.499909  0.500530  0.499407  1
  Fe  Fe7  1  0.000074  0.999728  0.000423  1
  I  I8  1  0.464693  0.389757  0.165162  1
  I  I9  1  0.166625  0.467126  0.388510  1
  I  I10  1  0.389763  0.165689  0.466983  1
  I  I11  1  0.535067  0.614453  0.834161  1
  I  I12  1  0.834620  0.536983  0.611905  1
  I  I13  1  0.614825  0.837370  0.537132  1
  I  I14  1  0.771851  0.316112  0.926640  1
  I  I15  1  0.926927  0.772010  0.321569  1
  I  I16  1  0.318287  0.926664  0.770126  1
  I  I17  1  0.224042  0.678260  0.071293  1
  I  I18  1  0.071835  0.224092  0.680111  1
  I  I19  1  0.678407  0.071203  0.222431  1
