# generated using pymatgen
data_Lu7Mg3(Ag3C)2
_symmetry_space_group_name_H-M   'P 1'
_cell_length_a   8.53342800
_cell_length_b   8.53342936
_cell_length_c   5.99578700
_cell_angle_alpha   90.00000000
_cell_angle_beta   90.00000000
_cell_angle_gamma   119.99999473
_symmetry_Int_Tables_number   1
_chemical_formula_structural   Lu7Mg3(Ag3C)2
_chemical_formula_sum   'Lu7 Mg3 Ag6 C2'
_cell_volume   378.11506167
_cell_formula_units_Z   1
loop_
 _symmetry_equiv_pos_site_id
 _symmetry_equiv_pos_as_xyz
  1  'x, y, z'
loop_
 _atom_site_type_symbol
 _atom_site_label
 _atom_site_symmetry_multiplicity
 _atom_site_fract_x
 _atom_site_fract_y
 _atom_site_fract_z
 _atom_site_occupancy
  Lu  Lu0  1  0.666667  0.333333  0.000000  1
  Lu  Lu1  1  0.781346  0.781793  0.249561  1
  Lu  Lu2  1  0.218207  0.999553  0.249561  1
  Lu  Lu3  1  0.000447  0.218654  0.249561  1
  Lu  Lu4  1  0.218207  0.218654  0.750439  1
  Lu  Lu5  1  0.781346  0.999553  0.750439  1
  Lu  Lu6  1  0.000447  0.781793  0.750439  1
  Mg  Mg7  1  0.666667  0.333333  0.500000  1
  Mg  Mg8  1  0.333333  0.666667  0.500000  1
  Mg  Mg9  1  0.333333  0.666667  0.000000  1
  Ag  Ag10  1  0.413387  0.417269  0.249761  1
  Ag  Ag11  1  0.582731  0.996118  0.249761  1
  Ag  Ag12  1  0.003882  0.586613  0.249761  1
  Ag  Ag13  1  0.582731  0.586613  0.750239  1
  Ag  Ag14  1  0.413387  0.996118  0.750239  1
  Ag  Ag15  1  0.003882  0.417269  0.750239  1
  C  C16  1  0.000000  0.000000  0.500000  1
  C  C17  1  0.000000  0.000000  0.000000  1
