# generated using pymatgen
data_Nb4Ni3PdPt8
_symmetry_space_group_name_H-M   'P 1'
_cell_length_a   5.54246900
_cell_length_b   4.85721295
_cell_length_c   9.22395851
_cell_angle_alpha   79.71508619
_cell_angle_beta   90.00000000
_cell_angle_gamma   90.00000000
_symmetry_Int_Tables_number   1
_chemical_formula_structural   Nb4Ni3PdPt8
_chemical_formula_sum   'Nb4 Ni3 Pd1 Pt8'
_cell_volume   244.32779711
_cell_formula_units_Z   1
loop_
 _symmetry_equiv_pos_site_id
 _symmetry_equiv_pos_as_xyz
  1  'x, y, z'
loop_
 _atom_site_type_symbol
 _atom_site_label
 _atom_site_symmetry_multiplicity
 _atom_site_fract_x
 _atom_site_fract_y
 _atom_site_fract_z
 _atom_site_occupancy
  Nb  Nb0  1  0.750000  0.385640  0.377892  1
  Nb  Nb1  1  0.250000  0.617095  0.626063  1
  Nb  Nb2  1  0.750000  0.211358  0.872985  1
  Nb  Nb3  1  0.250000  0.794147  0.123921  1
  Ni  Ni4  1  0.750000  0.792964  0.129131  1
  Ni  Ni5  1  0.250000  0.206484  0.871378  1
  Ni  Ni6  1  0.750000  0.616208  0.622901  1
  Pd  Pd7  1  0.250000  0.379487  0.374767  1
  Pt  Pt8  1  0.994960  0.872014  0.375380  1
  Pt  Pt9  1  0.499837  0.128793  0.628805  1
  Pt  Pt10  1  0.000163  0.128793  0.628805  1
  Pt  Pt11  1  0.505040  0.872014  0.375380  1
  Pt  Pt12  1  0.997653  0.289208  0.120374  1
  Pt  Pt13  1  0.499740  0.708293  0.875922  1
  Pt  Pt14  1  0.000260  0.708293  0.875922  1
  Pt  Pt15  1  0.502347  0.289208  0.120374  1
