# generated using pymatgen
data_Tb3Yb3Y2(ReC2)4
_symmetry_space_group_name_H-M   'P 1'
_cell_length_a   5.14399200
_cell_length_b   6.55671377
_cell_length_c   10.07842434
_cell_angle_alpha   89.34149986
_cell_angle_beta   90.00000000
_cell_angle_gamma   90.00000000
_symmetry_Int_Tables_number   1
_chemical_formula_structural   Tb3Yb3Y2(ReC2)4
_chemical_formula_sum   'Tb3 Yb3 Y2 Re4 C8'
_cell_volume   339.89945335
_cell_formula_units_Z   1
loop_
 _symmetry_equiv_pos_site_id
 _symmetry_equiv_pos_as_xyz
  1  'x, y, z'
loop_
 _atom_site_type_symbol
 _atom_site_label
 _atom_site_symmetry_multiplicity
 _atom_site_fract_x
 _atom_site_fract_y
 _atom_site_fract_z
 _atom_site_occupancy
  Tb  Tb0  1  0.250000  0.691298  0.553897  1
  Tb  Tb1  1  0.750000  0.310984  0.447153  1
  Tb  Tb2  1  0.250000  0.185588  0.945806  1
  Yb  Yb3  1  0.750000  0.464254  0.776183  1
  Yb  Yb4  1  0.750000  0.964089  0.724456  1
  Yb  Yb5  1  0.250000  0.035028  0.276875  1
  Y  Y6  1  0.750000  0.815605  0.053411  1
  Y  Y7  1  0.250000  0.534438  0.222690  1
  Re  Re8  1  0.250000  0.723288  0.860563  1
  Re  Re9  1  0.750000  0.274855  0.139831  1
  Re  Re10  1  0.750000  0.773596  0.359509  1
  Re  Re11  1  0.250000  0.227803  0.638490  1
  C  C12  1  0.250000  0.458828  0.758531  1
  C  C13  1  0.750000  0.540986  0.239678  1
  C  C14  1  0.750000  0.041394  0.260359  1
  C  C15  1  0.250000  0.959691  0.741033  1
  C  C16  1  0.250000  0.807431  0.041821  1
  C  C17  1  0.750000  0.180191  0.961769  1
  C  C18  1  0.750000  0.687764  0.539733  1
  C  C19  1  0.250000  0.322889  0.458213  1
