# generated using pymatgen
data_Ba2Dy3Ho(Si3O10)2
_symmetry_space_group_name_H-M   'P 1'
_cell_length_a   12.35057647
_cell_length_b   5.46105074
_cell_length_c   6.92711014
_cell_angle_alpha   73.51404287
_cell_angle_beta   90.02270506
_cell_angle_gamma   90.02762126
_symmetry_Int_Tables_number   1
_chemical_formula_structural   Ba2Dy3Ho(Si3O10)2
_chemical_formula_sum   'Ba2 Dy3 Ho1 Si6 O20'
_cell_volume   448.00612041
_cell_formula_units_Z   1
loop_
 _symmetry_equiv_pos_site_id
 _symmetry_equiv_pos_as_xyz
  1  'x, y, z'
loop_
 _atom_site_type_symbol
 _atom_site_label
 _atom_site_symmetry_multiplicity
 _atom_site_fract_x
 _atom_site_fract_y
 _atom_site_fract_z
 _atom_site_occupancy
  Ba  Ba0  1  0.749902  0.761825  0.984478  1
  Ba  Ba1  1  0.250157  0.238167  0.015427  1
  Dy  Dy2  1  0.598821  0.157104  0.316359  1
  Dy  Dy3  1  0.900891  0.157161  0.316131  1
  Dy  Dy4  1  0.099323  0.842879  0.683830  1
  Ho  Ho5  1  0.400745  0.842051  0.684022  1
  Si  Si6  1  0.061042  0.695450  0.213870  1
  Si  Si7  1  0.250332  0.419417  0.487527  1
  Si  Si8  1  0.749991  0.580539  0.512652  1
  Si  Si9  1  0.438933  0.695756  0.213523  1
  Si  Si10  1  0.560637  0.304581  0.786101  1
  Si  Si11  1  0.939075  0.304477  0.786231  1
  O  O12  1  0.450168  0.895547  0.353408  1
  O  O13  1  0.143403  0.453914  0.337919  1
  O  O14  1  0.856692  0.546219  0.662546  1
  O  O15  1  0.356591  0.454234  0.336811  1
  O  O16  1  0.378963  0.837981  0.001456  1
  O  O17  1  0.878516  0.161929  0.997393  1
  O  O18  1  0.054343  0.436719  0.807837  1
  O  O19  1  0.950667  0.103686  0.647633  1
  O  O20  1  0.548261  0.102821  0.648161  1
  O  O21  1  0.250567  0.628825  0.615236  1
  O  O22  1  0.121486  0.838044  0.002669  1
  O  O23  1  0.554273  0.563429  0.192284  1
  O  O24  1  0.250698  0.124695  0.632972  1
  O  O25  1  0.643374  0.545544  0.662470  1
  O  O26  1  0.749966  0.875008  0.367013  1
  O  O27  1  0.945736  0.563295  0.192068  1
  O  O28  1  0.749952  0.371308  0.384980  1
  O  O29  1  0.445907  0.439038  0.807139  1
  O  O30  1  0.621200  0.162079  0.997422  1
  O  O31  1  0.049386  0.896278  0.352435  1
