# generated using pymatgen
data_Lu4Re6TcMo
_symmetry_space_group_name_H-M   'P 1'
_cell_length_a   5.37668009
_cell_length_b   5.37669659
_cell_length_c   8.81510500
_cell_angle_alpha   90.00225009
_cell_angle_beta   89.99623302
_cell_angle_gamma   119.99954713
_symmetry_Int_Tables_number   1
_chemical_formula_structural   Lu4Re6TcMo
_chemical_formula_sum   'Lu4 Re6 Tc1 Mo1'
_cell_volume   220.69364585
_cell_formula_units_Z   1
loop_
 _symmetry_equiv_pos_site_id
 _symmetry_equiv_pos_as_xyz
  1  'x, y, z'
loop_
 _atom_site_type_symbol
 _atom_site_label
 _atom_site_symmetry_multiplicity
 _atom_site_fract_x
 _atom_site_fract_y
 _atom_site_fract_z
 _atom_site_occupancy
  Lu  Lu0  1  0.666661  0.333324  0.562364  1
  Lu  Lu1  1  0.333339  0.666676  0.437636  1
  Lu  Lu2  1  0.333321  0.666676  0.064589  1
  Lu  Lu3  1  0.666679  0.333324  0.935411  1
  Re  Re4  1  0.171907  0.343755  0.749706  1
  Re  Re5  1  0.171917  0.828086  0.749731  1
  Re  Re6  1  0.656251  0.828100  0.749704  1
  Re  Re7  1  0.828093  0.656245  0.250294  1
  Re  Re8  1  0.828083  0.171914  0.250269  1
  Re  Re9  1  0.343749  0.171900  0.250296  1
  Tc  Tc10  1  0.000000  0.000000  0.500000  1
  Mo  Mo11  1  0.000000  0.000000  0.000000  1
