# generated using pymatgen
data_Ga2PbBr8
_symmetry_space_group_name_H-M   'P 1'
_cell_length_a   7.66478200
_cell_length_b   8.09797405
_cell_length_c   14.83625307
_cell_angle_alpha   87.40250546
_cell_angle_beta   90.00000000
_cell_angle_gamma   90.00000000
_symmetry_Int_Tables_number   1
_chemical_formula_structural   Ga2PbBr8
_chemical_formula_sum   'Ga4 Pb2 Br16'
_cell_volume   919.92829406
_cell_formula_units_Z   2
loop_
 _symmetry_equiv_pos_site_id
 _symmetry_equiv_pos_as_xyz
  1  'x, y, z'
loop_
 _atom_site_type_symbol
 _atom_site_label
 _atom_site_symmetry_multiplicity
 _atom_site_fract_x
 _atom_site_fract_y
 _atom_site_fract_z
 _atom_site_occupancy
  Ga  Ga0  1  0.936460  0.222972  0.578269  1
  Ga  Ga1  1  0.063540  0.222972  0.078269  1
  Ga  Ga2  1  0.561432  0.639079  0.777231  1
  Ga  Ga3  1  0.438568  0.639079  0.277231  1
  Pb  Pb4  1  0.754421  0.075698  0.815438  1
  Pb  Pb5  1  0.245579  0.075698  0.315438  1
  Br  Br6  1  0.423615  0.613401  0.641159  1
  Br  Br7  1  0.576385  0.613401  0.141159  1
  Br  Br8  1  0.860093  0.731595  0.761839  1
  Br  Br9  1  0.139907  0.731595  0.261839  1
  Br  Br10  1  0.941419  0.469260  0.495281  1
  Br  Br11  1  0.058581  0.469260  0.995281  1
  Br  Br12  1  0.927399  0.999545  0.005042  1
  Br  Br13  1  0.072601  0.999545  0.505042  1
  Br  Br14  1  0.645706  0.132318  0.618582  1
  Br  Br15  1  0.354294  0.132318  0.118582  1
  Br  Br16  1  0.554951  0.393956  0.872954  1
  Br  Br17  1  0.445049  0.393956  0.372954  1
  Br  Br18  1  0.435107  0.854544  0.863022  1
  Br  Br19  1  0.564893  0.854544  0.363022  1
  Br  Br20  1  0.925239  0.235033  0.223383  1
  Br  Br21  1  0.074761  0.235033  0.723383  1
