# generated using pymatgen
data_Hf5SiGe2N
_symmetry_space_group_name_H-M   'P 1'
_cell_length_a   7.88913672
_cell_length_b   7.88913729
_cell_length_c   5.58940600
_cell_angle_alpha   90.00000000
_cell_angle_beta   90.00000000
_cell_angle_gamma   120.07560848
_symmetry_Int_Tables_number   1
_chemical_formula_structural   Hf5SiGe2N
_chemical_formula_sum   'Hf10 Si2 Ge4 N2'
_cell_volume   301.03978799
_cell_formula_units_Z   2
loop_
 _symmetry_equiv_pos_site_id
 _symmetry_equiv_pos_as_xyz
  1  'x, y, z'
loop_
 _atom_site_type_symbol
 _atom_site_label
 _atom_site_symmetry_multiplicity
 _atom_site_fract_x
 _atom_site_fract_y
 _atom_site_fract_z
 _atom_site_occupancy
  Hf  Hf0  1  0.233288  0.002579  0.250000  1
  Hf  Hf1  1  0.766712  0.997421  0.750000  1
  Hf  Hf2  1  0.002579  0.233288  0.250000  1
  Hf  Hf3  1  0.997421  0.766712  0.750000  1
  Hf  Hf4  1  0.763318  0.763318  0.250000  1
  Hf  Hf5  1  0.236682  0.236682  0.750000  1
  Hf  Hf6  1  0.335664  0.664336  0.000000  1
  Hf  Hf7  1  0.664336  0.335664  0.000000  1
  Hf  Hf8  1  0.664336  0.335664  0.500000  1
  Hf  Hf9  1  0.335664  0.664336  0.500000  1
  Si  Si10  1  0.404467  0.404467  0.250000  1
  Si  Si11  1  0.595533  0.595533  0.750000  1
  Ge  Ge12  1  0.597001  0.001081  0.250000  1
  Ge  Ge13  1  0.402999  0.998919  0.750000  1
  Ge  Ge14  1  0.001081  0.597001  0.250000  1
  Ge  Ge15  1  0.998919  0.402999  0.750000  1
  N  N16  1  0.000000  0.000000  0.000000  1
  N  N17  1  0.000000  0.000000  0.500000  1
