# generated using pymatgen
data_NaNiPdO4
_symmetry_space_group_name_H-M   'P 1'
_cell_length_a   5.17641300
_cell_length_b   6.01684800
_cell_length_c   11.26198700
_cell_angle_alpha   90.00000000
_cell_angle_beta   90.00000000
_cell_angle_gamma   90.00000000
_symmetry_Int_Tables_number   1
_chemical_formula_structural   NaNiPdO4
_chemical_formula_sum   'Na4 Ni4 Pd4 O16'
_cell_volume   350.76235821
_cell_formula_units_Z   4
loop_
 _symmetry_equiv_pos_site_id
 _symmetry_equiv_pos_as_xyz
  1  'x, y, z'
loop_
 _atom_site_type_symbol
 _atom_site_label
 _atom_site_symmetry_multiplicity
 _atom_site_fract_x
 _atom_site_fract_y
 _atom_site_fract_z
 _atom_site_occupancy
  Na  Na0  1  0.848942  0.000000  0.500000  1
  Na  Na1  1  0.151058  0.500000  0.000000  1
  Na  Na2  1  0.512096  0.000000  0.000000  1
  Na  Na3  1  0.487904  0.500000  0.500000  1
  Ni  Ni4  1  0.501415  0.500000  0.241652  1
  Ni  Ni5  1  0.501415  0.500000  0.758348  1
  Ni  Ni6  1  0.498585  0.000000  0.258348  1
  Ni  Ni7  1  0.498585  0.000000  0.741652  1
  Pd  Pd8  1  0.000000  0.250000  0.250000  1
  Pd  Pd9  1  0.000000  0.750000  0.750000  1
  Pd  Pd10  1  0.000000  0.750000  0.250000  1
  Pd  Pd11  1  0.000000  0.250000  0.750000  1
  O  O12  1  0.840879  0.500000  0.154034  1
  O  O13  1  0.840879  0.500000  0.845966  1
  O  O14  1  0.159121  0.000000  0.345966  1
  O  O15  1  0.159121  0.000000  0.654034  1
  O  O16  1  0.172717  0.500000  0.340503  1
  O  O17  1  0.172717  0.500000  0.659497  1
  O  O18  1  0.827283  0.000000  0.159497  1
  O  O19  1  0.827283  0.000000  0.840503  1
  O  O20  1  0.664425  0.253342  0.343254  1
  O  O21  1  0.664425  0.746658  0.656746  1
  O  O22  1  0.335575  0.753342  0.156746  1
  O  O23  1  0.335575  0.246658  0.843254  1
  O  O24  1  0.335575  0.246658  0.156746  1
  O  O25  1  0.335575  0.753342  0.843254  1
  O  O26  1  0.664425  0.746658  0.343254  1
  O  O27  1  0.664425  0.253342  0.656746  1
