# generated using pymatgen
data_KLiZn2O3
_symmetry_space_group_name_H-M   'P 1'
_cell_length_a   10.36350900
_cell_length_b   10.36350900
_cell_length_c   3.42617100
_cell_angle_alpha   90.00000000
_cell_angle_beta   90.00000000
_cell_angle_gamma   90.00000000
_symmetry_Int_Tables_number   1
_chemical_formula_structural   KLiZn2O3
_chemical_formula_sum   'K4 Li4 Zn8 O12'
_cell_volume   367.97870998
_cell_formula_units_Z   4
loop_
 _symmetry_equiv_pos_site_id
 _symmetry_equiv_pos_as_xyz
  1  'x, y, z'
loop_
 _atom_site_type_symbol
 _atom_site_label
 _atom_site_symmetry_multiplicity
 _atom_site_fract_x
 _atom_site_fract_y
 _atom_site_fract_z
 _atom_site_occupancy
  K  K0  1  0.391403  0.391403  0.000000  1
  K  K1  1  0.608597  0.608597  0.000000  1
  K  K2  1  0.891403  0.108597  0.499999  1
  K  K3  1  0.108597  0.891403  0.499999  1
  Li  Li4  1  0.699736  0.300263  0.000000  1
  Li  Li5  1  0.300263  0.699736  0.000000  1
  Li  Li6  1  0.199737  0.199737  0.499999  1
  Li  Li7  1  0.800263  0.800263  0.499999  1
  Zn  Zn8  1  0.325972  0.072604  0.000000  1
  Zn  Zn9  1  0.072604  0.325972  0.000000  1
  Zn  Zn10  1  0.927395  0.674028  0.000000  1
  Zn  Zn11  1  0.674028  0.927395  0.000000  1
  Zn  Zn12  1  0.572605  0.174028  0.499999  1
  Zn  Zn13  1  0.825972  0.427395  0.499999  1
  Zn  Zn14  1  0.174028  0.572605  0.499999  1
  Zn  Zn15  1  0.427395  0.825972  0.499999  1
  O  O16  1  0.659567  0.115579  0.000000  1
  O  O17  1  0.135917  0.135917  0.000000  1
  O  O18  1  0.884420  0.340432  0.000000  1
  O  O19  1  0.115579  0.659567  0.000000  1
  O  O20  1  0.864083  0.864083  0.000000  1
  O  O21  1  0.340432  0.884420  0.000000  1
  O  O22  1  0.384420  0.159567  0.499999  1
  O  O23  1  0.635917  0.364082  0.499999  1
  O  O24  1  0.159567  0.384420  0.499999  1
  O  O25  1  0.840433  0.615579  0.499999  1
  O  O26  1  0.364082  0.635917  0.499999  1
  O  O27  1  0.615579  0.840433  0.499999  1
