# generated using pymatgen
data_Ce8PdSe17
_symmetry_space_group_name_H-M   'P 1'
_cell_length_a   8.32736306
_cell_length_b   8.32736328
_cell_length_c   11.06217285
_cell_angle_alpha   79.85829746
_cell_angle_beta   79.85829581
_cell_angle_gamma   65.21214163
_symmetry_Int_Tables_number   1
_chemical_formula_structural   Ce8PdSe17
_chemical_formula_sum   'Ce8 Pd1 Se17'
_cell_volume   681.04562731
_cell_formula_units_Z   1
loop_
 _symmetry_equiv_pos_site_id
 _symmetry_equiv_pos_as_xyz
  1  'x, y, z'
loop_
 _atom_site_type_symbol
 _atom_site_label
 _atom_site_symmetry_multiplicity
 _atom_site_fract_x
 _atom_site_fract_y
 _atom_site_fract_z
 _atom_site_occupancy
  Ce  Ce0  1  0.820222  0.308795  0.296878  1
  Ce  Ce1  1  0.308795  0.820222  0.296878  1
  Ce  Ce2  1  0.179778  0.691205  0.703122  1
  Ce  Ce3  1  0.691205  0.179778  0.703122  1
  Ce  Ce4  1  0.204428  0.204428  0.545436  1
  Ce  Ce5  1  0.795572  0.795572  0.454564  1
  Ce  Ce6  1  0.675564  0.675564  0.979129  1
  Ce  Ce7  1  0.324436  0.324436  0.020871  1
  Pd  Pd8  1  0.000000  0.000000  0.000000  1
  Se  Se9  1  0.820745  0.430896  0.535127  1
  Se  Se10  1  0.430896  0.820745  0.535127  1
  Se  Se11  1  0.179255  0.569104  0.464873  1
  Se  Se12  1  0.569104  0.179255  0.464873  1
  Se  Se13  1  0.955628  0.327612  0.026014  1
  Se  Se14  1  0.327612  0.955628  0.026014  1
  Se  Se15  1  0.044372  0.672388  0.973986  1
  Se  Se16  1  0.672388  0.044372  0.973986  1
  Se  Se17  1  0.214726  0.214726  0.279676  1
  Se  Se18  1  0.785274  0.785274  0.720324  1
  Se  Se19  1  0.049420  0.049420  0.771824  1
  Se  Se20  1  0.950580  0.950580  0.228176  1
  Se  Se21  1  0.297907  0.297907  0.758632  1
  Se  Se22  1  0.702093  0.702093  0.241368  1
  Se  Se23  1  0.517751  0.517751  0.830247  1
  Se  Se24  1  0.482249  0.482249  0.169753  1
  Se  Se25  1  0.000000  0.000000  0.500000  1
