# generated using pymatgen
data_Ca3Dy(Ga8Pt3)3
_symmetry_space_group_name_H-M   'P 1'
_cell_length_a   7.53497010
_cell_length_b   7.60051716
_cell_length_c   13.37478200
_cell_angle_alpha   84.75091313
_cell_angle_beta   79.46229107
_cell_angle_gamma   60.14305578
_symmetry_Int_Tables_number   1
_chemical_formula_structural   Ca3Dy(Ga8Pt3)3
_chemical_formula_sum   'Ca3 Dy1 Ga24 Pt9'
_cell_volume   653.09935709
_cell_formula_units_Z   1
loop_
 _symmetry_equiv_pos_site_id
 _symmetry_equiv_pos_as_xyz
  1  'x, y, z'
loop_
 _atom_site_type_symbol
 _atom_site_label
 _atom_site_symmetry_multiplicity
 _atom_site_fract_x
 _atom_site_fract_y
 _atom_site_fract_z
 _atom_site_occupancy
  Ca  Ca0  1  0.604249  0.831101  0.191463  1
  Ca  Ca1  1  0.732145  0.499588  0.809236  1
  Ca  Ca2  1  0.268372  0.500592  0.191038  1
  Dy  Dy3  1  0.397474  0.168866  0.807733  1
  Ga  Ga4  1  0.686370  0.833584  0.940404  1
  Ga  Ga5  1  0.311691  0.166007  0.059258  1
  Ga  Ga6  1  0.145399  0.832450  0.560013  1
  Ga  Ga7  1  0.854513  0.167248  0.440611  1
  Ga  Ga8  1  0.477774  0.165848  0.556801  1
  Ga  Ga9  1  0.521543  0.834548  0.444131  1
  Ga  Ga10  1  0.219859  0.165122  0.325799  1
  Ga  Ga11  1  0.779422  0.834176  0.675594  1
  Ga  Ga12  1  0.436423  0.505094  0.674585  1
  Ga  Ga13  1  0.562879  0.495349  0.326683  1
  Ga  Ga14  1  0.106017  0.162326  0.673844  1
  Ga  Ga15  1  0.893090  0.837841  0.327793  1
  Ga  Ga16  1  0.356921  0.498211  0.941490  1
  Ga  Ga17  1  0.644196  0.500534  0.057944  1
  Ga  Ga18  1  0.020429  0.168165  0.945905  1
  Ga  Ga19  1  0.981049  0.832801  0.052324  1
  Ga  Ga20  1  0.187482  0.498594  0.443931  1
  Ga  Ga21  1  0.812651  0.501454  0.556625  1
  Ga  Ga22  1  0.733512  0.166678  0.182065  1
  Ga  Ga23  1  0.264110  0.837615  0.817511  1
  Ga  Ga24  1  0.064697  0.629206  0.816206  1
  Ga  Ga25  1  0.938251  0.370293  0.182751  1
  Ga  Ga26  1  0.857084  0.037227  0.815613  1
  Ga  Ga27  1  0.143226  0.961009  0.183618  1
  Pt  Pt28  1  0.117256  0.493482  0.639177  1
  Pt  Pt29  1  0.882229  0.505931  0.361650  1
  Pt  Pt30  1  0.660440  0.168937  0.997902  1
  Pt  Pt31  1  0.340184  0.829858  0.999852  1
  Pt  Pt32  1  0.541200  0.166603  0.361527  1
  Pt  Pt33  1  0.458887  0.832932  0.639607  1
  Pt  Pt34  1  0.777726  0.173600  0.636833  1
  Pt  Pt35  1  0.220746  0.827057  0.364210  1
  Pt  Pt36  1  0.000503  0.500074  0.998276  1
