# generated using pymatgen
data_Ho8SnHg3Au8
_symmetry_space_group_name_H-M   'P 1'
_cell_length_a   7.99243000
_cell_length_b   7.99243000
_cell_length_c   7.33503900
_cell_angle_alpha   90.00000000
_cell_angle_beta   90.00000000
_cell_angle_gamma   90.00000000
_symmetry_Int_Tables_number   1
_chemical_formula_structural   Ho8SnHg3Au8
_chemical_formula_sum   'Ho8 Sn1 Hg3 Au8'
_cell_volume   468.55449641
_cell_formula_units_Z   1
loop_
 _symmetry_equiv_pos_site_id
 _symmetry_equiv_pos_as_xyz
  1  'x, y, z'
loop_
 _atom_site_type_symbol
 _atom_site_label
 _atom_site_symmetry_multiplicity
 _atom_site_fract_x
 _atom_site_fract_y
 _atom_site_fract_z
 _atom_site_occupancy
  Ho  Ho0  1  0.840825  0.158569  0.500460  1
  Ho  Ho1  1  0.159175  0.841431  0.500460  1
  Ho  Ho2  1  0.341431  0.340825  0.999540  1
  Ho  Ho3  1  0.658569  0.659175  0.999540  1
  Ho  Ho4  1  0.684119  0.685420  0.499999  1
  Ho  Ho5  1  0.315881  0.314580  0.499999  1
  Ho  Ho6  1  0.185420  0.815881  0.000001  1
  Ho  Ho7  1  0.814580  0.184119  0.000001  1
  Sn  Sn8  1  0.000000  0.500000  0.250000  1
  Hg  Hg9  1  0.500000  0.000000  0.250000  1
  Hg  Hg10  1  0.000000  0.500000  0.750000  1
  Hg  Hg11  1  0.500000  0.000000  0.750000  1
  Au  Au12  1  0.626985  0.372224  0.276682  1
  Au  Au13  1  0.373015  0.627776  0.276682  1
  Au  Au14  1  0.127856  0.127117  0.776427  1
  Au  Au15  1  0.872144  0.872883  0.776427  1
  Au  Au16  1  0.372883  0.627856  0.723573  1
  Au  Au17  1  0.627117  0.372144  0.723573  1
  Au  Au18  1  0.872224  0.873015  0.223318  1
  Au  Au19  1  0.127776  0.126985  0.223318  1
