# generated using pymatgen
data_Zr8Zn3In4Pt5
_symmetry_space_group_name_H-M   'P 1'
_cell_length_a   7.44453649
_cell_length_b   7.46452134
_cell_length_c   6.95731300
_cell_angle_alpha   89.98724291
_cell_angle_beta   90.09147889
_cell_angle_gamma   89.62587156
_symmetry_Int_Tables_number   1
_chemical_formula_structural   Zr8Zn3In4Pt5
_chemical_formula_sum   'Zr8 Zn3 In4 Pt5'
_cell_volume   386.60845240
_cell_formula_units_Z   1
loop_
 _symmetry_equiv_pos_site_id
 _symmetry_equiv_pos_as_xyz
  1  'x, y, z'
loop_
 _atom_site_type_symbol
 _atom_site_label
 _atom_site_symmetry_multiplicity
 _atom_site_fract_x
 _atom_site_fract_y
 _atom_site_fract_z
 _atom_site_occupancy
  Zr  Zr0  1  0.143242  0.151743  0.003622  1
  Zr  Zr1  1  0.842036  0.853467  0.997573  1
  Zr  Zr2  1  0.656201  0.350519  0.493897  1
  Zr  Zr3  1  0.354952  0.651758  0.496587  1
  Zr  Zr4  1  0.699828  0.305393  0.004446  1
  Zr  Zr5  1  0.309162  0.694717  0.007005  1
  Zr  Zr6  1  0.795110  0.805230  0.500729  1
  Zr  Zr7  1  0.193851  0.200118  0.497276  1
  Zn  Zn8  1  0.373518  0.373579  0.797497  1
  Zn  Zn9  1  0.125034  0.871670  0.295656  1
  Zn  Zn10  1  0.127428  0.872755  0.706521  1
  In  In11  1  0.496933  0.000676  0.248465  1
  In  In12  1  0.494627  0.000349  0.750286  1
  In  In13  1  0.002760  0.504597  0.250050  1
  In  In14  1  0.003117  0.503250  0.748930  1
  Pt  Pt15  1  0.370688  0.368767  0.204376  1
  Pt  Pt16  1  0.623204  0.620353  0.787881  1
  Pt  Pt17  1  0.631652  0.628280  0.206516  1
  Pt  Pt18  1  0.877643  0.122039  0.710816  1
  Pt  Pt19  1  0.879011  0.120740  0.291871  1
