# generated using pymatgen
data_Tm20CdIn5Ru2
_symmetry_space_group_name_H-M   'P 1'
_cell_length_a   9.64613900
_cell_length_b   9.72373206
_cell_length_c   9.59344400
_cell_angle_alpha   90.00000000
_cell_angle_beta   90.00000000
_cell_angle_gamma   120.26645285
_symmetry_Int_Tables_number   1
_chemical_formula_structural   Tm20CdIn5Ru2
_chemical_formula_sum   'Tm20 Cd1 In5 Ru2'
_cell_volume   777.17592967
_cell_formula_units_Z   1
loop_
 _symmetry_equiv_pos_site_id
 _symmetry_equiv_pos_as_xyz
  1  'x, y, z'
loop_
 _atom_site_type_symbol
 _atom_site_label
 _atom_site_symmetry_multiplicity
 _atom_site_fract_x
 _atom_site_fract_y
 _atom_site_fract_z
 _atom_site_occupancy
  Tm  Tm0  1  0.996378  0.998189  0.501841  1
  Tm  Tm1  1  0.996378  0.998189  0.998159  1
  Tm  Tm2  1  0.210954  0.789569  0.439850  1
  Tm  Tm3  1  0.210954  0.421388  0.439850  1
  Tm  Tm4  1  0.578316  0.789158  0.437905  1
  Tm  Tm5  1  0.789818  0.212131  0.559943  1
  Tm  Tm6  1  0.789818  0.577686  0.559943  1
  Tm  Tm7  1  0.420776  0.210387  0.561602  1
  Tm  Tm8  1  0.789818  0.212131  0.940057  1
  Tm  Tm9  1  0.789818  0.577686  0.940057  1
  Tm  Tm10  1  0.420776  0.210387  0.938398  1
  Tm  Tm11  1  0.210954  0.789569  0.060150  1
  Tm  Tm12  1  0.210954  0.421388  0.060150  1
  Tm  Tm13  1  0.578316  0.789158  0.062095  1
  Tm  Tm14  1  0.540404  0.460026  0.250000  1
  Tm  Tm15  1  0.540404  0.080380  0.250000  1
  Tm  Tm16  1  0.923890  0.461945  0.250000  1
  Tm  Tm17  1  0.462547  0.541784  0.750000  1
  Tm  Tm18  1  0.462547  0.920762  0.750000  1
  Tm  Tm19  1  0.081054  0.540527  0.750000  1
  Cd  Cd20  1  0.765827  0.882914  0.750000  1
  In  In21  1  0.885013  0.119154  0.250000  1
  In  In22  1  0.885013  0.765859  0.250000  1
  In  In23  1  0.232043  0.116022  0.250000  1
  In  In24  1  0.114833  0.880963  0.750000  1
  In  In25  1  0.114833  0.233869  0.750000  1
  Ru  Ru26  1  0.329884  0.664942  0.250000  1
  Ru  Ru27  1  0.667682  0.333841  0.750000  1
