# generated using pymatgen
data_Dy2Y(In2Ni)2
_symmetry_space_group_name_H-M   'P 1'
_cell_length_a   7.83502618
_cell_length_b   7.82637390
_cell_length_c   3.73530800
_cell_angle_alpha   90.00000000
_cell_angle_beta   90.00000000
_cell_angle_gamma   120.01201256
_symmetry_Int_Tables_number   1
_chemical_formula_structural   Dy2Y(In2Ni)2
_chemical_formula_sum   'Dy2 Y1 In4 Ni2'
_cell_volume   198.33780893
_cell_formula_units_Z   1
loop_
 _symmetry_equiv_pos_site_id
 _symmetry_equiv_pos_as_xyz
  1  'x, y, z'
loop_
 _atom_site_type_symbol
 _atom_site_label
 _atom_site_symmetry_multiplicity
 _atom_site_fract_x
 _atom_site_fract_y
 _atom_site_fract_z
 _atom_site_occupancy
  Dy  Dy0  1  0.049479  0.297807  0.500000  1
  Dy  Dy1  1  0.702175  0.751785  0.500000  1
  Y  Y2  1  0.249258  0.949948  0.500000  1
  In  In3  1  0.665979  0.083029  0.000000  1
  In  In4  1  0.917036  0.582777  0.000000  1
  In  In5  1  0.417283  0.334420  0.000000  1
  In  In6  1  0.333293  0.666402  0.000000  1
  Ni  Ni7  1  0.666997  0.333645  0.500000  1
  Ni  Ni8  1  0.998499  0.000187  0.000000  1
