# generated using pymatgen
data_Sc4V2MoOs5
_symmetry_space_group_name_H-M   'P 1'
_cell_length_a   5.12887134
_cell_length_b   5.24712182
_cell_length_c   8.67604700
_cell_angle_alpha   90.00000000
_cell_angle_beta   90.00000000
_cell_angle_gamma   120.20711537
_symmetry_Int_Tables_number   1
_chemical_formula_structural   Sc4V2MoOs5
_chemical_formula_sum   'Sc4 V2 Mo1 Os5'
_cell_volume   201.78333908
_cell_formula_units_Z   1
loop_
 _symmetry_equiv_pos_site_id
 _symmetry_equiv_pos_as_xyz
  1  'x, y, z'
loop_
 _atom_site_type_symbol
 _atom_site_label
 _atom_site_symmetry_multiplicity
 _atom_site_fract_x
 _atom_site_fract_y
 _atom_site_fract_z
 _atom_site_occupancy
  Sc  Sc0  1  0.336607  0.669866  0.434434  1
  Sc  Sc1  1  0.663869  0.331554  0.557130  1
  Sc  Sc2  1  0.663869  0.331554  0.942870  1
  Sc  Sc3  1  0.336607  0.669866  0.065566  1
  V  V4  1  0.171685  0.831526  0.750000  1
  V  V5  1  0.340059  0.169669  0.250000  1
  Mo  Mo6  1  0.169337  0.341317  0.750000  1
  Os  Os7  1  0.828253  0.655083  0.250000  1
  Os  Os8  1  0.647134  0.823878  0.750000  1
  Os  Os9  1  0.006249  0.001256  0.999301  1
  Os  Os10  1  0.830080  0.173173  0.250000  1
  Os  Os11  1  0.006249  0.001256  0.500699  1
