# generated using pymatgen
data_Ba6Ca2NdUSe12
_symmetry_space_group_name_H-M   'P 1'
_cell_length_a   8.95504821
_cell_length_b   8.95504611
_cell_length_c   8.95504833
_cell_angle_alpha   91.87951865
_cell_angle_beta   91.87951338
_cell_angle_gamma   91.87951849
_symmetry_Int_Tables_number   1
_chemical_formula_structural   Ba6Ca2NdUSe12
_chemical_formula_sum   'Ba6 Ca2 Nd1 U1 Se12'
_cell_volume   716.94596867
_cell_formula_units_Z   1
loop_
 _symmetry_equiv_pos_site_id
 _symmetry_equiv_pos_as_xyz
  1  'x, y, z'
loop_
 _atom_site_type_symbol
 _atom_site_label
 _atom_site_symmetry_multiplicity
 _atom_site_fract_x
 _atom_site_fract_y
 _atom_site_fract_z
 _atom_site_occupancy
  Ba  Ba0  1  0.868775  0.623409  0.255103  1
  Ba  Ba1  1  0.255103  0.868775  0.623409  1
  Ba  Ba2  1  0.623409  0.255103  0.868775  1
  Ba  Ba3  1  0.744897  0.131225  0.376591  1
  Ba  Ba4  1  0.376591  0.744897  0.131225  1
  Ba  Ba5  1  0.131225  0.376591  0.744897  1
  Ca  Ca6  1  0.254722  0.254722  0.254722  1
  Ca  Ca7  1  0.745278  0.745278  0.745278  1
  Nd  Nd8  1  0.500000  0.500000  0.500000  1
  U  U9  1  0.000000  0.000000  0.000000  1
  Se  Se10  1  0.190895  0.549096  0.405196  1
  Se  Se11  1  0.405196  0.190895  0.549096  1
  Se  Se12  1  0.549096  0.405196  0.190895  1
  Se  Se13  1  0.918523  0.044378  0.704607  1
  Se  Se14  1  0.704607  0.918523  0.044378  1
  Se  Se15  1  0.044378  0.704607  0.918523  1
  Se  Se16  1  0.809105  0.450904  0.594804  1
  Se  Se17  1  0.594804  0.809105  0.450904  1
  Se  Se18  1  0.450904  0.594804  0.809105  1
  Se  Se19  1  0.081477  0.955622  0.295393  1
  Se  Se20  1  0.295393  0.081477  0.955622  1
  Se  Se21  1  0.955622  0.295393  0.081477  1
