# generated using pymatgen
data_Gd10Ag3Rh
_symmetry_space_group_name_H-M   'P 1'
_cell_length_a   9.68111509
_cell_length_b   9.68511949
_cell_length_c   9.70195000
_cell_angle_alpha   90.00000000
_cell_angle_beta   90.00000000
_cell_angle_gamma   120.23655206
_symmetry_Int_Tables_number   1
_chemical_formula_structural   Gd10Ag3Rh
_chemical_formula_sum   'Gd20 Ag6 Rh2'
_cell_volume   785.92278351
_cell_formula_units_Z   2
loop_
 _symmetry_equiv_pos_site_id
 _symmetry_equiv_pos_as_xyz
  1  'x, y, z'
loop_
 _atom_site_type_symbol
 _atom_site_label
 _atom_site_symmetry_multiplicity
 _atom_site_fract_x
 _atom_site_fract_y
 _atom_site_fract_z
 _atom_site_occupancy
  Gd  Gd0  1  0.207948  0.791805  0.942085  1
  Gd  Gd1  1  0.207896  0.415778  0.941351  1
  Gd  Gd2  1  0.584250  0.791933  0.941320  1
  Gd  Gd3  1  0.792052  0.208195  0.057915  1
  Gd  Gd4  1  0.792104  0.584222  0.058649  1
  Gd  Gd5  1  0.415750  0.208067  0.058680  1
  Gd  Gd6  1  0.792052  0.208195  0.442085  1
  Gd  Gd7  1  0.792104  0.584222  0.441351  1
  Gd  Gd8  1  0.415750  0.208067  0.441320  1
  Gd  Gd9  1  0.207948  0.791805  0.557915  1
  Gd  Gd10  1  0.207896  0.415778  0.558649  1
  Gd  Gd11  1  0.584250  0.791933  0.558680  1
  Gd  Gd12  1  0.542597  0.457431  0.750000  1
  Gd  Gd13  1  0.542235  0.085157  0.750000  1
  Gd  Gd14  1  0.914853  0.457827  0.750000  1
  Gd  Gd15  1  0.457403  0.542569  0.250000  1
  Gd  Gd16  1  0.457765  0.914843  0.250000  1
  Gd  Gd17  1  0.085147  0.542173  0.250000  1
  Gd  Gd18  1  0.000000  0.000000  0.000000  1
  Gd  Gd19  1  0.000000  0.000000  0.500000  1
  Ag  Ag20  1  0.883186  0.116699  0.750000  1
  Ag  Ag21  1  0.882775  0.766277  0.750000  1
  Ag  Ag22  1  0.233839  0.117205  0.750000  1
  Ag  Ag23  1  0.116814  0.883301  0.250000  1
  Ag  Ag24  1  0.117225  0.233723  0.250000  1
  Ag  Ag25  1  0.766161  0.882795  0.250000  1
  Rh  Rh26  1  0.333354  0.666462  0.750000  1
  Rh  Rh27  1  0.666646  0.333538  0.250000  1
