# generated using pymatgen
data_Ba2Zn2I
_symmetry_space_group_name_H-M   'P 1'
_cell_length_a   4.68869600
_cell_length_b   4.68869663
_cell_length_c   19.15307300
_cell_angle_alpha   90.00000000
_cell_angle_beta   90.00000000
_cell_angle_gamma   120.00000965
_symmetry_Int_Tables_number   1
_chemical_formula_structural   Ba2Zn2I
_chemical_formula_sum   'Ba4 Zn4 I2'
_cell_volume   364.64751881
_cell_formula_units_Z   2
loop_
 _symmetry_equiv_pos_site_id
 _symmetry_equiv_pos_as_xyz
  1  'x, y, z'
loop_
 _atom_site_type_symbol
 _atom_site_label
 _atom_site_symmetry_multiplicity
 _atom_site_fract_x
 _atom_site_fract_y
 _atom_site_fract_z
 _atom_site_occupancy
  Ba  Ba0  1  0.000000  0.000000  0.113391  1
  Ba  Ba1  1  0.000000  0.000000  0.886609  1
  Ba  Ba2  1  0.000000  0.000000  0.613391  1
  Ba  Ba3  1  0.000000  0.000000  0.386609  1
  Zn  Zn4  1  0.333333  0.666667  0.500328  1
  Zn  Zn5  1  0.666667  0.333333  0.499672  1
  Zn  Zn6  1  0.666667  0.333333  0.000328  1
  Zn  Zn7  1  0.333333  0.666667  0.999672  1
  I  I8  1  0.333333  0.666667  0.250000  1
  I  I9  1  0.666667  0.333333  0.750000  1
