# generated using pymatgen
data_Tb2GaCoIr
_symmetry_space_group_name_H-M   'P 1'
_cell_length_a   4.14011865
_cell_length_b   5.46512460
_cell_length_c   5.46512548
_cell_angle_alpha   61.71156624
_cell_angle_beta   67.74211296
_cell_angle_gamma   67.74210922
_symmetry_Int_Tables_number   1
_chemical_formula_structural   Tb2GaCoIr
_chemical_formula_sum   'Tb2 Ga1 Co1 Ir1'
_cell_volume   97.71524137
_cell_formula_units_Z   1
loop_
 _symmetry_equiv_pos_site_id
 _symmetry_equiv_pos_as_xyz
  1  'x, y, z'
loop_
 _atom_site_type_symbol
 _atom_site_label
 _atom_site_symmetry_multiplicity
 _atom_site_fract_x
 _atom_site_fract_y
 _atom_site_fract_z
 _atom_site_occupancy
  Tb  Tb0  1  0.204669  0.293153  0.297509  1
  Tb  Tb1  1  0.795331  0.702491  0.706847  1
  Ga  Ga2  1  0.000000  0.984603  0.015397  1
  Co  Co3  1  0.500000  0.734790  0.265210  1
  Ir  Ir4  1  0.500000  0.284962  0.715038  1
