# generated using pymatgen
data_Tb3NdTh4(ReC2)4
_symmetry_space_group_name_H-M   'P 1'
_cell_length_a   5.32286600
_cell_length_b   6.66638427
_cell_length_c   9.94375933
_cell_angle_alpha   90.23017205
_cell_angle_beta   90.00000000
_cell_angle_gamma   90.00000000
_symmetry_Int_Tables_number   1
_chemical_formula_structural   Tb3NdTh4(ReC2)4
_chemical_formula_sum   'Tb3 Nd1 Th4 Re4 C8'
_cell_volume   352.84419531
_cell_formula_units_Z   1
loop_
 _symmetry_equiv_pos_site_id
 _symmetry_equiv_pos_as_xyz
  1  'x, y, z'
loop_
 _atom_site_type_symbol
 _atom_site_label
 _atom_site_symmetry_multiplicity
 _atom_site_fract_x
 _atom_site_fract_y
 _atom_site_fract_z
 _atom_site_occupancy
  Tb  Tb0  1  0.250000  0.818332  0.050816  1
  Tb  Tb1  1  0.750000  0.680602  0.549780  1
  Tb  Tb2  1  0.250000  0.320433  0.449603  1
  Nd  Nd3  1  0.750000  0.187489  0.952776  1
  Th  Th4  1  0.250000  0.474965  0.781249  1
  Th  Th5  1  0.750000  0.025011  0.284909  1
  Th  Th6  1  0.250000  0.974387  0.716777  1
  Th  Th7  1  0.750000  0.525536  0.218384  1
  Re  Re8  1  0.250000  0.269640  0.138853  1
  Re  Re9  1  0.750000  0.229777  0.635774  1
  Re  Re10  1  0.250000  0.770017  0.363362  1
  Re  Re11  1  0.750000  0.729873  0.861843  1
  C  C12  1  0.250000  0.673356  0.551389  1
  C  C13  1  0.750000  0.819155  0.051517  1
  C  C14  1  0.250000  0.174586  0.950017  1
  C  C15  1  0.750000  0.326169  0.448140  1
  C  C16  1  0.250000  0.036111  0.261070  1
  C  C17  1  0.750000  0.465964  0.756727  1
  C  C18  1  0.250000  0.536881  0.240007  1
  C  C19  1  0.750000  0.961719  0.737008  1
