# generated using pymatgen
data_Zr5Co16Mo(P6Ru)2
_symmetry_space_group_name_H-M   'P 1'
_cell_length_a   11.87669479
_cell_length_b   11.88421057
_cell_length_c   3.65616000
_cell_angle_alpha   90.00000000
_cell_angle_beta   90.00000000
_cell_angle_gamma   120.02092996
_symmetry_Int_Tables_number   1
_chemical_formula_structural   Zr5Co16Mo(P6Ru)2
_chemical_formula_sum   'Zr5 Co16 Mo1 P12 Ru2'
_cell_volume   446.81745020
_cell_formula_units_Z   1
loop_
 _symmetry_equiv_pos_site_id
 _symmetry_equiv_pos_as_xyz
  1  'x, y, z'
loop_
 _atom_site_type_symbol
 _atom_site_label
 _atom_site_symmetry_multiplicity
 _atom_site_fract_x
 _atom_site_fract_y
 _atom_site_fract_z
 _atom_site_occupancy
  Zr  Zr0  1  0.667284  0.333747  0.000000  1
  Zr  Zr1  1  0.332716  0.666464  0.000000  1
  Zr  Zr2  1  0.820275  0.819125  0.500000  1
  Zr  Zr3  1  0.179725  0.998850  0.500000  1
  Zr  Zr4  1  0.000000  0.179857  0.500000  1
  Co  Co5  1  0.195342  0.373958  0.000000  1
  Co  Co6  1  0.179871  0.806229  0.000000  1
  Co  Co7  1  0.820129  0.626358  0.000000  1
  Co  Co8  1  0.804658  0.178616  0.000000  1
  Co  Co9  1  0.374722  0.194802  0.000000  1
  Co  Co10  1  0.128341  0.483012  0.500000  1
  Co  Co11  1  0.355909  0.871504  0.500000  1
  Co  Co12  1  0.516098  0.644386  0.500000  1
  Co  Co13  1  0.644091  0.515594  0.500000  1
  Co  Co14  1  0.871659  0.354671  0.500000  1
  Co  Co15  1  0.483902  0.128287  0.500000  1
  Co  Co16  1  0.000000  0.000826  0.000000  1
  Co  Co17  1  0.717720  0.999773  0.500000  1
  Co  Co18  1  0.000000  0.720264  0.500000  1
  Co  Co19  1  0.625278  0.820080  0.000000  1
  Co  Co20  1  0.282280  0.282053  0.500000  1
  Mo  Mo21  1  0.000000  0.552473  0.000000  1
  P  P22  1  0.641424  0.642120  0.000000  1
  P  P23  1  0.358576  0.000696  0.000000  1
  P  P24  1  0.000000  0.357081  0.000000  1
  P  P25  1  0.481077  0.314281  0.500000  1
  P  P26  1  0.685533  0.166333  0.500000  1
  P  P27  1  0.832330  0.518456  0.500000  1
  P  P28  1  0.518923  0.833204  0.500000  1
  P  P29  1  0.167670  0.686125  0.500000  1
  P  P30  1  0.822698  0.999651  0.000000  1
  P  P31  1  0.000000  0.824006  0.000000  1
  P  P32  1  0.314467  0.480800  0.500000  1
  P  P33  1  0.177302  0.176953  0.000000  1
  Ru  Ru34  1  0.449048  0.449207  0.000000  1
  Ru  Ru35  1  0.550952  0.000159  0.000000  1
