# generated using pymatgen
data_Dy2Al(ZnPt2)2
_symmetry_space_group_name_H-M   'P 1'
_cell_length_a   8.07737748
_cell_length_b   8.07737834
_cell_length_c   7.65154500
_cell_angle_alpha   90.00000000
_cell_angle_beta   90.00000000
_cell_angle_gamma   139.48161149
_symmetry_Int_Tables_number   1
_chemical_formula_structural   Dy2Al(ZnPt2)2
_chemical_formula_sum   'Dy4 Al2 Zn4 Pt8'
_cell_volume   324.33775056
_cell_formula_units_Z   2
loop_
 _symmetry_equiv_pos_site_id
 _symmetry_equiv_pos_as_xyz
  1  'x, y, z'
loop_
 _atom_site_type_symbol
 _atom_site_label
 _atom_site_symmetry_multiplicity
 _atom_site_fract_x
 _atom_site_fract_y
 _atom_site_fract_z
 _atom_site_occupancy
  Dy  Dy0  1  0.610898  0.389102  0.907509  1
  Dy  Dy1  1  0.389102  0.610898  0.092491  1
  Dy  Dy2  1  0.889102  0.110898  0.407509  1
  Dy  Dy3  1  0.110898  0.889102  0.592491  1
  Al  Al4  1  0.500000  0.500000  0.500000  1
  Al  Al5  1  0.000000  0.000000  0.000000  1
  Zn  Zn6  1  0.522912  0.977088  0.750000  1
  Zn  Zn7  1  0.977088  0.522912  0.250000  1
  Zn  Zn8  1  0.477088  0.022912  0.250000  1
  Zn  Zn9  1  0.022912  0.477088  0.750000  1
  Pt  Pt10  1  0.695312  0.804688  0.750000  1
  Pt  Pt11  1  0.804688  0.695312  0.250000  1
  Pt  Pt12  1  0.304688  0.195312  0.250000  1
  Pt  Pt13  1  0.195312  0.304688  0.750000  1
  Pt  Pt14  1  0.675628  0.324372  0.527426  1
  Pt  Pt15  1  0.324372  0.675628  0.472574  1
  Pt  Pt16  1  0.824372  0.175628  0.027426  1
  Pt  Pt17  1  0.175628  0.824372  0.972574  1
