# generated using pymatgen
data_K4Th6PI18
_symmetry_space_group_name_H-M   'P 1'
_cell_length_a   11.48755709
_cell_length_b   11.58169147
_cell_length_c   11.67590000
_cell_angle_alpha   118.60859084
_cell_angle_beta   100.31659918
_cell_angle_gamma   103.54648463
_symmetry_Int_Tables_number   1
_chemical_formula_structural   K4Th6PI18
_chemical_formula_sum   'K4 Th6 P1 I18'
_cell_volume   1246.24745133
_cell_formula_units_Z   1
loop_
 _symmetry_equiv_pos_site_id
 _symmetry_equiv_pos_as_xyz
  1  'x, y, z'
loop_
 _atom_site_type_symbol
 _atom_site_label
 _atom_site_symmetry_multiplicity
 _atom_site_fract_x
 _atom_site_fract_y
 _atom_site_fract_z
 _atom_site_occupancy
  K  K0  1  0.646649  0.537392  0.226328  1
  K  K1  1  0.353351  0.462608  0.773672  1
  K  K2  1  0.683565  0.226648  0.566700  1
  K  K3  1  0.316435  0.773352  0.433300  1
  Th  Th4  1  0.160197  0.060626  0.244832  1
  Th  Th5  1  0.839803  0.939374  0.755168  1
  Th  Th6  1  0.856523  0.136421  0.143870  1
  Th  Th7  1  0.143477  0.863579  0.856130  1
  Th  Th8  1  0.152643  0.252198  0.046613  1
  Th  Th9  1  0.847357  0.747802  0.953387  1
  P  P10  1  0.000000  0.000000  0.000000  1
  I  I11  1  0.011555  0.439753  0.214851  1
  I  I12  1  0.988445  0.560247  0.785149  1
  I  I13  1  0.349595  0.357263  0.332869  1
  I  I14  1  0.650405  0.642737  0.667131  1
  I  I15  1  0.337636  0.543651  0.101439  1
  I  I16  1  0.662364  0.456349  0.898561  1
  I  I17  1  0.006878  0.784261  0.225193  1
  I  I18  1  0.993122  0.215739  0.774807  1
  I  I19  1  0.694219  0.296354  0.309253  1
  I  I20  1  0.305781  0.703646  0.690747  1
  I  I21  1  0.333616  0.132787  0.891911  1
  I  I22  1  0.666384  0.867213  0.108089  1
  I  I23  1  0.020614  0.223310  0.440411  1
  I  I24  1  0.979386  0.776690  0.559589  1
  I  I25  1  0.339580  0.914099  0.115213  1
  I  I26  1  0.660420  0.085901  0.884787  1
  I  I27  1  0.350874  0.124333  0.525950  1
  I  I28  1  0.649126  0.875667  0.474050  1
