# generated using pymatgen
data_Pr2SmSn6Ir
_symmetry_space_group_name_H-M   'P 1'
_cell_length_a   8.74332700
_cell_length_b   8.74332740
_cell_length_c   13.44727800
_cell_angle_alpha   90.00000000
_cell_angle_beta   90.00000000
_cell_angle_gamma   148.58153998
_symmetry_Int_Tables_number   1
_chemical_formula_structural   Pr2SmSn6Ir
_chemical_formula_sum   'Pr4 Sm2 Sn12 Ir2'
_cell_volume   535.87407609
_cell_formula_units_Z   2
loop_
 _symmetry_equiv_pos_site_id
 _symmetry_equiv_pos_as_xyz
  1  'x, y, z'
loop_
 _atom_site_type_symbol
 _atom_site_label
 _atom_site_symmetry_multiplicity
 _atom_site_fract_x
 _atom_site_fract_y
 _atom_site_fract_z
 _atom_site_occupancy
  Pr  Pr0  1  0.399671  0.600329  0.404995  1
  Pr  Pr1  1  0.600329  0.399671  0.595005  1
  Pr  Pr2  1  0.399671  0.600329  0.095005  1
  Pr  Pr3  1  0.600329  0.399671  0.904995  1
  Sm  Sm4  1  0.602507  0.397493  0.250000  1
  Sm  Sm5  1  0.397493  0.602507  0.750000  1
  Sn  Sn6  1  0.926735  0.073265  0.923040  1
  Sn  Sn7  1  0.073265  0.926735  0.076960  1
  Sn  Sn8  1  0.926735  0.073265  0.576960  1
  Sn  Sn9  1  0.073265  0.926735  0.423040  1
  Sn  Sn10  1  0.960553  0.039447  0.250000  1
  Sn  Sn11  1  0.039447  0.960553  0.750000  1
  Sn  Sn12  1  0.744558  0.255443  0.433485  1
  Sn  Sn13  1  0.255443  0.744557  0.566515  1
  Sn  Sn14  1  0.744558  0.255443  0.066515  1
  Sn  Sn15  1  0.255443  0.744557  0.933485  1
  Sn  Sn16  1  0.231537  0.768463  0.250000  1
  Sn  Sn17  1  0.768463  0.231537  0.750000  1
  Ir  Ir18  1  0.802239  0.197761  0.250000  1
  Ir  Ir19  1  0.197761  0.802239  0.750000  1
