# generated using pymatgen
data_Ho9Tm11(Bi2Rh)4
_symmetry_space_group_name_H-M   'P 1'
_cell_length_a   7.92841371
_cell_length_b   8.97554000
_cell_length_c   12.40247311
_cell_angle_alpha   90.00000000
_cell_angle_beta   89.95152226
_cell_angle_gamma   90.00000000
_symmetry_Int_Tables_number   1
_chemical_formula_structural   Ho9Tm11(Bi2Rh)4
_chemical_formula_sum   'Ho9 Tm11 Bi8 Rh4'
_cell_volume   882.58192541
_cell_formula_units_Z   1
loop_
 _symmetry_equiv_pos_site_id
 _symmetry_equiv_pos_as_xyz
  1  'x, y, z'
loop_
 _atom_site_type_symbol
 _atom_site_label
 _atom_site_symmetry_multiplicity
 _atom_site_fract_x
 _atom_site_fract_y
 _atom_site_fract_z
 _atom_site_occupancy
  Ho  Ho0  1  0.659793  0.750000  0.293450  1
  Ho  Ho1  1  0.375174  0.750000  0.690333  1
  Ho  Ho2  1  0.624912  0.250000  0.309595  1
  Ho  Ho3  1  0.875021  0.250000  0.809575  1
  Ho  Ho4  1  0.125230  0.750000  0.190431  1
  Ho  Ho5  1  0.952115  0.750000  0.501907  1
  Ho  Ho6  1  0.048465  0.250000  0.498362  1
  Ho  Ho7  1  0.451544  0.250000  0.998339  1
  Ho  Ho8  1  0.548358  0.750000  0.001463  1
  Tm  Tm9  1  0.840537  0.750000  0.794135  1
  Tm  Tm10  1  0.159566  0.250000  0.205840  1
  Tm  Tm11  1  0.340391  0.250000  0.705824  1
  Tm  Tm12  1  0.675231  0.042665  0.566278  1
  Tm  Tm13  1  0.324548  0.957774  0.433948  1
  Tm  Tm14  1  0.175147  0.957619  0.933769  1
  Tm  Tm15  1  0.324548  0.542226  0.433948  1
  Tm  Tm16  1  0.824881  0.042641  0.066136  1
  Tm  Tm17  1  0.675231  0.457335  0.566278  1
  Tm  Tm18  1  0.824881  0.457359  0.066136  1
  Tm  Tm19  1  0.175147  0.542381  0.933769  1
  Bi  Bi20  1  0.566526  0.491737  0.825731  1
  Bi  Bi21  1  0.433011  0.507787  0.174007  1
  Bi  Bi22  1  0.066462  0.508239  0.674238  1
  Bi  Bi23  1  0.433011  0.992213  0.174007  1
  Bi  Bi24  1  0.933938  0.491363  0.325854  1
  Bi  Bi25  1  0.566526  0.008263  0.825731  1
  Bi  Bi26  1  0.933938  0.008637  0.325854  1
  Bi  Bi27  1  0.066462  0.991761  0.674238  1
  Rh  Rh28  1  0.572044  0.750000  0.509108  1
  Rh  Rh29  1  0.427439  0.250000  0.491761  1
  Rh  Rh30  1  0.072421  0.250000  0.991696  1
  Rh  Rh31  1  0.927505  0.750000  0.008258  1
