# generated using pymatgen
data_TbZr4Sc3Ir4
_symmetry_space_group_name_H-M   'P 1'
_cell_length_a   6.86121472
_cell_length_b   4.58073800
_cell_length_c   8.14799000
_cell_angle_alpha   90.00000000
_cell_angle_beta   90.29947330
_cell_angle_gamma   90.00000000
_symmetry_Int_Tables_number   1
_chemical_formula_structural   TbZr4Sc3Ir4
_chemical_formula_sum   'Tb1 Zr4 Sc3 Ir4'
_cell_volume   256.08315887
_cell_formula_units_Z   1
loop_
 _symmetry_equiv_pos_site_id
 _symmetry_equiv_pos_as_xyz
  1  'x, y, z'
loop_
 _atom_site_type_symbol
 _atom_site_label
 _atom_site_symmetry_multiplicity
 _atom_site_fract_x
 _atom_site_fract_y
 _atom_site_fract_z
 _atom_site_occupancy
  Tb  Tb0  1  0.511995  0.750000  0.680138  1
  Zr  Zr1  1  0.860918  0.250000  0.579821  1
  Zr  Zr2  1  0.347272  0.250000  0.924505  1
  Zr  Zr3  1  0.148358  0.750000  0.414181  1
  Zr  Zr4  1  0.645586  0.750000  0.085382  1
  Sc  Sc5  1  0.986798  0.250000  0.171333  1
  Sc  Sc6  1  0.489028  0.250000  0.322297  1
  Sc  Sc7  1  0.006893  0.750000  0.830558  1
  Ir  Ir8  1  0.743029  0.250000  0.914963  1
  Ir  Ir9  1  0.245686  0.250000  0.581138  1
  Ir  Ir10  1  0.252700  0.750000  0.085648  1
  Ir  Ir11  1  0.761739  0.750000  0.410035  1
