# generated using pymatgen
data_CaSm6CoSn23Ir5
_symmetry_space_group_name_H-M   'P 1'
_cell_length_a   9.89671300
_cell_length_b   9.87666460
_cell_length_c   10.08848600
_cell_angle_alpha   90.13835120
_cell_angle_beta   90.00000000
_cell_angle_gamma   120.06718054
_symmetry_Int_Tables_number   1
_chemical_formula_structural   CaSm6CoSn23Ir5
_chemical_formula_sum   'Ca1 Sm6 Co1 Sn23 Ir5'
_cell_volume   853.41804729
_cell_formula_units_Z   1
loop_
 _symmetry_equiv_pos_site_id
 _symmetry_equiv_pos_as_xyz
  1  'x, y, z'
loop_
 _atom_site_type_symbol
 _atom_site_label
 _atom_site_symmetry_multiplicity
 _atom_site_fract_x
 _atom_site_fract_y
 _atom_site_fract_z
 _atom_site_occupancy
  Ca  Ca0  1  0.002947  0.005895  0.996825  1
  Sm  Sm1  1  0.040053  0.520101  0.306663  1
  Sm  Sm2  1  0.479096  0.958191  0.305938  1
  Sm  Sm3  1  0.480048  0.520101  0.306663  1
  Sm  Sm4  1  0.959544  0.479756  0.693851  1
  Sm  Sm5  1  0.519955  0.039910  0.694492  1
  Sm  Sm6  1  0.520211  0.479756  0.693851  1
  Co  Co7  1  0.830130  0.660261  0.200588  1
  Sn  Sn8  1  0.999563  0.999125  0.498973  1
  Sn  Sn9  1  0.109308  0.878676  0.275423  1
  Sn  Sn10  1  0.769365  0.878676  0.275423  1
  Sn  Sn11  1  0.115552  0.231104  0.283577  1
  Sn  Sn12  1  0.882794  0.115127  0.717786  1
  Sn  Sn13  1  0.232334  0.115127  0.717786  1
  Sn  Sn14  1  0.883769  0.767537  0.717547  1
  Sn  Sn15  1  0.351270  0.999771  0.000308  1
  Sn  Sn16  1  0.656478  0.649515  0.004323  1
  Sn  Sn17  1  0.001279  0.354918  0.001330  1
  Sn  Sn18  1  0.353641  0.354918  0.001330  1
  Sn  Sn19  1  0.993036  0.649515  0.004323  1
  Sn  Sn20  1  0.648500  0.999771  0.000308  1
  Sn  Sn21  1  0.782623  0.565244  0.453814  1
  Sn  Sn22  1  0.779162  0.219345  0.459156  1
  Sn  Sn23  1  0.440183  0.219345  0.459156  1
  Sn  Sn24  1  0.220370  0.440741  0.540341  1
  Sn  Sn25  1  0.219843  0.781022  0.540736  1
  Sn  Sn26  1  0.561179  0.781022  0.540736  1
  Sn  Sn27  1  0.669021  0.338042  0.177840  1
  Sn  Sn28  1  0.333143  0.666287  0.825675  1
  Sn  Sn29  1  0.667504  0.335007  0.888067  1
  Sn  Sn30  1  0.331792  0.663586  0.113785  1
  Ir  Ir31  1  0.168015  0.827913  0.800804  1
  Ir  Ir32  1  0.659898  0.827913  0.800804  1
  Ir  Ir33  1  0.169501  0.339002  0.799477  1
  Ir  Ir34  1  0.830026  0.168891  0.201150  1
  Ir  Ir35  1  0.338865  0.168891  0.201150  1
