# generated using pymatgen
data_Ta12AlSi7(RuC)4
_symmetry_space_group_name_H-M   'P 1'
_cell_length_a   8.19874835
_cell_length_b   8.19874860
_cell_length_c   8.19874830
_cell_angle_alpha   60.03676704
_cell_angle_beta   60.03676514
_cell_angle_gamma   60.03676518
_symmetry_Int_Tables_number   1
_chemical_formula_structural   Ta12AlSi7(RuC)4
_chemical_formula_sum   'Ta12 Al1 Si7 Ru4 C4'
_cell_volume   390.02232197
_cell_formula_units_Z   1
loop_
 _symmetry_equiv_pos_site_id
 _symmetry_equiv_pos_as_xyz
  1  'x, y, z'
loop_
 _atom_site_type_symbol
 _atom_site_label
 _atom_site_symmetry_multiplicity
 _atom_site_fract_x
 _atom_site_fract_y
 _atom_site_fract_z
 _atom_site_occupancy
  Ta  Ta0  1  0.563436  0.937306  0.563436  1
  Ta  Ta1  1  0.312584  0.686374  0.686374  1
  Ta  Ta2  1  0.692936  0.311460  0.311460  1
  Ta  Ta3  1  0.311460  0.692936  0.311460  1
  Ta  Ta4  1  0.686374  0.686374  0.312584  1
  Ta  Ta5  1  0.311460  0.311460  0.692936  1
  Ta  Ta6  1  0.563436  0.563436  0.937306  1
  Ta  Ta7  1  0.937306  0.563436  0.563436  1
  Ta  Ta8  1  0.560258  0.937682  0.937682  1
  Ta  Ta9  1  0.937682  0.937682  0.560258  1
  Ta  Ta10  1  0.686374  0.312584  0.686374  1
  Ta  Ta11  1  0.937682  0.560258  0.937682  1
  Al  Al12  1  0.333409  0.333409  0.333409  1
  Si  Si13  1  0.913167  0.913167  0.913167  1
  Si  Si14  1  0.994729  0.337011  0.337011  1
  Si  Si15  1  0.337011  0.994729  0.337011  1
  Si  Si16  1  0.337011  0.337011  0.994729  1
  Si  Si17  1  0.914360  0.256825  0.914360  1
  Si  Si18  1  0.914360  0.914360  0.256825  1
  Si  Si19  1  0.256825  0.914360  0.914360  1
  Ru  Ru20  1  0.125837  0.125837  0.125837  1
  Ru  Ru21  1  0.632236  0.120248  0.120248  1
  Ru  Ru22  1  0.120248  0.632236  0.120248  1
  Ru  Ru23  1  0.120248  0.120248  0.632236  1
  C  C24  1  0.624734  0.624734  0.624734  1
  C  C25  1  0.125553  0.624642  0.624642  1
  C  C26  1  0.624642  0.125553  0.624642  1
  C  C27  1  0.624642  0.624642  0.125553  1
