# generated using pymatgen
data_SmY(Lu4Bi3)2
_symmetry_space_group_name_H-M   'P 1'
_cell_length_a   8.19055800
_cell_length_b   9.39710200
_cell_length_c   11.88520000
_cell_angle_alpha   90.00000000
_cell_angle_beta   90.00000000
_cell_angle_gamma   90.00000000
_symmetry_Int_Tables_number   1
_chemical_formula_structural   SmY(Lu4Bi3)2
_chemical_formula_sum   'Sm2 Y2 Lu16 Bi12'
_cell_volume   914.77423753
_cell_formula_units_Z   2
loop_
 _symmetry_equiv_pos_site_id
 _symmetry_equiv_pos_as_xyz
  1  'x, y, z'
loop_
 _atom_site_type_symbol
 _atom_site_label
 _atom_site_symmetry_multiplicity
 _atom_site_fract_x
 _atom_site_fract_y
 _atom_site_fract_z
 _atom_site_occupancy
  Sm  Sm0  1  0.315252  0.250000  0.218421  1
  Sm  Sm1  1  0.815252  0.250000  0.281579  1
  Y  Y2  1  0.685823  0.750000  0.782759  1
  Y  Y3  1  0.185823  0.750000  0.717241  1
  Lu  Lu4  1  0.353018  0.750000  0.218474  1
  Lu  Lu5  1  0.853018  0.750000  0.281526  1
  Lu  Lu6  1  0.646732  0.250000  0.780935  1
  Lu  Lu7  1  0.146732  0.250000  0.719065  1
  Lu  Lu8  1  0.691729  0.567522  0.060381  1
  Lu  Lu9  1  0.191729  0.932478  0.439619  1
  Lu  Lu10  1  0.307969  0.067400  0.939060  1
  Lu  Lu11  1  0.807969  0.432600  0.560940  1
  Lu  Lu12  1  0.307969  0.432600  0.939060  1
  Lu  Lu13  1  0.807969  0.067400  0.560940  1
  Lu  Lu14  1  0.691729  0.932478  0.060381  1
  Lu  Lu15  1  0.191729  0.567522  0.439619  1
  Lu  Lu16  1  0.477376  0.250000  0.490368  1
  Lu  Lu17  1  0.977376  0.250000  0.009632  1
  Lu  Lu18  1  0.522557  0.750000  0.510815  1
  Lu  Lu19  1  0.022557  0.750000  0.989185  1
  Bi  Bi20  1  0.402290  0.750000  0.959467  1
  Bi  Bi21  1  0.902290  0.750000  0.540533  1
  Bi  Bi22  1  0.598381  0.250000  0.038062  1
  Bi  Bi23  1  0.098381  0.250000  0.461938  1
  Bi  Bi24  1  0.565836  0.992364  0.327274  1
  Bi  Bi25  1  0.065836  0.507636  0.172726  1
  Bi  Bi26  1  0.433754  0.494773  0.673894  1
  Bi  Bi27  1  0.933754  0.005227  0.826106  1
  Bi  Bi28  1  0.433754  0.005227  0.673894  1
  Bi  Bi29  1  0.933754  0.494773  0.826106  1
  Bi  Bi30  1  0.565836  0.507636  0.327274  1
  Bi  Bi31  1  0.065836  0.992364  0.172726  1
