# generated using pymatgen
data_YbEuOs2I
_symmetry_space_group_name_H-M   'P 1'
_cell_length_a   4.19544000
_cell_length_b   4.19544083
_cell_length_c   17.98916700
_cell_angle_alpha   90.00000000
_cell_angle_beta   90.00000000
_cell_angle_gamma   120.00000923
_symmetry_Int_Tables_number   1
_chemical_formula_structural   YbEuOs2I
_chemical_formula_sum   'Yb2 Eu2 Os4 I2'
_cell_volume   274.21850556
_cell_formula_units_Z   2
loop_
 _symmetry_equiv_pos_site_id
 _symmetry_equiv_pos_as_xyz
  1  'x, y, z'
loop_
 _atom_site_type_symbol
 _atom_site_label
 _atom_site_symmetry_multiplicity
 _atom_site_fract_x
 _atom_site_fract_y
 _atom_site_fract_z
 _atom_site_occupancy
  Yb  Yb0  1  0.000000  0.000000  0.111747  1
  Yb  Yb1  1  0.000000  0.000000  0.888253  1
  Eu  Eu2  1  0.000000  0.000000  0.620095  1
  Eu  Eu3  1  0.000000  0.000000  0.379905  1
  Os  Os4  1  0.333333  0.666667  0.508104  1
  Os  Os5  1  0.666667  0.333333  0.491896  1
  Os  Os6  1  0.666667  0.333333  0.007203  1
  Os  Os7  1  0.333333  0.666667  0.992797  1
  I  I8  1  0.333333  0.666667  0.243463  1
  I  I9  1  0.666667  0.333333  0.756537  1
