# generated using pymatgen
data_Zr6Al16Os4Pd3
_symmetry_space_group_name_H-M   'P 1'
_cell_length_a   8.75875465
_cell_length_b   8.82740092
_cell_length_c   8.75875513
_cell_angle_alpha   59.74040640
_cell_angle_beta   60.51919942
_cell_angle_gamma   59.74040683
_symmetry_Int_Tables_number   1
_chemical_formula_structural   Zr6Al16Os4Pd3
_chemical_formula_sum   'Zr6 Al16 Os4 Pd3'
_cell_volume   478.79418102
_cell_formula_units_Z   1
loop_
 _symmetry_equiv_pos_site_id
 _symmetry_equiv_pos_as_xyz
  1  'x, y, z'
loop_
 _atom_site_type_symbol
 _atom_site_label
 _atom_site_symmetry_multiplicity
 _atom_site_fract_x
 _atom_site_fract_y
 _atom_site_fract_z
 _atom_site_occupancy
  Zr  Zr0  1  0.707757  0.707757  0.292243  1
  Zr  Zr1  1  0.328407  0.671593  0.328407  1
  Zr  Zr2  1  0.707757  0.292243  0.292243  1
  Zr  Zr3  1  0.292243  0.292243  0.707757  1
  Zr  Zr4  1  0.671593  0.328407  0.671593  1
  Zr  Zr5  1  0.292243  0.707757  0.707757  1
  Al  Al6  1  0.892731  0.871484  0.364302  1
  Al  Al7  1  0.871484  0.364302  0.871484  1
  Al  Al8  1  0.364302  0.871484  0.892731  1
  Al  Al9  1  0.871484  0.892731  0.871484  1
  Al  Al10  1  0.107269  0.128516  0.635698  1
  Al  Al11  1  0.128516  0.635698  0.128516  1
  Al  Al12  1  0.635698  0.128516  0.107269  1
  Al  Al13  1  0.128516  0.107269  0.128516  1
  Al  Al14  1  0.662556  0.661735  0.013974  1
  Al  Al15  1  0.661735  0.013974  0.661735  1
  Al  Al16  1  0.013974  0.661735  0.662556  1
  Al  Al17  1  0.661735  0.662556  0.661735  1
  Al  Al18  1  0.337444  0.338265  0.986026  1
  Al  Al19  1  0.338265  0.986026  0.338265  1
  Al  Al20  1  0.986026  0.338265  0.337444  1
  Al  Al21  1  0.338265  0.337444  0.338265  1
  Os  Os22  1  0.000000  0.000000  0.500000  1
  Os  Os23  1  0.000000  0.500000  0.500000  1
  Os  Os24  1  0.500000  0.500000  0.000000  1
  Os  Os25  1  0.500000  0.000000  0.000000  1
  Pd  Pd26  1  0.000000  0.000000  0.000000  1
  Pd  Pd27  1  0.500000  0.000000  0.500000  1
  Pd  Pd28  1  0.000000  0.500000  0.000000  1
