# generated using pymatgen
data_Ac8Si15Pd
_symmetry_space_group_name_H-M   'P 1'
_cell_length_a   8.41664600
_cell_length_b   8.41664615
_cell_length_c   9.23264100
_cell_angle_alpha   90.00000000
_cell_angle_beta   90.00000000
_cell_angle_gamma   119.99999155
_symmetry_Int_Tables_number   1
_chemical_formula_structural   Ac8Si15Pd
_chemical_formula_sum   'Ac8 Si15 Pd1'
_cell_volume   566.41500253
_cell_formula_units_Z   1
loop_
 _symmetry_equiv_pos_site_id
 _symmetry_equiv_pos_as_xyz
  1  'x, y, z'
loop_
 _atom_site_type_symbol
 _atom_site_label
 _atom_site_symmetry_multiplicity
 _atom_site_fract_x
 _atom_site_fract_y
 _atom_site_fract_z
 _atom_site_occupancy
  Ac  Ac0  1  0.499011  0.500989  0.752850  1
  Ac  Ac1  1  0.499219  0.500781  0.247122  1
  Ac  Ac2  1  0.001976  0.500989  0.752850  1
  Ac  Ac3  1  0.001562  0.500781  0.247122  1
  Ac  Ac4  1  0.499011  0.998024  0.752850  1
  Ac  Ac5  1  0.499219  0.998438  0.247122  1
  Ac  Ac6  1  0.000000  0.000000  0.751053  1
  Ac  Ac7  1  0.000000  0.000000  0.248988  1
  Si  Si8  1  0.666667  0.333333  0.999534  1
  Si  Si9  1  0.333333  0.666667  0.000404  1
  Si  Si10  1  0.333333  0.666667  0.499824  1
  Si  Si11  1  0.834248  0.165752  0.000044  1
  Si  Si12  1  0.167061  0.832939  0.999984  1
  Si  Si13  1  0.331505  0.165752  0.000044  1
  Si  Si14  1  0.164392  0.835608  0.499879  1
  Si  Si15  1  0.665878  0.832939  0.999984  1
  Si  Si16  1  0.832958  0.167042  0.500124  1
  Si  Si17  1  0.834248  0.668495  0.000044  1
  Si  Si18  1  0.671217  0.835608  0.499879  1
  Si  Si19  1  0.167061  0.334122  0.999984  1
  Si  Si20  1  0.334083  0.167042  0.500124  1
  Si  Si21  1  0.164392  0.328783  0.499879  1
  Si  Si22  1  0.832958  0.665917  0.500124  1
  Pd  Pd23  1  0.666667  0.333333  0.500191  1
