# generated using pymatgen
data_Nd2Th(SnIr)3
_symmetry_space_group_name_H-M   'P 1'
_cell_length_a   7.63092700
_cell_length_b   7.55226703
_cell_length_c   4.12012600
_cell_angle_alpha   90.00000000
_cell_angle_beta   90.00000000
_cell_angle_gamma   120.34513691
_symmetry_Int_Tables_number   1
_chemical_formula_structural   Nd2Th(SnIr)3
_chemical_formula_sum   'Nd2 Th1 Sn3 Ir3'
_cell_volume   204.91551109
_cell_formula_units_Z   1
loop_
 _symmetry_equiv_pos_site_id
 _symmetry_equiv_pos_as_xyz
  1  'x, y, z'
loop_
 _atom_site_type_symbol
 _atom_site_label
 _atom_site_symmetry_multiplicity
 _atom_site_fract_x
 _atom_site_fract_y
 _atom_site_fract_z
 _atom_site_occupancy
  Nd  Nd0  1  0.000424  0.590642  0.000000  1
  Nd  Nd1  1  0.409783  0.409358  0.000000  1
  Th  Th2  1  0.585885  0.000000  0.000000  1
  Sn  Sn3  1  0.243657  0.000000  0.500000  1
  Sn  Sn4  1  0.007828  0.259570  0.500000  1
  Sn  Sn5  1  0.748257  0.740430  0.500000  1
  Ir  Ir6  1  0.350894  0.687071  0.500000  1
  Ir  Ir7  1  0.663824  0.312929  0.500000  1
  Ir  Ir8  1  0.989447  0.000000  0.000000  1
