# generated using pymatgen
data_Ho7Th(NiAg)2
_symmetry_space_group_name_H-M   'P 1'
_cell_length_a   9.41273114
_cell_length_b   9.41273098
_cell_length_c   9.40359300
_cell_angle_alpha   60.03211246
_cell_angle_beta   60.03211305
_cell_angle_gamma   60.08968073
_symmetry_Int_Tables_number   1
_chemical_formula_structural   Ho7Th(NiAg)2
_chemical_formula_sum   'Ho14 Th2 Ni4 Ag4'
_cell_volume   589.81325133
_cell_formula_units_Z   2
loop_
 _symmetry_equiv_pos_site_id
 _symmetry_equiv_pos_as_xyz
  1  'x, y, z'
loop_
 _atom_site_type_symbol
 _atom_site_label
 _atom_site_symmetry_multiplicity
 _atom_site_fract_x
 _atom_site_fract_y
 _atom_site_fract_z
 _atom_site_occupancy
  Ho  Ho0  1  0.353434  0.943798  0.351384  1
  Ho  Ho1  1  0.943798  0.353434  0.351384  1
  Ho  Ho2  1  0.811027  0.190369  0.188680  1
  Ho  Ho3  1  0.190369  0.811027  0.809922  1
  Ho  Ho4  1  0.190369  0.811027  0.188680  1
  Ho  Ho5  1  0.811027  0.190369  0.809922  1
  Ho  Ho6  1  0.184603  0.184603  0.815397  1
  Ho  Ho7  1  0.811230  0.811230  0.188770  1
  Ho  Ho8  1  0.934809  0.566799  0.565310  1
  Ho  Ho9  1  0.566799  0.934809  0.933082  1
  Ho  Ho10  1  0.566799  0.934809  0.565310  1
  Ho  Ho11  1  0.934809  0.566799  0.933082  1
  Ho  Ho12  1  0.564875  0.564875  0.935125  1
  Ho  Ho13  1  0.937516  0.937516  0.562484  1
  Th  Th14  1  0.346611  0.346611  0.354492  1
  Th  Th15  1  0.346611  0.346611  0.952284  1
  Ni  Ni16  1  0.142301  0.142301  0.144957  1
  Ni  Ni17  1  0.142301  0.142301  0.570440  1
  Ni  Ni18  1  0.146049  0.569352  0.142299  1
  Ni  Ni19  1  0.569352  0.146049  0.142299  1
  Ag  Ag20  1  0.584024  0.584024  0.579228  1
  Ag  Ag21  1  0.584024  0.584024  0.252725  1
  Ag  Ag22  1  0.587821  0.249441  0.581369  1
  Ag  Ag23  1  0.249441  0.587821  0.581369  1
