# generated using pymatgen
data_Tb5TcP12Ru17Pt
_symmetry_space_group_name_H-M   'P 1'
_cell_length_a   3.99337100
_cell_length_b   12.49357351
_cell_length_c   12.61004033
_cell_angle_alpha   119.81455540
_cell_angle_beta   90.00000000
_cell_angle_gamma   90.00000000
_symmetry_Int_Tables_number   1
_chemical_formula_structural   Tb5TcP12Ru17Pt
_chemical_formula_sum   'Tb5 Tc1 P12 Ru17 Pt1'
_cell_volume   545.86087134
_cell_formula_units_Z   1
loop_
 _symmetry_equiv_pos_site_id
 _symmetry_equiv_pos_as_xyz
  1  'x, y, z'
loop_
 _atom_site_type_symbol
 _atom_site_label
 _atom_site_symmetry_multiplicity
 _atom_site_fract_x
 _atom_site_fract_y
 _atom_site_fract_z
 _atom_site_occupancy
  Tb  Tb0  1  0.500000  0.999263  0.184546  1
  Tb  Tb1  1  0.500000  0.183360  0.001406  1
  Tb  Tb2  1  0.500000  0.814996  0.816868  1
  Tb  Tb3  1  0.000000  0.329053  0.661279  1
  Tb  Tb4  1  0.000000  0.669530  0.338859  1
  Tc  Tc5  1  0.000000  0.002235  0.557449  1
  P  P6  1  0.000000  0.001291  0.817485  1
  P  P7  1  0.000000  0.811861  0.999532  1
  P  P8  1  0.000000  0.184754  0.183479  1
  P  P9  1  0.500000  0.305590  0.474012  1
  P  P10  1  0.500000  0.170105  0.691380  1
  P  P11  1  0.500000  0.518580  0.817716  1
  P  P12  1  0.500000  0.833796  0.526305  1
  P  P13  1  0.500000  0.480642  0.307071  1
  P  P14  1  0.500000  0.700941  0.180388  1
  P  P15  1  0.000000  0.000466  0.373700  1
  P  P16  1  0.000000  0.365040  0.000333  1
  P  P17  1  0.000000  0.626614  0.626418  1
  Ru  Ru18  1  0.000000  0.446576  0.443863  1
  Ru  Ru19  1  0.500000  0.002044  0.721055  1
  Ru  Ru20  1  0.500000  0.709826  0.998881  1
  Ru  Ru21  1  0.500000  0.284419  0.281618  1
  Ru  Ru22  1  0.000000  0.191947  0.374240  1
  Ru  Ru23  1  0.000000  0.186460  0.807950  1
  Ru  Ru24  1  0.000000  0.619984  0.814345  1
  Ru  Ru25  1  0.000000  0.816921  0.625596  1
  Ru  Ru26  1  0.000000  0.379890  0.193080  1
  Ru  Ru27  1  0.000000  0.805570  0.184005  1
  Ru  Ru28  1  0.500000  0.127372  0.491614  1
  Ru  Ru29  1  0.500000  0.366601  0.872215  1
  Ru  Ru30  1  0.500000  0.508113  0.629605  1
  Ru  Ru31  1  0.500000  0.636151  0.508530  1
  Ru  Ru32  1  0.500000  0.494492  0.126436  1
  Ru  Ru33  1  0.500000  0.877302  0.368926  1
  Ru  Ru34  1  0.000000  0.997766  0.000254  1
  Pt  Pt35  1  0.000000  0.550349  0.999561  1
