# generated using pymatgen
data_TmLuRu2F14
_symmetry_space_group_name_H-M   'P 1'
_cell_length_a   5.46957805
_cell_length_b   8.77550622
_cell_length_c   11.83285922
_cell_angle_alpha   63.33189268
_cell_angle_beta   89.98478286
_cell_angle_gamma   89.99015170
_symmetry_Int_Tables_number   1
_chemical_formula_structural   TmLuRu2F14
_chemical_formula_sum   'Tm2 Lu2 Ru4 F28'
_cell_volume   507.53876976
_cell_formula_units_Z   2
loop_
 _symmetry_equiv_pos_site_id
 _symmetry_equiv_pos_as_xyz
  1  'x, y, z'
loop_
 _atom_site_type_symbol
 _atom_site_label
 _atom_site_symmetry_multiplicity
 _atom_site_fract_x
 _atom_site_fract_y
 _atom_site_fract_z
 _atom_site_occupancy
  Tm  Tm0  1  0.258875  0.813993  0.267144  1
  Tm  Tm1  1  0.741125  0.186007  0.732856  1
  Lu  Lu2  1  0.759349  0.187229  0.232658  1
  Lu  Lu3  1  0.240651  0.812771  0.767342  1
  Ru  Ru4  1  0.757676  0.726633  0.043585  1
  Ru  Ru5  1  0.242324  0.273367  0.956415  1
  Ru  Ru6  1  0.257702  0.272209  0.455626  1
  Ru  Ru7  1  0.742298  0.727791  0.544374  1
  F  F8  1  0.945324  0.706751  0.415160  1
  F  F9  1  0.054676  0.293249  0.584840  1
  F  F10  1  0.445945  0.293244  0.085671  1
  F  F11  1  0.554055  0.706756  0.914329  1
  F  F12  1  0.466445  0.729496  0.140402  1
  F  F13  1  0.533555  0.270504  0.859598  1
  F  F14  1  0.966354  0.269616  0.358664  1
  F  F15  1  0.033646  0.730384  0.641336  1
  F  F16  1  0.958547  0.746782  0.174893  1
  F  F17  1  0.041453  0.253218  0.825107  1
  F  F18  1  0.459958  0.251542  0.324605  1
  F  F19  1  0.540042  0.748458  0.675395  1
  F  F20  1  0.771621  0.483936  0.139891  1
  F  F21  1  0.228379  0.516064  0.860109  1
  F  F22  1  0.271456  0.515134  0.359878  1
  F  F23  1  0.728544  0.484866  0.640122  1
  F  F24  1  0.941779  0.277728  0.048466  1
  F  F25  1  0.058221  0.722272  0.951534  1
  F  F26  1  0.442954  0.721950  0.452654  1
  F  F27  1  0.557046  0.278050  0.547346  1
  F  F28  1  0.742127  0.969364  0.450482  1
  F  F29  1  0.257873  0.030636  0.549518  1
  F  F30  1  0.242552  0.031307  0.050058  1
  F  F31  1  0.757448  0.968693  0.949942  1
  F  F32  1  0.580780  0.974346  0.231945  1
  F  F33  1  0.419220  0.025654  0.768055  1
  F  F34  1  0.077604  0.029029  0.267905  1
  F  F35  1  0.922396  0.970971  0.732095  1
