# generated using pymatgen
data_DyY4CoBi2
_symmetry_space_group_name_H-M   'P 1'
_cell_length_a   8.03675701
_cell_length_b   8.89048412
_cell_length_c   12.43982618
_cell_angle_alpha   89.98147308
_cell_angle_beta   89.99424830
_cell_angle_gamma   90.00027033
_symmetry_Int_Tables_number   1
_chemical_formula_structural   DyY4CoBi2
_chemical_formula_sum   'Dy4 Y16 Co4 Bi8'
_cell_volume   888.83374654
_cell_formula_units_Z   4
loop_
 _symmetry_equiv_pos_site_id
 _symmetry_equiv_pos_as_xyz
  1  'x, y, z'
loop_
 _atom_site_type_symbol
 _atom_site_label
 _atom_site_symmetry_multiplicity
 _atom_site_fract_x
 _atom_site_fract_y
 _atom_site_fract_z
 _atom_site_occupancy
  Dy  Dy0  1  0.825103  0.034965  0.063631  1
  Dy  Dy1  1  0.674860  0.465222  0.563645  1
  Dy  Dy2  1  0.825078  0.465171  0.063589  1
  Dy  Dy3  1  0.174839  0.534707  0.936396  1
  Y  Y4  1  0.845899  0.749809  0.800453  1
  Y  Y5  1  0.154033  0.250047  0.199442  1
  Y  Y6  1  0.345943  0.250190  0.699402  1
  Y  Y7  1  0.654131  0.749958  0.300476  1
  Y  Y8  1  0.377875  0.749834  0.689618  1
  Y  Y9  1  0.622088  0.250034  0.310437  1
  Y  Y10  1  0.877843  0.250169  0.810406  1
  Y  Y11  1  0.122192  0.749967  0.189637  1
  Y  Y12  1  0.952618  0.749706  0.502521  1
  Y  Y13  1  0.046858  0.250226  0.497640  1
  Y  Y14  1  0.453131  0.250283  0.997620  1
  Y  Y15  1  0.547387  0.749779  0.002534  1
  Y  Y16  1  0.675664  0.035013  0.564076  1
  Y  Y17  1  0.324434  0.965117  0.435905  1
  Y  Y18  1  0.175611  0.965064  0.935978  1
  Y  Y19  1  0.324402  0.534753  0.435938  1
  Co  Co20  1  0.561636  0.749305  0.508306  1
  Co  Co21  1  0.439072  0.250360  0.491946  1
  Co  Co22  1  0.060741  0.250687  0.991932  1
  Co  Co23  1  0.938560  0.749632  0.008339  1
  Bi  Bi24  1  0.568939  0.492429  0.826080  1
  Bi  Bi25  1  0.431087  0.507597  0.173953  1
  Bi  Bi26  1  0.068983  0.507608  0.673933  1
  Bi  Bi27  1  0.431086  0.992425  0.173881  1
  Bi  Bi28  1  0.931199  0.492401  0.326100  1
  Bi  Bi29  1  0.568734  0.007571  0.826155  1
  Bi  Bi30  1  0.931194  0.007579  0.326175  1
  Bi  Bi31  1  0.068779  0.992394  0.673855  1
