# generated using pymatgen
data_Y2HoPa(CdPd2)2
_symmetry_space_group_name_H-M   'P 1'
_cell_length_a   7.77321261
_cell_length_b   7.77321238
_cell_length_c   3.70421800
_cell_angle_alpha   90.00000000
_cell_angle_beta   90.00000000
_cell_angle_gamma   91.92019940
_symmetry_Int_Tables_number   1
_chemical_formula_structural   Y2HoPa(CdPd2)2
_chemical_formula_sum   'Y2 Ho1 Pa1 Cd2 Pd4'
_cell_volume   223.69366131
_cell_formula_units_Z   1
loop_
 _symmetry_equiv_pos_site_id
 _symmetry_equiv_pos_as_xyz
  1  'x, y, z'
loop_
 _atom_site_type_symbol
 _atom_site_label
 _atom_site_symmetry_multiplicity
 _atom_site_fract_x
 _atom_site_fract_y
 _atom_site_fract_z
 _atom_site_occupancy
  Y  Y0  1  0.172454  0.330688  0.500000  1
  Y  Y1  1  0.830688  0.672454  0.500000  1
  Ho  Ho2  1  0.326136  0.826136  0.500000  1
  Pa  Pa3  1  0.668661  0.168661  0.500000  1
  Cd  Cd4  1  0.004329  0.999919  0.000000  1
  Cd  Cd5  1  0.499919  0.504329  0.000000  1
  Pd  Pd6  1  0.124658  0.624658  0.000000  1
  Pd  Pd7  1  0.860166  0.360166  0.000000  1
  Pd  Pd8  1  0.631554  0.881435  0.000000  1
  Pd  Pd9  1  0.381435  0.131554  0.000000  1
