# generated using pymatgen
data_Li4La3NdIn8
_symmetry_space_group_name_H-M   'P 1'
_cell_length_a   4.91684400
_cell_length_b   7.12144609
_cell_length_c   11.25238800
_cell_angle_alpha   89.57916693
_cell_angle_beta   90.00000000
_cell_angle_gamma   90.00000000
_symmetry_Int_Tables_number   1
_chemical_formula_structural   Li4La3NdIn8
_chemical_formula_sum   'Li4 La3 Nd1 In8'
_cell_volume   393.99218244
_cell_formula_units_Z   1
loop_
 _symmetry_equiv_pos_site_id
 _symmetry_equiv_pos_as_xyz
  1  'x, y, z'
loop_
 _atom_site_type_symbol
 _atom_site_label
 _atom_site_symmetry_multiplicity
 _atom_site_fract_x
 _atom_site_fract_y
 _atom_site_fract_z
 _atom_site_occupancy
  Li  Li0  1  0.250000  0.455931  0.390987  1
  Li  Li1  1  0.250000  0.939733  0.113062  1
  Li  Li2  1  0.750000  0.558133  0.613011  1
  Li  Li3  1  0.750000  0.045518  0.890419  1
  La  La4  1  0.250000  0.250711  0.653237  1
  La  La5  1  0.250000  0.740190  0.844132  1
  La  La6  1  0.750000  0.760554  0.344487  1
  Nd  Nd7  1  0.750000  0.248761  0.152931  1
  In  In8  1  0.250000  0.244539  0.951063  1
  In  In9  1  0.250000  0.759442  0.549529  1
  In  In10  1  0.750000  0.741053  0.050937  1
  In  In11  1  0.750000  0.257010  0.447775  1
  In  In12  1  0.250000  0.069693  0.345730  1
  In  In13  1  0.250000  0.548423  0.152623  1
  In  In14  1  0.750000  0.947133  0.650948  1
  In  In15  1  0.750000  0.433178  0.849128  1
