# generated using pymatgen
data_Dy11Th5(MgRu)4
_symmetry_space_group_name_H-M   'P 1'
_cell_length_a   9.72424284
_cell_length_b   9.79141262
_cell_length_c   9.79141174
_cell_angle_alpha   59.86902548
_cell_angle_beta   60.22666634
_cell_angle_gamma   60.22666716
_symmetry_Int_Tables_number   1
_chemical_formula_structural   Dy11Th5(MgRu)4
_chemical_formula_sum   'Dy11 Th5 Mg4 Ru4'
_cell_volume   660.80950756
_cell_formula_units_Z   1
loop_
 _symmetry_equiv_pos_site_id
 _symmetry_equiv_pos_as_xyz
  1  'x, y, z'
loop_
 _atom_site_type_symbol
 _atom_site_label
 _atom_site_symmetry_multiplicity
 _atom_site_fract_x
 _atom_site_fract_y
 _atom_site_fract_z
 _atom_site_occupancy
  Dy  Dy0  1  0.186598  0.813402  0.813402  1
  Dy  Dy1  1  0.191242  0.809645  0.185390  1
  Dy  Dy2  1  0.813724  0.185390  0.809645  1
  Dy  Dy3  1  0.191242  0.185390  0.809645  1
  Dy  Dy4  1  0.813724  0.809645  0.185390  1
  Dy  Dy5  1  0.932710  0.567290  0.567290  1
  Dy  Dy6  1  0.564394  0.935606  0.935606  1
  Dy  Dy7  1  0.563208  0.936404  0.563942  1
  Dy  Dy8  1  0.936446  0.563942  0.936404  1
  Dy  Dy9  1  0.563208  0.563942  0.936404  1
  Dy  Dy10  1  0.936446  0.936404  0.563942  1
  Th  Th11  1  0.341833  0.348488  0.348488  1
  Th  Th12  1  0.346323  0.346951  0.960403  1
  Th  Th13  1  0.346323  0.960403  0.346951  1
  Th  Th14  1  0.961191  0.348488  0.348488  1
  Th  Th15  1  0.816101  0.183899  0.183899  1
  Mg  Mg16  1  0.581385  0.579445  0.579445  1
  Mg  Mg17  1  0.579716  0.581841  0.258725  1
  Mg  Mg18  1  0.579716  0.258725  0.581841  1
  Mg  Mg19  1  0.259724  0.579445  0.579445  1
  Ru  Ru20  1  0.128071  0.147853  0.147853  1
  Ru  Ru21  1  0.145227  0.141933  0.567614  1
  Ru  Ru22  1  0.145227  0.567614  0.141933  1
  Ru  Ru23  1  0.576224  0.147853  0.147853  1
