# generated using pymatgen
data_Rb2Li2CrO4
_symmetry_space_group_name_H-M   'P 1'
_cell_length_a   5.70568829
_cell_length_b   5.80669573
_cell_length_c   8.97628205
_cell_angle_alpha   83.23457166
_cell_angle_beta   73.48501571
_cell_angle_gamma   84.94565318
_symmetry_Int_Tables_number   1
_chemical_formula_structural   Rb2Li2CrO4
_chemical_formula_sum   'Rb4 Li4 Cr2 O8'
_cell_volume   282.67444972
_cell_formula_units_Z   2
loop_
 _symmetry_equiv_pos_site_id
 _symmetry_equiv_pos_as_xyz
  1  'x, y, z'
loop_
 _atom_site_type_symbol
 _atom_site_label
 _atom_site_symmetry_multiplicity
 _atom_site_fract_x
 _atom_site_fract_y
 _atom_site_fract_z
 _atom_site_occupancy
  Rb  Rb0  1  0.470971  0.850563  0.720706  1
  Rb  Rb1  1  0.529029  0.149437  0.279294  1
  Rb  Rb2  1  0.785662  0.725308  0.018322  1
  Rb  Rb3  1  0.214338  0.274692  0.981678  1
  Li  Li4  1  0.074423  0.814318  0.557183  1
  Li  Li5  1  0.925577  0.185682  0.442817  1
  Li  Li6  1  0.303587  0.409385  0.580460  1
  Li  Li7  1  0.696413  0.590615  0.419540  1
  Cr  Cr8  1  0.145859  0.685385  0.275215  1
  Cr  Cr9  1  0.854141  0.314615  0.724785  1
  O  O10  1  0.017607  0.570080  0.722679  1
  O  O11  1  0.982393  0.429920  0.277321  1
  O  O12  1  0.895903  0.866536  0.395785  1
  O  O13  1  0.104097  0.133464  0.604215  1
  O  O14  1  0.270313  0.797604  0.080076  1
  O  O15  1  0.729687  0.202396  0.919924  1
  O  O16  1  0.367489  0.643352  0.391118  1
  O  O17  1  0.632511  0.356648  0.608882  1
