# generated using pymatgen
data_Zr6CoBiTe
_symmetry_space_group_name_H-M   'P 1'
_cell_length_a   3.63984200
_cell_length_b   7.89767596
_cell_length_c   7.89767600
_cell_angle_alpha   120.00000017
_cell_angle_beta   90.00000000
_cell_angle_gamma   90.00000000
_symmetry_Int_Tables_number   1
_chemical_formula_structural   Zr6CoBiTe
_chemical_formula_sum   'Zr6 Co1 Bi1 Te1'
_cell_volume   196.61279933
_cell_formula_units_Z   1
loop_
 _symmetry_equiv_pos_site_id
 _symmetry_equiv_pos_as_xyz
  1  'x, y, z'
loop_
 _atom_site_type_symbol
 _atom_site_label
 _atom_site_symmetry_multiplicity
 _atom_site_fract_x
 _atom_site_fract_y
 _atom_site_fract_z
 _atom_site_occupancy
  Zr  Zr0  1  0.500000  0.761883  0.763050  1
  Zr  Zr1  1  0.500000  0.001168  0.238117  1
  Zr  Zr2  1  0.500000  0.236950  0.998832  1
  Zr  Zr3  1  0.000000  0.395145  0.403325  1
  Zr  Zr4  1  0.000000  0.008180  0.604855  1
  Zr  Zr5  1  0.000000  0.596675  0.991820  1
  Co  Co6  1  0.000000  0.000000  0.000000  1
  Bi  Bi7  1  0.500000  0.666667  0.333333  1
  Te  Te8  1  0.500000  0.333333  0.666667  1
