# generated using pymatgen
data_Ce4NdDy5Ru4
_symmetry_space_group_name_H-M   'P 1'
_cell_length_a   8.88725109
_cell_length_b   8.88725103
_cell_length_c   7.09591228
_cell_angle_alpha   85.13417444
_cell_angle_beta   85.13416816
_cell_angle_gamma   42.03969926
_symmetry_Int_Tables_number   1
_chemical_formula_structural   Ce4NdDy5Ru4
_chemical_formula_sum   'Ce4 Nd1 Dy5 Ru4'
_cell_volume   373.75543134
_cell_formula_units_Z   1
loop_
 _symmetry_equiv_pos_site_id
 _symmetry_equiv_pos_as_xyz
  1  'x, y, z'
loop_
 _atom_site_type_symbol
 _atom_site_label
 _atom_site_symmetry_multiplicity
 _atom_site_fract_x
 _atom_site_fract_y
 _atom_site_fract_z
 _atom_site_occupancy
  Ce  Ce0  1  0.010322  0.803003  0.905879  1
  Ce  Ce1  1  0.196997  0.989678  0.594121  1
  Ce  Ce2  1  0.988518  0.198749  0.094078  1
  Ce  Ce3  1  0.801251  0.011482  0.405922  1
  Nd  Nd4  1  0.417005  0.582995  0.250000  1
  Dy  Dy5  1  0.352947  0.215339  0.821271  1
  Dy  Dy6  1  0.784661  0.647053  0.678729  1
  Dy  Dy7  1  0.650347  0.784144  0.177281  1
  Dy  Dy8  1  0.215856  0.349653  0.322719  1
  Dy  Dy9  1  0.579573  0.420427  0.750000  1
  Ru  Ru10  1  0.145566  0.629747  0.598569  1
  Ru  Ru11  1  0.370253  0.854434  0.901431  1
  Ru  Ru12  1  0.855648  0.368945  0.406344  1
  Ru  Ru13  1  0.631055  0.144352  0.093656  1
