# generated using pymatgen
data_GaSi7(Pt3W)2
_symmetry_space_group_name_H-M   'P 1'
_cell_length_a   3.52874200
_cell_length_b   5.56706000
_cell_length_c   24.80176800
_cell_angle_alpha   90.00000000
_cell_angle_beta   90.00000000
_cell_angle_gamma   90.00000000
_symmetry_Int_Tables_number   1
_chemical_formula_structural   GaSi7(Pt3W)2
_chemical_formula_sum   'Ga2 Si14 Pt12 W4'
_cell_volume   487.22374914
_cell_formula_units_Z   2
loop_
 _symmetry_equiv_pos_site_id
 _symmetry_equiv_pos_as_xyz
  1  'x, y, z'
loop_
 _atom_site_type_symbol
 _atom_site_label
 _atom_site_symmetry_multiplicity
 _atom_site_fract_x
 _atom_site_fract_y
 _atom_site_fract_z
 _atom_site_occupancy
  Ga  Ga0  1  0.250000  0.182751  0.520114  1
  Ga  Ga1  1  0.750000  0.317249  0.020114  1
  Si  Si2  1  0.250000  0.676638  0.980983  1
  Si  Si3  1  0.750000  0.823362  0.480983  1
  Si  Si4  1  0.750000  0.319995  0.644526  1
  Si  Si5  1  0.250000  0.180005  0.144526  1
  Si  Si6  1  0.750000  0.820935  0.854133  1
  Si  Si7  1  0.250000  0.679065  0.354133  1
  Si  Si8  1  0.250000  0.664926  0.609775  1
  Si  Si9  1  0.750000  0.835074  0.109775  1
  Si  Si10  1  0.250000  0.165028  0.890234  1
  Si  Si11  1  0.750000  0.334972  0.390234  1
  Si  Si12  1  0.750000  0.827877  0.726277  1
  Si  Si13  1  0.250000  0.672123  0.226277  1
  Si  Si14  1  0.750000  0.329520  0.773841  1
  Si  Si15  1  0.250000  0.170480  0.273841  1
  Pt  Pt16  1  0.750000  0.991796  0.578094  1
  Pt  Pt17  1  0.250000  0.508204  0.078094  1
  Pt  Pt18  1  0.750000  0.500923  0.923403  1
  Pt  Pt19  1  0.250000  0.999077  0.423403  1
  Pt  Pt20  1  0.250000  0.003723  0.671827  1
  Pt  Pt21  1  0.750000  0.496277  0.171827  1
  Pt  Pt22  1  0.250000  0.504482  0.828799  1
  Pt  Pt23  1  0.750000  0.995518  0.328799  1
  Pt  Pt24  1  0.750000  0.507055  0.549745  1
  Pt  Pt25  1  0.250000  0.992945  0.049745  1
  Pt  Pt26  1  0.750000  0.995638  0.948559  1
  Pt  Pt27  1  0.250000  0.504362  0.448559  1
  W  W28  1  0.250000  0.501322  0.710105  1
  W  W29  1  0.750000  0.998678  0.210105  1
  W  W30  1  0.250000  0.003148  0.789585  1
  W  W31  1  0.750000  0.496852  0.289585  1
