# generated using pymatgen
data_Er6ScCo16P12Ru
_symmetry_space_group_name_H-M   'P 1'
_cell_length_a   3.70398900
_cell_length_b   10.57358600
_cell_length_c   12.26727800
_cell_angle_alpha   90.00000000
_cell_angle_beta   90.00000000
_cell_angle_gamma   90.00000000
_symmetry_Int_Tables_number   1
_chemical_formula_structural   Er6ScCo16P12Ru
_chemical_formula_sum   'Er6 Sc1 Co16 P12 Ru1'
_cell_volume   480.44114968
_cell_formula_units_Z   1
loop_
 _symmetry_equiv_pos_site_id
 _symmetry_equiv_pos_as_xyz
  1  'x, y, z'
loop_
 _atom_site_type_symbol
 _atom_site_label
 _atom_site_symmetry_multiplicity
 _atom_site_fract_x
 _atom_site_fract_y
 _atom_site_fract_z
 _atom_site_occupancy
  Er  Er0  1  0.750000  0.250000  0.474143  1
  Er  Er1  1  0.250000  0.750000  0.528096  1
  Er  Er2  1  0.250000  0.931617  0.795498  1
  Er  Er3  1  0.250000  0.568383  0.795498  1
  Er  Er4  1  0.750000  0.071145  0.206998  1
  Er  Er5  1  0.750000  0.428855  0.206998  1
  Sc  Sc6  1  0.750000  0.750000  0.154111  1
  Co  Co7  1  0.250000  0.250000  0.296545  1
  Co  Co8  1  0.750000  0.750000  0.703907  1
  Co  Co9  1  0.750000  0.250000  0.012121  1
  Co  Co10  1  0.250000  0.750000  0.984834  1
  Co  Co11  1  0.250000  0.413153  0.005437  1
  Co  Co12  1  0.250000  0.086847  0.005437  1
  Co  Co13  1  0.750000  0.577030  0.990005  1
  Co  Co14  1  0.750000  0.922970  0.990005  1
  Co  Co15  1  0.250000  0.452030  0.570529  1
  Co  Co16  1  0.250000  0.047970  0.570529  1
  Co  Co17  1  0.750000  0.544677  0.434947  1
  Co  Co18  1  0.750000  0.955323  0.434947  1
  Co  Co19  1  0.250000  0.873376  0.296457  1
  Co  Co20  1  0.250000  0.626624  0.296457  1
  Co  Co21  1  0.750000  0.129304  0.705822  1
  Co  Co22  1  0.750000  0.370696  0.705822  1
  P  P23  1  0.250000  0.250000  0.117662  1
  P  P24  1  0.750000  0.750000  0.883237  1
  P  P25  1  0.250000  0.250000  0.646926  1
  P  P26  1  0.750000  0.750000  0.359388  1
  P  P27  1  0.250000  0.438295  0.385250  1
  P  P28  1  0.250000  0.061705  0.385250  1
  P  P29  1  0.750000  0.561234  0.617858  1
  P  P30  1  0.750000  0.938766  0.617858  1
  P  P31  1  0.250000  0.912650  0.103346  1
  P  P32  1  0.250000  0.587350  0.103346  1
  P  P33  1  0.750000  0.098230  0.889523  1
  P  P34  1  0.750000  0.401770  0.889523  1
  Ru  Ru35  1  0.250000  0.250000  0.835692  1
