# generated using pymatgen
data_BaCoNi8Ge2P3
_symmetry_space_group_name_H-M   'P 1'
_cell_length_a   6.74694467
_cell_length_b   6.74173098
_cell_length_c   10.73980400
_cell_angle_alpha   90.00000000
_cell_angle_beta   90.00000000
_cell_angle_gamma   119.97444376
_symmetry_Int_Tables_number   1
_chemical_formula_structural   BaCoNi8Ge2P3
_chemical_formula_sum   'Ba2 Co2 Ni16 Ge4 P6'
_cell_volume   423.17240264
_cell_formula_units_Z   2
loop_
 _symmetry_equiv_pos_site_id
 _symmetry_equiv_pos_as_xyz
  1  'x, y, z'
loop_
 _atom_site_type_symbol
 _atom_site_label
 _atom_site_symmetry_multiplicity
 _atom_site_fract_x
 _atom_site_fract_y
 _atom_site_fract_z
 _atom_site_occupancy
  Ba  Ba0  1  0.000000  0.000756  0.500000  1
  Ba  Ba1  1  0.000000  0.000756  0.000000  1
  Co  Co2  1  0.200887  0.400164  0.250000  1
  Co  Co3  1  0.799113  0.199278  0.750000  1
  Ni  Ni4  1  0.459566  0.921130  0.886731  1
  Ni  Ni5  1  0.921038  0.461369  0.117013  1
  Ni  Ni6  1  0.539970  0.079319  0.120695  1
  Ni  Ni7  1  0.078962  0.540329  0.617013  1
  Ni  Ni8  1  0.398421  0.198008  0.750000  1
  Ni  Ni9  1  0.601579  0.799587  0.250000  1
  Ni  Ni10  1  0.197574  0.801587  0.250000  1
  Ni  Ni11  1  0.802426  0.604014  0.750000  1
  Ni  Ni12  1  0.459566  0.921130  0.613269  1
  Ni  Ni13  1  0.540434  0.461565  0.386731  1
  Ni  Ni14  1  0.921038  0.461369  0.382987  1
  Ni  Ni15  1  0.078962  0.540329  0.882987  1
  Ni  Ni16  1  0.460030  0.539348  0.879305  1
  Ni  Ni17  1  0.539970  0.079319  0.379305  1
  Ni  Ni18  1  0.540434  0.461565  0.113269  1
  Ni  Ni19  1  0.460030  0.539348  0.620695  1
  Ge  Ge20  1  0.332349  0.663252  0.435247  1
  Ge  Ge21  1  0.667651  0.330901  0.935247  1
  Ge  Ge22  1  0.667651  0.330901  0.564753  1
  Ge  Ge23  1  0.332349  0.663252  0.064753  1
  P  P24  1  0.163903  0.336268  0.750000  1
  P  P25  1  0.836097  0.172364  0.250000  1
  P  P26  1  0.174516  0.828188  0.750000  1
  P  P27  1  0.825484  0.653672  0.250000  1
  P  P28  1  0.340025  0.175480  0.250000  1
  P  P29  1  0.659975  0.835454  0.750000  1
