# generated using pymatgen
data_Ho6Er10MgCd3Co4
_symmetry_space_group_name_H-M   'P 1'
_cell_length_a   9.47108816
_cell_length_b   9.47108819
_cell_length_c   9.47108711
_cell_angle_alpha   59.70295478
_cell_angle_beta   59.70295727
_cell_angle_gamma   59.70295655
_symmetry_Int_Tables_number   1
_chemical_formula_structural   Ho6Er10MgCd3Co4
_chemical_formula_sum   'Ho6 Er10 Mg1 Cd3 Co4'
_cell_volume   596.68400061
_cell_formula_units_Z   1
loop_
 _symmetry_equiv_pos_site_id
 _symmetry_equiv_pos_as_xyz
  1  'x, y, z'
loop_
 _atom_site_type_symbol
 _atom_site_label
 _atom_site_symmetry_multiplicity
 _atom_site_fract_x
 _atom_site_fract_y
 _atom_site_fract_z
 _atom_site_occupancy
  Ho  Ho0  1  0.189018  0.811663  0.811663  1
  Ho  Ho1  1  0.811208  0.188224  0.188224  1
  Ho  Ho2  1  0.811663  0.189018  0.811663  1
  Ho  Ho3  1  0.188224  0.811208  0.188224  1
  Ho  Ho4  1  0.811663  0.811663  0.189018  1
  Ho  Ho5  1  0.188224  0.188224  0.811208  1
  Er  Er6  1  0.597724  0.597724  0.597724  1
  Er  Er7  1  0.596281  0.596281  0.213040  1
  Er  Er8  1  0.596281  0.213040  0.596281  1
  Er  Er9  1  0.213040  0.596281  0.596281  1
  Er  Er10  1  0.061487  0.438203  0.438203  1
  Er  Er11  1  0.435280  0.063099  0.063099  1
  Er  Er12  1  0.438203  0.061487  0.438203  1
  Er  Er13  1  0.063099  0.435280  0.063099  1
  Er  Er14  1  0.438203  0.438203  0.061487  1
  Er  Er15  1  0.063099  0.063099  0.435280  1
  Mg  Mg16  1  0.824722  0.824722  0.824722  1
  Cd  Cd17  1  0.831052  0.831052  0.505610  1
  Cd  Cd18  1  0.831052  0.505610  0.831052  1
  Cd  Cd19  1  0.505610  0.831052  0.831052  1
  Co  Co20  1  0.391948  0.391948  0.391948  1
  Co  Co21  1  0.393079  0.393079  0.826767  1
  Co  Co22  1  0.393079  0.826767  0.393079  1
  Co  Co23  1  0.826767  0.393079  0.393079  1
