# generated using pymatgen
data_Er3Tm2Ga2Bi
_symmetry_space_group_name_H-M   'P 1'
_cell_length_a   8.66260303
_cell_length_b   8.69098832
_cell_length_c   6.50279400
_cell_angle_alpha   90.00000000
_cell_angle_beta   90.00000000
_cell_angle_gamma   120.10844650
_symmetry_Int_Tables_number   1
_chemical_formula_structural   Er3Tm2Ga2Bi
_chemical_formula_sum   'Er6 Tm4 Ga4 Bi2'
_cell_volume   423.51869091
_cell_formula_units_Z   2
loop_
 _symmetry_equiv_pos_site_id
 _symmetry_equiv_pos_as_xyz
  1  'x, y, z'
loop_
 _atom_site_type_symbol
 _atom_site_label
 _atom_site_symmetry_multiplicity
 _atom_site_fract_x
 _atom_site_fract_y
 _atom_site_fract_z
 _atom_site_occupancy
  Er  Er0  1  0.982231  0.748803  0.750000  1
  Er  Er1  1  0.982231  0.233429  0.250000  1
  Er  Er2  1  0.767944  0.768676  0.250000  1
  Er  Er3  1  0.767944  0.999268  0.750000  1
  Er  Er4  1  0.233603  0.251052  0.750000  1
  Er  Er5  1  0.233603  0.982551  0.250000  1
  Tm  Tm6  1  0.329680  0.664841  0.500000  1
  Tm  Tm7  1  0.692897  0.346448  0.000000  1
  Tm  Tm8  1  0.692897  0.346448  0.500000  1
  Tm  Tm9  1  0.329680  0.664841  0.000000  1
  Ga  Ga10  1  0.001890  0.601141  0.250000  1
  Ga  Ga11  1  0.001890  0.400749  0.750000  1
  Ga  Ga12  1  0.596117  0.601107  0.750000  1
  Ga  Ga13  1  0.596117  0.995009  0.250000  1
  Bi  Bi14  1  0.395639  0.006613  0.750000  1
  Bi  Bi15  1  0.395639  0.389025  0.250000  1
