# generated using pymatgen
data_Ho20Ir5Rh7
_symmetry_space_group_name_H-M   'P 1'
_cell_length_a   10.84763319
_cell_length_b   10.84763319
_cell_length_c   6.35746303
_cell_angle_alpha   89.99228873
_cell_angle_beta   89.99228873
_cell_angle_gamma   90.05313535
_symmetry_Int_Tables_number   1
_chemical_formula_structural   Ho20Ir5Rh7
_chemical_formula_sum   'Ho20 Ir5 Rh7'
_cell_volume   748.08962398
_cell_formula_units_Z   1
loop_
 _symmetry_equiv_pos_site_id
 _symmetry_equiv_pos_as_xyz
  1  'x, y, z'
loop_
 _atom_site_type_symbol
 _atom_site_label
 _atom_site_symmetry_multiplicity
 _atom_site_fract_x
 _atom_site_fract_y
 _atom_site_fract_z
 _atom_site_occupancy
  Ho  Ho0  1  0.290768  0.088251  0.377733  1
  Ho  Ho1  1  0.290666  0.910118  0.878994  1
  Ho  Ho2  1  0.708726  0.089560  0.878445  1
  Ho  Ho3  1  0.708597  0.910402  0.377947  1
  Ho  Ho4  1  0.587553  0.790062  0.879034  1
  Ho  Ho5  1  0.587435  0.209891  0.378878  1
  Ho  Ho6  1  0.411177  0.790331  0.378861  1
  Ho  Ho7  1  0.412387  0.209846  0.878826  1
  Ho  Ho8  1  0.209938  0.412447  0.620966  1
  Ho  Ho9  1  0.209669  0.588823  0.121139  1
  Ho  Ho10  1  0.790109  0.412565  0.121122  1
  Ho  Ho11  1  0.790154  0.587613  0.621174  1
  Ho  Ho12  1  0.911749  0.709232  0.122267  1
  Ho  Ho13  1  0.910440  0.291274  0.621555  1
  Ho  Ho14  1  0.089882  0.709334  0.621006  1
  Ho  Ho15  1  0.089598  0.291403  0.122053  1
  Ho  Ho16  1  0.000168  0.999771  0.500048  1
  Ho  Ho17  1  0.000229  0.999832  0.999952  1
  Ho  Ho18  1  0.499934  0.499843  0.000068  1
  Ho  Ho19  1  0.500157  0.500066  0.499932  1
  Ir  Ir20  1  0.153382  0.846618  0.250000  1
  Ir  Ir21  1  0.654623  0.345377  0.750000  1
  Ir  Ir22  1  0.654707  0.654510  0.249877  1
  Ir  Ir23  1  0.345490  0.345293  0.250123  1
  Ir  Ir24  1  0.345965  0.654035  0.750000  1
  Rh  Rh25  1  0.846531  0.153469  0.250000  1
  Rh  Rh26  1  0.845995  0.846489  0.749851  1
  Rh  Rh27  1  0.153511  0.154005  0.750149  1
  Rh  Rh28  1  0.500504  0.000219  0.121657  1
  Rh  Rh29  1  0.500380  0.000206  0.622079  1
  Rh  Rh30  1  0.999794  0.499620  0.877921  1
  Rh  Rh31  1  0.999781  0.499496  0.378343  1
