# generated using pymatgen
data_Ho4LuGa3
_symmetry_space_group_name_H-M   'P 1'
_cell_length_a   7.56182800
_cell_length_b   7.56182800
_cell_length_c   14.07506900
_cell_angle_alpha   90.00000000
_cell_angle_beta   90.00000000
_cell_angle_gamma   90.00000000
_symmetry_Int_Tables_number   1
_chemical_formula_structural   Ho4LuGa3
_chemical_formula_sum   'Ho16 Lu4 Ga12'
_cell_volume   804.82993653
_cell_formula_units_Z   4
loop_
 _symmetry_equiv_pos_site_id
 _symmetry_equiv_pos_as_xyz
  1  'x, y, z'
loop_
 _atom_site_type_symbol
 _atom_site_label
 _atom_site_symmetry_multiplicity
 _atom_site_fract_x
 _atom_site_fract_y
 _atom_site_fract_z
 _atom_site_occupancy
  Ho  Ho0  1  0.675967  0.662328  0.602662  1
  Ho  Ho1  1  0.675967  0.337672  0.102662  1
  Ho  Ho2  1  0.824033  0.837672  0.397338  1
  Ho  Ho3  1  0.175967  0.837672  0.897338  1
  Ho  Ho4  1  0.324033  0.337672  0.602662  1
  Ho  Ho5  1  0.324033  0.662328  0.102662  1
  Ho  Ho6  1  0.175967  0.162328  0.397338  1
  Ho  Ho7  1  0.824033  0.162328  0.897338  1
  Ho  Ho8  1  0.662328  0.324033  0.397338  1
  Ho  Ho9  1  0.337672  0.324033  0.897338  1
  Ho  Ho10  1  0.162328  0.824033  0.602662  1
  Ho  Ho11  1  0.837672  0.824033  0.102662  1
  Ho  Ho12  1  0.337672  0.675967  0.397338  1
  Ho  Ho13  1  0.662328  0.675967  0.897338  1
  Ho  Ho14  1  0.837672  0.175967  0.602662  1
  Ho  Ho15  1  0.162328  0.175967  0.102662  1
  Lu  Lu16  1  0.000000  0.500000  0.762192  1
  Lu  Lu17  1  0.000000  0.500000  0.262192  1
  Lu  Lu18  1  0.500000  0.000000  0.237808  1
  Lu  Lu19  1  0.500000  0.000000  0.737808  1
  Ga  Ga20  1  0.000000  0.500000  0.495599  1
  Ga  Ga21  1  0.000000  0.500000  0.995599  1
  Ga  Ga22  1  0.500000  0.000000  0.504401  1
  Ga  Ga23  1  0.500000  0.000000  0.004401  1
  Ga  Ga24  1  0.876245  0.876245  0.750000  1
  Ga  Ga25  1  0.876245  0.123755  0.250000  1
  Ga  Ga26  1  0.623755  0.623755  0.250000  1
  Ga  Ga27  1  0.376245  0.623755  0.750000  1
  Ga  Ga28  1  0.123755  0.123755  0.750000  1
  Ga  Ga29  1  0.123755  0.876245  0.250000  1
  Ga  Ga30  1  0.376245  0.376245  0.250000  1
  Ga  Ga31  1  0.623755  0.376245  0.750000  1
