# generated using pymatgen
data_Ti3Si4MoIrRh3
_symmetry_space_group_name_H-M   'P 1'
_cell_length_a   3.82516800
_cell_length_b   6.27949086
_cell_length_c   7.25637841
_cell_angle_alpha   90.24506780
_cell_angle_beta   90.00000000
_cell_angle_gamma   90.00000000
_symmetry_Int_Tables_number   1
_chemical_formula_structural   Ti3Si4MoIrRh3
_chemical_formula_sum   'Ti3 Si4 Mo1 Ir1 Rh3'
_cell_volume   174.29739496
_cell_formula_units_Z   1
loop_
 _symmetry_equiv_pos_site_id
 _symmetry_equiv_pos_as_xyz
  1  'x, y, z'
loop_
 _atom_site_type_symbol
 _atom_site_label
 _atom_site_symmetry_multiplicity
 _atom_site_fract_x
 _atom_site_fract_y
 _atom_site_fract_z
 _atom_site_occupancy
  Ti  Ti0  1  0.750000  0.525407  0.314047  1
  Ti  Ti1  1  0.250000  0.469729  0.683093  1
  Ti  Ti2  1  0.250000  0.975892  0.822286  1
  Si  Si3  1  0.250000  0.223108  0.370218  1
  Si  Si4  1  0.750000  0.766626  0.622334  1
  Si  Si5  1  0.250000  0.741977  0.123071  1
  Si  Si6  1  0.750000  0.263537  0.885384  1
  Mo  Mo7  1  0.750000  0.024659  0.176010  1
  Ir  Ir8  1  0.750000  0.155000  0.561828  1
  Rh  Rh9  1  0.250000  0.359110  0.065438  1
  Rh  Rh10  1  0.750000  0.650220  0.933569  1
  Rh  Rh11  1  0.250000  0.844735  0.442722  1
