# generated using pymatgen
data_Sm4Ga18(RuPt)3
_symmetry_space_group_name_H-M   'P 1'
_cell_length_a   7.64917862
_cell_length_b   7.64917910
_cell_length_c   9.60580911
_cell_angle_alpha   89.96292318
_cell_angle_beta   89.96292093
_cell_angle_gamma   119.40795834
_symmetry_Int_Tables_number   1
_chemical_formula_structural   Sm4Ga18(RuPt)3
_chemical_formula_sum   'Sm4 Ga18 Ru3 Pt3'
_cell_volume   489.61417425
_cell_formula_units_Z   1
loop_
 _symmetry_equiv_pos_site_id
 _symmetry_equiv_pos_as_xyz
  1  'x, y, z'
loop_
 _atom_site_type_symbol
 _atom_site_label
 _atom_site_symmetry_multiplicity
 _atom_site_fract_x
 _atom_site_fract_y
 _atom_site_fract_z
 _atom_site_occupancy
  Sm  Sm0  1  0.998928  0.669933  0.250550  1
  Sm  Sm1  1  0.003292  0.332143  0.749600  1
  Sm  Sm2  1  0.667857  0.996708  0.250400  1
  Sm  Sm3  1  0.330067  0.001072  0.749450  1
  Ga  Ga4  1  0.123210  0.124996  0.250483  1
  Ga  Ga5  1  0.875004  0.876790  0.749517  1
  Ga  Ga6  1  0.001601  0.330251  0.080249  1
  Ga  Ga7  1  0.997736  0.670329  0.918918  1
  Ga  Ga8  1  0.992445  0.664799  0.578693  1
  Ga  Ga9  1  0.335201  0.007556  0.421307  1
  Ga  Ga10  1  0.997345  0.331155  0.420970  1
  Ga  Ga11  1  0.668845  0.002655  0.579030  1
  Ga  Ga12  1  0.669749  0.998399  0.919751  1
  Ga  Ga13  1  0.329671  0.002265  0.081082  1
  Ga  Ga14  1  0.331435  0.325337  0.559455  1
  Ga  Ga15  1  0.674663  0.668565  0.440545  1
  Ga  Ga16  1  0.673093  0.672980  0.063452  1
  Ga  Ga17  1  0.327020  0.326907  0.936548  1
  Ga  Ga18  1  0.341268  0.542305  0.250412  1
  Ga  Ga19  1  0.657194  0.451616  0.745850  1
  Ga  Ga20  1  0.548384  0.342806  0.254150  1
  Ga  Ga21  1  0.457695  0.658732  0.749588  1
  Ru  Ru22  1  0.671510  0.328490  0.500000  1
  Ru  Ru23  1  0.999909  0.000091  0.000000  1
  Ru  Ru24  1  0.999204  0.000796  0.500000  1
  Pt  Pt25  1  0.670655  0.329345  0.000000  1
  Pt  Pt26  1  0.328989  0.671011  0.000000  1
  Pt  Pt27  1  0.328033  0.671967  0.500000  1
