# generated using pymatgen
data_TaTi9(ZnGa3)2
_symmetry_space_group_name_H-M   'P 1'
_cell_length_a   7.86557600
_cell_length_b   7.86557769
_cell_length_c   5.40172800
_cell_angle_alpha   90.00000000
_cell_angle_beta   90.00000000
_cell_angle_gamma   120.00000132
_symmetry_Int_Tables_number   1
_chemical_formula_structural   TaTi9(ZnGa3)2
_chemical_formula_sum   'Ta1 Ti9 Zn2 Ga6'
_cell_volume   289.41730439
_cell_formula_units_Z   1
loop_
 _symmetry_equiv_pos_site_id
 _symmetry_equiv_pos_as_xyz
  1  'x, y, z'
loop_
 _atom_site_type_symbol
 _atom_site_label
 _atom_site_symmetry_multiplicity
 _atom_site_fract_x
 _atom_site_fract_y
 _atom_site_fract_z
 _atom_site_occupancy
  Ta  Ta0  1  0.333333  0.666667  0.000000  1
  Ti  Ti1  1  0.666667  0.333333  0.500000  1
  Ti  Ti2  1  0.666667  0.333333  0.000000  1
  Ti  Ti3  1  0.333333  0.666667  0.500000  1
  Ti  Ti4  1  0.301467  0.998788  0.246624  1
  Ti  Ti5  1  0.301467  0.302680  0.753376  1
  Ti  Ti6  1  0.001212  0.698533  0.753376  1
  Ti  Ti7  1  0.001212  0.302680  0.246624  1
  Ti  Ti8  1  0.697320  0.698533  0.246624  1
  Ti  Ti9  1  0.697320  0.998788  0.753376  1
  Zn  Zn10  1  0.000000  0.000000  0.000000  1
  Zn  Zn11  1  0.000000  0.000000  0.500000  1
  Ga  Ga12  1  0.636785  0.001582  0.252922  1
  Ga  Ga13  1  0.636785  0.635203  0.747078  1
  Ga  Ga14  1  0.998418  0.363215  0.747078  1
  Ga  Ga15  1  0.998418  0.635203  0.252922  1
  Ga  Ga16  1  0.364797  0.363215  0.252922  1
  Ga  Ga17  1  0.364797  0.001582  0.747078  1
