# generated using pymatgen
data_AcVF7
_symmetry_space_group_name_H-M   'P 1'
_cell_length_a   5.83290400
_cell_length_b   9.47569905
_cell_length_c   12.55937722
_cell_angle_alpha   62.41309288
_cell_angle_beta   90.00000000
_cell_angle_gamma   90.00000000
_symmetry_Int_Tables_number   1
_chemical_formula_structural   AcVF7
_chemical_formula_sum   'Ac4 V4 F28'
_cell_volume   615.24707833
_cell_formula_units_Z   4
loop_
 _symmetry_equiv_pos_site_id
 _symmetry_equiv_pos_as_xyz
  1  'x, y, z'
loop_
 _atom_site_type_symbol
 _atom_site_label
 _atom_site_symmetry_multiplicity
 _atom_site_fract_x
 _atom_site_fract_y
 _atom_site_fract_z
 _atom_site_occupancy
  Ac  Ac0  1  0.758144  0.802790  0.268824  1
  Ac  Ac1  1  0.258144  0.197210  0.231176  1
  Ac  Ac2  1  0.241856  0.197210  0.731176  1
  Ac  Ac3  1  0.741856  0.802790  0.768824  1
  V  V4  1  0.245258  0.726546  0.543548  1
  V  V5  1  0.745258  0.273454  0.956452  1
  V  V6  1  0.754742  0.273454  0.456452  1
  V  V7  1  0.254742  0.726546  0.043548  1
  F  F8  1  0.976813  0.714048  0.461098  1
  F  F9  1  0.476813  0.285952  0.038902  1
  F  F10  1  0.023187  0.285952  0.538902  1
  F  F11  1  0.523187  0.714048  0.961098  1
  F  F12  1  0.064691  0.709217  0.927735  1
  F  F13  1  0.564691  0.290783  0.572265  1
  F  F14  1  0.935309  0.290783  0.072265  1
  F  F15  1  0.435309  0.709217  0.427735  1
  F  F16  1  0.736588  0.493085  0.868180  1
  F  F17  1  0.236588  0.506915  0.631820  1
  F  F18  1  0.263412  0.506915  0.131820  1
  F  F19  1  0.763412  0.493085  0.368180  1
  F  F20  1  0.740709  0.055787  0.042692  1
  F  F21  1  0.240709  0.944213  0.457308  1
  F  F22  1  0.259291  0.944213  0.957308  1
  F  F23  1  0.759291  0.055787  0.542692  1
  F  F24  1  0.056439  0.742003  0.662069  1
  F  F25  1  0.556439  0.257997  0.837931  1
  F  F26  1  0.943561  0.257997  0.337931  1
  F  F27  1  0.443561  0.742003  0.162069  1
  F  F28  1  0.008686  0.269091  0.869112  1
  F  F29  1  0.508686  0.730909  0.630888  1
  F  F30  1  0.991314  0.730909  0.130888  1
  F  F31  1  0.491314  0.269091  0.369112  1
  F  F32  1  0.093754  0.968214  0.228798  1
  F  F33  1  0.593754  0.031786  0.271202  1
  F  F34  1  0.906246  0.031786  0.771202  1
  F  F35  1  0.406246  0.968214  0.728798  1
