# generated using pymatgen
data_DyLu4(In2Pd)2
_symmetry_space_group_name_H-M   'P 1'
_cell_length_a   3.58477000
_cell_length_b   8.03282700
_cell_length_c   18.05185400
_cell_angle_alpha   90.00000000
_cell_angle_beta   90.00000000
_cell_angle_gamma   90.00000000
_symmetry_Int_Tables_number   1
_chemical_formula_structural   DyLu4(In2Pd)2
_chemical_formula_sum   'Dy2 Lu8 In8 Pd4'
_cell_volume   519.81824975
_cell_formula_units_Z   2
loop_
 _symmetry_equiv_pos_site_id
 _symmetry_equiv_pos_as_xyz
  1  'x, y, z'
loop_
 _atom_site_type_symbol
 _atom_site_label
 _atom_site_symmetry_multiplicity
 _atom_site_fract_x
 _atom_site_fract_y
 _atom_site_fract_z
 _atom_site_occupancy
  Dy  Dy0  1  0.000000  0.500000  0.500000  1
  Dy  Dy1  1  0.000000  0.000000  0.000000  1
  Lu  Lu2  1  0.000000  0.741211  0.279937  1
  Lu  Lu3  1  0.000000  0.258789  0.720063  1
  Lu  Lu4  1  0.000000  0.758789  0.779937  1
  Lu  Lu5  1  0.000000  0.241211  0.220063  1
  Lu  Lu6  1  0.000000  0.617839  0.084645  1
  Lu  Lu7  1  0.000000  0.382161  0.915355  1
  Lu  Lu8  1  0.000000  0.882161  0.584645  1
  Lu  Lu9  1  0.000000  0.117839  0.415355  1
  In  In10  1  0.500000  0.706392  0.932639  1
  In  In11  1  0.500000  0.293608  0.067361  1
  In  In12  1  0.500000  0.793608  0.432639  1
  In  In13  1  0.500000  0.206392  0.567361  1
  In  In14  1  0.500000  0.580382  0.650412  1
  In  In15  1  0.500000  0.419618  0.349588  1
  In  In16  1  0.500000  0.919618  0.150412  1
  In  In17  1  0.500000  0.080382  0.849588  1
  Pd  Pd18  1  0.500000  0.524767  0.195456  1
  Pd  Pd19  1  0.500000  0.475233  0.804544  1
  Pd  Pd20  1  0.500000  0.975233  0.695456  1
  Pd  Pd21  1  0.500000  0.024767  0.304544  1
