# generated using pymatgen
data_DyTl3(PS4)2
_symmetry_space_group_name_H-M   'P 1'
_cell_length_a   8.94200491
_cell_length_b   10.01251545
_cell_length_c   10.66817000
_cell_angle_alpha   107.38890289
_cell_angle_beta   103.19554707
_cell_angle_gamma   113.98922562
_symmetry_Int_Tables_number   1
_chemical_formula_structural   DyTl3(PS4)2
_chemical_formula_sum   'Dy2 Tl6 P4 S16'
_cell_volume   762.80391899
_cell_formula_units_Z   2
loop_
 _symmetry_equiv_pos_site_id
 _symmetry_equiv_pos_as_xyz
  1  'x, y, z'
loop_
 _atom_site_type_symbol
 _atom_site_label
 _atom_site_symmetry_multiplicity
 _atom_site_fract_x
 _atom_site_fract_y
 _atom_site_fract_z
 _atom_site_occupancy
  Dy  Dy0  1  0.994820  0.244829  0.489604  1
  Dy  Dy1  1  0.005181  0.755172  0.510396  1
  Tl  Tl2  1  0.999996  0.499994  0.999998  1
  Tl  Tl3  1  0.499990  0.499994  0.999998  1
  Tl  Tl4  1  0.255811  0.005800  0.011592  1
  Tl  Tl5  1  0.494787  0.744732  0.489501  1
  Tl  Tl6  1  0.505214  0.255269  0.510498  1
  Tl  Tl7  1  0.744190  0.994202  0.988407  1
  P  P8  1  0.742964  0.342824  0.251771  1
  P  P9  1  0.008811  0.908905  0.251771  1
  P  P10  1  0.991189  0.091095  0.748228  1
  P  P11  1  0.257038  0.657177  0.748231  1
  S  S12  1  0.644201  0.269570  0.037701  1
  S  S13  1  0.893480  0.768178  0.037699  1
  S  S14  1  0.134488  0.152549  0.292235  1
  S  S15  1  0.657795  0.139620  0.292193  1
  S  S16  1  0.017804  0.466596  0.339709  1
  S  S17  1  0.821912  0.873074  0.339750  1
  S  S18  1  0.656174  0.489381  0.351622  1
  S  S19  1  0.195422  0.862143  0.351587  1
  S  S20  1  0.804578  0.137857  0.648414  1
  S  S21  1  0.343828  0.510621  0.648380  1
  S  S22  1  0.178089  0.126928  0.660251  1
  S  S23  1  0.982198  0.533405  0.660291  1
  S  S24  1  0.342206  0.860380  0.707805  1
  S  S25  1  0.865515  0.847452  0.707767  1
  S  S26  1  0.106522  0.231823  0.962301  1
  S  S27  1  0.355801  0.730433  0.962301  1
