# generated using pymatgen
data_Tb2YZr3Sn6(IrRh2)2
_symmetry_space_group_name_H-M   'P 1'
_cell_length_a   7.50959500
_cell_length_b   7.53510165
_cell_length_c   7.39969600
_cell_angle_alpha   90.00000000
_cell_angle_beta   90.00000000
_cell_angle_gamma   120.23190278
_symmetry_Int_Tables_number   1
_chemical_formula_structural   Tb2YZr3Sn6(IrRh2)2
_chemical_formula_sum   'Tb2 Y1 Zr3 Sn6 Ir2 Rh4'
_cell_volume   361.76831596
_cell_formula_units_Z   1
loop_
 _symmetry_equiv_pos_site_id
 _symmetry_equiv_pos_as_xyz
  1  'x, y, z'
loop_
 _atom_site_type_symbol
 _atom_site_label
 _atom_site_symmetry_multiplicity
 _atom_site_fract_x
 _atom_site_fract_y
 _atom_site_fract_z
 _atom_site_occupancy
  Tb  Tb0  1  0.593817  0.001234  0.250000  1
  Tb  Tb1  1  0.409470  0.403995  0.250000  1
  Y  Y2  1  0.994343  0.592155  0.250000  1
  Zr  Zr3  1  0.608023  0.005014  0.750000  1
  Zr  Zr4  1  0.395536  0.394528  0.750000  1
  Zr  Zr5  1  0.998224  0.601869  0.750000  1
  Sn  Sn6  1  0.264186  0.996336  0.992411  1
  Sn  Sn7  1  0.732430  0.735816  0.508609  1
  Sn  Sn8  1  0.003443  0.267432  0.503260  1
  Sn  Sn9  1  0.003443  0.267432  0.996740  1
  Sn  Sn10  1  0.732430  0.735816  0.991391  1
  Sn  Sn11  1  0.264186  0.996336  0.507589  1
  Ir  Ir12  1  0.666600  0.333543  0.968011  1
  Ir  Ir13  1  0.666600  0.333543  0.531989  1
  Rh  Rh14  1  0.333419  0.667006  0.967526  1
  Rh  Rh15  1  0.333419  0.667006  0.532474  1
  Rh  Rh16  1  0.001012  0.003027  0.750000  1
  Rh  Rh17  1  0.999421  0.997911  0.250000  1
