# generated using pymatgen
data_Ta2CrCdFe(PO4)6
_symmetry_space_group_name_H-M   'P 1'
_cell_length_a   8.64953881
_cell_length_b   8.64953938
_cell_length_c   8.81357500
_cell_angle_alpha   119.38620581
_cell_angle_beta   60.61378448
_cell_angle_gamma   119.99999948
_symmetry_Int_Tables_number   1
_chemical_formula_structural   Ta2CrCdFe(PO4)6
_chemical_formula_sum   'Ta2 Cr1 Cd1 Fe1 P6 O24'
_cell_volume   470.53342649
_cell_formula_units_Z   1
loop_
 _symmetry_equiv_pos_site_id
 _symmetry_equiv_pos_as_xyz
  1  'x, y, z'
loop_
 _atom_site_type_symbol
 _atom_site_label
 _atom_site_symmetry_multiplicity
 _atom_site_fract_x
 _atom_site_fract_y
 _atom_site_fract_z
 _atom_site_occupancy
  Ta  Ta0  1  0.639107  0.360892  0.082676  1
  Ta  Ta1  1  0.361104  0.638895  0.916688  1
  Cr  Cr2  1  0.855558  0.144442  0.433324  1
  Cd  Cd3  1  0.000414  0.999586  0.998759  1
  Fe  Fe4  1  0.145927  0.854073  0.562220  1
  P  P5  1  0.240200  0.033007  0.252622  1
  P  P6  1  0.966993  0.459817  0.252622  1
  P  P7  1  0.540183  0.759799  0.252622  1
  P  P8  1  0.460789  0.240323  0.747426  1
  P  P9  1  0.032108  0.539211  0.747426  1
  P  P10  1  0.759677  0.967892  0.747426  1
  O  O11  1  0.138108  0.494913  0.079340  1
  O  O12  1  0.505087  0.722534  0.079340  1
  O  O13  1  0.277466  0.861892  0.079340  1
  O  O14  1  0.422788  0.208302  0.231462  1
  O  O15  1  0.791699  0.445950  0.231462  1
  O  O16  1  0.554051  0.577212  0.231462  1
  O  O17  1  0.084513  0.066454  0.246556  1
  O  O18  1  0.933547  0.264617  0.246556  1
  O  O19  1  0.735383  0.915487  0.246556  1
  O  O20  1  0.196366  0.006523  0.427967  1
  O  O21  1  0.993476  0.617809  0.427967  1
  O  O22  1  0.382190  0.803634  0.427967  1
  O  O23  1  0.618679  0.197324  0.572150  1
  O  O24  1  0.006494  0.381321  0.572150  1
  O  O25  1  0.802675  0.993505  0.572150  1
  O  O26  1  0.265572  0.085466  0.754190  1
  O  O27  1  0.065705  0.734428  0.754190  1
  O  O28  1  0.914534  0.934296  0.754190  1
  O  O29  1  0.446158  0.423175  0.769098  1
  O  O30  1  0.207920  0.553843  0.769098  1
  O  O31  1  0.576825  0.792081  0.769098  1
  O  O32  1  0.721521  0.138447  0.921300  1
  O  O33  1  0.495625  0.278479  0.921300  1
  O  O34  1  0.861553  0.504375  0.921300  1
