# generated using pymatgen
data_Er19TmSn7Pb9
_symmetry_space_group_name_H-M   'P 1'
_cell_length_a   8.09837415
_cell_length_b   8.14833209
_cell_length_c   15.45786800
_cell_angle_alpha   90.00000000
_cell_angle_beta   90.00000000
_cell_angle_gamma   90.01942483
_symmetry_Int_Tables_number   1
_chemical_formula_structural   Er19TmSn7Pb9
_chemical_formula_sum   'Er19 Tm1 Sn7 Pb9'
_cell_volume   1020.03747479
_cell_formula_units_Z   1
loop_
 _symmetry_equiv_pos_site_id
 _symmetry_equiv_pos_as_xyz
  1  'x, y, z'
loop_
 _atom_site_type_symbol
 _atom_site_label
 _atom_site_symmetry_multiplicity
 _atom_site_fract_x
 _atom_site_fract_y
 _atom_site_fract_z
 _atom_site_occupancy
  Er  Er0  1  0.380151  0.838500  0.876631  1
  Er  Er1  1  0.880511  0.660979  0.623499  1
  Er  Er2  1  0.619844  0.161095  0.377238  1
  Er  Er3  1  0.119673  0.337422  0.122906  1
  Er  Er4  1  0.619844  0.161095  0.122762  1
  Er  Er5  1  0.119673  0.337422  0.377094  1
  Er  Er6  1  0.380151  0.838500  0.623369  1
  Er  Er7  1  0.880511  0.660979  0.876501  1
  Er  Er8  1  0.537911  0.324944  0.895786  1
  Er  Er9  1  0.038441  0.174541  0.604429  1
  Er  Er10  1  0.464705  0.675120  0.397158  1
  Er  Er11  1  0.959889  0.827132  0.101558  1
  Er  Er12  1  0.464705  0.675120  0.102842  1
  Er  Er13  1  0.959889  0.827132  0.398442  1
  Er  Er14  1  0.537911  0.324944  0.604214  1
  Er  Er15  1  0.038441  0.174541  0.895571  1
  Er  Er16  1  0.710873  0.996395  0.750000  1
  Er  Er17  1  0.787213  0.494913  0.250000  1
  Er  Er18  1  0.291141  0.006483  0.250000  1
  Tm  Tm19  1  0.211005  0.503507  0.750000  1
  Sn  Sn20  1  0.575618  0.622808  0.750000  1
  Sn  Sn21  1  0.076009  0.876453  0.750000  1
  Sn  Sn22  1  0.424834  0.376263  0.250000  1
  Sn  Sn23  1  0.924005  0.121943  0.250000  1
  Sn  Sn24  1  0.346012  0.149409  0.750000  1
  Sn  Sn25  1  0.846002  0.350901  0.750000  1
  Sn  Sn26  1  0.655127  0.850379  0.250000  1
  Pb  Pb27  1  0.280324  0.031688  0.040924  1
  Pb  Pb28  1  0.781525  0.467434  0.459169  1
  Pb  Pb29  1  0.718460  0.968484  0.541951  1
  Pb  Pb30  1  0.219022  0.531453  0.958758  1
  Pb  Pb31  1  0.718460  0.968484  0.958049  1
  Pb  Pb32  1  0.219022  0.531453  0.541242  1
  Pb  Pb33  1  0.280324  0.031688  0.459076  1
  Pb  Pb34  1  0.781525  0.467434  0.040831  1
  Pb  Pb35  1  0.151243  0.652964  0.250000  1
