# generated using pymatgen
data_NaPa2Se5
_symmetry_space_group_name_H-M   'P 1'
_cell_length_a   7.71261300
_cell_length_b   8.62195936
_cell_length_c   12.25665850
_cell_angle_alpha   90.22505787
_cell_angle_beta   90.00000000
_cell_angle_gamma   90.00000000
_symmetry_Int_Tables_number   1
_chemical_formula_structural   NaPa2Se5
_chemical_formula_sum   'Na4 Pa8 Se20'
_cell_volume   815.03497660
_cell_formula_units_Z   4
loop_
 _symmetry_equiv_pos_site_id
 _symmetry_equiv_pos_as_xyz
  1  'x, y, z'
loop_
 _atom_site_type_symbol
 _atom_site_label
 _atom_site_symmetry_multiplicity
 _atom_site_fract_x
 _atom_site_fract_y
 _atom_site_fract_z
 _atom_site_occupancy
  Na  Na0  1  0.045406  0.492327  0.328067  1
  Na  Na1  1  0.545406  0.507673  0.171933  1
  Na  Na2  1  0.954594  0.507673  0.671933  1
  Na  Na3  1  0.454594  0.492327  0.828067  1
  Pa  Pa4  1  0.024876  0.999817  0.318424  1
  Pa  Pa5  1  0.524876  0.000183  0.181576  1
  Pa  Pa6  1  0.975124  0.000183  0.681576  1
  Pa  Pa7  1  0.475124  0.999817  0.818424  1
  Pa  Pa8  1  0.074924  0.744887  0.008321  1
  Pa  Pa9  1  0.574924  0.255113  0.491679  1
  Pa  Pa10  1  0.925076  0.255113  0.991679  1
  Pa  Pa11  1  0.425076  0.744887  0.508321  1
  Se  Se12  1  0.663808  0.954484  0.403881  1
  Se  Se13  1  0.163808  0.045516  0.096119  1
  Se  Se14  1  0.336192  0.045516  0.596119  1
  Se  Se15  1  0.836192  0.954484  0.903881  1
  Se  Se16  1  0.455589  0.784541  0.001532  1
  Se  Se17  1  0.955589  0.215459  0.498468  1
  Se  Se18  1  0.544411  0.215459  0.998468  1
  Se  Se19  1  0.044411  0.784541  0.501532  1
  Se  Se20  1  0.832870  0.779888  0.184340  1
  Se  Se21  1  0.332870  0.220112  0.315660  1
  Se  Se22  1  0.167130  0.220112  0.815660  1
  Se  Se23  1  0.667130  0.779888  0.684340  1
  Se  Se24  1  0.306360  0.768178  0.282889  1
  Se  Se25  1  0.806360  0.231822  0.217111  1
  Se  Se26  1  0.693640  0.231822  0.717111  1
  Se  Se27  1  0.193640  0.768178  0.782889  1
  Se  Se28  1  0.177175  0.456157  0.081734  1
  Se  Se29  1  0.677175  0.543843  0.418266  1
  Se  Se30  1  0.822825  0.543843  0.918266  1
  Se  Se31  1  0.322825  0.456157  0.581734  1
