# generated using pymatgen
data_Ho5Er15(Cd3Ru)2
_symmetry_space_group_name_H-M   'P 1'
_cell_length_a   9.52574300
_cell_length_b   9.52574379
_cell_length_c   9.76162700
_cell_angle_alpha   90.00000000
_cell_angle_beta   90.00000000
_cell_angle_gamma   119.98816264
_symmetry_Int_Tables_number   1
_chemical_formula_structural   Ho5Er15(Cd3Ru)2
_chemical_formula_sum   'Ho5 Er15 Cd6 Ru2'
_cell_volume   767.18903688
_cell_formula_units_Z   1
loop_
 _symmetry_equiv_pos_site_id
 _symmetry_equiv_pos_as_xyz
  1  'x, y, z'
loop_
 _atom_site_type_symbol
 _atom_site_label
 _atom_site_symmetry_multiplicity
 _atom_site_fract_x
 _atom_site_fract_y
 _atom_site_fract_z
 _atom_site_occupancy
  Ho  Ho0  1  0.540920  0.082130  0.250000  1
  Ho  Ho1  1  0.917870  0.459080  0.250000  1
  Ho  Ho2  1  0.459094  0.540906  0.750000  1
  Ho  Ho3  1  0.459077  0.918215  0.750000  1
  Ho  Ho4  1  0.081785  0.540923  0.750000  1
  Er  Er5  1  0.000032  0.999968  0.500004  1
  Er  Er6  1  0.000032  0.999968  0.999996  1
  Er  Er7  1  0.209799  0.790201  0.440020  1
  Er  Er8  1  0.210084  0.419580  0.439947  1
  Er  Er9  1  0.580420  0.789916  0.439947  1
  Er  Er10  1  0.790211  0.209789  0.559960  1
  Er  Er11  1  0.789955  0.580309  0.559753  1
  Er  Er12  1  0.419691  0.210045  0.559753  1
  Er  Er13  1  0.790211  0.209789  0.940040  1
  Er  Er14  1  0.789955  0.580309  0.940247  1
  Er  Er15  1  0.419691  0.210045  0.940247  1
  Er  Er16  1  0.209799  0.790201  0.059980  1
  Er  Er17  1  0.210084  0.419580  0.060053  1
  Er  Er18  1  0.580420  0.789916  0.060053  1
  Er  Er19  1  0.540726  0.459274  0.250000  1
  Cd  Cd20  1  0.885603  0.114397  0.250000  1
  Cd  Cd21  1  0.885249  0.770833  0.250000  1
  Cd  Cd22  1  0.229167  0.114751  0.250000  1
  Cd  Cd23  1  0.114416  0.885584  0.750000  1
  Cd  Cd24  1  0.114342  0.228784  0.750000  1
  Cd  Cd25  1  0.771216  0.885658  0.750000  1
  Ru  Ru26  1  0.333447  0.666553  0.250000  1
  Ru  Ru27  1  0.666701  0.333299  0.750000  1
