# generated using pymatgen
data_Dy5Y3Ti11Si16Ru
_symmetry_space_group_name_H-M   'P 1'
_cell_length_a   7.03977725
_cell_length_b   7.03978017
_cell_length_c   12.90039941
_cell_angle_alpha   89.98404505
_cell_angle_beta   90.01699845
_cell_angle_gamma   89.87141021
_symmetry_Int_Tables_number   1
_chemical_formula_structural   Dy5Y3Ti11Si16Ru
_chemical_formula_sum   'Dy5 Y3 Ti11 Si16 Ru1'
_cell_volume   639.32257785
_cell_formula_units_Z   1
loop_
 _symmetry_equiv_pos_site_id
 _symmetry_equiv_pos_as_xyz
  1  'x, y, z'
loop_
 _atom_site_type_symbol
 _atom_site_label
 _atom_site_symmetry_multiplicity
 _atom_site_fract_x
 _atom_site_fract_y
 _atom_site_fract_z
 _atom_site_occupancy
  Dy  Dy0  1  0.159266  0.503095  0.781986  1
  Dy  Dy1  1  0.840460  0.499718  0.284996  1
  Dy  Dy2  1  0.503102  0.159235  0.218074  1
  Dy  Dy3  1  0.499678  0.840528  0.714959  1
  Dy  Dy4  1  0.341762  0.001490  0.468128  1
  Y  Y5  1  0.995965  0.659630  0.032628  1
  Y  Y6  1  0.001733  0.341556  0.531803  1
  Y  Y7  1  0.659632  0.995980  0.967371  1
  Ti  Ti8  1  0.344210  0.507581  0.374352  1
  Ti  Ti9  1  0.849201  0.995759  0.375611  1
  Ti  Ti10  1  0.006314  0.151874  0.124787  1
  Ti  Ti11  1  0.995901  0.849244  0.624306  1
  Ti  Ti12  1  0.507576  0.344108  0.625590  1
  Ti  Ti13  1  0.151904  0.006340  0.875216  1
  Ti  Ti14  1  0.825086  0.172496  0.748607  1
  Ti  Ti15  1  0.172509  0.825155  0.251481  1
  Ti  Ti16  1  0.326164  0.326190  0.000007  1
  Ti  Ti17  1  0.492663  0.651311  0.127976  1
  Ti  Ti18  1  0.651348  0.492656  0.871993  1
  Si  Si19  1  0.046726  0.712942  0.435476  1
  Si  Si20  1  0.952293  0.291399  0.934312  1
  Si  Si21  1  0.712654  0.046597  0.564492  1
  Si  Si22  1  0.208080  0.452986  0.184565  1
  Si  Si23  1  0.790184  0.550230  0.682228  1
  Si  Si24  1  0.452974  0.208072  0.815432  1
  Si  Si25  1  0.550143  0.790364  0.317882  1
  Si  Si26  1  0.291383  0.952313  0.065700  1
  Si  Si27  1  0.797374  0.868817  0.185589  1
  Si  Si28  1  0.300394  0.627002  0.565651  1
  Si  Si29  1  0.703334  0.369228  0.065531  1
  Si  Si30  1  0.626685  0.300208  0.434316  1
  Si  Si31  1  0.369224  0.703323  0.934484  1
  Si  Si32  1  0.130897  0.203286  0.315793  1
  Si  Si33  1  0.203465  0.130721  0.684268  1
  Si  Si34  1  0.868782  0.797384  0.814417  1
  Ru  Ru35  1  0.670935  0.671182  0.499994  1
