# generated using pymatgen
data_Pr8Cu(Si4Au)3
_symmetry_space_group_name_H-M   'P 1'
_cell_length_a   8.26828800
_cell_length_b   8.26828897
_cell_length_c   8.74475500
_cell_angle_alpha   90.00000000
_cell_angle_beta   90.00000000
_cell_angle_gamma   120.00000411
_symmetry_Int_Tables_number   1
_chemical_formula_structural   Pr8Cu(Si4Au)3
_chemical_formula_sum   'Pr8 Cu1 Si12 Au3'
_cell_volume   517.73735693
_cell_formula_units_Z   1
loop_
 _symmetry_equiv_pos_site_id
 _symmetry_equiv_pos_as_xyz
  1  'x, y, z'
loop_
 _atom_site_type_symbol
 _atom_site_label
 _atom_site_symmetry_multiplicity
 _atom_site_fract_x
 _atom_site_fract_y
 _atom_site_fract_z
 _atom_site_occupancy
  Pr  Pr0  1  0.500956  0.499044  0.747442  1
  Pr  Pr1  1  0.501253  0.498747  0.252559  1
  Pr  Pr2  1  0.998087  0.499044  0.747442  1
  Pr  Pr3  1  0.997494  0.498747  0.252559  1
  Pr  Pr4  1  0.500956  0.001913  0.747442  1
  Pr  Pr5  1  0.501253  0.002506  0.252559  1
  Pr  Pr6  1  0.000000  0.000000  0.748296  1
  Pr  Pr7  1  0.000000  0.000000  0.251854  1
  Cu  Cu8  1  0.666667  0.333333  0.499720  1
  Si  Si9  1  0.836439  0.163561  0.001101  1
  Si  Si10  1  0.164086  0.835914  0.999021  1
  Si  Si11  1  0.327121  0.163561  0.001101  1
  Si  Si12  1  0.162965  0.837035  0.499550  1
  Si  Si13  1  0.671828  0.835914  0.999021  1
  Si  Si14  1  0.829853  0.170147  0.500617  1
  Si  Si15  1  0.836439  0.672879  0.001101  1
  Si  Si16  1  0.674070  0.837035  0.499550  1
  Si  Si17  1  0.164086  0.328172  0.999021  1
  Si  Si18  1  0.340293  0.170147  0.500617  1
  Si  Si19  1  0.162965  0.325930  0.499550  1
  Si  Si20  1  0.829853  0.659707  0.500617  1
  Au  Au21  1  0.666667  0.333333  0.998591  1
  Au  Au22  1  0.333333  0.666667  0.000987  1
  Au  Au23  1  0.333333  0.666667  0.499681  1
