# generated using pymatgen
data_Li2Pa2Nb2Zn7
_symmetry_space_group_name_H-M   'P 1'
_cell_length_a   10.30477092
_cell_length_b   10.30476959
_cell_length_c   10.30477000
_cell_angle_alpha   28.97709521
_cell_angle_beta   28.97709711
_cell_angle_gamma   28.97709512
_symmetry_Int_Tables_number   1
_chemical_formula_structural   Li2Pa2Nb2Zn7
_chemical_formula_sum   'Li2 Pa2 Nb2 Zn7'
_cell_volume   227.14831146
_cell_formula_units_Z   1
loop_
 _symmetry_equiv_pos_site_id
 _symmetry_equiv_pos_as_xyz
  1  'x, y, z'
loop_
 _atom_site_type_symbol
 _atom_site_label
 _atom_site_symmetry_multiplicity
 _atom_site_fract_x
 _atom_site_fract_y
 _atom_site_fract_z
 _atom_site_occupancy
  Li  Li0  1  0.648913  0.648913  0.648913  1
  Li  Li1  1  0.351087  0.351087  0.351087  1
  Pa  Pa2  1  0.833300  0.833300  0.833300  1
  Pa  Pa3  1  0.166700  0.166700  0.166700  1
  Nb  Nb4  1  0.545055  0.545055  0.545055  1
  Nb  Nb5  1  0.454945  0.454945  0.454945  1
  Zn  Zn6  1  0.000000  0.000000  0.000000  1
  Zn  Zn7  1  0.904797  0.409143  0.904797  1
  Zn  Zn8  1  0.904797  0.904797  0.409143  1
  Zn  Zn9  1  0.409143  0.904797  0.904797  1
  Zn  Zn10  1  0.095203  0.590857  0.095203  1
  Zn  Zn11  1  0.095203  0.095203  0.590857  1
  Zn  Zn12  1  0.590857  0.095203  0.095203  1
