# generated using pymatgen
data_NpP4N7
_symmetry_space_group_name_H-M   'P 1'
_cell_length_a   5.13351865
_cell_length_b   7.52491827
_cell_length_c   8.60758600
_cell_angle_alpha   72.72310623
_cell_angle_beta   107.99378227
_cell_angle_gamma   98.67174420
_symmetry_Int_Tables_number   1
_chemical_formula_structural   NpP4N7
_chemical_formula_sum   'Np2 P8 N14'
_cell_volume   301.33509538
_cell_formula_units_Z   2
loop_
 _symmetry_equiv_pos_site_id
 _symmetry_equiv_pos_as_xyz
  1  'x, y, z'
loop_
 _atom_site_type_symbol
 _atom_site_label
 _atom_site_symmetry_multiplicity
 _atom_site_fract_x
 _atom_site_fract_y
 _atom_site_fract_z
 _atom_site_occupancy
  Np  Np0  1  0.337934  0.801565  0.200346  1
  Np  Np1  1  0.662080  0.198440  0.799669  1
  P  P2  1  0.291936  0.281035  0.078905  1
  P  P3  1  0.838393  0.127549  0.240515  1
  P  P4  1  0.724446  0.491450  0.255420  1
  P  P5  1  0.015484  0.244147  0.570291  1
  P  P6  1  0.984519  0.755849  0.429713  1
  P  P7  1  0.275544  0.508552  0.744579  1
  P  P8  1  0.161602  0.872453  0.759483  1
  P  P9  1  0.708059  0.718965  0.921087  1
  N  N10  1  0.549929  0.165462  0.086104  1
  N  N11  1  0.875710  0.637345  0.119609  1
  N  N12  1  0.081451  0.116526  0.158940  1
  N  N13  1  0.403975  0.445425  0.172932  1
  N  N14  1  0.898197  0.294299  0.344151  1
  N  N15  1  0.779800  0.930618  0.369247  1
  N  N16  1  0.733504  0.586674  0.402313  1
  N  N17  1  0.266492  0.413315  0.597695  1
  N  N18  1  0.220210  0.069388  0.630758  1
  N  N19  1  0.101808  0.705706  0.655848  1
  N  N20  1  0.596024  0.554574  0.827071  1
  N  N21  1  0.918537  0.883479  0.841051  1
  N  N22  1  0.124295  0.362645  0.880386  1
  N  N23  1  0.450071  0.834536  0.913887  1
