# generated using pymatgen
data_Y2Os3Ru
_symmetry_space_group_name_H-M   'P 1'
_cell_length_a   5.27718400
_cell_length_b   5.27718365
_cell_length_c   9.04928900
_cell_angle_alpha   90.00000000
_cell_angle_beta   90.00000000
_cell_angle_gamma   120.00000220
_symmetry_Int_Tables_number   1
_chemical_formula_structural   Y2Os3Ru
_chemical_formula_sum   'Y4 Os6 Ru2'
_cell_volume   218.24762455
_cell_formula_units_Z   2
loop_
 _symmetry_equiv_pos_site_id
 _symmetry_equiv_pos_as_xyz
  1  'x, y, z'
loop_
 _atom_site_type_symbol
 _atom_site_label
 _atom_site_symmetry_multiplicity
 _atom_site_fract_x
 _atom_site_fract_y
 _atom_site_fract_z
 _atom_site_occupancy
  Y  Y0  1  0.666666  0.333333  0.065162  1
  Y  Y1  1  0.666666  0.333333  0.434838  1
  Y  Y2  1  0.333334  0.666668  0.565161  1
  Y  Y3  1  0.333334  0.666668  0.934839  1
  Os  Os4  1  0.170293  0.340586  0.250000  1
  Os  Os5  1  0.170294  0.829706  0.250000  1
  Os  Os6  1  0.659413  0.829706  0.250000  1
  Os  Os7  1  0.340585  0.170292  0.750000  1
  Os  Os8  1  0.829707  0.170292  0.750000  1
  Os  Os9  1  0.829706  0.659414  0.750000  1
  Ru  Ru10  1  0.000000  0.000000  0.000000  1
  Ru  Ru11  1  0.000000  0.000000  0.500000  1
