# generated using pymatgen
data_Ho2ReB8W
_symmetry_space_group_name_H-M   'P 1'
_cell_length_a   3.61246800
_cell_length_b   5.99533049
_cell_length_c   11.59819695
_cell_angle_alpha   89.95351504
_cell_angle_beta   90.00000000
_cell_angle_gamma   90.00000000
_symmetry_Int_Tables_number   1
_chemical_formula_structural   Ho2ReB8W
_chemical_formula_sum   'Ho4 Re2 B16 W2'
_cell_volume   251.19296593
_cell_formula_units_Z   2
loop_
 _symmetry_equiv_pos_site_id
 _symmetry_equiv_pos_as_xyz
  1  'x, y, z'
loop_
 _atom_site_type_symbol
 _atom_site_label
 _atom_site_symmetry_multiplicity
 _atom_site_fract_x
 _atom_site_fract_y
 _atom_site_fract_z
 _atom_site_occupancy
  Ho  Ho0  1  0.000000  0.627884  0.149035  1
  Ho  Ho1  1  0.000000  0.372116  0.850965  1
  Ho  Ho2  1  0.000000  0.126916  0.349228  1
  Ho  Ho3  1  0.000000  0.873084  0.650772  1
  Re  Re4  1  0.000000  0.134488  0.087135  1
  Re  Re5  1  0.000000  0.865512  0.912865  1
  B  B6  1  0.500000  0.977331  0.191506  1
  B  B7  1  0.500000  0.022669  0.808494  1
  B  B8  1  0.500000  0.476062  0.305558  1
  B  B9  1  0.500000  0.523938  0.694442  1
  B  B10  1  0.500000  0.790068  0.313015  1
  B  B11  1  0.500000  0.209932  0.686985  1
  B  B12  1  0.500000  0.285715  0.184454  1
  B  B13  1  0.500000  0.714285  0.815546  1
  B  B14  1  0.500000  0.867285  0.467583  1
  B  B15  1  0.500000  0.132715  0.532417  1
  B  B16  1  0.500000  0.363462  0.030738  1
  B  B17  1  0.500000  0.636538  0.969262  1
  B  B18  1  0.500000  0.886632  0.047301  1
  B  B19  1  0.500000  0.113368  0.952699  1
  B  B20  1  0.500000  0.384955  0.452351  1
  B  B21  1  0.500000  0.615045  0.547649  1
  W  W22  1  0.000000  0.630593  0.414375  1
  W  W23  1  0.000000  0.369407  0.585625  1
