# generated using pymatgen
data_Nb4Co4SiAs3
_symmetry_space_group_name_H-M   'P 1'
_cell_length_a   3.73174400
_cell_length_b   6.30988913
_cell_length_c   7.16026013
_cell_angle_alpha   89.97733501
_cell_angle_beta   90.00000000
_cell_angle_gamma   90.00000000
_symmetry_Int_Tables_number   1
_chemical_formula_structural   Nb4Co4SiAs3
_chemical_formula_sum   'Nb4 Co4 Si1 As3'
_cell_volume   168.60185098
_cell_formula_units_Z   1
loop_
 _symmetry_equiv_pos_site_id
 _symmetry_equiv_pos_as_xyz
  1  'x, y, z'
loop_
 _atom_site_type_symbol
 _atom_site_label
 _atom_site_symmetry_multiplicity
 _atom_site_fract_x
 _atom_site_fract_y
 _atom_site_fract_z
 _atom_site_occupancy
  Nb  Nb0  1  0.250000  0.018045  0.827182  1
  Nb  Nb1  1  0.250000  0.528118  0.676203  1
  Nb  Nb2  1  0.750000  0.972353  0.171539  1
  Nb  Nb3  1  0.750000  0.477431  0.325253  1
  Co  Co4  1  0.250000  0.147984  0.437749  1
  Co  Co5  1  0.250000  0.645966  0.055223  1
  Co  Co6  1  0.750000  0.849782  0.568748  1
  Co  Co7  1  0.750000  0.359913  0.937402  1
  Si  Si8  1  0.750000  0.722707  0.880302  1
  As  As9  1  0.250000  0.777256  0.377910  1
  As  As10  1  0.250000  0.276052  0.119833  1
  As  As11  1  0.750000  0.224394  0.622656  1
