# generated using pymatgen
data_Tm16Al4OsPt3
_symmetry_space_group_name_H-M   'P 1'
_cell_length_a   9.46556773
_cell_length_b   9.46556769
_cell_length_c   9.46556828
_cell_angle_alpha   59.76718850
_cell_angle_beta   59.76718794
_cell_angle_gamma   59.76718347
_symmetry_Int_Tables_number   1
_chemical_formula_structural   Tm16Al4OsPt3
_chemical_formula_sum   'Tm16 Al4 Os1 Pt3'
_cell_volume   596.51751242
_cell_formula_units_Z   1
loop_
 _symmetry_equiv_pos_site_id
 _symmetry_equiv_pos_as_xyz
  1  'x, y, z'
loop_
 _atom_site_type_symbol
 _atom_site_label
 _atom_site_symmetry_multiplicity
 _atom_site_fract_x
 _atom_site_fract_y
 _atom_site_fract_z
 _atom_site_occupancy
  Tm  Tm0  1  0.354644  0.354644  0.354644  1
  Tm  Tm1  1  0.352853  0.352853  0.938674  1
  Tm  Tm2  1  0.352853  0.938674  0.352853  1
  Tm  Tm3  1  0.938674  0.352853  0.352853  1
  Tm  Tm4  1  0.810793  0.191920  0.191920  1
  Tm  Tm5  1  0.193722  0.806409  0.806409  1
  Tm  Tm6  1  0.191920  0.810793  0.191920  1
  Tm  Tm7  1  0.806409  0.193722  0.806409  1
  Tm  Tm8  1  0.191920  0.191920  0.810793  1
  Tm  Tm9  1  0.806409  0.806409  0.193722  1
  Tm  Tm10  1  0.934691  0.564117  0.564117  1
  Tm  Tm11  1  0.557305  0.938682  0.938682  1
  Tm  Tm12  1  0.564117  0.934691  0.564117  1
  Tm  Tm13  1  0.938682  0.557305  0.938682  1
  Tm  Tm14  1  0.564117  0.564117  0.934691  1
  Tm  Tm15  1  0.938682  0.938682  0.557305  1
  Al  Al16  1  0.579124  0.579124  0.579124  1
  Al  Al17  1  0.578445  0.578445  0.265665  1
  Al  Al18  1  0.578445  0.265665  0.578445  1
  Al  Al19  1  0.265665  0.578445  0.578445  1
  Os  Os20  1  0.142795  0.142795  0.142795  1
  Pt  Pt21  1  0.143370  0.143370  0.570996  1
  Pt  Pt22  1  0.143370  0.570996  0.143370  1
  Pt  Pt23  1  0.570996  0.143370  0.143370  1
