# generated using pymatgen
data_Zr6Al4FeCuC2
_symmetry_space_group_name_H-M   'P 1'
_cell_length_a   8.63622239
_cell_length_b   8.62391729
_cell_length_c   8.62391685
_cell_angle_alpha   59.97985167
_cell_angle_beta   59.95278051
_cell_angle_gamma   59.95278140
_symmetry_Int_Tables_number   1
_chemical_formula_structural   Zr6Al4FeCuC2
_chemical_formula_sum   'Zr12 Al8 Fe2 Cu2 C4'
_cell_volume   453.77602988
_cell_formula_units_Z   2
loop_
 _symmetry_equiv_pos_site_id
 _symmetry_equiv_pos_as_xyz
  1  'x, y, z'
loop_
 _atom_site_type_symbol
 _atom_site_label
 _atom_site_symmetry_multiplicity
 _atom_site_fract_x
 _atom_site_fract_y
 _atom_site_fract_z
 _atom_site_occupancy
  Zr  Zr0  1  0.947094  0.945782  0.550012  1
  Zr  Zr1  1  0.697220  0.302780  0.302780  1
  Zr  Zr2  1  0.305309  0.694691  0.694691  1
  Zr  Zr3  1  0.692887  0.699988  0.304218  1
  Zr  Zr4  1  0.692887  0.304218  0.699988  1
  Zr  Zr5  1  0.302906  0.699988  0.304218  1
  Zr  Zr6  1  0.557113  0.945782  0.550012  1
  Zr  Zr7  1  0.552780  0.947220  0.947220  1
  Zr  Zr8  1  0.944691  0.555309  0.555309  1
  Zr  Zr9  1  0.947094  0.550012  0.945782  1
  Zr  Zr10  1  0.302906  0.304218  0.699988  1
  Zr  Zr11  1  0.557113  0.550012  0.945782  1
  Al  Al12  1  0.917593  0.236944  0.927868  1
  Al  Al13  1  0.332407  0.322132  0.013056  1
  Al  Al14  1  0.011191  0.326007  0.326007  1
  Al  Al15  1  0.336795  0.326007  0.326007  1
  Al  Al16  1  0.238809  0.923993  0.923993  1
  Al  Al17  1  0.913205  0.923993  0.923993  1
  Al  Al18  1  0.917593  0.927868  0.236944  1
  Al  Al19  1  0.332407  0.013056  0.322132  1
  Fe  Fe20  1  0.625000  0.125000  0.125000  1
  Fe  Fe21  1  0.125000  0.125000  0.125000  1
  Cu  Cu22  1  0.125000  0.625000  0.125000  1
  Cu  Cu23  1  0.125000  0.125000  0.625000  1
  C  C24  1  0.625000  0.125000  0.625000  1
  C  C25  1  0.625000  0.625000  0.125000  1
  C  C26  1  0.125000  0.625000  0.625000  1
  C  C27  1  0.625000  0.625000  0.625000  1
