# generated using pymatgen
data_LiSc5S6
_symmetry_space_group_name_H-M   'P 1'
_cell_length_a   6.38143499
_cell_length_b   6.37121513
_cell_length_c   6.38218130
_cell_angle_alpha   70.50936973
_cell_angle_beta   99.43662446
_cell_angle_gamma   119.87915674
_symmetry_Int_Tables_number   1
_chemical_formula_structural   LiSc5S6
_chemical_formula_sum   'Li1 Sc5 S6'
_cell_volume   212.09868475
_cell_formula_units_Z   1
loop_
 _symmetry_equiv_pos_site_id
 _symmetry_equiv_pos_as_xyz
  1  'x, y, z'
loop_
 _atom_site_type_symbol
 _atom_site_label
 _atom_site_symmetry_multiplicity
 _atom_site_fract_x
 _atom_site_fract_y
 _atom_site_fract_z
 _atom_site_occupancy
  Li  Li0  1  0.230609  0.822033  0.393756  1
  Sc  Sc1  1  0.559718  0.488744  0.380744  1
  Sc  Sc2  1  0.228373  0.322684  0.883863  1
  Sc  Sc3  1  0.899427  0.657701  0.883974  1
  Sc  Sc4  1  0.558179  0.986783  0.883387  1
  Sc  Sc5  1  0.897460  0.157475  0.380510  1
  S  S6  1  0.898872  0.905367  0.133592  1
  S  S7  1  0.228724  0.576200  0.137524  1
  S  S8  1  0.228515  0.071236  0.628896  1
  S  S9  1  0.558453  0.235116  0.133465  1
  S  S10  1  0.560033  0.739535  0.632342  1
  S  S11  1  0.897426  0.408764  0.631892  1
