# generated using pymatgen
data_NdNp2Ni3Bi4
_symmetry_space_group_name_H-M   'P 1'
_cell_length_a   8.47628925
_cell_length_b   8.47629015
_cell_length_c   8.47629000
_cell_angle_alpha   109.99436073
_cell_angle_beta   109.21028001
_cell_angle_gamma   109.21029238
_symmetry_Int_Tables_number   1
_chemical_formula_structural   NdNp2Ni3Bi4
_chemical_formula_sum   'Nd2 Np4 Ni6 Bi8'
_cell_volume   468.77917294
_cell_formula_units_Z   2
loop_
 _symmetry_equiv_pos_site_id
 _symmetry_equiv_pos_as_xyz
  1  'x, y, z'
loop_
 _atom_site_type_symbol
 _atom_site_label
 _atom_site_symmetry_multiplicity
 _atom_site_fract_x
 _atom_site_fract_y
 _atom_site_fract_z
 _atom_site_occupancy
  Nd  Nd0  1  0.249420  0.124578  0.874604  1
  Nd  Nd1  1  0.749420  0.374604  0.624578  1
  Np  Np2  1  0.128945  0.877702  0.248941  1
  Np  Np3  1  0.371016  0.621041  0.750263  1
  Np  Np4  1  0.871016  0.250263  0.121041  1
  Np  Np5  1  0.628945  0.748941  0.377702  1
  Ni  Ni6  1  0.630836  0.379865  0.249544  1
  Ni  Ni7  1  0.870393  0.121784  0.751799  1
  Ni  Ni8  1  0.370393  0.251799  0.621784  1
  Ni  Ni9  1  0.130836  0.749544  0.879865  1
  Ni  Ni10  1  0.249446  0.623440  0.375103  1
  Ni  Ni11  1  0.749446  0.875103  0.123440  1
  Bi  Bi12  1  0.338797  0.340306  0.339997  1
  Bi  Bi13  1  0.160713  0.500917  0.003126  1
  Bi  Bi14  1  0.998592  0.159176  0.498101  1
  Bi  Bi15  1  0.838797  0.839997  0.840306  1
  Bi  Bi16  1  0.501842  0.999496  0.160218  1
  Bi  Bi17  1  0.660713  0.503126  0.000917  1
  Bi  Bi18  1  0.498592  0.998101  0.659176  1
  Bi  Bi19  1  0.001842  0.660218  0.499496  1
