# generated using pymatgen
data_Tc4IrOsRh2
_symmetry_space_group_name_H-M   'P 1'
_cell_length_a   5.48606800
_cell_length_b   5.52338517
_cell_length_c   4.36627100
_cell_angle_alpha   90.00000000
_cell_angle_beta   90.00000000
_cell_angle_gamma   119.77675678
_symmetry_Int_Tables_number   1
_chemical_formula_structural   Tc4IrOsRh2
_chemical_formula_sum   'Tc4 Ir1 Os1 Rh2'
_cell_volume   114.83662281
_cell_formula_units_Z   1
loop_
 _symmetry_equiv_pos_site_id
 _symmetry_equiv_pos_as_xyz
  1  'x, y, z'
loop_
 _atom_site_type_symbol
 _atom_site_label
 _atom_site_symmetry_multiplicity
 _atom_site_fract_x
 _atom_site_fract_y
 _atom_site_fract_z
 _atom_site_occupancy
  Tc  Tc0  1  0.671602  0.835690  0.250000  1
  Tc  Tc1  1  0.164087  0.835690  0.250000  1
  Tc  Tc2  1  0.328926  0.165787  0.750000  1
  Tc  Tc3  1  0.836860  0.165787  0.750000  1
  Ir  Ir4  1  0.833738  0.667476  0.750000  1
  Os  Os5  1  0.163447  0.326893  0.250000  1
  Rh  Rh6  1  0.334507  0.669016  0.750000  1
  Rh  Rh7  1  0.666833  0.333664  0.250000  1
