# generated using pymatgen
data_Sc14Al8Os7
_symmetry_space_group_name_H-M   'P 1'
_cell_length_a   9.11672573
_cell_length_b   9.11672629
_cell_length_c   9.11672600
_cell_angle_alpha   60.00000105
_cell_angle_beta   59.99999901
_cell_angle_gamma   60.00000138
_symmetry_Int_Tables_number   1
_chemical_formula_structural   Sc14Al8Os7
_chemical_formula_sum   'Sc14 Al8 Os7'
_cell_volume   535.79877329
_cell_formula_units_Z   1
loop_
 _symmetry_equiv_pos_site_id
 _symmetry_equiv_pos_as_xyz
  1  'x, y, z'
loop_
 _atom_site_type_symbol
 _atom_site_label
 _atom_site_symmetry_multiplicity
 _atom_site_fract_x
 _atom_site_fract_y
 _atom_site_fract_z
 _atom_site_occupancy
  Sc  Sc0  1  0.690106  0.690106  0.309894  1
  Sc  Sc1  1  0.309894  0.690106  0.309894  1
  Sc  Sc2  1  0.690106  0.309894  0.309894  1
  Sc  Sc3  1  0.309894  0.309894  0.690106  1
  Sc  Sc4  1  0.690106  0.309894  0.690106  1
  Sc  Sc5  1  0.309894  0.690106  0.690106  1
  Sc  Sc6  1  0.876706  0.876706  0.369881  1
  Sc  Sc7  1  0.876706  0.369881  0.876706  1
  Sc  Sc8  1  0.369881  0.876706  0.876706  1
  Sc  Sc9  1  0.876706  0.876706  0.876706  1
  Sc  Sc10  1  0.123294  0.123294  0.630119  1
  Sc  Sc11  1  0.123294  0.630119  0.123294  1
  Sc  Sc12  1  0.630119  0.123294  0.123294  1
  Sc  Sc13  1  0.123294  0.123294  0.123294  1
  Al  Al14  1  0.664551  0.664551  0.006344  1
  Al  Al15  1  0.664551  0.006344  0.664551  1
  Al  Al16  1  0.006344  0.664551  0.664551  1
  Al  Al17  1  0.664551  0.664551  0.664551  1
  Al  Al18  1  0.335449  0.335449  0.993656  1
  Al  Al19  1  0.335449  0.993656  0.335449  1
  Al  Al20  1  0.993656  0.335449  0.335449  1
  Al  Al21  1  0.335449  0.335449  0.335449  1
  Os  Os22  1  0.000000  0.000000  0.000000  1
  Os  Os23  1  0.000000  0.000000  0.500000  1
  Os  Os24  1  0.500000  0.000000  0.500000  1
  Os  Os25  1  0.000000  0.500000  0.500000  1
  Os  Os26  1  0.500000  0.500000  0.000000  1
  Os  Os27  1  0.000000  0.500000  0.000000  1
  Os  Os28  1  0.500000  0.000000  0.000000  1
