# generated using pymatgen
data_Er6Zn22CuSe
_symmetry_space_group_name_H-M   'P 1'
_cell_length_a   8.97614423
_cell_length_b   8.99662613
_cell_length_c   8.99662623
_cell_angle_alpha   60.08505934
_cell_angle_beta   60.07527928
_cell_angle_gamma   60.07528127
_symmetry_Int_Tables_number   1
_chemical_formula_structural   Er6Zn22CuSe
_chemical_formula_sum   'Er6 Zn22 Cu1 Se1'
_cell_volume   514.64344254
_cell_formula_units_Z   1
loop_
 _symmetry_equiv_pos_site_id
 _symmetry_equiv_pos_as_xyz
  1  'x, y, z'
loop_
 _atom_site_type_symbol
 _atom_site_label
 _atom_site_symmetry_multiplicity
 _atom_site_fract_x
 _atom_site_fract_y
 _atom_site_fract_z
 _atom_site_occupancy
  Er  Er0  1  0.717315  0.282685  0.282685  1
  Er  Er1  1  0.716521  0.281776  0.718224  1
  Er  Er2  1  0.716521  0.718224  0.281776  1
  Er  Er3  1  0.282685  0.717315  0.717315  1
  Er  Er4  1  0.283479  0.718224  0.281776  1
  Er  Er5  1  0.283479  0.281776  0.718224  1
  Zn  Zn6  1  0.623090  0.123250  0.123250  1
  Zn  Zn7  1  0.125814  0.623527  0.124845  1
  Zn  Zn8  1  0.125814  0.124845  0.623527  1
  Zn  Zn9  1  0.130411  0.123250  0.123250  1
  Zn  Zn10  1  0.376910  0.876750  0.876750  1
  Zn  Zn11  1  0.874186  0.376473  0.875155  1
  Zn  Zn12  1  0.874186  0.875155  0.376473  1
  Zn  Zn13  1  0.869589  0.876750  0.876750  1
  Zn  Zn14  1  0.500000  0.000000  0.500000  1
  Zn  Zn15  1  0.500000  0.500000  0.000000  1
  Zn  Zn16  1  0.000000  0.500000  0.500000  1
  Zn  Zn17  1  0.000000  0.500000  0.000000  1
  Zn  Zn18  1  0.000000  0.000000  0.500000  1
  Zn  Zn19  1  0.000000  0.000000  0.000000  1
  Zn  Zn20  1  0.010771  0.329899  0.329899  1
  Zn  Zn21  1  0.331709  0.011169  0.325410  1
  Zn  Zn22  1  0.331709  0.325410  0.011169  1
  Zn  Zn23  1  0.329429  0.329899  0.329899  1
  Zn  Zn24  1  0.989229  0.670101  0.670101  1
  Zn  Zn25  1  0.668291  0.988831  0.674590  1
  Zn  Zn26  1  0.668291  0.674590  0.988831  1
  Zn  Zn27  1  0.670571  0.670101  0.670101  1
  Cu  Cu28  1  0.500000  0.000000  0.000000  1
  Se  Se29  1  0.500000  0.500000  0.500000  1
