# generated using pymatgen
data_NbSbP6(SeO12)2
_symmetry_space_group_name_H-M   'P 1'
_cell_length_a   8.50691001
_cell_length_b   8.49388909
_cell_length_c   8.99356623
_cell_angle_alpha   89.87885464
_cell_angle_beta   118.12024257
_cell_angle_gamma   119.93172716
_symmetry_Int_Tables_number   1
_chemical_formula_structural   NbSbP6(SeO12)2
_chemical_formula_sum   'Nb1 Sb1 P6 Se2 O24'
_cell_volume   473.03932579
_cell_formula_units_Z   1
loop_
 _symmetry_equiv_pos_site_id
 _symmetry_equiv_pos_as_xyz
  1  'x, y, z'
loop_
 _atom_site_type_symbol
 _atom_site_label
 _atom_site_symmetry_multiplicity
 _atom_site_fract_x
 _atom_site_fract_y
 _atom_site_fract_z
 _atom_site_occupancy
  Nb  Nb0  1  0.780698  0.141010  0.918618  1
  Sb  Sb1  1  0.196042  0.348280  0.544963  1
  P  P2  1  0.005627  0.967346  0.248563  1
  P  P3  1  0.280585  0.539153  0.252088  1
  P  P4  1  0.278298  0.740274  0.745763  1
  P  P5  1  0.708739  0.240465  0.252768  1
  P  P6  1  0.713396  0.473572  0.747439  1
  P  P7  1  0.014067  0.039416  0.754523  1
  Se  Se8  1  0.223921  0.865545  0.087474  1
  Se  Se9  1  0.804122  0.645979  0.454223  1
  O  O10  1  0.351120  0.743575  0.239754  1
  O  O11  1  0.893873  0.005295  0.071626  1
  O  O12  1  0.839237  0.839918  0.612242  1
  O  O13  1  0.839632  0.830120  0.287084  1
  O  O14  1  0.136941  0.892143  0.241520  1
  O  O15  1  0.453014  0.503886  0.295485  1
  O  O16  1  0.109647  0.759089  0.582689  1
  O  O17  1  0.894632  0.631340  0.920384  1
  O  O18  1  0.288061  0.775586  0.914724  1
  O  O19  1  0.496415  0.892964  0.767197  1
  O  O20  1  0.763560  0.481412  0.598579  1
  O  O21  1  0.768803  0.444667  0.284784  1
  O  O22  1  0.231858  0.537744  0.707850  1
  O  O23  1  0.225210  0.523530  0.398362  1
  O  O24  1  0.496166  0.102362  0.245530  1
  O  O25  1  0.689874  0.177809  0.080217  1
  O  O26  1  0.065795  0.387499  0.075811  1
  O  O27  1  0.877021  0.215889  0.408965  1
  O  O28  1  0.513642  0.479712  0.687552  1
  O  O29  1  0.882028  0.109728  0.769231  1
  O  O30  1  0.166368  0.182348  0.699137  1
  O  O31  1  0.185136  0.165680  0.396570  1
  O  O32  1  0.162668  0.040823  0.936498  1
  O  O33  1  0.663801  0.275835  0.771783  1
