# generated using pymatgen
data_Rb(HfS2)2
_symmetry_space_group_name_H-M   'P 1'
_cell_length_a   6.28656400
_cell_length_b   7.25836900
_cell_length_c   16.41419300
_cell_angle_alpha   90.00000000
_cell_angle_beta   90.00000000
_cell_angle_gamma   90.00000000
_symmetry_Int_Tables_number   1
_chemical_formula_structural   Rb(HfS2)2
_chemical_formula_sum   'Rb4 Hf8 S16'
_cell_volume   748.98293001
_cell_formula_units_Z   4
loop_
 _symmetry_equiv_pos_site_id
 _symmetry_equiv_pos_as_xyz
  1  'x, y, z'
loop_
 _atom_site_type_symbol
 _atom_site_label
 _atom_site_symmetry_multiplicity
 _atom_site_fract_x
 _atom_site_fract_y
 _atom_site_fract_z
 _atom_site_occupancy
  Rb  Rb0  1  0.347001  0.000000  0.000000  1
  Rb  Rb1  1  0.652999  0.500000  0.500000  1
  Rb  Rb2  1  0.037507  0.000000  0.500000  1
  Rb  Rb3  1  0.962493  0.500000  0.000000  1
  Hf  Hf4  1  0.999538  0.000000  0.248436  1
  Hf  Hf5  1  0.999538  0.000000  0.751564  1
  Hf  Hf6  1  0.000462  0.500000  0.251564  1
  Hf  Hf7  1  0.000462  0.500000  0.748436  1
  Hf  Hf8  1  0.500000  0.250000  0.250000  1
  Hf  Hf9  1  0.500000  0.750000  0.750000  1
  Hf  Hf10  1  0.500000  0.750000  0.250000  1
  Hf  Hf11  1  0.500000  0.250000  0.750000  1
  S  S12  1  0.833978  0.248276  0.341438  1
  S  S13  1  0.833978  0.751724  0.658562  1
  S  S14  1  0.166022  0.748276  0.158562  1
  S  S15  1  0.166022  0.251724  0.841438  1
  S  S16  1  0.166022  0.251724  0.158562  1
  S  S17  1  0.166022  0.748276  0.841438  1
  S  S18  1  0.833978  0.751724  0.341438  1
  S  S19  1  0.833978  0.248276  0.658562  1
  S  S20  1  0.666923  0.000000  0.159312  1
  S  S21  1  0.666923  0.000000  0.840688  1
  S  S22  1  0.333077  0.500000  0.340688  1
  S  S23  1  0.333077  0.500000  0.659312  1
  S  S24  1  0.334394  0.000000  0.338958  1
  S  S25  1  0.334394  0.000000  0.661042  1
  S  S26  1  0.665606  0.500000  0.161042  1
  S  S27  1  0.665606  0.500000  0.838958  1
