# generated using pymatgen
data_Ho9ErCd4(InPd)4
_symmetry_space_group_name_H-M   'P 1'
_cell_length_a   3.59323600
_cell_length_b   8.07454401
_cell_length_c   18.35003403
_cell_angle_alpha   90.00652216
_cell_angle_beta   90.00000000
_cell_angle_gamma   90.00000000
_symmetry_Int_Tables_number   1
_chemical_formula_structural   Ho9ErCd4(InPd)4
_chemical_formula_sum   'Ho9 Er1 Cd4 In4 Pd4'
_cell_volume   532.40315383
_cell_formula_units_Z   1
loop_
 _symmetry_equiv_pos_site_id
 _symmetry_equiv_pos_as_xyz
  1  'x, y, z'
loop_
 _atom_site_type_symbol
 _atom_site_label
 _atom_site_symmetry_multiplicity
 _atom_site_fract_x
 _atom_site_fract_y
 _atom_site_fract_z
 _atom_site_occupancy
  Ho  Ho0  1  0.000000  0.499914  0.499976  1
  Ho  Ho1  1  0.000000  0.000007  0.000007  1
  Ho  Ho2  1  0.000000  0.745177  0.280518  1
  Ho  Ho3  1  0.000000  0.254890  0.719491  1
  Ho  Ho4  1  0.000000  0.754884  0.780455  1
  Ho  Ho5  1  0.000000  0.244982  0.219602  1
  Ho  Ho6  1  0.000000  0.614060  0.083681  1
  Ho  Ho7  1  0.000000  0.385955  0.916325  1
  Ho  Ho8  1  0.000000  0.885925  0.583594  1
  Er  Er9  1  0.000000  0.113789  0.416103  1
  Cd  Cd10  1  0.500000  0.710594  0.931528  1
  Cd  Cd11  1  0.500000  0.289387  0.068449  1
  Cd  Cd12  1  0.500000  0.789893  0.431629  1
  Cd  Cd13  1  0.500000  0.210519  0.568240  1
  In  In14  1  0.500000  0.572065  0.647303  1
  In  In15  1  0.500000  0.427629  0.352743  1
  In  In16  1  0.500000  0.927951  0.147363  1
  In  In17  1  0.500000  0.072040  0.852682  1
  Pd  Pd18  1  0.500000  0.527356  0.196787  1
  Pd  Pd19  1  0.500000  0.472653  0.803224  1
  Pd  Pd20  1  0.500000  0.972687  0.696721  1
  Pd  Pd21  1  0.500000  0.027643  0.303581  1
