# generated using pymatgen
data_Tb3Dy4Ho5Co5Sn
_symmetry_space_group_name_H-M   'P 1'
_cell_length_a   8.28173987
_cell_length_b   8.27702487
_cell_length_c   8.27702643
_cell_angle_alpha   107.03266633
_cell_angle_beta   110.65524566
_cell_angle_gamma   110.72828109
_symmetry_Int_Tables_number   1
_chemical_formula_structural   Tb3Dy4Ho5Co5Sn
_chemical_formula_sum   'Tb3 Dy4 Ho5 Co5 Sn1'
_cell_volume   436.31081378
_cell_formula_units_Z   1
loop_
 _symmetry_equiv_pos_site_id
 _symmetry_equiv_pos_as_xyz
  1  'x, y, z'
loop_
 _atom_site_type_symbol
 _atom_site_label
 _atom_site_symmetry_multiplicity
 _atom_site_fract_x
 _atom_site_fract_y
 _atom_site_fract_z
 _atom_site_occupancy
  Tb  Tb0  1  0.478221  0.291606  0.186615  1
  Tb  Tb1  1  0.105984  0.291989  0.813994  1
  Tb  Tb2  1  0.894249  0.709755  0.184496  1
  Dy  Dy3  1  0.193938  0.210720  0.403919  1
  Dy  Dy4  1  0.807899  0.791490  0.600078  1
  Dy  Dy5  1  0.193938  0.790019  0.983218  1
  Dy  Dy6  1  0.807899  0.207820  0.016410  1
  Ho  Ho7  1  0.522728  0.709213  0.813514  1
  Ho  Ho8  1  0.307764  0.621681  0.315636  1
  Ho  Ho9  1  0.307764  0.992131  0.686083  1
  Ho  Ho10  1  0.692707  0.378523  0.685645  1
  Ho  Ho11  1  0.692707  0.007061  0.314182  1
  Co  Co12  1  0.498363  0.613075  0.109954  1
  Co  Co13  1  0.498363  0.388410  0.885288  1
  Co  Co14  1  0.376694  0.999892  0.376801  1
  Co  Co15  1  0.621485  0.998349  0.623138  1
  Co  Co16  1  0.999761  0.997927  0.001836  1
  Sn  Sn17  1  0.999533  0.500339  0.499194  1
