# generated using pymatgen
data_Hf6ZnGa5Pd5Pt
_symmetry_space_group_name_H-M   'P 1'
_cell_length_a   7.23532370
_cell_length_b   7.23402036
_cell_length_c   6.92298553
_cell_angle_alpha   90.09550786
_cell_angle_beta   89.91084282
_cell_angle_gamma   120.06638469
_symmetry_Int_Tables_number   1
_chemical_formula_structural   Hf6ZnGa5Pd5Pt
_chemical_formula_sum   'Hf6 Zn1 Ga5 Pd5 Pt1'
_cell_volume   313.59569312
_cell_formula_units_Z   1
loop_
 _symmetry_equiv_pos_site_id
 _symmetry_equiv_pos_as_xyz
  1  'x, y, z'
loop_
 _atom_site_type_symbol
 _atom_site_label
 _atom_site_symmetry_multiplicity
 _atom_site_fract_x
 _atom_site_fract_y
 _atom_site_fract_z
 _atom_site_occupancy
  Hf  Hf0  1  0.608716  0.589948  0.252340  1
  Hf  Hf1  1  0.024252  0.408489  0.747564  1
  Hf  Hf2  1  0.406316  0.020928  0.251533  1
  Hf  Hf3  1  0.983658  0.387883  0.252399  1
  Hf  Hf4  1  0.386478  0.980366  0.746894  1
  Hf  Hf5  1  0.587713  0.609915  0.747099  1
  Zn  Zn6  1  0.272597  0.269203  0.499626  1
  Ga  Ga7  1  0.735348  0.004149  0.499650  1
  Ga  Ga8  1  0.997062  0.731849  0.499265  1
  Ga  Ga9  1  0.728479  0.001088  0.999051  1
  Ga  Ga10  1  0.270402  0.270060  0.999483  1
  Ga  Ga11  1  0.000245  0.727968  0.000063  1
  Pd  Pd12  1  0.997692  0.997207  0.751679  1
  Pd  Pd13  1  0.997410  0.997583  0.246888  1
  Pd  Pd14  1  0.333726  0.667171  0.035331  1
  Pd  Pd15  1  0.669168  0.333802  0.529438  1
  Pd  Pd16  1  0.667238  0.333766  0.968194  1
  Pt  Pt17  1  0.333503  0.668628  0.473503  1
