# generated using pymatgen
data_U2(GaSn)3
_symmetry_space_group_name_H-M   'P 1'
_cell_length_a   4.38342200
_cell_length_b   4.49023800
_cell_length_c   9.01979200
_cell_angle_alpha   90.00000000
_cell_angle_beta   90.00000000
_cell_angle_gamma   90.00000000
_symmetry_Int_Tables_number   1
_chemical_formula_structural   U2(GaSn)3
_chemical_formula_sum   'U2 Ga3 Sn3'
_cell_volume   177.53303049
_cell_formula_units_Z   1
loop_
 _symmetry_equiv_pos_site_id
 _symmetry_equiv_pos_as_xyz
  1  'x, y, z'
loop_
 _atom_site_type_symbol
 _atom_site_label
 _atom_site_symmetry_multiplicity
 _atom_site_fract_x
 _atom_site_fract_y
 _atom_site_fract_z
 _atom_site_occupancy
  U  U0  1  0.000000  0.000000  0.754214  1
  U  U1  1  0.000000  0.000000  0.245786  1
  Ga  Ga2  1  0.500000  0.500000  0.761446  1
  Ga  Ga3  1  0.500000  0.500000  0.238554  1
  Ga  Ga4  1  0.500000  0.000000  0.000000  1
  Sn  Sn5  1  0.500000  0.000000  0.500000  1
  Sn  Sn6  1  0.000000  0.500000  0.000000  1
  Sn  Sn7  1  0.000000  0.500000  0.500000  1
