# generated using pymatgen
data_Ca2P7(IrRu2)4
_symmetry_space_group_name_H-M   'P 1'
_cell_length_a   9.52233100
_cell_length_b   9.54138880
_cell_length_c   3.94489400
_cell_angle_alpha   90.00000000
_cell_angle_beta   90.00000000
_cell_angle_gamma   119.68517386
_symmetry_Int_Tables_number   1
_chemical_formula_structural   Ca2P7(IrRu2)4
_chemical_formula_sum   'Ca2 P7 Ir4 Ru8'
_cell_volume   311.37939314
_cell_formula_units_Z   1
loop_
 _symmetry_equiv_pos_site_id
 _symmetry_equiv_pos_as_xyz
  1  'x, y, z'
loop_
 _atom_site_type_symbol
 _atom_site_label
 _atom_site_symmetry_multiplicity
 _atom_site_fract_x
 _atom_site_fract_y
 _atom_site_fract_z
 _atom_site_occupancy
  Ca  Ca0  1  0.999531  0.998411  0.000000  1
  Ca  Ca1  1  0.334565  0.668209  0.500000  1
  P  P2  1  0.779082  0.730027  0.500000  1
  P  P3  1  0.266579  0.047323  0.500000  1
  P  P4  1  0.945949  0.211327  0.500000  1
  P  P5  1  0.665473  0.331707  0.000000  1
  P  P6  1  0.089484  0.641202  0.000000  1
  P  P7  1  0.369404  0.454722  0.000000  1
  P  P8  1  0.548966  0.914014  0.000000  1
  Ir  Ir9  1  0.100844  0.402932  0.000000  1
  Ir  Ir10  1  0.055609  0.774647  0.500000  1
  Ir  Ir11  1  0.218489  0.276730  0.500000  1
  Ir  Ir12  1  0.717578  0.940954  0.500000  1
  Ru  Ru13  1  0.604159  0.699172  0.000000  1
  Ru  Ru14  1  0.302260  0.907479  0.000000  1
  Ru  Ru15  1  0.828796  0.600464  0.000000  1
  Ru  Ru16  1  0.395487  0.227934  0.000000  1
  Ru  Ru17  1  0.776293  0.170873  0.000000  1
  Ru  Ru18  1  0.881207  0.416604  0.500000  1
  Ru  Ru19  1  0.579258  0.459115  0.500000  1
  Ru  Ru20  1  0.540989  0.126151  0.500000  1
