# generated using pymatgen
data_GaFeI6
_symmetry_space_group_name_H-M   'P 1'
_cell_length_a   6.64329800
_cell_length_b   10.08548393
_cell_length_c   12.63172000
_cell_angle_alpha   71.85508149
_cell_angle_beta   90.00000000
_cell_angle_gamma   90.00000000
_symmetry_Int_Tables_number   1
_chemical_formula_structural   GaFeI6
_chemical_formula_sum   'Ga2 Fe2 I12'
_cell_volume   804.24957980
_cell_formula_units_Z   2
loop_
 _symmetry_equiv_pos_site_id
 _symmetry_equiv_pos_as_xyz
  1  'x, y, z'
loop_
 _atom_site_type_symbol
 _atom_site_label
 _atom_site_symmetry_multiplicity
 _atom_site_fract_x
 _atom_site_fract_y
 _atom_site_fract_z
 _atom_site_occupancy
  Ga  Ga0  1  0.996942  0.811858  0.046266  1
  Ga  Ga1  1  0.496942  0.188142  0.453734  1
  Fe  Fe2  1  0.003140  0.184330  0.954790  1
  Fe  Fe3  1  0.503140  0.815670  0.545210  1
  I  I4  1  0.783465  0.325477  0.801221  1
  I  I5  1  0.283465  0.674523  0.698779  1
  I  I6  1  0.222704  0.676001  0.202666  1
  I  I7  1  0.722704  0.323999  0.297334  1
  I  I8  1  0.227781  0.319480  0.040606  1
  I  I9  1  0.727781  0.680520  0.459394  1
  I  I10  1  0.766096  0.682006  0.954350  1
  I  I11  1  0.266096  0.317994  0.545650  1
  I  I12  1  0.784794  0.002267  0.111682  1
  I  I13  1  0.284794  0.997733  0.388318  1
  I  I14  1  0.215080  0.999990  0.887792  1
  I  I15  1  0.715080  0.000010  0.612208  1
