# generated using pymatgen
data_Ho3Tm3Ni2
_symmetry_space_group_name_H-M   'P 1'
_cell_length_a   6.27665396
_cell_length_b   6.75591900
_cell_length_c   9.44217988
_cell_angle_alpha   90.00000000
_cell_angle_beta   90.08042558
_cell_angle_gamma   90.00000000
_symmetry_Int_Tables_number   1
_chemical_formula_structural   Ho3Tm3Ni2
_chemical_formula_sum   'Ho6 Tm6 Ni4'
_cell_volume   400.39114308
_cell_formula_units_Z   2
loop_
 _symmetry_equiv_pos_site_id
 _symmetry_equiv_pos_as_xyz
  1  'x, y, z'
loop_
 _atom_site_type_symbol
 _atom_site_label
 _atom_site_symmetry_multiplicity
 _atom_site_fract_x
 _atom_site_fract_y
 _atom_site_fract_z
 _atom_site_occupancy
  Ho  Ho0  1  0.320526  0.678459  0.065372  1
  Ho  Ho1  1  0.179474  0.178459  0.434628  1
  Ho  Ho2  1  0.861529  0.532096  0.250206  1
  Ho  Ho3  1  0.638471  0.032096  0.249794  1
  Ho  Ho4  1  0.137968  0.467739  0.749915  1
  Ho  Ho5  1  0.362032  0.967739  0.750085  1
  Tm  Tm6  1  0.679144  0.321725  0.566144  1
  Tm  Tm7  1  0.820856  0.821725  0.933856  1
  Tm  Tm8  1  0.679489  0.321610  0.934009  1
  Tm  Tm9  1  0.820511  0.821610  0.565991  1
  Tm  Tm10  1  0.320909  0.678387  0.434669  1
  Tm  Tm11  1  0.179091  0.178387  0.065331  1
  Ni  Ni12  1  0.054877  0.891893  0.249972  1
  Ni  Ni13  1  0.445123  0.391893  0.250028  1
  Ni  Ni14  1  0.944420  0.108092  0.750269  1
  Ni  Ni15  1  0.555580  0.608092  0.749731  1
