# generated using pymatgen
data_Li3Ni9As7RuRh
_symmetry_space_group_name_H-M   'P 1'
_cell_length_a   9.42018810
_cell_length_b   9.51964807
_cell_length_c   3.71327300
_cell_angle_alpha   90.00000000
_cell_angle_beta   90.00000000
_cell_angle_gamma   120.27754329
_symmetry_Int_Tables_number   1
_chemical_formula_structural   Li3Ni9As7RuRh
_chemical_formula_sum   'Li3 Ni9 As7 Ru1 Rh1'
_cell_volume   287.57198634
_cell_formula_units_Z   1
loop_
 _symmetry_equiv_pos_site_id
 _symmetry_equiv_pos_as_xyz
  1  'x, y, z'
loop_
 _atom_site_type_symbol
 _atom_site_label
 _atom_site_symmetry_multiplicity
 _atom_site_fract_x
 _atom_site_fract_y
 _atom_site_fract_z
 _atom_site_occupancy
  Li  Li0  1  0.789063  0.233725  0.500000  1
  Li  Li1  1  0.331307  0.667865  0.000000  1
  Li  Li2  1  0.991553  0.994605  0.500000  1
  Ni  Ni3  1  0.282502  0.383315  0.500000  1
  Ni  Ni4  1  0.622741  0.902433  0.500000  1
  Ni  Ni5  1  0.102833  0.719984  0.500000  1
  Ni  Ni6  1  0.499324  0.453468  0.000000  1
  Ni  Ni7  1  0.553096  0.053006  0.000000  1
  Ni  Ni8  1  0.951999  0.496130  0.000000  1
  Ni  Ni9  1  0.721646  0.765296  0.000000  1
  Ni  Ni10  1  0.233888  0.956080  0.000000  1
  Ni  Ni11  1  0.047543  0.284390  0.000000  1
  As  As12  1  0.957802  0.750351  0.000000  1
  As  As13  1  0.243834  0.204900  0.000000  1
  As  As14  1  0.797313  0.037745  0.000000  1
  As  As15  1  0.666498  0.337094  0.000000  1
  As  As16  1  0.540907  0.626238  0.500000  1
  As  As17  1  0.377221  0.915796  0.500000  1
  As  As18  1  0.089930  0.465064  0.500000  1
  Ru  Ru19  1  0.755987  0.546879  0.500000  1
  Rh  Rh20  1  0.443018  0.205634  0.500000  1
