# generated using pymatgen
data_Tm7Co6CuSn22
_symmetry_space_group_name_H-M   'P 1'
_cell_length_a   9.62800300
_cell_length_b   9.62800396
_cell_length_c   9.87271000
_cell_angle_alpha   90.00000000
_cell_angle_beta   90.00000000
_cell_angle_gamma   120.00000015
_symmetry_Int_Tables_number   1
_chemical_formula_structural   Tm7Co6CuSn22
_chemical_formula_sum   'Tm7 Co6 Cu1 Sn22'
_cell_volume   792.57339196
_cell_formula_units_Z   1
loop_
 _symmetry_equiv_pos_site_id
 _symmetry_equiv_pos_as_xyz
  1  'x, y, z'
loop_
 _atom_site_type_symbol
 _atom_site_label
 _atom_site_symmetry_multiplicity
 _atom_site_fract_x
 _atom_site_fract_y
 _atom_site_fract_z
 _atom_site_occupancy
  Tm  Tm0  1  0.000000  0.000000  0.000000  1
  Tm  Tm1  1  0.038478  0.519238  0.306285  1
  Tm  Tm2  1  0.480762  0.961522  0.306285  1
  Tm  Tm3  1  0.480762  0.519238  0.306285  1
  Tm  Tm4  1  0.961522  0.480762  0.693715  1
  Tm  Tm5  1  0.519238  0.038478  0.693715  1
  Tm  Tm6  1  0.519238  0.480762  0.693715  1
  Co  Co7  1  0.168243  0.831757  0.802318  1
  Co  Co8  1  0.663514  0.831757  0.802318  1
  Co  Co9  1  0.168243  0.336486  0.802318  1
  Co  Co10  1  0.831757  0.168243  0.197682  1
  Co  Co11  1  0.336486  0.168243  0.197682  1
  Co  Co12  1  0.831757  0.663514  0.197682  1
  Cu  Cu13  1  0.000000  0.000000  0.500000  1
  Sn  Sn14  1  0.111278  0.888722  0.283345  1
  Sn  Sn15  1  0.777444  0.888722  0.283345  1
  Sn  Sn16  1  0.111278  0.222556  0.283345  1
  Sn  Sn17  1  0.888722  0.111278  0.716655  1
  Sn  Sn18  1  0.222556  0.111278  0.716655  1
  Sn  Sn19  1  0.888722  0.777444  0.716655  1
  Sn  Sn20  1  0.345822  0.000000  0.000000  1
  Sn  Sn21  1  0.654178  0.654178  0.000000  1
  Sn  Sn22  1  0.000000  0.345822  0.000000  1
  Sn  Sn23  1  0.345822  0.345822  0.000000  1
  Sn  Sn24  1  0.000000  0.654178  0.000000  1
  Sn  Sn25  1  0.654178  0.000000  0.000000  1
  Sn  Sn26  1  0.783531  0.567061  0.454889  1
  Sn  Sn27  1  0.783531  0.216469  0.454889  1
  Sn  Sn28  1  0.432939  0.216469  0.454889  1
  Sn  Sn29  1  0.216469  0.432939  0.545111  1
  Sn  Sn30  1  0.216469  0.783531  0.545111  1
  Sn  Sn31  1  0.567061  0.783531  0.545111  1
  Sn  Sn32  1  0.666667  0.333333  0.181463  1
  Sn  Sn33  1  0.333333  0.666667  0.818537  1
  Sn  Sn34  1  0.666667  0.333333  0.875695  1
  Sn  Sn35  1  0.333333  0.666667  0.124305  1
