# generated using pymatgen
data_Nd20InSn7Sb8
_symmetry_space_group_name_H-M   'P 1'
_cell_length_a   8.33521000
_cell_length_b   8.40208895
_cell_length_c   15.92645800
_cell_angle_alpha   90.00000000
_cell_angle_beta   90.00000000
_cell_angle_gamma   90.08361743
_symmetry_Int_Tables_number   1
_chemical_formula_structural   Nd20InSn7Sb8
_chemical_formula_sum   'Nd20 In1 Sn7 Sb8'
_cell_volume   1115.37924546
_cell_formula_units_Z   1
loop_
 _symmetry_equiv_pos_site_id
 _symmetry_equiv_pos_as_xyz
  1  'x, y, z'
loop_
 _atom_site_type_symbol
 _atom_site_label
 _atom_site_symmetry_multiplicity
 _atom_site_fract_x
 _atom_site_fract_y
 _atom_site_fract_z
 _atom_site_occupancy
  Nd  Nd0  1  0.049954  0.173017  0.393432  1
  Nd  Nd1  1  0.393576  0.834659  0.117493  1
  Nd  Nd2  1  0.106332  0.336350  0.617444  1
  Nd  Nd3  1  0.450445  0.675482  0.893755  1
  Nd  Nd4  1  0.894124  0.663013  0.116703  1
  Nd  Nd5  1  0.106332  0.336350  0.882556  1
  Nd  Nd6  1  0.221445  0.496746  0.250000  1
  Nd  Nd7  1  0.721336  0.001238  0.250000  1
  Nd  Nd8  1  0.450445  0.675482  0.606245  1
  Nd  Nd9  1  0.277811  0.999676  0.750000  1
  Nd  Nd10  1  0.604361  0.165182  0.616523  1
  Nd  Nd11  1  0.779371  0.503177  0.750000  1
  Nd  Nd12  1  0.894124  0.663013  0.383297  1
  Nd  Nd13  1  0.049954  0.173017  0.106568  1
  Nd  Nd14  1  0.950286  0.826396  0.893943  1
  Nd  Nd15  1  0.604361  0.165182  0.883477  1
  Nd  Nd16  1  0.550388  0.325541  0.106641  1
  Nd  Nd17  1  0.393576  0.834659  0.382507  1
  Nd  Nd18  1  0.950286  0.826396  0.606057  1
  Nd  Nd19  1  0.550388  0.325541  0.393359  1
  In  In20  1  0.650297  0.866645  0.750000  1
  Sn  Sn21  1  0.851889  0.362318  0.250000  1
  Sn  Sn22  1  0.592790  0.622684  0.250000  1
  Sn  Sn23  1  0.408383  0.379223  0.750000  1
  Sn  Sn24  1  0.149463  0.637966  0.750000  1
  Sn  Sn25  1  0.904499  0.122707  0.750000  1
  Sn  Sn26  1  0.351744  0.135931  0.250000  1
  Sn  Sn27  1  0.091790  0.875123  0.250000  1
  Sb  Sb28  1  0.767787  0.482274  0.546693  1
  Sb  Sb29  1  0.732072  0.980161  0.453398  1
  Sb  Sb30  1  0.233571  0.517358  0.453356  1
  Sb  Sb31  1  0.266694  0.018851  0.953593  1
  Sb  Sb32  1  0.767787  0.482274  0.953307  1
  Sb  Sb33  1  0.233571  0.517358  0.046644  1
  Sb  Sb34  1  0.266694  0.018851  0.546407  1
  Sb  Sb35  1  0.732072  0.980161  0.046602  1
