# generated using pymatgen
data_Cs2Sn(WO4)3
_symmetry_space_group_name_H-M   'P 1'
_cell_length_a   7.43937073
_cell_length_b   7.43903837
_cell_length_c   7.46269226
_cell_angle_alpha   89.99999808
_cell_angle_beta   60.10030171
_cell_angle_gamma   119.99852403
_symmetry_Int_Tables_number   1
_chemical_formula_structural   Cs2Sn(WO4)3
_chemical_formula_sum   'Cs2 Sn1 W3 O12'
_cell_volume   292.48253808
_cell_formula_units_Z   1
loop_
 _symmetry_equiv_pos_site_id
 _symmetry_equiv_pos_as_xyz
  1  'x, y, z'
loop_
 _atom_site_type_symbol
 _atom_site_label
 _atom_site_symmetry_multiplicity
 _atom_site_fract_x
 _atom_site_fract_y
 _atom_site_fract_z
 _atom_site_occupancy
  Cs  Cs0  1  0.254674  0.131295  0.117825  1
  Cs  Cs1  1  0.745326  0.876620  0.882175  1
  Sn  Sn2  1  0.000000  0.503854  0.000000  1
  W  W3  1  0.499958  0.003773  0.500079  1
  W  W4  1  0.500042  0.503816  0.499921  1
  W  W5  1  0.000000  0.503808  0.500000  1
  O  O6  1  0.616567  0.812039  0.443571  1
  O  O7  1  0.867870  0.437653  0.804169  1
  O  O8  1  0.261870  0.831645  0.804196  1
  O  O9  1  0.248178  0.443650  0.443538  1
  O  O10  1  0.261917  0.437633  0.804130  1
  O  O11  1  0.248126  0.812060  0.443609  1
  O  O12  1  0.383433  0.195472  0.556429  1
  O  O13  1  0.132130  0.569783  0.195831  1
  O  O14  1  0.738083  0.175716  0.195870  1
  O  O15  1  0.751874  0.563934  0.556391  1
  O  O16  1  0.738130  0.569775  0.195804  1
  O  O17  1  0.751822  0.195471  0.556462  1
