# generated using pymatgen
data_Er2GaB2Ir3Ru2
_symmetry_space_group_name_H-M   'P 1'
_cell_length_a   9.63105009
_cell_length_b   9.59851717
_cell_length_c   3.08958300
_cell_angle_alpha   90.00000000
_cell_angle_beta   90.00000000
_cell_angle_gamma   89.82564682
_symmetry_Int_Tables_number   1
_chemical_formula_structural   Er2GaB2Ir3Ru2
_chemical_formula_sum   'Er4 Ga2 B4 Ir6 Ru4'
_cell_volume   285.61146942
_cell_formula_units_Z   2
loop_
 _symmetry_equiv_pos_site_id
 _symmetry_equiv_pos_as_xyz
  1  'x, y, z'
loop_
 _atom_site_type_symbol
 _atom_site_label
 _atom_site_symmetry_multiplicity
 _atom_site_fract_x
 _atom_site_fract_y
 _atom_site_fract_z
 _atom_site_occupancy
  Er  Er0  1  0.825501  0.327861  0.000000  1
  Er  Er1  1  0.174499  0.672139  0.000000  1
  Er  Er2  1  0.325295  0.177624  0.000000  1
  Er  Er3  1  0.674705  0.822376  0.000000  1
  Ga  Ga4  1  0.500000  0.500000  0.000000  1
  Ga  Ga5  1  0.000000  0.000000  0.000000  1
  B  B6  1  0.622009  0.121073  0.000000  1
  B  B7  1  0.377991  0.878927  0.000000  1
  B  B8  1  0.124806  0.380061  0.000000  1
  B  B9  1  0.875194  0.619939  0.000000  1
  Ir  Ir10  1  0.218088  0.931297  0.500000  1
  Ir  Ir11  1  0.781912  0.068703  0.500000  1
  Ir  Ir12  1  0.429621  0.718354  0.500000  1
  Ir  Ir13  1  0.570379  0.281646  0.500000  1
  Ir  Ir14  1  0.069942  0.217781  0.500000  1
  Ir  Ir15  1  0.930058  0.782219  0.500000  1
  Ru  Ru16  1  0.500000  0.000000  0.500000  1
  Ru  Ru17  1  0.000000  0.500000  0.500000  1
  Ru  Ru18  1  0.716749  0.569271  0.500000  1
  Ru  Ru19  1  0.283251  0.430729  0.500000  1
