# generated using pymatgen
data_LiNd3Co7P6Rh
_symmetry_space_group_name_H-M   'P 1'
_cell_length_a   3.78379300
_cell_length_b   10.83455800
_cell_length_c   12.60267900
_cell_angle_alpha   90.00000000
_cell_angle_beta   90.00000000
_cell_angle_gamma   90.00000000
_symmetry_Int_Tables_number   1
_chemical_formula_structural   LiNd3Co7P6Rh
_chemical_formula_sum   'Li2 Nd6 Co14 P12 Rh2'
_cell_volume   516.65595900
_cell_formula_units_Z   2
loop_
 _symmetry_equiv_pos_site_id
 _symmetry_equiv_pos_as_xyz
  1  'x, y, z'
loop_
 _atom_site_type_symbol
 _atom_site_label
 _atom_site_symmetry_multiplicity
 _atom_site_fract_x
 _atom_site_fract_y
 _atom_site_fract_z
 _atom_site_occupancy
  Li  Li0  1  0.500000  0.500000  0.151828  1
  Li  Li1  1  0.000000  0.000000  0.848172  1
  Nd  Nd2  1  0.000000  0.500000  0.519487  1
  Nd  Nd3  1  0.500000  0.000000  0.480513  1
  Nd  Nd4  1  0.500000  0.816003  0.204620  1
  Nd  Nd5  1  0.500000  0.183997  0.204620  1
  Nd  Nd6  1  0.000000  0.683997  0.795380  1
  Nd  Nd7  1  0.000000  0.316003  0.795380  1
  Co  Co8  1  0.000000  0.500000  0.989381  1
  Co  Co9  1  0.500000  0.000000  0.010619  1
  Co  Co10  1  0.500000  0.332576  0.998738  1
  Co  Co11  1  0.500000  0.667424  0.998738  1
  Co  Co12  1  0.000000  0.167424  0.001262  1
  Co  Co13  1  0.000000  0.832576  0.001262  1
  Co  Co14  1  0.500000  0.296791  0.431793  1
  Co  Co15  1  0.500000  0.703209  0.431793  1
  Co  Co16  1  0.000000  0.203209  0.568207  1
  Co  Co17  1  0.000000  0.796791  0.568207  1
  Co  Co18  1  0.500000  0.881628  0.706420  1
  Co  Co19  1  0.500000  0.118372  0.706420  1
  Co  Co20  1  0.000000  0.618372  0.293580  1
  Co  Co21  1  0.000000  0.381628  0.293580  1
  P  P22  1  0.500000  0.500000  0.894176  1
  P  P23  1  0.000000  0.000000  0.105824  1
  P  P24  1  0.500000  0.500000  0.341739  1
  P  P25  1  0.000000  0.000000  0.658261  1
  P  P26  1  0.500000  0.299199  0.612347  1
  P  P27  1  0.500000  0.700801  0.612347  1
  P  P28  1  0.000000  0.200801  0.387653  1
  P  P29  1  0.000000  0.799199  0.387653  1
  P  P30  1  0.500000  0.844666  0.897417  1
  P  P31  1  0.500000  0.155334  0.897417  1
  P  P32  1  0.000000  0.655334  0.102583  1
  P  P33  1  0.000000  0.344666  0.102583  1
  Rh  Rh34  1  0.500000  0.500000  0.704346  1
  Rh  Rh35  1  0.000000  0.000000  0.295654  1
