# generated using pymatgen
data_Rb2NaDyCl6
_symmetry_space_group_name_H-M   'P 1'
_cell_length_a   7.60674737
_cell_length_b   7.60674702
_cell_length_c   7.60674735
_cell_angle_alpha   60.08835963
_cell_angle_beta   60.08835790
_cell_angle_gamma   60.08835902
_symmetry_Int_Tables_number   1
_chemical_formula_structural   Rb2NaDyCl6
_chemical_formula_sum   'Rb2 Na1 Dy1 Cl6'
_cell_volume   311.85350789
_cell_formula_units_Z   1
loop_
 _symmetry_equiv_pos_site_id
 _symmetry_equiv_pos_as_xyz
  1  'x, y, z'
loop_
 _atom_site_type_symbol
 _atom_site_label
 _atom_site_symmetry_multiplicity
 _atom_site_fract_x
 _atom_site_fract_y
 _atom_site_fract_z
 _atom_site_occupancy
  Rb  Rb0  1  0.249123  0.249123  0.249123  1
  Rb  Rb1  1  0.750877  0.750877  0.750877  1
  Na  Na2  1  0.000000  0.000000  0.000000  1
  Dy  Dy3  1  0.500000  0.500000  0.500000  1
  Cl  Cl4  1  0.305280  0.742491  0.209109  1
  Cl  Cl5  1  0.790891  0.694719  0.257510  1
  Cl  Cl6  1  0.742491  0.209108  0.305281  1
  Cl  Cl7  1  0.257509  0.790892  0.694719  1
  Cl  Cl8  1  0.209109  0.305281  0.742490  1
  Cl  Cl9  1  0.694720  0.257509  0.790891  1
