# generated using pymatgen
data_Y3Ho9IrOs3
_symmetry_space_group_name_H-M   'P 1'
_cell_length_a   6.35824968
_cell_length_b   7.35905405
_cell_length_c   9.01414400
_cell_angle_alpha   90.00000000
_cell_angle_beta   90.00000000
_cell_angle_gamma   89.93186849
_symmetry_Int_Tables_number   1
_chemical_formula_structural   Y3Ho9IrOs3
_chemical_formula_sum   'Y3 Ho9 Ir1 Os3'
_cell_volume   421.77783688
_cell_formula_units_Z   1
loop_
 _symmetry_equiv_pos_site_id
 _symmetry_equiv_pos_as_xyz
  1  'x, y, z'
loop_
 _atom_site_type_symbol
 _atom_site_label
 _atom_site_symmetry_multiplicity
 _atom_site_fract_x
 _atom_site_fract_y
 _atom_site_fract_z
 _atom_site_occupancy
  Y  Y0  1  0.871693  0.537663  0.250000  1
  Y  Y1  1  0.628668  0.038966  0.250000  1
  Y  Y2  1  0.128753  0.461991  0.750000  1
  Ho  Ho3  1  0.332790  0.674083  0.062358  1
  Ho  Ho4  1  0.169889  0.176321  0.438035  1
  Ho  Ho5  1  0.668922  0.324525  0.563559  1
  Ho  Ho6  1  0.827970  0.824687  0.934726  1
  Ho  Ho7  1  0.668922  0.324525  0.936441  1
  Ho  Ho8  1  0.827970  0.824687  0.565274  1
  Ho  Ho9  1  0.332790  0.674083  0.437642  1
  Ho  Ho10  1  0.169889  0.176321  0.061965  1
  Ho  Ho11  1  0.369463  0.960939  0.750000  1
  Ir  Ir12  1  0.042847  0.884896  0.250000  1
  Os  Os13  1  0.458346  0.384225  0.250000  1
  Os  Os14  1  0.961548  0.114553  0.750000  1
  Os  Os15  1  0.539541  0.617539  0.750000  1
