# generated using pymatgen
data_Tm8Tc(B8Ru)3
_symmetry_space_group_name_H-M   'P 1'
_cell_length_a   3.62282500
_cell_length_b   9.06207282
_cell_length_c   11.43702255
_cell_angle_alpha   89.90965497
_cell_angle_beta   90.00000000
_cell_angle_gamma   90.00000000
_symmetry_Int_Tables_number   1
_chemical_formula_structural   Tm8Tc(B8Ru)3
_chemical_formula_sum   'Tm8 Tc1 B24 Ru3'
_cell_volume   375.48045997
_cell_formula_units_Z   1
loop_
 _symmetry_equiv_pos_site_id
 _symmetry_equiv_pos_as_xyz
  1  'x, y, z'
loop_
 _atom_site_type_symbol
 _atom_site_label
 _atom_site_symmetry_multiplicity
 _atom_site_fract_x
 _atom_site_fract_y
 _atom_site_fract_z
 _atom_site_occupancy
  Tm  Tm0  1  0.000000  0.323986  0.413242  1
  Tm  Tm1  1  0.000000  0.677201  0.583313  1
  Tm  Tm2  1  0.000000  0.820163  0.088110  1
  Tm  Tm3  1  0.000000  0.177508  0.915083  1
  Tm  Tm4  1  0.000000  0.943417  0.372425  1
  Tm  Tm5  1  0.000000  0.056957  0.628090  1
  Tm  Tm6  1  0.000000  0.444385  0.128053  1
  Tm  Tm7  1  0.000000  0.556601  0.871625  1
  Tc  Tc8  1  0.000000  0.637834  0.321068  1
  B  B9  1  0.500000  0.552781  0.433663  1
  B  B10  1  0.500000  0.446424  0.566997  1
  B  B11  1  0.500000  0.053609  0.066610  1
  B  B12  1  0.500000  0.946306  0.933555  1
  B  B13  1  0.500000  0.748930  0.419917  1
  B  B14  1  0.500000  0.251441  0.580078  1
  B  B15  1  0.500000  0.248743  0.079924  1
  B  B16  1  0.500000  0.751181  0.919998  1
  B  B17  1  0.500000  0.792447  0.265705  1
  B  B18  1  0.500000  0.208200  0.734290  1
  B  B19  1  0.500000  0.291636  0.233636  1
  B  B20  1  0.500000  0.708600  0.765640  1
  B  B21  1  0.500000  0.631505  0.184949  1
  B  B22  1  0.500000  0.368171  0.815407  1
  B  B23  1  0.500000  0.131651  0.314816  1
  B  B24  1  0.500000  0.868740  0.684754  1
  B  B25  1  0.500000  0.982589  0.212676  1
  B  B26  1  0.500000  0.017459  0.787655  1
  B  B27  1  0.500000  0.481643  0.287268  1
  B  B28  1  0.500000  0.517247  0.712717  1
  B  B29  1  0.500000  0.606486  0.028854  1
  B  B30  1  0.500000  0.393069  0.970186  1
  B  B31  1  0.500000  0.107097  0.470712  1
  B  B32  1  0.500000  0.894254  0.529869  1
  Ru  Ru33  1  0.000000  0.361706  0.679590  1
  Ru  Ru34  1  0.000000  0.137826  0.178543  1
  Ru  Ru35  1  0.000000  0.862208  0.820982  1
