# generated using pymatgen
data_EuH5Pt
_symmetry_space_group_name_H-M   'P 1'
_cell_length_a   4.75974400
_cell_length_b   4.78828300
_cell_length_c   12.58464800
_cell_angle_alpha   90.00000000
_cell_angle_beta   90.00000000
_cell_angle_gamma   90.00000000
_symmetry_Int_Tables_number   1
_chemical_formula_structural   EuH5Pt
_chemical_formula_sum   'Eu4 H20 Pt4'
_cell_volume   286.81672867
_cell_formula_units_Z   4
loop_
 _symmetry_equiv_pos_site_id
 _symmetry_equiv_pos_as_xyz
  1  'x, y, z'
loop_
 _atom_site_type_symbol
 _atom_site_label
 _atom_site_symmetry_multiplicity
 _atom_site_fract_x
 _atom_site_fract_y
 _atom_site_fract_z
 _atom_site_occupancy
  Eu  Eu0  1  0.249906  0.139885  0.641648  1
  Eu  Eu1  1  0.749906  0.360115  0.358352  1
  Eu  Eu2  1  0.250094  0.860115  0.141648  1
  Eu  Eu3  1  0.750094  0.639885  0.858352  1
  H  H4  1  0.725557  0.327949  0.558215  1
  H  H5  1  0.225557  0.172051  0.441785  1
  H  H6  1  0.774443  0.672051  0.058215  1
  H  H7  1  0.274443  0.827949  0.941785  1
  H  H8  1  0.978191  0.096117  0.816416  1
  H  H9  1  0.478191  0.403883  0.183584  1
  H  H10  1  0.521809  0.903883  0.316416  1
  H  H11  1  0.021809  0.596117  0.683584  1
  H  H12  1  0.245630  0.476643  0.849909  1
  H  H13  1  0.745630  0.023357  0.150091  1
  H  H14  1  0.254370  0.523357  0.349909  1
  H  H15  1  0.754370  0.976643  0.650091  1
  H  H16  1  0.545659  0.118148  0.816583  1
  H  H17  1  0.045659  0.381852  0.183417  1
  H  H18  1  0.954341  0.881852  0.316583  1
  H  H19  1  0.454341  0.618148  0.683417  1
  H  H20  1  0.003745  0.236865  0.999465  1
  H  H21  1  0.503745  0.263135  0.000535  1
  H  H22  1  0.496255  0.763135  0.499465  1
  H  H23  1  0.996255  0.736865  0.500535  1
  Pt  Pt24  1  0.259147  0.156607  0.897889  1
  Pt  Pt25  1  0.759147  0.343393  0.102111  1
  Pt  Pt26  1  0.240853  0.843393  0.397889  1
  Pt  Pt27  1  0.740853  0.656607  0.602111  1
