# generated using pymatgen
data_La4Dy5YRu4
_symmetry_space_group_name_H-M   'P 1'
_cell_length_a   6.54347056
_cell_length_b   7.25775267
_cell_length_c   8.80798274
_cell_angle_alpha   96.27295538
_cell_angle_beta   111.80514241
_cell_angle_gamma   89.99999879
_symmetry_Int_Tables_number   1
_chemical_formula_structural   La4Dy5YRu4
_chemical_formula_sum   'La4 Dy5 Y1 Ru4'
_cell_volume   385.67189342
_cell_formula_units_Z   1
loop_
 _symmetry_equiv_pos_site_id
 _symmetry_equiv_pos_as_xyz
  1  'x, y, z'
loop_
 _atom_site_type_symbol
 _atom_site_label
 _atom_site_symmetry_multiplicity
 _atom_site_fract_x
 _atom_site_fract_y
 _atom_site_fract_z
 _atom_site_occupancy
  La  La0  1  0.981314  0.908969  0.193986  1
  La  La1  1  0.787329  0.591031  0.806014  1
  La  La2  1  0.018684  0.090608  0.806094  1
  La  La3  1  0.212590  0.409392  0.193906  1
  Dy  Dy4  1  0.634779  0.815813  0.429813  1
  Dy  Dy5  1  0.204968  0.684187  0.570187  1
  Dy  Dy6  1  0.365120  0.184169  0.569708  1
  Dy  Dy7  1  0.795411  0.315831  0.430292  1
  Dy  Dy8  1  0.426683  0.750000  0.000000  1
  Y  Y9  1  0.573940  0.250000  0.000000  1
  Ru  Ru10  1  0.829658  0.582438  0.226593  1
  Ru  Ru11  1  0.603065  0.917562  0.773407  1
  Ru  Ru12  1  0.169976  0.419522  0.773492  1
  Ru  Ru13  1  0.396483  0.080478  0.226508  1
