# generated using pymatgen
data_Li(Sn3Ir2)2
_symmetry_space_group_name_H-M   'P 1'
_cell_length_a   6.93440510
_cell_length_b   6.93440428
_cell_length_c   6.93440525
_cell_angle_alpha   119.44129907
_cell_angle_beta   119.44129095
_cell_angle_gamma   90.97045827
_symmetry_Int_Tables_number   1
_chemical_formula_structural   Li(Sn3Ir2)2
_chemical_formula_sum   'Li1 Sn6 Ir4'
_cell_volume   237.73728809
_cell_formula_units_Z   1
loop_
 _symmetry_equiv_pos_site_id
 _symmetry_equiv_pos_as_xyz
  1  'x, y, z'
loop_
 _atom_site_type_symbol
 _atom_site_label
 _atom_site_symmetry_multiplicity
 _atom_site_fract_x
 _atom_site_fract_y
 _atom_site_fract_z
 _atom_site_occupancy
  Li  Li0  1  0.000000  0.000000  0.000000  1
  Sn  Sn1  1  0.874704  0.547704  0.000000  1
  Sn  Sn2  1  0.547704  0.874704  0.000000  1
  Sn  Sn3  1  0.452296  0.452296  0.327000  1
  Sn  Sn4  1  0.500001  0.000000  0.500001  1
  Sn  Sn5  1  0.000000  0.500001  0.500001  1
  Sn  Sn6  1  0.125296  0.125296  0.673001  1
  Ir  Ir7  1  0.601381  0.244761  0.000000  1
  Ir  Ir8  1  0.244761  0.601381  0.000000  1
  Ir  Ir9  1  0.755239  0.755239  0.356620  1
  Ir  Ir10  1  0.398619  0.398619  0.643381  1
