# generated using pymatgen
data_Dy7Ho5InGaNi4
_symmetry_space_group_name_H-M   'P 1'
_cell_length_a   8.37026618
_cell_length_b   8.37026595
_cell_length_c   8.36329228
_cell_angle_alpha   113.63722233
_cell_angle_beta   109.56047293
_cell_angle_gamma   105.35907031
_symmetry_Int_Tables_number   1
_chemical_formula_structural   Dy7Ho5InGaNi4
_chemical_formula_sum   'Dy7 Ho5 In1 Ga1 Ni4'
_cell_volume   448.50029736
_cell_formula_units_Z   1
loop_
 _symmetry_equiv_pos_site_id
 _symmetry_equiv_pos_as_xyz
  1  'x, y, z'
loop_
 _atom_site_type_symbol
 _atom_site_label
 _atom_site_symmetry_multiplicity
 _atom_site_fract_x
 _atom_site_fract_y
 _atom_site_fract_z
 _atom_site_occupancy
  Dy  Dy0  1  0.426896  0.230599  0.195991  1
  Dy  Dy1  1  0.574040  0.769505  0.804620  1
  Dy  Dy2  1  0.035115  0.230580  0.804620  1
  Dy  Dy3  1  0.965392  0.769095  0.195991  1
  Dy  Dy4  1  0.180711  0.289432  0.470143  1
  Dy  Dy5  1  0.818852  0.710658  0.529511  1
  Dy  Dy6  1  0.180823  0.710656  0.891479  1
  Ho  Ho7  1  0.818639  0.288914  0.107553  1
  Ho  Ho8  1  0.324978  0.635039  0.310574  1
  Ho  Ho9  1  0.675555  0.364836  0.689995  1
  Ho  Ho10  1  0.325161  0.014440  0.689995  1
  Ho  Ho11  1  0.675533  0.985596  0.310574  1
  In  In12  1  0.500348  0.500131  0.000479  1
  Ga  Ga13  1  0.999964  0.000527  0.000491  1
  Ni  Ni14  1  0.349687  0.999621  0.349308  1
  Ni  Ni15  1  0.651467  0.001405  0.652872  1
  Ni  Ni16  1  0.121159  0.622222  0.497903  1
  Ni  Ni17  1  0.875681  0.376744  0.497903  1
