# generated using pymatgen
data_NdLu(Si7Rh3)2
_symmetry_space_group_name_H-M   'P 1'
_cell_length_a   8.00961370
_cell_length_b   8.00961271
_cell_length_c   8.00961488
_cell_angle_alpha   57.05975818
_cell_angle_beta   57.05976708
_cell_angle_gamma   57.05975409
_symmetry_Int_Tables_number   1
_chemical_formula_structural   NdLu(Si7Rh3)2
_chemical_formula_sum   'Nd1 Lu1 Si14 Rh6'
_cell_volume   338.71967800
_cell_formula_units_Z   1
loop_
 _symmetry_equiv_pos_site_id
 _symmetry_equiv_pos_as_xyz
  1  'x, y, z'
loop_
 _atom_site_type_symbol
 _atom_site_label
 _atom_site_symmetry_multiplicity
 _atom_site_fract_x
 _atom_site_fract_y
 _atom_site_fract_z
 _atom_site_occupancy
  Nd  Nd0  1  0.500000  0.500000  0.500000  1
  Lu  Lu1  1  0.000000  0.000000  0.000000  1
  Si  Si2  1  0.750017  0.750017  0.750017  1
  Si  Si3  1  0.249983  0.249983  0.249983  1
  Si  Si4  1  0.852822  0.063966  0.673047  1
  Si  Si5  1  0.673047  0.852822  0.063966  1
  Si  Si6  1  0.063966  0.673047  0.852822  1
  Si  Si7  1  0.649261  0.828757  0.434090  1
  Si  Si8  1  0.434090  0.649261  0.828757  1
  Si  Si9  1  0.828757  0.434090  0.649261  1
  Si  Si10  1  0.171243  0.565910  0.350739  1
  Si  Si11  1  0.565910  0.350739  0.171243  1
  Si  Si12  1  0.350739  0.171243  0.565910  1
  Si  Si13  1  0.936034  0.326953  0.147178  1
  Si  Si14  1  0.326953  0.147178  0.936034  1
  Si  Si15  1  0.147178  0.936034  0.326953  1
  Rh  Rh16  1  0.067641  0.428156  0.752410  1
  Rh  Rh17  1  0.247590  0.932359  0.571844  1
  Rh  Rh18  1  0.571844  0.247590  0.932359  1
  Rh  Rh19  1  0.932359  0.571844  0.247590  1
  Rh  Rh20  1  0.428156  0.752410  0.067641  1
  Rh  Rh21  1  0.752410  0.067641  0.428156  1
