# generated using pymatgen
data_Tb16MgHg3Ir3Ru
_symmetry_space_group_name_H-M   'P 1'
_cell_length_a   9.67019178
_cell_length_b   9.68130105
_cell_length_c   9.66195834
_cell_angle_alpha   59.93374730
_cell_angle_beta   59.90067654
_cell_angle_gamma   59.96198633
_symmetry_Int_Tables_number   1
_chemical_formula_structural   Tb16MgHg3Ir3Ru
_chemical_formula_sum   'Tb16 Mg1 Hg3 Ir3 Ru1'
_cell_volume   638.63057492
_cell_formula_units_Z   1
loop_
 _symmetry_equiv_pos_site_id
 _symmetry_equiv_pos_as_xyz
  1  'x, y, z'
loop_
 _atom_site_type_symbol
 _atom_site_label
 _atom_site_symmetry_multiplicity
 _atom_site_fract_x
 _atom_site_fract_y
 _atom_site_fract_z
 _atom_site_occupancy
  Tb  Tb0  1  0.192688  0.807211  0.809105  1
  Tb  Tb1  1  0.813482  0.186654  0.189764  1
  Tb  Tb2  1  0.063208  0.438458  0.059876  1
  Tb  Tb3  1  0.053776  0.649022  0.648180  1
  Tb  Tb4  1  0.651332  0.653335  0.651669  1
  Tb  Tb5  1  0.062268  0.060269  0.437864  1
  Tb  Tb6  1  0.190247  0.808982  0.191789  1
  Tb  Tb7  1  0.813482  0.810100  0.189764  1
  Tb  Tb8  1  0.811496  0.188541  0.811421  1
  Tb  Tb9  1  0.440491  0.061517  0.436476  1
  Tb  Tb10  1  0.439297  0.437585  0.060893  1
  Tb  Tb11  1  0.439297  0.062225  0.060893  1
  Tb  Tb12  1  0.062268  0.439599  0.437864  1
  Tb  Tb13  1  0.192688  0.190997  0.809105  1
  Tb  Tb14  1  0.649198  0.652609  0.045585  1
  Tb  Tb15  1  0.651332  0.043664  0.651669  1
  Mg  Mg16  1  0.716992  0.427377  0.428254  1
  Hg  Hg17  1  0.418062  0.413185  0.755568  1
  Hg  Hg18  1  0.418242  0.755200  0.413423  1
  Hg  Hg19  1  0.418242  0.413136  0.413423  1
  Ir  Ir20  1  0.859560  0.423767  0.858197  1
  Ir  Ir21  1  0.859560  0.858478  0.858197  1
  Ir  Ir22  1  0.423507  0.859045  0.858404  1
  Ru  Ru23  1  0.859292  0.859044  0.422620  1
