# generated using pymatgen
data_Nd2HfGaIr2
_symmetry_space_group_name_H-M   'P 1'
_cell_length_a   4.53541600
_cell_length_b   7.19230848
_cell_length_c   8.08239910
_cell_angle_alpha   89.07370430
_cell_angle_beta   90.00000000
_cell_angle_gamma   90.00000000
_symmetry_Int_Tables_number   1
_chemical_formula_structural   Nd2HfGaIr2
_chemical_formula_sum   'Nd4 Hf2 Ga2 Ir4'
_cell_volume   263.61430138
_cell_formula_units_Z   2
loop_
 _symmetry_equiv_pos_site_id
 _symmetry_equiv_pos_as_xyz
  1  'x, y, z'
loop_
 _atom_site_type_symbol
 _atom_site_label
 _atom_site_symmetry_multiplicity
 _atom_site_fract_x
 _atom_site_fract_y
 _atom_site_fract_z
 _atom_site_occupancy
  Nd  Nd0  1  0.250000  0.527115  0.165351  1
  Nd  Nd1  1  0.750000  0.472885  0.834649  1
  Nd  Nd2  1  0.750000  0.976711  0.702051  1
  Nd  Nd3  1  0.250000  0.023289  0.297949  1
  Hf  Hf4  1  0.250000  0.638190  0.575975  1
  Hf  Hf5  1  0.750000  0.361810  0.424025  1
  Ga  Ga6  1  0.750000  0.842717  0.074444  1
  Ga  Ga7  1  0.250000  0.157283  0.925556  1
  Ir  Ir8  1  0.250000  0.783409  0.886063  1
  Ir  Ir9  1  0.750000  0.216591  0.113937  1
  Ir  Ir10  1  0.750000  0.724499  0.402367  1
  Ir  Ir11  1  0.250000  0.275501  0.597633  1
