# generated using pymatgen
data_CeTm5Ni20As13
_symmetry_space_group_name_H-M   'P 1'
_cell_length_a   13.14569572
_cell_length_b   13.13986905
_cell_length_c   3.88204400
_cell_angle_alpha   90.00000000
_cell_angle_beta   90.00000000
_cell_angle_gamma   120.05242131
_symmetry_Int_Tables_number   1
_chemical_formula_structural   CeTm5Ni20As13
_chemical_formula_sum   'Ce1 Tm5 Ni20 As13'
_cell_volume   580.41155132
_cell_formula_units_Z   1
loop_
 _symmetry_equiv_pos_site_id
 _symmetry_equiv_pos_as_xyz
  1  'x, y, z'
loop_
 _atom_site_type_symbol
 _atom_site_label
 _atom_site_symmetry_multiplicity
 _atom_site_fract_x
 _atom_site_fract_y
 _atom_site_fract_z
 _atom_site_occupancy
  Ce  Ce0  1  0.190474  0.720034  0.500000  1
  Tm  Tm1  1  0.718419  0.528097  0.000000  1
  Tm  Tm2  1  0.811292  0.283497  0.000000  1
  Tm  Tm3  1  0.471958  0.188512  0.000000  1
  Tm  Tm4  1  0.530689  0.809964  0.500000  1
  Tm  Tm5  1  0.280314  0.469639  0.500000  1
  Ni  Ni6  1  0.889295  0.800894  0.000000  1
  Ni  Ni7  1  0.908415  0.108609  0.000000  1
  Ni  Ni8  1  0.200414  0.091048  0.000000  1
  Ni  Ni9  1  0.667140  0.333889  0.500000  1
  Ni  Ni10  1  0.848303  0.930700  0.500000  1
  Ni  Ni11  1  0.082153  0.151303  0.500000  1
  Ni  Ni12  1  0.067901  0.918370  0.500000  1
  Ni  Ni13  1  0.332871  0.666315  0.000000  1
  Ni  Ni14  1  0.977954  0.563320  0.000000  1
  Ni  Ni15  1  0.587269  0.022532  0.000000  1
  Ni  Ni16  1  0.436252  0.415103  0.000000  1
  Ni  Ni17  1  0.927673  0.682804  0.500000  1
  Ni  Ni18  1  0.753049  0.070202  0.500000  1
  Ni  Ni19  1  0.317705  0.247191  0.500000  1
  Ni  Ni20  1  0.416389  0.980323  0.500000  1
  Ni  Ni21  1  0.563187  0.584038  0.500000  1
  Ni  Ni22  1  0.020321  0.435007  0.500000  1
  Ni  Ni23  1  0.676410  0.753158  0.000000  1
  Ni  Ni24  1  0.076322  0.320371  0.000000  1
  Ni  Ni25  1  0.248123  0.925424  0.000000  1
  As  As26  1  0.862111  0.476679  0.500000  1
  As  As27  1  0.615309  0.139306  0.500000  1
  As  As28  1  0.524407  0.385468  0.500000  1
  As  As29  1  0.765687  0.718768  0.500000  1
  As  As30  1  0.951404  0.232483  0.500000  1
  As  As31  1  0.280918  0.047597  0.500000  1
  As  As32  1  0.391625  0.864393  0.000000  1
  As  As33  1  0.473777  0.612197  0.000000  1
  As  As34  1  0.136561  0.521843  0.000000  1
  As  As35  1  0.717289  0.947929  0.000000  1
  As  As36  1  0.231285  0.282198  0.000000  1
  As  As37  1  0.049063  0.770027  0.000000  1
  As  As38  1  0.000274  0.000768  0.000000  1
