# generated using pymatgen
data_Dy9ScSb9Te
_symmetry_space_group_name_H-M   'P 1'
_cell_length_a   7.54531585
_cell_length_b   8.78185598
_cell_length_c   9.77132193
_cell_angle_alpha   103.02172775
_cell_angle_beta   97.43345657
_cell_angle_gamma   106.98275033
_symmetry_Int_Tables_number   1
_chemical_formula_structural   Dy9ScSb9Te
_chemical_formula_sum   'Dy9 Sc1 Sb9 Te1'
_cell_volume   589.92337074
_cell_formula_units_Z   1
loop_
 _symmetry_equiv_pos_site_id
 _symmetry_equiv_pos_as_xyz
  1  'x, y, z'
loop_
 _atom_site_type_symbol
 _atom_site_label
 _atom_site_symmetry_multiplicity
 _atom_site_fract_x
 _atom_site_fract_y
 _atom_site_fract_z
 _atom_site_occupancy
  Dy  Dy0  1  0.901275  0.549807  0.800227  1
  Dy  Dy1  1  0.695172  0.151751  0.397640  1
  Dy  Dy2  1  0.497770  0.749028  0.999574  1
  Dy  Dy3  1  0.695999  0.644822  0.398496  1
  Dy  Dy4  1  0.307198  0.356598  0.603093  1
  Dy  Dy5  1  0.100770  0.948152  0.195208  1
  Dy  Dy6  1  0.499416  0.249753  0.998767  1
  Dy  Dy7  1  0.305667  0.848057  0.601437  1
  Dy  Dy8  1  0.098550  0.450003  0.199487  1
  Sc  Sc9  1  0.898312  0.052537  0.808169  1
  Sb  Sb10  1  0.799197  0.600758  0.100778  1
  Sb  Sb11  1  0.606131  0.196065  0.701756  1
  Sb  Sb12  1  0.400591  0.800980  0.299720  1
  Sb  Sb13  1  0.802100  0.098471  0.095165  1
  Sb  Sb14  1  0.193604  0.391428  0.896702  1
  Sb  Sb15  1  0.609093  0.709000  0.702446  1
  Sb  Sb16  1  0.397217  0.298408  0.300077  1
  Sb  Sb17  1  0.192824  0.903175  0.895850  1
  Sb  Sb18  1  0.000483  0.499712  0.500047  1
  Te  Te19  1  0.998631  0.001497  0.505361  1
