# generated using pymatgen
data_Hf18Re5Mo3RhSe
_symmetry_space_group_name_H-M   'P 1'
_cell_length_a   8.66441500
_cell_length_b   8.66415801
_cell_length_c   8.61243000
_cell_angle_alpha   90.00000000
_cell_angle_beta   90.00000000
_cell_angle_gamma   120.00036293
_symmetry_Int_Tables_number   1
_chemical_formula_structural   Hf18Re5Mo3RhSe
_chemical_formula_sum   'Hf18 Re5 Mo3 Rh1 Se1'
_cell_volume   559.91275136
_cell_formula_units_Z   1
loop_
 _symmetry_equiv_pos_site_id
 _symmetry_equiv_pos_as_xyz
  1  'x, y, z'
loop_
 _atom_site_type_symbol
 _atom_site_label
 _atom_site_symmetry_multiplicity
 _atom_site_fract_x
 _atom_site_fract_y
 _atom_site_fract_z
 _atom_site_occupancy
  Hf  Hf0  1  0.195894  0.804114  0.444384  1
  Hf  Hf1  1  0.195893  0.391777  0.444388  1
  Hf  Hf2  1  0.608220  0.804106  0.444397  1
  Hf  Hf3  1  0.807670  0.192340  0.545838  1
  Hf  Hf4  1  0.807662  0.615333  0.545832  1
  Hf  Hf5  1  0.384675  0.192340  0.545835  1
  Hf  Hf6  1  0.807670  0.192340  0.954162  1
  Hf  Hf7  1  0.807662  0.615333  0.954168  1
  Hf  Hf8  1  0.384675  0.192340  0.954165  1
  Hf  Hf9  1  0.195894  0.804114  0.055616  1
  Hf  Hf10  1  0.195893  0.391777  0.055612  1
  Hf  Hf11  1  0.608220  0.804106  0.055603  1
  Hf  Hf12  1  0.543057  0.456949  0.250000  1
  Hf  Hf13  1  0.543062  0.086113  0.250000  1
  Hf  Hf14  1  0.913887  0.456943  0.250000  1
  Hf  Hf15  1  0.455551  0.544446  0.750000  1
  Hf  Hf16  1  0.455547  0.911097  0.750000  1
  Hf  Hf17  1  0.088908  0.544457  0.750000  1
  Re  Re18  1  0.889501  0.110498  0.250000  1
  Re  Re19  1  0.889500  0.779013  0.250000  1
  Re  Re20  1  0.220992  0.110497  0.250000  1
  Re  Re21  1  0.999995  0.999988  0.498796  1
  Re  Re22  1  0.999995  0.999988  0.001204  1
  Mo  Mo23  1  0.110330  0.889661  0.750000  1
  Mo  Mo24  1  0.110326  0.220662  0.750000  1
  Mo  Mo25  1  0.779339  0.889665  0.750000  1
  Rh  Rh26  1  0.333328  0.666661  0.250000  1
  Se  Se27  1  0.666658  0.333337  0.750000  1
