# generated using pymatgen
data_Tb2PrAl2Co9B4
_symmetry_space_group_name_H-M   'P 1'
_cell_length_a   5.18693862
_cell_length_b   5.18546534
_cell_length_c   9.57194500
_cell_angle_alpha   89.99987689
_cell_angle_beta   89.99997565
_cell_angle_gamma   119.96437792
_symmetry_Int_Tables_number   1
_chemical_formula_structural   Tb2PrAl2Co9B4
_chemical_formula_sum   'Tb2 Pr1 Al2 Co9 B4'
_cell_volume   223.04138335
_cell_formula_units_Z   1
loop_
 _symmetry_equiv_pos_site_id
 _symmetry_equiv_pos_as_xyz
  1  'x, y, z'
loop_
 _atom_site_type_symbol
 _atom_site_label
 _atom_site_symmetry_multiplicity
 _atom_site_fract_x
 _atom_site_fract_y
 _atom_site_fract_z
 _atom_site_occupancy
  Tb  Tb0  1  0.000000  0.000005  0.341422  1
  Tb  Tb1  1  0.999994  0.999997  0.658704  1
  Pr  Pr2  1  0.999987  0.999995  0.000073  1
  Al  Al3  1  0.333329  0.666540  0.999931  1
  Al  Al4  1  0.666652  0.333455  0.999931  1
  Co  Co5  1  0.499997  0.000001  0.499997  1
  Co  Co6  1  0.499996  0.500001  0.500020  1
  Co  Co7  1  0.999996  0.500001  0.500017  1
  Co  Co8  1  0.499997  0.000004  0.209597  1
  Co  Co9  1  0.499998  0.500005  0.209606  1
  Co  Co10  1  0.999997  0.500004  0.209644  1
  Co  Co11  1  0.499993  0.999997  0.790369  1
  Co  Co12  1  0.499992  0.499996  0.790354  1
  Co  Co13  1  0.999993  0.499996  0.790324  1
  B  B14  1  0.333368  0.666612  0.350167  1
  B  B15  1  0.666624  0.333391  0.350167  1
  B  B16  1  0.666607  0.333277  0.649839  1
  B  B17  1  0.333381  0.666721  0.649839  1
