# generated using pymatgen
data_Sr5Si11AsIr19
_symmetry_space_group_name_H-M   'P 1'
_cell_length_a   12.98711398
_cell_length_b   13.01204256
_cell_length_c   4.05276800
_cell_angle_alpha   90.00000000
_cell_angle_beta   90.00000000
_cell_angle_gamma   120.06351950
_symmetry_Int_Tables_number   1
_chemical_formula_structural   Sr5Si11AsIr19
_chemical_formula_sum   'Sr5 Si11 As1 Ir19'
_cell_volume   592.73718028
_cell_formula_units_Z   1
loop_
 _symmetry_equiv_pos_site_id
 _symmetry_equiv_pos_as_xyz
  1  'x, y, z'
loop_
 _atom_site_type_symbol
 _atom_site_label
 _atom_site_symmetry_multiplicity
 _atom_site_fract_x
 _atom_site_fract_y
 _atom_site_fract_z
 _atom_site_occupancy
  Sr  Sr0  1  0.000000  0.815883  0.500000  1
  Sr  Sr1  1  0.184753  0.183163  0.500000  1
  Sr  Sr2  1  0.815247  0.998411  0.500000  1
  Sr  Sr3  1  0.334385  0.668289  0.000000  1
  Sr  Sr4  1  0.665615  0.333903  0.000000  1
  Si  Si5  1  0.813377  0.812351  0.000000  1
  Si  Si6  1  0.186623  0.998974  0.000000  1
  Si  Si7  1  0.522168  0.688958  0.500000  1
  Si  Si8  1  0.312096  0.834027  0.500000  1
  Si  Si9  1  0.168130  0.480752  0.500000  1
  Si  Si10  1  0.477832  0.166790  0.500000  1
  Si  Si11  1  0.687904  0.521931  0.500000  1
  Si  Si12  1  0.831870  0.312621  0.500000  1
  Si  Si13  1  0.000000  0.628041  0.000000  1
  Si  Si14  1  0.372419  0.372057  0.000000  1
  Si  Si15  1  0.627581  0.999638  0.000000  1
  As  As16  1  0.000000  0.181784  0.000000  1
  Ir  Ir17  1  0.000000  0.289139  0.500000  1
  Ir  Ir18  1  0.714287  0.714096  0.500000  1
  Ir  Ir19  1  0.285713  0.999809  0.500000  1
  Ir  Ir20  1  0.620334  0.804034  0.000000  1
  Ir  Ir21  1  0.196440  0.815631  0.000000  1
  Ir  Ir22  1  0.185609  0.382191  0.000000  1
  Ir  Ir23  1  0.379666  0.183700  0.000000  1
  Ir  Ir24  1  0.803560  0.619190  0.000000  1
  Ir  Ir25  1  0.814391  0.196582  0.000000  1
  Ir  Ir26  1  0.513607  0.875490  0.500000  1
  Ir  Ir27  1  0.124938  0.638593  0.500000  1
  Ir  Ir28  1  0.362372  0.487847  0.500000  1
  Ir  Ir29  1  0.486393  0.361883  0.500000  1
  Ir  Ir30  1  0.875062  0.513656  0.500000  1
  Ir  Ir31  1  0.637628  0.125475  0.500000  1
  Ir  Ir32  1  0.000000  0.994256  0.000000  1
  Ir  Ir33  1  0.000000  0.447208  0.000000  1
  Ir  Ir34  1  0.552941  0.553295  0.000000  1
  Ir  Ir35  1  0.447059  0.000354  0.000000  1
