# generated using pymatgen
data_Ti2SiRh5
_symmetry_space_group_name_H-M   'P 1'
_cell_length_a   3.94802800
_cell_length_b   5.41295300
_cell_length_c   10.56336900
_cell_angle_alpha   90.00000000
_cell_angle_beta   90.00000000
_cell_angle_gamma   90.00000000
_symmetry_Int_Tables_number   1
_chemical_formula_structural   Ti2SiRh5
_chemical_formula_sum   'Ti4 Si2 Rh10'
_cell_volume   225.74437165
_cell_formula_units_Z   2
loop_
 _symmetry_equiv_pos_site_id
 _symmetry_equiv_pos_as_xyz
  1  'x, y, z'
loop_
 _atom_site_type_symbol
 _atom_site_label
 _atom_site_symmetry_multiplicity
 _atom_site_fract_x
 _atom_site_fract_y
 _atom_site_fract_z
 _atom_site_occupancy
  Ti  Ti0  1  0.500000  0.327043  0.140868  1
  Ti  Ti1  1  0.500000  0.672957  0.859132  1
  Ti  Ti2  1  0.500000  0.827043  0.359132  1
  Ti  Ti3  1  0.500000  0.172957  0.640868  1
  Si  Si4  1  0.000000  0.000000  0.000000  1
  Si  Si5  1  0.000000  0.500000  0.500000  1
  Rh  Rh6  1  0.000000  0.000000  0.500000  1
  Rh  Rh7  1  0.000000  0.500000  0.000000  1
  Rh  Rh8  1  0.000000  0.077260  0.240415  1
  Rh  Rh9  1  0.000000  0.922740  0.759585  1
  Rh  Rh10  1  0.000000  0.577260  0.259585  1
  Rh  Rh11  1  0.000000  0.422740  0.740415  1
  Rh  Rh12  1  0.500000  0.316920  0.395817  1
  Rh  Rh13  1  0.500000  0.683080  0.604183  1
  Rh  Rh14  1  0.500000  0.816920  0.104183  1
  Rh  Rh15  1  0.500000  0.183080  0.895817  1
