# generated using pymatgen
data_TbMg2ScIr8
_symmetry_space_group_name_H-M   'P 1'
_cell_length_a   5.25750000
_cell_length_b   5.25749951
_cell_length_c   8.55726000
_cell_angle_alpha   90.00000000
_cell_angle_beta   90.00000000
_cell_angle_gamma   120.00000305
_symmetry_Int_Tables_number   1
_chemical_formula_structural   TbMg2ScIr8
_chemical_formula_sum   'Tb1 Mg2 Sc1 Ir8'
_cell_volume   204.84429282
_cell_formula_units_Z   1
loop_
 _symmetry_equiv_pos_site_id
 _symmetry_equiv_pos_as_xyz
  1  'x, y, z'
loop_
 _atom_site_type_symbol
 _atom_site_label
 _atom_site_symmetry_multiplicity
 _atom_site_fract_x
 _atom_site_fract_y
 _atom_site_fract_z
 _atom_site_occupancy
  Tb  Tb0  1  0.333333  0.666667  0.069270  1
  Mg  Mg1  1  0.666667  0.333333  0.932066  1
  Mg  Mg2  1  0.333333  0.666667  0.440857  1
  Sc  Sc3  1  0.666667  0.333333  0.572193  1
  Ir  Ir4  1  0.000000  0.000000  0.995252  1
  Ir  Ir5  1  0.000000  0.000000  0.495857  1
  Ir  Ir6  1  0.828744  0.657489  0.252135  1
  Ir  Ir7  1  0.170788  0.829212  0.746033  1
  Ir  Ir8  1  0.658424  0.829212  0.746033  1
  Ir  Ir9  1  0.342511  0.171256  0.252135  1
  Ir  Ir10  1  0.828744  0.171256  0.252135  1
  Ir  Ir11  1  0.170788  0.341576  0.746033  1
