# generated using pymatgen
data_Ca3Al2GaIr2
_symmetry_space_group_name_H-M   'P 1'
_cell_length_a   5.84631200
_cell_length_b   7.95804700
_cell_length_c   15.18593800
_cell_angle_alpha   90.00000000
_cell_angle_beta   90.00000000
_cell_angle_gamma   90.00000000
_symmetry_Int_Tables_number   1
_chemical_formula_structural   Ca3Al2GaIr2
_chemical_formula_sum   'Ca12 Al8 Ga4 Ir8'
_cell_volume   706.52919250
_cell_formula_units_Z   4
loop_
 _symmetry_equiv_pos_site_id
 _symmetry_equiv_pos_as_xyz
  1  'x, y, z'
loop_
 _atom_site_type_symbol
 _atom_site_label
 _atom_site_symmetry_multiplicity
 _atom_site_fract_x
 _atom_site_fract_y
 _atom_site_fract_z
 _atom_site_occupancy
  Ca  Ca0  1  0.893307  0.463093  0.109959  1
  Ca  Ca1  1  0.393307  0.036907  0.890041  1
  Ca  Ca2  1  0.606693  0.963093  0.390041  1
  Ca  Ca3  1  0.106693  0.536907  0.609959  1
  Ca  Ca4  1  0.106693  0.536907  0.890041  1
  Ca  Ca5  1  0.606693  0.963093  0.109959  1
  Ca  Ca6  1  0.393307  0.036907  0.609959  1
  Ca  Ca7  1  0.893307  0.463093  0.390041  1
  Ca  Ca8  1  0.382017  0.314607  0.250000  1
  Ca  Ca9  1  0.882017  0.185393  0.750000  1
  Ca  Ca10  1  0.117983  0.814607  0.250000  1
  Ca  Ca11  1  0.617983  0.685393  0.750000  1
  Al  Al12  1  0.388956  0.336730  0.035363  1
  Al  Al13  1  0.888956  0.163270  0.964637  1
  Al  Al14  1  0.111044  0.836730  0.464637  1
  Al  Al15  1  0.611044  0.663270  0.535363  1
  Al  Al16  1  0.611044  0.663270  0.964637  1
  Al  Al17  1  0.111044  0.836730  0.035363  1
  Al  Al18  1  0.888956  0.163270  0.535363  1
  Al  Al19  1  0.388956  0.336730  0.464637  1
  Ga  Ga20  1  0.916232  0.163666  0.250000  1
  Ga  Ga21  1  0.416232  0.336334  0.750000  1
  Ga  Ga22  1  0.583768  0.663666  0.250000  1
  Ga  Ga23  1  0.083768  0.836334  0.750000  1
  Ir  Ir24  1  0.119759  0.126429  0.101037  1
  Ir  Ir25  1  0.619759  0.373571  0.898963  1
  Ir  Ir26  1  0.380241  0.626429  0.398963  1
  Ir  Ir27  1  0.880241  0.873571  0.601037  1
  Ir  Ir28  1  0.880241  0.873571  0.898963  1
  Ir  Ir29  1  0.380241  0.626429  0.101037  1
  Ir  Ir30  1  0.619759  0.373571  0.601037  1
  Ir  Ir31  1  0.119759  0.126429  0.398963  1
