# generated using pymatgen
data_Ho8Sc12Si15Sn
_symmetry_space_group_name_H-M   'P 1'
_cell_length_a   7.11628526
_cell_length_b   7.40231115
_cell_length_c   14.04363894
_cell_angle_alpha   90.01252223
_cell_angle_beta   89.58305013
_cell_angle_gamma   90.01905594
_symmetry_Int_Tables_number   1
_chemical_formula_structural   Ho8Sc12Si15Sn
_chemical_formula_sum   'Ho8 Sc12 Si15 Sn1'
_cell_volume   739.75652803
_cell_formula_units_Z   1
loop_
 _symmetry_equiv_pos_site_id
 _symmetry_equiv_pos_as_xyz
  1  'x, y, z'
loop_
 _atom_site_type_symbol
 _atom_site_label
 _atom_site_symmetry_multiplicity
 _atom_site_fract_x
 _atom_site_fract_y
 _atom_site_fract_z
 _atom_site_occupancy
  Ho  Ho0  1  0.011778  0.176025  0.096503  1
  Ho  Ho1  1  0.988138  0.824628  0.904421  1
  Ho  Ho2  1  0.488929  0.676110  0.904327  1
  Ho  Ho3  1  0.988973  0.830376  0.598398  1
  Ho  Ho4  1  0.511078  0.323840  0.096784  1
  Ho  Ho5  1  0.005899  0.169654  0.399078  1
  Ho  Ho6  1  0.513182  0.320260  0.399487  1
  Ho  Ho7  1  0.501116  0.684474  0.600028  1
  Sc  Sc8  1  0.162554  0.502500  0.755112  1
  Sc  Sc9  1  0.837034  0.497435  0.249148  1
  Sc  Sc10  1  0.337328  0.002823  0.249312  1
  Sc  Sc11  1  0.664095  0.997177  0.751775  1
  Sc  Sc12  1  0.343197  0.162471  0.630859  1
  Sc  Sc13  1  0.663995  0.825052  0.372589  1
  Sc  Sc14  1  0.163497  0.683437  0.369257  1
  Sc  Sc15  1  0.667791  0.822974  0.124126  1
  Sc  Sc16  1  0.823085  0.323598  0.626629  1
  Sc  Sc17  1  0.330646  0.175929  0.875550  1
  Sc  Sc18  1  0.831183  0.323372  0.875621  1
  Sc  Sc19  1  0.168723  0.676764  0.124986  1
  Si  Si20  1  0.034969  0.118358  0.751256  1
  Si  Si21  1  0.963178  0.885332  0.246806  1
  Si  Si22  1  0.465360  0.615207  0.248519  1
  Si  Si23  1  0.533059  0.385694  0.752244  1
  Si  Si24  1  0.286614  0.869744  0.752485  1
  Si  Si25  1  0.712321  0.127010  0.247436  1
  Si  Si26  1  0.211961  0.372346  0.249070  1
  Si  Si27  1  0.789555  0.628398  0.751647  1
  Si  Si28  1  0.830019  0.538945  0.458651  1
  Si  Si29  1  0.338061  0.964045  0.460306  1
  Si  Si30  1  0.841884  0.534574  0.039459  1
  Si  Si31  1  0.662490  0.037131  0.537885  1
  Si  Si32  1  0.157275  0.464859  0.961562  1
  Si  Si33  1  0.657301  0.035222  0.960784  1
  Si  Si34  1  0.341426  0.965349  0.039774  1
  Sn  Sn35  1  0.172307  0.458889  0.538125  1
