# generated using pymatgen
data_DyTm(ScAs)2
_symmetry_space_group_name_H-M   'P 1'
_cell_length_a   4.11247200
_cell_length_b   4.11247200
_cell_length_c   7.83043400
_cell_angle_alpha   90.00000000
_cell_angle_beta   90.00000000
_cell_angle_gamma   90.00000000
_symmetry_Int_Tables_number   1
_chemical_formula_structural   DyTm(ScAs)2
_chemical_formula_sum   'Dy1 Tm1 Sc2 As2'
_cell_volume   132.43163519
_cell_formula_units_Z   1
loop_
 _symmetry_equiv_pos_site_id
 _symmetry_equiv_pos_as_xyz
  1  'x, y, z'
loop_
 _atom_site_type_symbol
 _atom_site_label
 _atom_site_symmetry_multiplicity
 _atom_site_fract_x
 _atom_site_fract_y
 _atom_site_fract_z
 _atom_site_occupancy
  Dy  Dy0  1  0.500000  0.000000  0.353082  1
  Tm  Tm1  1  0.000000  0.500000  0.648645  1
  Sc  Sc2  1  0.000000  0.000000  0.999070  1
  Sc  Sc3  1  0.500000  0.500000  0.999070  1
  As  As4  1  0.000000  0.500000  0.267636  1
  As  As5  1  0.500000  0.000000  0.732496  1
