# generated using pymatgen
data_NbSi2B4W9
_symmetry_space_group_name_H-M   'P 1'
_cell_length_a   7.03278178
_cell_length_b   7.05100592
_cell_length_c   7.04442807
_cell_angle_alpha   128.57827634
_cell_angle_beta   128.50688917
_cell_angle_gamma   75.72119532
_symmetry_Int_Tables_number   1
_chemical_formula_structural   NbSi2B4W9
_chemical_formula_sum   'Nb1 Si2 B4 W9'
_cell_volume   207.89299513
_cell_formula_units_Z   1
loop_
 _symmetry_equiv_pos_site_id
 _symmetry_equiv_pos_as_xyz
  1  'x, y, z'
loop_
 _atom_site_type_symbol
 _atom_site_label
 _atom_site_symmetry_multiplicity
 _atom_site_fract_x
 _atom_site_fract_y
 _atom_site_fract_z
 _atom_site_occupancy
  Nb  Nb0  1  0.980795  0.804435  0.500000  1
  Si  Si1  1  0.252511  0.254654  0.004177  1
  Si  Si2  1  0.748334  0.750477  0.995823  1
  B  B3  1  0.130931  0.628477  0.760520  1
  B  B4  1  0.870410  0.367955  0.239480  1
  B  B5  1  0.624497  0.872018  0.500000  1
  B  B6  1  0.372781  0.126690  0.500000  1
  W  W7  1  0.997455  0.997685  0.000048  1
  W  W8  1  0.497407  0.497637  0.999952  1
  W  W9  1  0.801891  0.302214  0.821924  1
  W  W10  1  0.200840  0.701948  0.183066  1
  W  W11  1  0.479967  0.980290  0.178076  1
  W  W12  1  0.303766  0.475500  0.500000  1
  W  W13  1  0.018380  0.203588  0.500000  1
  W  W14  1  0.517774  0.018882  0.816934  1
  W  W15  1  0.702259  0.517550  0.500000  1
