# generated using pymatgen
data_Li2Sc4Co15(NiP4)3
_symmetry_space_group_name_H-M   'P 1'
_cell_length_a   3.60871500
_cell_length_b   10.11035354
_cell_length_c   11.75947075
_cell_angle_alpha   89.93712374
_cell_angle_beta   90.00000000
_cell_angle_gamma   90.00000000
_symmetry_Int_Tables_number   1
_chemical_formula_structural   Li2Sc4Co15(NiP4)3
_chemical_formula_sum   'Li2 Sc4 Co15 Ni3 P12'
_cell_volume   429.04855317
_cell_formula_units_Z   1
loop_
 _symmetry_equiv_pos_site_id
 _symmetry_equiv_pos_as_xyz
  1  'x, y, z'
loop_
 _atom_site_type_symbol
 _atom_site_label
 _atom_site_symmetry_multiplicity
 _atom_site_fract_x
 _atom_site_fract_y
 _atom_site_fract_z
 _atom_site_occupancy
  Li  Li0  1  0.250000  0.703836  0.990836  1
  Li  Li1  1  0.250000  0.795733  0.490536  1
  Sc  Sc2  1  0.250000  0.578193  0.704811  1
  Sc  Sc3  1  0.250000  0.922081  0.203060  1
  Sc  Sc4  1  0.750000  0.422368  0.296592  1
  Sc  Sc5  1  0.750000  0.076302  0.797954  1
  Co  Co6  1  0.250000  0.408305  0.483610  1
  Co  Co7  1  0.250000  0.093911  0.983607  1
  Co  Co8  1  0.750000  0.908076  0.018253  1
  Co  Co9  1  0.250000  0.225923  0.175324  1
  Co  Co10  1  0.250000  0.273640  0.674761  1
  Co  Co11  1  0.750000  0.778510  0.827868  1
  Co  Co12  1  0.750000  0.720050  0.325831  1
  Co  Co13  1  0.250000  0.879217  0.700764  1
  Co  Co14  1  0.250000  0.621081  0.198611  1
  Co  Co15  1  0.750000  0.122082  0.298586  1
  Co  Co16  1  0.750000  0.378247  0.797866  1
  Co  Co17  1  0.250000  0.461234  0.931009  1
  Co  Co18  1  0.250000  0.037913  0.430997  1
  Co  Co19  1  0.750000  0.534810  0.066689  1
  Co  Co20  1  0.750000  0.965117  0.566722  1
  Ni  Ni21  1  0.750000  0.286095  0.009252  1
  Ni  Ni22  1  0.750000  0.212838  0.509431  1
  Ni  Ni23  1  0.750000  0.594960  0.518033  1
  P  P24  1  0.250000  0.424442  0.115232  1
  P  P25  1  0.250000  0.074950  0.615401  1
  P  P26  1  0.750000  0.575128  0.881508  1
  P  P27  1  0.750000  0.923777  0.380905  1
  P  P28  1  0.250000  0.261798  0.863216  1
  P  P29  1  0.250000  0.237963  0.363740  1
  P  P30  1  0.750000  0.736084  0.138669  1
  P  P31  1  0.750000  0.766814  0.642247  1
  P  P32  1  0.250000  0.598635  0.386946  1
  P  P33  1  0.250000  0.901406  0.891754  1
  P  P34  1  0.750000  0.398438  0.609673  1
  P  P35  1  0.750000  0.100041  0.109712  1
