# generated using pymatgen
data_MgZr10InBi4
_symmetry_space_group_name_H-M   'P 1'
_cell_length_a   5.69097843
_cell_length_b   8.58594819
_cell_length_c   8.58568355
_cell_angle_alpha   83.67420002
_cell_angle_beta   70.62147932
_cell_angle_gamma   70.62222473
_symmetry_Int_Tables_number   1
_chemical_formula_structural   MgZr10InBi4
_chemical_formula_sum   'Mg1 Zr10 In1 Bi4'
_cell_volume   373.33191294
_cell_formula_units_Z   1
loop_
 _symmetry_equiv_pos_site_id
 _symmetry_equiv_pos_as_xyz
  1  'x, y, z'
loop_
 _atom_site_type_symbol
 _atom_site_label
 _atom_site_symmetry_multiplicity
 _atom_site_fract_x
 _atom_site_fract_y
 _atom_site_fract_z
 _atom_site_occupancy
  Mg  Mg0  1  0.749998  0.999963  0.000041  1
  Zr  Zr1  1  0.250000  0.499963  0.500028  1
  Zr  Zr2  1  0.750012  0.500042  0.499948  1
  Zr  Zr3  1  0.071389  0.144745  0.702663  1
  Zr  Zr4  1  0.918570  0.855223  0.297269  1
  Zr  Zr5  1  0.773804  0.297280  0.144777  1
  Zr  Zr6  1  0.428601  0.297345  0.855270  1
  Zr  Zr7  1  0.215963  0.702741  0.855283  1
  Zr  Zr8  1  0.581427  0.702733  0.144786  1
  Zr  Zr9  1  0.726197  0.855220  0.702704  1
  Zr  Zr10  1  0.284051  0.144712  0.297241  1
  In  In11  1  0.249992  0.000005  0.000010  1
  Bi  Bi12  1  0.164735  0.499986  0.170615  1
  Bi  Bi13  1  0.835244  0.500054  0.829413  1
  Bi  Bi14  1  0.335272  0.829395  0.500010  1
  Bi  Bi15  1  0.664746  0.170592  0.499942  1
