# generated using pymatgen
data_Er3Tc(P3Ir4)2
_symmetry_space_group_name_H-M   'P 1'
_cell_length_a   3.96401700
_cell_length_b   11.12809100
_cell_length_c   12.78554400
_cell_angle_alpha   90.00000000
_cell_angle_beta   90.00000000
_cell_angle_gamma   90.00000000
_symmetry_Int_Tables_number   1
_chemical_formula_structural   Er3Tc(P3Ir4)2
_chemical_formula_sum   'Er6 Tc2 P12 Ir16'
_cell_volume   563.99517411
_cell_formula_units_Z   2
loop_
 _symmetry_equiv_pos_site_id
 _symmetry_equiv_pos_as_xyz
  1  'x, y, z'
loop_
 _atom_site_type_symbol
 _atom_site_label
 _atom_site_symmetry_multiplicity
 _atom_site_fract_x
 _atom_site_fract_y
 _atom_site_fract_z
 _atom_site_occupancy
  Er  Er0  1  0.750000  0.250000  0.477345  1
  Er  Er1  1  0.250000  0.750000  0.522655  1
  Er  Er2  1  0.250000  0.930890  0.793899  1
  Er  Er3  1  0.250000  0.569110  0.793899  1
  Er  Er4  1  0.750000  0.069110  0.206101  1
  Er  Er5  1  0.750000  0.430890  0.206101  1
  Tc  Tc6  1  0.250000  0.250000  0.837038  1
  Tc  Tc7  1  0.750000  0.750000  0.162962  1
  P  P8  1  0.250000  0.250000  0.124799  1
  P  P9  1  0.750000  0.750000  0.875201  1
  P  P10  1  0.250000  0.250000  0.649868  1
  P  P11  1  0.750000  0.750000  0.350132  1
  P  P12  1  0.250000  0.433542  0.381372  1
  P  P13  1  0.250000  0.066458  0.381372  1
  P  P14  1  0.750000  0.566458  0.618628  1
  P  P15  1  0.750000  0.933542  0.618628  1
  P  P16  1  0.250000  0.906175  0.114474  1
  P  P17  1  0.250000  0.593825  0.114474  1
  P  P18  1  0.750000  0.093825  0.885526  1
  P  P19  1  0.750000  0.406175  0.885526  1
  Ir  Ir20  1  0.250000  0.250000  0.300654  1
  Ir  Ir21  1  0.750000  0.750000  0.699346  1
  Ir  Ir22  1  0.750000  0.250000  0.002024  1
  Ir  Ir23  1  0.250000  0.750000  0.997976  1
  Ir  Ir24  1  0.250000  0.418171  0.019121  1
  Ir  Ir25  1  0.250000  0.081829  0.019121  1
  Ir  Ir26  1  0.750000  0.581829  0.980879  1
  Ir  Ir27  1  0.750000  0.918171  0.980879  1
  Ir  Ir28  1  0.250000  0.449733  0.566901  1
  Ir  Ir29  1  0.250000  0.050267  0.566901  1
  Ir  Ir30  1  0.750000  0.550267  0.433099  1
  Ir  Ir31  1  0.750000  0.949733  0.433099  1
  Ir  Ir32  1  0.250000  0.878135  0.289856  1
  Ir  Ir33  1  0.250000  0.621865  0.289856  1
  Ir  Ir34  1  0.750000  0.121865  0.710144  1
  Ir  Ir35  1  0.750000  0.378135  0.710144  1
