# generated using pymatgen
data_Er2Lu2TcB12Ru
_symmetry_space_group_name_H-M   'P 1'
_cell_length_a   3.61875500
_cell_length_b   9.06189156
_cell_length_c   11.43887201
_cell_angle_alpha   89.86351709
_cell_angle_beta   90.00000000
_cell_angle_gamma   90.00000000
_symmetry_Int_Tables_number   1
_chemical_formula_structural   Er2Lu2TcB12Ru
_chemical_formula_sum   'Er4 Lu4 Tc2 B24 Ru2'
_cell_volume   375.11118198
_cell_formula_units_Z   2
loop_
 _symmetry_equiv_pos_site_id
 _symmetry_equiv_pos_as_xyz
  1  'x, y, z'
loop_
 _atom_site_type_symbol
 _atom_site_label
 _atom_site_symmetry_multiplicity
 _atom_site_fract_x
 _atom_site_fract_y
 _atom_site_fract_z
 _atom_site_occupancy
  Er  Er0  1  0.000000  0.324094  0.415633  1
  Er  Er1  1  0.000000  0.675906  0.584367  1
  Er  Er2  1  0.000000  0.820153  0.087328  1
  Er  Er3  1  0.000000  0.179847  0.912672  1
  Lu  Lu4  1  0.000000  0.942246  0.370943  1
  Lu  Lu5  1  0.000000  0.057754  0.629057  1
  Lu  Lu6  1  0.000000  0.443231  0.129727  1
  Lu  Lu7  1  0.000000  0.556769  0.870273  1
  Tc  Tc8  1  0.000000  0.638514  0.319770  1
  Tc  Tc9  1  0.000000  0.361486  0.680230  1
  B  B10  1  0.500000  0.553094  0.433272  1
  B  B11  1  0.500000  0.446906  0.566728  1
  B  B12  1  0.500000  0.053850  0.066541  1
  B  B13  1  0.500000  0.946150  0.933459  1
  B  B14  1  0.500000  0.749690  0.419186  1
  B  B15  1  0.500000  0.250310  0.580814  1
  B  B16  1  0.500000  0.249723  0.080843  1
  B  B17  1  0.500000  0.750277  0.919157  1
  B  B18  1  0.500000  0.792273  0.264728  1
  B  B19  1  0.500000  0.207727  0.735272  1
  B  B20  1  0.500000  0.291231  0.234795  1
  B  B21  1  0.500000  0.708769  0.765205  1
  B  B22  1  0.500000  0.630342  0.184346  1
  B  B23  1  0.500000  0.369658  0.815654  1
  B  B24  1  0.500000  0.130023  0.314939  1
  B  B25  1  0.500000  0.869977  0.685061  1
  B  B26  1  0.500000  0.981924  0.212133  1
  B  B27  1  0.500000  0.018076  0.787867  1
  B  B28  1  0.500000  0.481205  0.287355  1
  B  B29  1  0.500000  0.518795  0.712645  1
  B  B30  1  0.500000  0.601686  0.027865  1
  B  B31  1  0.500000  0.398314  0.972135  1
  B  B32  1  0.500000  0.101821  0.471620  1
  B  B33  1  0.500000  0.898179  0.528380  1
  Ru  Ru34  1  0.000000  0.137822  0.178846  1
  Ru  Ru35  1  0.000000  0.862178  0.821154  1
