# generated using pymatgen
data_Ho3Tm9Rh4
_symmetry_space_group_name_H-M   'P 1'
_cell_length_a   6.25723804
_cell_length_b   7.12389262
_cell_length_c   9.26295600
_cell_angle_alpha   90.00000000
_cell_angle_beta   90.00000000
_cell_angle_gamma   89.96949467
_symmetry_Int_Tables_number   1
_chemical_formula_structural   Ho3Tm9Rh4
_chemical_formula_sum   'Ho3 Tm9 Rh4'
_cell_volume   412.90446700
_cell_formula_units_Z   1
loop_
 _symmetry_equiv_pos_site_id
 _symmetry_equiv_pos_as_xyz
  1  'x, y, z'
loop_
 _atom_site_type_symbol
 _atom_site_label
 _atom_site_symmetry_multiplicity
 _atom_site_fract_x
 _atom_site_fract_y
 _atom_site_fract_z
 _atom_site_occupancy
  Ho  Ho0  1  0.368321  0.533932  0.250000  1
  Ho  Ho1  1  0.632095  0.465991  0.750000  1
  Ho  Ho2  1  0.131791  0.033892  0.250000  1
  Tm  Tm3  1  0.672927  0.178288  0.062660  1
  Tm  Tm4  1  0.172399  0.321380  0.937101  1
  Tm  Tm5  1  0.827596  0.678703  0.437313  1
  Tm  Tm6  1  0.326915  0.821702  0.563071  1
  Tm  Tm7  1  0.326915  0.821702  0.936929  1
  Tm  Tm8  1  0.827596  0.678703  0.062687  1
  Tm  Tm9  1  0.172399  0.321380  0.562899  1
  Tm  Tm10  1  0.672927  0.178288  0.437340  1
  Tm  Tm11  1  0.867802  0.965569  0.750000  1
  Rh  Rh12  1  0.052246  0.616570  0.750000  1
  Rh  Rh13  1  0.552804  0.884295  0.250000  1
  Rh  Rh14  1  0.448129  0.115401  0.750000  1
  Rh  Rh15  1  0.947135  0.384205  0.250000  1
