# generated using pymatgen
data_Y3ErAl18PtRh5
_symmetry_space_group_name_H-M   'P 1'
_cell_length_a   7.55548125
_cell_length_b   7.55620003
_cell_length_c   9.48734785
_cell_angle_alpha   89.97187765
_cell_angle_beta   89.97616928
_cell_angle_gamma   119.52721381
_symmetry_Int_Tables_number   1
_chemical_formula_structural   Y3ErAl18PtRh5
_chemical_formula_sum   'Y3 Er1 Al18 Pt1 Rh5'
_cell_volume   471.29217724
_cell_formula_units_Z   1
loop_
 _symmetry_equiv_pos_site_id
 _symmetry_equiv_pos_as_xyz
  1  'x, y, z'
loop_
 _atom_site_type_symbol
 _atom_site_label
 _atom_site_symmetry_multiplicity
 _atom_site_fract_x
 _atom_site_fract_y
 _atom_site_fract_z
 _atom_site_occupancy
  Y  Y0  1  0.993422  0.669877  0.750095  1
  Y  Y1  1  0.004722  0.328533  0.250116  1
  Y  Y2  1  0.671565  0.995303  0.749901  1
  Er  Er3  1  0.329665  0.006259  0.249704  1
  Al  Al4  1  0.128408  0.127363  0.750262  1
  Al  Al5  1  0.872977  0.871780  0.249678  1
  Al  Al6  1  0.005197  0.335381  0.575143  1
  Al  Al7  1  0.003048  0.668987  0.424175  1
  Al  Al8  1  0.000799  0.665494  0.074228  1
  Al  Al9  1  0.334763  0.999660  0.927061  1
  Al  Al10  1  0.001079  0.334692  0.926131  1
  Al  Al11  1  0.664745  0.999002  0.074572  1
  Al  Al12  1  0.664265  0.995168  0.424189  1
  Al  Al13  1  0.331497  0.997696  0.574495  1
  Al  Al14  1  0.332712  0.332336  0.051959  1
  Al  Al15  1  0.667031  0.667050  0.949687  1
  Al  Al16  1  0.666021  0.669222  0.553433  1
  Al  Al17  1  0.330821  0.333571  0.445024  1
  Al  Al18  1  0.340430  0.550572  0.750440  1
  Al  Al19  1  0.659369  0.453408  0.246635  1
  Al  Al20  1  0.546047  0.339748  0.753508  1
  Al  Al21  1  0.449717  0.660561  0.249541  1
  Pt  Pt22  1  0.672262  0.327669  0.499616  1
  Rh  Rh23  1  0.328203  0.671782  0.499427  1
  Rh  Rh24  1  0.328400  0.671473  0.000489  1
  Rh  Rh25  1  0.671765  0.327548  0.000626  1
  Rh  Rh26  1  0.000410  0.000122  0.499331  1
  Rh  Rh27  1  0.000655  0.999746  0.000533  1
