# generated using pymatgen
data_Mn3Tc4NiP4
_symmetry_space_group_name_H-M   'P 1'
_cell_length_a   3.76400900
_cell_length_b   5.78504763
_cell_length_c   6.65171025
_cell_angle_alpha   90.87851725
_cell_angle_beta   90.00000000
_cell_angle_gamma   90.00000000
_symmetry_Int_Tables_number   1
_chemical_formula_structural   Mn3Tc4NiP4
_chemical_formula_sum   'Mn3 Tc4 Ni1 P4'
_cell_volume   144.82377424
_cell_formula_units_Z   1
loop_
 _symmetry_equiv_pos_site_id
 _symmetry_equiv_pos_as_xyz
  1  'x, y, z'
loop_
 _atom_site_type_symbol
 _atom_site_label
 _atom_site_symmetry_multiplicity
 _atom_site_fract_x
 _atom_site_fract_y
 _atom_site_fract_z
 _atom_site_occupancy
  Mn  Mn0  1  0.750000  0.359775  0.059584  1
  Mn  Mn1  1  0.750000  0.865785  0.437669  1
  Mn  Mn2  1  0.250000  0.640953  0.931742  1
  Tc  Tc3  1  0.750000  0.473174  0.669081  1
  Tc  Tc4  1  0.750000  0.967488  0.834901  1
  Tc  Tc5  1  0.250000  0.526171  0.326093  1
  Tc  Tc6  1  0.250000  0.027680  0.168857  1
  Ni  Ni7  1  0.250000  0.141169  0.571645  1
  P  P8  1  0.750000  0.737731  0.122101  1
  P  P9  1  0.750000  0.240835  0.375305  1
  P  P10  1  0.250000  0.262336  0.886501  1
  P  P11  1  0.250000  0.756902  0.616521  1
