# generated using pymatgen
data_Th3Al2Pt3Au
_symmetry_space_group_name_H-M   'P 1'
_cell_length_a   7.27679457
_cell_length_b   7.27679428
_cell_length_c   4.17076100
_cell_angle_alpha   90.00000000
_cell_angle_beta   90.00000000
_cell_angle_gamma   117.66120610
_symmetry_Int_Tables_number   1
_chemical_formula_structural   Th3Al2Pt3Au
_chemical_formula_sum   'Th3 Al2 Pt3 Au1'
_cell_volume   195.60779651
_cell_formula_units_Z   1
loop_
 _symmetry_equiv_pos_site_id
 _symmetry_equiv_pos_as_xyz
  1  'x, y, z'
loop_
 _atom_site_type_symbol
 _atom_site_label
 _atom_site_symmetry_multiplicity
 _atom_site_fract_x
 _atom_site_fract_y
 _atom_site_fract_z
 _atom_site_occupancy
  Th  Th0  1  0.422336  0.422336  0.500000  1
  Th  Th1  1  0.589174  0.988750  0.500000  1
  Th  Th2  1  0.988750  0.589174  0.500000  1
  Al  Al3  1  0.236356  0.001558  0.000000  1
  Al  Al4  1  0.001558  0.236356  0.000000  1
  Pt  Pt5  1  0.662225  0.303880  0.000000  1
  Pt  Pt6  1  0.303880  0.662225  0.000000  1
  Pt  Pt7  1  0.039283  0.039283  0.500000  1
  Au  Au8  1  0.756439  0.756439  0.000000  1
