# generated using pymatgen
data_Pr8NdDy11Pb16
_symmetry_space_group_name_H-M   'P 1'
_cell_length_a   8.30792370
_cell_length_b   8.39768824
_cell_length_c   15.88070100
_cell_angle_alpha   89.92194028
_cell_angle_beta   90.05407564
_cell_angle_gamma   89.72690134
_symmetry_Int_Tables_number   1
_chemical_formula_structural   Pr8NdDy11Pb16
_chemical_formula_sum   'Pr8 Nd1 Dy11 Pb16'
_cell_volume   1107.94036054
_cell_formula_units_Z   1
loop_
 _symmetry_equiv_pos_site_id
 _symmetry_equiv_pos_as_xyz
  1  'x, y, z'
loop_
 _atom_site_type_symbol
 _atom_site_label
 _atom_site_symmetry_multiplicity
 _atom_site_fract_x
 _atom_site_fract_y
 _atom_site_fract_z
 _atom_site_occupancy
  Pr  Pr0  1  0.479106  0.678132  0.597180  1
  Pr  Pr1  1  0.979971  0.821133  0.903673  1
  Pr  Pr2  1  0.520729  0.321956  0.097066  1
  Pr  Pr3  1  0.020148  0.177488  0.402268  1
  Pr  Pr4  1  0.521723  0.322590  0.401236  1
  Pr  Pr5  1  0.021153  0.177801  0.096839  1
  Pr  Pr6  1  0.479207  0.678349  0.904624  1
  Pr  Pr7  1  0.978462  0.820946  0.597459  1
  Nd  Nd8  1  0.637022  0.160483  0.620682  1
  Dy  Dy9  1  0.138200  0.341437  0.878454  1
  Dy  Dy10  1  0.361021  0.840818  0.122998  1
  Dy  Dy11  1  0.863029  0.658604  0.374961  1
  Dy  Dy12  1  0.361200  0.841430  0.377076  1
  Dy  Dy13  1  0.861044  0.658370  0.122784  1
  Dy  Dy14  1  0.639205  0.158688  0.877506  1
  Dy  Dy15  1  0.139194  0.340481  0.623829  1
  Dy  Dy16  1  0.806191  0.495953  0.750752  1
  Dy  Dy17  1  0.304757  0.005349  0.750979  1
  Dy  Dy18  1  0.195071  0.504407  0.249953  1
  Dy  Dy19  1  0.694652  0.994487  0.249022  1
  Pb  Pb20  1  0.702717  0.956317  0.453680  1
  Pb  Pb21  1  0.201647  0.541034  0.043855  1
  Pb  Pb22  1  0.299203  0.040768  0.956916  1
  Pb  Pb23  1  0.802021  0.464637  0.542140  1
  Pb  Pb24  1  0.290651  0.038357  0.542803  1
  Pb  Pb25  1  0.797881  0.458968  0.957071  1
  Pb  Pb26  1  0.701789  0.958997  0.043119  1
  Pb  Pb27  1  0.202165  0.540046  0.456945  1
  Pb  Pb28  1  0.442286  0.374681  0.752024  1
  Pb  Pb29  1  0.944885  0.128765  0.752180  1
  Pb  Pb30  1  0.555603  0.628775  0.249716  1
  Pb  Pb31  1  0.056796  0.871779  0.248980  1
  Pb  Pb32  1  0.669139  0.847894  0.751632  1
  Pb  Pb33  1  0.169996  0.650255  0.750760  1
  Pb  Pb34  1  0.331252  0.150357  0.249592  1
  Pb  Pb35  1  0.830882  0.349469  0.249240  1
