# generated using pymatgen
data_Tb3Sc2(In2Pd)2
_symmetry_space_group_name_H-M   'P 1'
_cell_length_a   3.54471500
_cell_length_b   7.96394100
_cell_length_c   17.84238100
_cell_angle_alpha   90.00000000
_cell_angle_beta   90.00000000
_cell_angle_gamma   90.00000000
_symmetry_Int_Tables_number   1
_chemical_formula_structural   Tb3Sc2(In2Pd)2
_chemical_formula_sum   'Tb6 Sc4 In8 Pd4'
_cell_volume   503.68865141
_cell_formula_units_Z   2
loop_
 _symmetry_equiv_pos_site_id
 _symmetry_equiv_pos_as_xyz
  1  'x, y, z'
loop_
 _atom_site_type_symbol
 _atom_site_label
 _atom_site_symmetry_multiplicity
 _atom_site_fract_x
 _atom_site_fract_y
 _atom_site_fract_z
 _atom_site_occupancy
  Tb  Tb0  1  0.000000  0.500000  0.500000  1
  Tb  Tb1  1  0.000000  0.000000  0.000000  1
  Tb  Tb2  1  0.000000  0.738455  0.285291  1
  Tb  Tb3  1  0.000000  0.261545  0.714709  1
  Tb  Tb4  1  0.000000  0.761545  0.785291  1
  Tb  Tb5  1  0.000000  0.238455  0.214709  1
  Sc  Sc6  1  0.000000  0.620283  0.083879  1
  Sc  Sc7  1  0.000000  0.379717  0.916121  1
  Sc  Sc8  1  0.000000  0.879717  0.583879  1
  Sc  Sc9  1  0.000000  0.120283  0.416121  1
  In  In10  1  0.500000  0.690816  0.939597  1
  In  In11  1  0.500000  0.309184  0.060403  1
  In  In12  1  0.500000  0.809184  0.439597  1
  In  In13  1  0.500000  0.190816  0.560403  1
  In  In14  1  0.500000  0.589948  0.649850  1
  In  In15  1  0.500000  0.410052  0.350150  1
  In  In16  1  0.500000  0.910052  0.149850  1
  In  In17  1  0.500000  0.089948  0.850150  1
  Pd  Pd18  1  0.500000  0.529657  0.192079  1
  Pd  Pd19  1  0.500000  0.470343  0.807921  1
  Pd  Pd20  1  0.500000  0.970343  0.692079  1
  Pd  Pd21  1  0.500000  0.029657  0.307921  1
