# generated using pymatgen
data_Zr8TlCu2(PO4)12
_symmetry_space_group_name_H-M   'P 1'
_cell_length_a   8.96972919
_cell_length_b   9.33769956
_cell_length_c   15.69796579
_cell_angle_alpha   92.14752637
_cell_angle_beta   106.54484754
_cell_angle_gamma   118.52324857
_symmetry_Int_Tables_number   1
_chemical_formula_structural   Zr8TlCu2(PO4)12
_chemical_formula_sum   'Zr8 Tl1 Cu2 P12 O48'
_cell_volume   1083.65480713
_cell_formula_units_Z   1
loop_
 _symmetry_equiv_pos_site_id
 _symmetry_equiv_pos_as_xyz
  1  'x, y, z'
loop_
 _atom_site_type_symbol
 _atom_site_label
 _atom_site_symmetry_multiplicity
 _atom_site_fract_x
 _atom_site_fract_y
 _atom_site_fract_z
 _atom_site_occupancy
  Zr  Zr0  1  0.152873  0.124006  0.682766  1
  Zr  Zr1  1  0.365623  0.658213  0.568892  1
  Zr  Zr2  1  0.140821  0.604728  0.175234  1
  Zr  Zr3  1  0.352553  0.128756  0.077771  1
  Zr  Zr4  1  0.634377  0.341787  0.431108  1
  Zr  Zr5  1  0.847127  0.875994  0.317234  1
  Zr  Zr6  1  0.647447  0.871244  0.922229  1
  Zr  Zr7  1  0.859179  0.395272  0.824766  1
  Tl  Tl8  1  0.500000  0.500000  0.000000  1
  Cu  Cu9  1  0.086737  0.342374  0.339420  1
  Cu  Cu10  1  0.913263  0.657626  0.660580  1
  P  P11  1  0.759622  0.760859  0.522778  1
  P  P12  1  0.026292  0.613812  0.374046  1
  P  P13  1  0.473827  0.995509  0.728627  1
  P  P14  1  0.526173  0.004491  0.271373  1
  P  P15  1  0.973708  0.386188  0.625954  1
  P  P16  1  0.747427  0.266985  0.016446  1
  P  P17  1  0.240378  0.239141  0.477222  1
  P  P18  1  0.040596  0.131300  0.876719  1
  P  P19  1  0.456963  0.474207  0.238929  1
  P  P20  1  0.543037  0.525793  0.761071  1
  P  P21  1  0.959404  0.868700  0.123281  1
  P  P22  1  0.252573  0.733015  0.983554  1
  O  O23  1  0.264979  0.417073  0.478913  1
  O  O24  1  0.507189  0.591849  0.673490  1
  O  O25  1  0.919935  0.859871  0.617032  1
  O  O26  1  0.138339  0.524072  0.608331  1
  O  O27  1  0.814936  0.836264  0.444496  1
  O  O28  1  0.588736  0.758483  0.524660  1
  O  O29  1  0.058632  0.525479  0.298017  1
  O  O30  1  0.197929  0.688436  0.458784  1
  O  O31  1  0.359985  0.830703  0.256389  1
  O  O32  1  0.449929  0.880061  0.646391  1
  O  O33  1  0.699116  0.993705  0.292192  1
  O  O34  1  0.003324  0.246718  0.658995  1
  O  O35  1  0.266882  0.902936  0.999557  1
  O  O36  1  0.996676  0.753282  0.341005  1
  O  O37  1  0.300884  0.006295  0.707808  1
  O  O38  1  0.550071  0.119939  0.353609  1
  O  O39  1  0.640015  0.169297  0.743611  1
  O  O40  1  0.504062  0.080404  0.186636  1
  O  O41  1  0.802071  0.311564  0.541216  1
  O  O42  1  0.915265  0.381367  0.100279  1
  O  O43  1  0.133030  0.018635  0.120230  1
  O  O44  1  0.941368  0.474521  0.701983  1
  O  O45  1  0.765023  0.347610  0.932292  1
  O  O46  1  0.411264  0.241517  0.475340  1
  O  O47  1  0.576727  0.245997  0.032776  1
  O  O48  1  0.185064  0.163736  0.555504  1
  O  O49  1  0.087128  0.080833  0.797365  1
  O  O50  1  0.861661  0.475928  0.391669  1
  O  O51  1  0.080065  0.140129  0.382968  1
  O  O52  1  0.198844  0.181072  0.966195  1
  O  O53  1  0.492811  0.408151  0.326510  1
  O  O54  1  0.383928  0.347844  0.749800  1
  O  O55  1  0.437812  0.361383  0.157256  1
  O  O56  1  0.719049  0.521213  0.777967  1
  O  O57  1  0.986297  0.718232  0.137812  1
  O  O58  1  0.735021  0.582927  0.521087  1
  O  O59  1  0.013703  0.281768  0.862188  1
  O  O60  1  0.280951  0.478787  0.222033  1
  O  O61  1  0.562188  0.638617  0.842744  1
  O  O62  1  0.616072  0.652156  0.250200  1
  O  O63  1  0.801156  0.818928  0.033805  1
  O  O64  1  0.912872  0.919167  0.202635  1
  O  O65  1  0.423273  0.754003  0.967224  1
  O  O66  1  0.234977  0.652390  0.067708  1
  O  O67  1  0.866970  0.981365  0.879770  1
  O  O68  1  0.084735  0.618633  0.899721  1
  O  O69  1  0.495938  0.919596  0.813364  1
  O  O70  1  0.733118  0.097064  0.000443  1
