# generated using pymatgen
data_Sm4Tm5ScSn8
_symmetry_space_group_name_H-M   'P 1'
_cell_length_a   7.97627800
_cell_length_b   8.14965300
_cell_length_c   15.39569000
_cell_angle_alpha   90.00000000
_cell_angle_beta   90.00000000
_cell_angle_gamma   90.00000000
_symmetry_Int_Tables_number   1
_chemical_formula_structural   Sm4Tm5ScSn8
_chemical_formula_sum   'Sm8 Tm10 Sc2 Sn16'
_cell_volume   1000.77986135
_cell_formula_units_Z   2
loop_
 _symmetry_equiv_pos_site_id
 _symmetry_equiv_pos_as_xyz
  1  'x, y, z'
loop_
 _atom_site_type_symbol
 _atom_site_label
 _atom_site_symmetry_multiplicity
 _atom_site_fract_x
 _atom_site_fract_y
 _atom_site_fract_z
 _atom_site_occupancy
  Sm  Sm0  1  0.515741  0.323142  0.904069  1
  Sm  Sm1  1  0.015741  0.176858  0.595931  1
  Sm  Sm2  1  0.484243  0.677104  0.403421  1
  Sm  Sm3  1  0.984243  0.822896  0.096579  1
  Sm  Sm4  1  0.484243  0.677104  0.096579  1
  Sm  Sm5  1  0.984243  0.822896  0.403421  1
  Sm  Sm6  1  0.515741  0.323142  0.595931  1
  Sm  Sm7  1  0.015741  0.176858  0.904069  1
  Tm  Tm8  1  0.358727  0.836917  0.876252  1
  Tm  Tm9  1  0.858727  0.663083  0.623748  1
  Tm  Tm10  1  0.640820  0.162957  0.375549  1
  Tm  Tm11  1  0.140820  0.337043  0.124451  1
  Tm  Tm12  1  0.640820  0.162957  0.124451  1
  Tm  Tm13  1  0.140820  0.337043  0.375549  1
  Tm  Tm14  1  0.358727  0.836917  0.623748  1
  Tm  Tm15  1  0.858727  0.663083  0.876252  1
  Tm  Tm16  1  0.192372  0.502886  0.750000  1
  Tm  Tm17  1  0.692372  0.997114  0.750000  1
  Sc  Sc18  1  0.807752  0.495761  0.250000  1
  Sc  Sc19  1  0.307752  0.004239  0.250000  1
  Sn  Sn20  1  0.305318  0.041016  0.043205  1
  Sn  Sn21  1  0.805318  0.458984  0.456795  1
  Sn  Sn22  1  0.694416  0.958542  0.541769  1
  Sn  Sn23  1  0.194416  0.541458  0.958231  1
  Sn  Sn24  1  0.694416  0.958542  0.958231  1
  Sn  Sn25  1  0.194416  0.541458  0.541769  1
  Sn  Sn26  1  0.305318  0.041016  0.456795  1
  Sn  Sn27  1  0.805318  0.458984  0.043205  1
  Sn  Sn28  1  0.556925  0.625054  0.750000  1
  Sn  Sn29  1  0.056925  0.874946  0.750000  1
  Sn  Sn30  1  0.445265  0.375451  0.250000  1
  Sn  Sn31  1  0.945265  0.124549  0.250000  1
  Sn  Sn32  1  0.325226  0.145306  0.750000  1
  Sn  Sn33  1  0.825226  0.354694  0.750000  1
  Sn  Sn34  1  0.673929  0.852951  0.250000  1
  Sn  Sn35  1  0.173929  0.647049  0.250000  1
