# generated using pymatgen
data_Dy4HgPbAu4
_symmetry_space_group_name_H-M   'P 1'
_cell_length_a   8.09781800
_cell_length_b   8.09781800
_cell_length_c   7.33921700
_cell_angle_alpha   90.00000000
_cell_angle_beta   90.00000000
_cell_angle_gamma   90.00000000
_symmetry_Int_Tables_number   1
_chemical_formula_structural   Dy4HgPbAu4
_chemical_formula_sum   'Dy8 Hg2 Pb2 Au8'
_cell_volume   481.26663273
_cell_formula_units_Z   2
loop_
 _symmetry_equiv_pos_site_id
 _symmetry_equiv_pos_as_xyz
  1  'x, y, z'
loop_
 _atom_site_type_symbol
 _atom_site_label
 _atom_site_symmetry_multiplicity
 _atom_site_fract_x
 _atom_site_fract_y
 _atom_site_fract_z
 _atom_site_occupancy
  Dy  Dy0  1  0.841525  0.158475  0.500000  1
  Dy  Dy1  1  0.158475  0.841525  0.500000  1
  Dy  Dy2  1  0.341525  0.341525  0.000000  1
  Dy  Dy3  1  0.658475  0.658475  0.000000  1
  Dy  Dy4  1  0.683122  0.683122  0.500000  1
  Dy  Dy5  1  0.316878  0.316878  0.500000  1
  Dy  Dy6  1  0.183122  0.816878  0.000000  1
  Dy  Dy7  1  0.816878  0.183122  0.000000  1
  Hg  Hg8  1  0.500000  0.000000  0.250000  1
  Hg  Hg9  1  0.000000  0.500000  0.750000  1
  Pb  Pb10  1  0.500000  0.000000  0.750000  1
  Pb  Pb11  1  0.000000  0.500000  0.250000  1
  Au  Au12  1  0.624518  0.370993  0.274840  1
  Au  Au13  1  0.375482  0.629007  0.274840  1
  Au  Au14  1  0.124518  0.129007  0.774840  1
  Au  Au15  1  0.875482  0.870993  0.774840  1
  Au  Au16  1  0.370993  0.624518  0.725160  1
  Au  Au17  1  0.629007  0.375482  0.725160  1
  Au  Au18  1  0.870993  0.875482  0.225160  1
  Au  Au19  1  0.129007  0.124518  0.225160  1
