# generated using pymatgen
data_Pr10Si5Pt
_symmetry_space_group_name_H-M   'P 1'
_cell_length_a   7.77349206
_cell_length_b   7.77349179
_cell_length_c   9.10193627
_cell_angle_alpha   115.27884452
_cell_angle_beta   115.27884932
_cell_angle_gamma   90.00000482
_symmetry_Int_Tables_number   1
_chemical_formula_structural   Pr10Si5Pt
_chemical_formula_sum   'Pr10 Si5 Pt1'
_cell_volume   438.38513861
_cell_formula_units_Z   1
loop_
 _symmetry_equiv_pos_site_id
 _symmetry_equiv_pos_as_xyz
  1  'x, y, z'
loop_
 _atom_site_type_symbol
 _atom_site_label
 _atom_site_symmetry_multiplicity
 _atom_site_fract_x
 _atom_site_fract_y
 _atom_site_fract_z
 _atom_site_occupancy
  Pr  Pr0  1  0.472932  0.472932  0.945863  1
  Pr  Pr1  1  0.027068  0.027068  0.054137  1
  Pr  Pr2  1  0.953781  0.809783  0.285849  1
  Pr  Pr3  1  0.332069  0.476066  0.285849  1
  Pr  Pr4  1  0.809783  0.332069  0.285849  1
  Pr  Pr5  1  0.476066  0.953781  0.285849  1
  Pr  Pr6  1  0.023934  0.167931  0.714151  1
  Pr  Pr7  1  0.690217  0.546219  0.714151  1
  Pr  Pr8  1  0.167931  0.690217  0.714151  1
  Pr  Pr9  1  0.546219  0.023934  0.714151  1
  Si  Si10  1  0.250000  0.250000  0.500000  1
  Si  Si11  1  0.614575  0.885425  0.000000  1
  Si  Si12  1  0.385425  0.114575  0.000000  1
  Si  Si13  1  0.885425  0.385425  0.000000  1
  Si  Si14  1  0.114575  0.614575  0.000000  1
  Pt  Pt15  1  0.750000  0.750000  0.500000  1
