# generated using pymatgen
data_NdY3Pd4F28
_symmetry_space_group_name_H-M   'P 1'
_cell_length_a   5.55127020
_cell_length_b   8.93740887
_cell_length_c   12.03543561
_cell_angle_alpha   62.30668324
_cell_angle_beta   89.89876528
_cell_angle_gamma   89.96476408
_symmetry_Int_Tables_number   1
_chemical_formula_structural   NdY3Pd4F28
_chemical_formula_sum   'Nd1 Y3 Pd4 F28'
_cell_volume   528.72287455
_cell_formula_units_Z   1
loop_
 _symmetry_equiv_pos_site_id
 _symmetry_equiv_pos_as_xyz
  1  'x, y, z'
loop_
 _atom_site_type_symbol
 _atom_site_label
 _atom_site_symmetry_multiplicity
 _atom_site_fract_x
 _atom_site_fract_y
 _atom_site_fract_z
 _atom_site_occupancy
  Nd  Nd0  1  0.261831  0.813966  0.264328  1
  Y  Y1  1  0.737007  0.185724  0.736513  1
  Y  Y2  1  0.763294  0.190325  0.235893  1
  Y  Y3  1  0.237184  0.814784  0.763504  1
  Pd  Pd4  1  0.757992  0.726238  0.039963  1
  Pd  Pd5  1  0.240085  0.275243  0.955534  1
  Pd  Pd6  1  0.259142  0.269936  0.458733  1
  Pd  Pd7  1  0.741063  0.725807  0.545825  1
  F  F8  1  0.928728  0.703947  0.417798  1
  F  F9  1  0.066456  0.293468  0.584967  1
  F  F10  1  0.431669  0.295779  0.083083  1
  F  F11  1  0.567043  0.704853  0.912867  1
  F  F12  1  0.465917  0.724700  0.128962  1
  F  F13  1  0.532605  0.273691  0.866065  1
  F  F14  1  0.966670  0.272510  0.368267  1
  F  F15  1  0.034779  0.726963  0.633971  1
  F  F16  1  0.939932  0.739743  0.173023  1
  F  F17  1  0.051409  0.258551  0.824340  1
  F  F18  1  0.447689  0.256085  0.326227  1
  F  F19  1  0.553718  0.742150  0.677036  1
  F  F20  1  0.770438  0.480441  0.138874  1
  F  F21  1  0.228945  0.521083  0.858895  1
  F  F22  1  0.270914  0.514422  0.361299  1
  F  F23  1  0.730426  0.479109  0.642105  1
  F  F24  1  0.942460  0.282164  0.040133  1
  F  F25  1  0.058722  0.719633  0.957580  1
  F  F26  1  0.444220  0.716432  0.464116  1
  F  F27  1  0.556755  0.278922  0.542239  1
  F  F28  1  0.740718  0.971074  0.452729  1
  F  F29  1  0.258419  0.024722  0.550284  1
  F  F30  1  0.241647  0.030452  0.045900  1
  F  F31  1  0.757589  0.971791  0.949809  1
  F  F32  1  0.602785  0.973669  0.229549  1
  F  F33  1  0.411022  0.030865  0.768501  1
  F  F34  1  0.089953  0.041055  0.269461  1
  F  F35  1  0.910772  0.969702  0.731625  1
