# generated using pymatgen
data_TbSi(GeRh2)3
_symmetry_space_group_name_H-M   'P 1'
_cell_length_a   7.17485300
_cell_length_b   7.17485501
_cell_length_c   3.80953000
_cell_angle_alpha   90.00000000
_cell_angle_beta   90.00000000
_cell_angle_gamma   119.99999534
_symmetry_Int_Tables_number   1
_chemical_formula_structural   TbSi(GeRh2)3
_chemical_formula_sum   'Tb1 Si1 Ge3 Rh6'
_cell_volume   169.83538770
_cell_formula_units_Z   1
loop_
 _symmetry_equiv_pos_site_id
 _symmetry_equiv_pos_as_xyz
  1  'x, y, z'
loop_
 _atom_site_type_symbol
 _atom_site_label
 _atom_site_symmetry_multiplicity
 _atom_site_fract_x
 _atom_site_fract_y
 _atom_site_fract_z
 _atom_site_occupancy
  Tb  Tb0  1  0.333333  0.666667  0.000000  1
  Si  Si1  1  0.666667  0.333333  0.000000  1
  Ge  Ge2  1  0.726956  0.863478  0.500000  1
  Ge  Ge3  1  0.136522  0.273044  0.500000  1
  Ge  Ge4  1  0.136522  0.863478  0.500000  1
  Rh  Rh5  1  0.272188  0.136093  0.000000  1
  Rh  Rh6  1  0.863907  0.727812  0.000000  1
  Rh  Rh7  1  0.863907  0.136093  0.000000  1
  Rh  Rh8  1  0.929536  0.464767  0.500000  1
  Rh  Rh9  1  0.535233  0.070464  0.500000  1
  Rh  Rh10  1  0.535233  0.464767  0.500000  1
