# generated using pymatgen
data_TiTl2(Te2Au)2
_symmetry_space_group_name_H-M   'P 1'
_cell_length_a   6.26896200
_cell_length_b   6.26896200
_cell_length_c   14.56172200
_cell_angle_alpha   90.00000000
_cell_angle_beta   90.00000000
_cell_angle_gamma   90.00000000
_symmetry_Int_Tables_number   1
_chemical_formula_structural   TiTl2(Te2Au)2
_chemical_formula_sum   'Ti2 Tl4 Te8 Au4'
_cell_volume   572.27399356
_cell_formula_units_Z   2
loop_
 _symmetry_equiv_pos_site_id
 _symmetry_equiv_pos_as_xyz
  1  'x, y, z'
loop_
 _atom_site_type_symbol
 _atom_site_label
 _atom_site_symmetry_multiplicity
 _atom_site_fract_x
 _atom_site_fract_y
 _atom_site_fract_z
 _atom_site_occupancy
  Ti  Ti0  1  0.000000  0.000000  0.250000  1
  Ti  Ti1  1  0.000000  0.000000  0.750000  1
  Tl  Tl2  1  0.238798  0.238798  0.000000  1
  Tl  Tl3  1  0.761202  0.761202  0.000000  1
  Tl  Tl4  1  0.761202  0.238798  0.500000  1
  Tl  Tl5  1  0.238798  0.761202  0.500000  1
  Te  Te6  1  0.237433  0.237433  0.363317  1
  Te  Te7  1  0.762567  0.762567  0.636683  1
  Te  Te8  1  0.762567  0.762567  0.363317  1
  Te  Te9  1  0.762567  0.237433  0.863317  1
  Te  Te10  1  0.762567  0.237433  0.136683  1
  Te  Te11  1  0.237433  0.237433  0.636683  1
  Te  Te12  1  0.237433  0.762567  0.136683  1
  Te  Te13  1  0.237433  0.762567  0.863317  1
  Au  Au14  1  0.000000  0.500000  0.250000  1
  Au  Au15  1  0.000000  0.500000  0.750000  1
  Au  Au16  1  0.500000  0.000000  0.750000  1
  Au  Au17  1  0.500000  0.000000  0.250000  1
