# generated using pymatgen
data_Pr20GaSi10Bi
_symmetry_space_group_name_H-M   'P 1'
_cell_length_a   7.82421400
_cell_length_b   7.82421400
_cell_length_c   14.71062700
_cell_angle_alpha   90.00000000
_cell_angle_beta   90.00000000
_cell_angle_gamma   90.00000000
_symmetry_Int_Tables_number   1
_chemical_formula_structural   Pr20GaSi10Bi
_chemical_formula_sum   'Pr20 Ga1 Si10 Bi1'
_cell_volume   900.55994049
_cell_formula_units_Z   1
loop_
 _symmetry_equiv_pos_site_id
 _symmetry_equiv_pos_as_xyz
  1  'x, y, z'
loop_
 _atom_site_type_symbol
 _atom_site_label
 _atom_site_symmetry_multiplicity
 _atom_site_fract_x
 _atom_site_fract_y
 _atom_site_fract_z
 _atom_site_occupancy
  Pr  Pr0  1  0.814167  0.828122  0.604448  1
  Pr  Pr1  1  0.166345  0.809346  0.115075  1
  Pr  Pr2  1  0.186058  0.828521  0.396250  1
  Pr  Pr3  1  0.000000  0.500000  0.717650  1
  Pr  Pr4  1  0.813942  0.171479  0.396250  1
  Pr  Pr5  1  0.671479  0.686058  0.396250  1
  Pr  Pr6  1  0.671878  0.314167  0.604448  1
  Pr  Pr7  1  0.328122  0.685833  0.604448  1
  Pr  Pr8  1  0.000000  0.500000  0.282256  1
  Pr  Pr9  1  0.690654  0.666345  0.115075  1
  Pr  Pr10  1  0.690324  0.333912  0.884326  1
  Pr  Pr11  1  0.833912  0.809676  0.884326  1
  Pr  Pr12  1  0.328521  0.313942  0.396250  1
  Pr  Pr13  1  0.185833  0.171878  0.604448  1
  Pr  Pr14  1  0.833655  0.190654  0.115075  1
  Pr  Pr15  1  0.309676  0.666088  0.884326  1
  Pr  Pr16  1  0.309346  0.333655  0.115075  1
  Pr  Pr17  1  0.500000  0.000000  0.237699  1
  Pr  Pr18  1  0.166088  0.190324  0.884326  1
  Pr  Pr19  1  0.500000  0.000000  0.762705  1
  Ga  Ga20  1  0.000000  0.500000  0.999175  1
  Si  Si21  1  0.613205  0.386086  0.255414  1
  Si  Si22  1  0.114273  0.886792  0.744341  1
  Si  Si23  1  0.386792  0.385727  0.744341  1
  Si  Si24  1  0.386795  0.613914  0.255414  1
  Si  Si25  1  0.886086  0.886795  0.255414  1
  Si  Si26  1  0.613208  0.614273  0.744341  1
  Si  Si27  1  0.000000  0.500000  0.500618  1
  Si  Si28  1  0.885727  0.113208  0.744341  1
  Si  Si29  1  0.500000  0.000000  0.500323  1
  Si  Si30  1  0.113914  0.113205  0.255414  1
  Bi  Bi31  1  0.500000  0.000000  0.000156  1
