# generated using pymatgen
data_Ce4Ni3RhPb2
_symmetry_space_group_name_H-M   'P 1'
_cell_length_a   7.67179867
_cell_length_b   7.67179867
_cell_length_c   3.67401800
_cell_angle_alpha   90.00000000
_cell_angle_beta   90.00000000
_cell_angle_gamma   89.95196349
_symmetry_Int_Tables_number   1
_chemical_formula_structural   Ce4Ni3RhPb2
_chemical_formula_sum   'Ce4 Ni3 Rh1 Pb2'
_cell_volume   216.23974566
_cell_formula_units_Z   1
loop_
 _symmetry_equiv_pos_site_id
 _symmetry_equiv_pos_as_xyz
  1  'x, y, z'
loop_
 _atom_site_type_symbol
 _atom_site_label
 _atom_site_symmetry_multiplicity
 _atom_site_fract_x
 _atom_site_fract_y
 _atom_site_fract_z
 _atom_site_occupancy
  Ce  Ce0  1  0.325616  0.172664  0.499999  1
  Ce  Ce1  1  0.827912  0.327912  0.499999  1
  Ce  Ce2  1  0.171899  0.671899  0.499999  1
  Ce  Ce3  1  0.672664  0.825616  0.499999  1
  Ni  Ni4  1  0.629989  0.129990  0.000000  1
  Ni  Ni5  1  0.119819  0.378944  0.000000  1
  Ni  Ni6  1  0.878944  0.619818  0.000000  1
  Rh  Rh7  1  0.375492  0.875492  0.000000  1
  Pb  Pb8  1  0.996821  0.000840  0.000000  1
  Pb  Pb9  1  0.500840  0.496821  0.000000  1
