# generated using pymatgen
data_Ba5Sr(TmBi3)2
_symmetry_space_group_name_H-M   'P 1'
_cell_length_a   8.72833833
_cell_length_b   9.99509395
_cell_length_c   8.85120501
_cell_angle_alpha   113.91250133
_cell_angle_beta   103.80906208
_cell_angle_gamma   113.25494971
_symmetry_Int_Tables_number   1
_chemical_formula_structural   Ba5Sr(TmBi3)2
_chemical_formula_sum   'Ba5 Sr1 Tm2 Bi6'
_cell_volume   570.81262182
_cell_formula_units_Z   1
loop_
 _symmetry_equiv_pos_site_id
 _symmetry_equiv_pos_as_xyz
  1  'x, y, z'
loop_
 _atom_site_type_symbol
 _atom_site_label
 _atom_site_symmetry_multiplicity
 _atom_site_fract_x
 _atom_site_fract_y
 _atom_site_fract_z
 _atom_site_occupancy
  Ba  Ba0  1  0.323564  0.326371  0.322001  1
  Ba  Ba1  1  0.001193  0.125749  0.584217  1
  Ba  Ba2  1  0.822822  0.824159  0.823584  1
  Ba  Ba3  1  0.077760  0.625635  0.498217  1
  Ba  Ba4  1  0.554461  0.017264  0.147755  1
  Sr  Sr5  1  0.641291  0.514994  0.038305  1
  Tm  Tm6  1  0.514555  0.066998  0.631803  1
  Tm  Tm7  1  0.130492  0.568345  0.015077  1
  Bi  Bi8  1  0.881106  0.250249  0.022420  1
  Bi  Bi9  1  0.118769  0.886832  0.258524  1
  Bi  Bi10  1  0.359340  0.574700  0.785847  1
  Bi  Bi11  1  0.292250  0.081389  0.863914  1
  Bi  Bi12  1  0.756768  0.391188  0.630641  1
  Bi  Bi13  1  0.525631  0.746126  0.377697  1
