# generated using pymatgen
data_Sr3Li3(IrN)4
_symmetry_space_group_name_H-M   'P 1'
_cell_length_a   4.13728297
_cell_length_b   7.48527269
_cell_length_c   9.58630972
_cell_angle_alpha   112.98030363
_cell_angle_beta   102.46195091
_cell_angle_gamma   90.00000148
_symmetry_Int_Tables_number   1
_chemical_formula_structural   Sr3Li3(IrN)4
_chemical_formula_sum   'Sr3 Li3 Ir4 N4'
_cell_volume   265.70114221
_cell_formula_units_Z   1
loop_
 _symmetry_equiv_pos_site_id
 _symmetry_equiv_pos_as_xyz
  1  'x, y, z'
loop_
 _atom_site_type_symbol
 _atom_site_label
 _atom_site_symmetry_multiplicity
 _atom_site_fract_x
 _atom_site_fract_y
 _atom_site_fract_z
 _atom_site_occupancy
  Sr  Sr0  1  0.000000  0.000000  0.000000  1
  Sr  Sr1  1  0.219751  0.219751  0.439503  1
  Sr  Sr2  1  0.780250  0.780249  0.560497  1
  Li  Li3  1  0.500001  0.500000  0.000000  1
  Li  Li4  1  0.116169  0.616168  0.232338  1
  Li  Li5  1  0.883833  0.383832  0.767662  1
  Ir  Ir6  1  0.618596  0.367151  0.237190  1
  Ir  Ir7  1  0.618596  0.870040  0.237190  1
  Ir  Ir8  1  0.381405  0.129960  0.762810  1
  Ir  Ir9  1  0.381405  0.632850  0.762810  1
  N  N10  1  0.615698  0.115697  0.231395  1
  N  N11  1  0.620077  0.620076  0.240154  1
  N  N12  1  0.379923  0.379923  0.759845  1
  N  N13  1  0.384303  0.884302  0.768605  1
