# generated using pymatgen
data_Ho4ErRu2
_symmetry_space_group_name_H-M   'P 1'
_cell_length_a   6.31867623
_cell_length_b   7.26423178
_cell_length_c   8.44743277
_cell_angle_alpha   96.73039470
_cell_angle_beta   111.96249752
_cell_angle_gamma   89.99999693
_symmetry_Int_Tables_number   1
_chemical_formula_structural   Ho4ErRu2
_chemical_formula_sum   'Ho8 Er2 Ru4'
_cell_volume   356.71842833
_cell_formula_units_Z   2
loop_
 _symmetry_equiv_pos_site_id
 _symmetry_equiv_pos_as_xyz
  1  'x, y, z'
loop_
 _atom_site_type_symbol
 _atom_site_label
 _atom_site_symmetry_multiplicity
 _atom_site_fract_x
 _atom_site_fract_y
 _atom_site_fract_z
 _atom_site_occupancy
  Ho  Ho0  1  0.791660  0.584409  0.813842  1
  Ho  Ho1  1  0.977818  0.915591  0.186158  1
  Ho  Ho2  1  0.208340  0.415591  0.186158  1
  Ho  Ho3  1  0.022182  0.084409  0.813842  1
  Ho  Ho4  1  0.206295  0.684759  0.565896  1
  Ho  Ho5  1  0.640400  0.815241  0.434104  1
  Ho  Ho6  1  0.793705  0.315241  0.434104  1
  Ho  Ho7  1  0.359600  0.184759  0.565896  1
  Er  Er8  1  0.419973  0.750000  0.000000  1
  Er  Er9  1  0.580027  0.250000  0.000000  1
  Ru  Ru10  1  0.603173  0.923977  0.780032  1
  Ru  Ru11  1  0.823139  0.576023  0.219968  1
  Ru  Ru12  1  0.396827  0.076023  0.219968  1
  Ru  Ru13  1  0.176861  0.423977  0.780032  1
