# generated using pymatgen
data_Nd(PPd3)2
_symmetry_space_group_name_H-M   'P 1'
_cell_length_a   8.53222400
_cell_length_b   8.53222400
_cell_length_c   8.53222400
_cell_angle_alpha   90.00000000
_cell_angle_beta   90.00000000
_cell_angle_gamma   90.00000000
_symmetry_Int_Tables_number   1
_chemical_formula_structural   Nd(PPd3)2
_chemical_formula_sum   'Nd4 P8 Pd24'
_cell_volume   621.13606431
_cell_formula_units_Z   4
loop_
 _symmetry_equiv_pos_site_id
 _symmetry_equiv_pos_as_xyz
  1  'x, y, z'
loop_
 _atom_site_type_symbol
 _atom_site_label
 _atom_site_symmetry_multiplicity
 _atom_site_fract_x
 _atom_site_fract_y
 _atom_site_fract_z
 _atom_site_occupancy
  Nd  Nd0  1  0.500000  0.500000  0.000000  1
  Nd  Nd1  1  0.500000  0.000000  0.500000  1
  Nd  Nd2  1  0.000000  0.500000  0.500000  1
  Nd  Nd3  1  0.000000  0.000000  0.000000  1
  P  P4  1  0.807893  0.307893  0.192107  1
  P  P5  1  0.192107  0.807893  0.307893  1
  P  P6  1  0.692107  0.692107  0.692107  1
  P  P7  1  0.307893  0.192107  0.807893  1
  P  P8  1  0.192107  0.692107  0.807893  1
  P  P9  1  0.807893  0.192107  0.692107  1
  P  P10  1  0.307893  0.307893  0.307893  1
  P  P11  1  0.692107  0.807893  0.192107  1
  Pd  Pd12  1  0.421293  0.847323  0.163575  1
  Pd  Pd13  1  0.578707  0.347323  0.336425  1
  Pd  Pd14  1  0.078707  0.152677  0.663575  1
  Pd  Pd15  1  0.921293  0.652677  0.836425  1
  Pd  Pd16  1  0.163575  0.421293  0.847323  1
  Pd  Pd17  1  0.336425  0.578707  0.347323  1
  Pd  Pd18  1  0.663575  0.078707  0.152677  1
  Pd  Pd19  1  0.836425  0.921293  0.652677  1
  Pd  Pd20  1  0.847323  0.163575  0.421293  1
  Pd  Pd21  1  0.347323  0.336425  0.578707  1
  Pd  Pd22  1  0.152677  0.663575  0.078707  1
  Pd  Pd23  1  0.652677  0.836425  0.921293  1
  Pd  Pd24  1  0.578707  0.152677  0.836425  1
  Pd  Pd25  1  0.421293  0.652677  0.663575  1
  Pd  Pd26  1  0.921293  0.847323  0.336425  1
  Pd  Pd27  1  0.078707  0.347323  0.163575  1
  Pd  Pd28  1  0.836425  0.578707  0.152677  1
  Pd  Pd29  1  0.663575  0.421293  0.652677  1
  Pd  Pd30  1  0.336425  0.921293  0.847323  1
  Pd  Pd31  1  0.163575  0.078707  0.347323  1
  Pd  Pd32  1  0.152677  0.836425  0.578707  1
  Pd  Pd33  1  0.652677  0.663575  0.421293  1
  Pd  Pd34  1  0.847323  0.336425  0.921293  1
  Pd  Pd35  1  0.347323  0.163575  0.078707  1
