# generated using pymatgen
data_Ce5BeTc2B5
_symmetry_space_group_name_H-M   'P 1'
_cell_length_a   5.56611649
_cell_length_b   5.52493110
_cell_length_c   8.49518331
_cell_angle_alpha   71.02350438
_cell_angle_beta   71.00803931
_cell_angle_gamma   60.24445876
_symmetry_Int_Tables_number   1
_chemical_formula_structural   Ce5BeTc2B5
_chemical_formula_sum   'Ce5 Be1 Tc2 B5'
_cell_volume   210.15033617
_cell_formula_units_Z   1
loop_
 _symmetry_equiv_pos_site_id
 _symmetry_equiv_pos_as_xyz
  1  'x, y, z'
loop_
 _atom_site_type_symbol
 _atom_site_label
 _atom_site_symmetry_multiplicity
 _atom_site_fract_x
 _atom_site_fract_y
 _atom_site_fract_z
 _atom_site_occupancy
  Ce  Ce0  1  0.000000  0.000866  0.000000  1
  Ce  Ce1  1  0.747563  0.747656  0.755939  1
  Ce  Ce2  1  0.252437  0.251159  0.244061  1
  Ce  Ce3  1  0.585268  0.587099  0.243467  1
  Ce  Ce4  1  0.414732  0.415835  0.756533  1
  Be  Be5  1  0.500000  0.170857  0.500000  1
  Tc  Tc6  1  0.891730  0.890665  0.326203  1
  Tc  Tc7  1  0.108270  0.108596  0.673798  1
  B  B8  1  0.829191  0.499624  0.499879  1
  B  B9  1  0.170809  0.828694  0.500121  1
  B  B10  1  0.152762  0.513783  0.502004  1
  B  B11  1  0.847238  0.168549  0.497996  1
  B  B12  1  0.500000  0.816617  0.500000  1
