# generated using pymatgen
data_La3Pr3MoO12
_symmetry_space_group_name_H-M   'P 1'
_cell_length_a   6.81598341
_cell_length_b   6.81619738
_cell_length_c   6.81525952
_cell_angle_alpha   98.45701636
_cell_angle_beta   98.41460032
_cell_angle_gamma   98.41033818
_symmetry_Int_Tables_number   1
_chemical_formula_structural   La3Pr3MoO12
_chemical_formula_sum   'La3 Pr3 Mo1 O12'
_cell_volume   305.22766106
_cell_formula_units_Z   1
loop_
 _symmetry_equiv_pos_site_id
 _symmetry_equiv_pos_as_xyz
  1  'x, y, z'
loop_
 _atom_site_type_symbol
 _atom_site_label
 _atom_site_symmetry_multiplicity
 _atom_site_fract_x
 _atom_site_fract_y
 _atom_site_fract_z
 _atom_site_occupancy
  La  La0  1  0.306552  0.605377  0.143656  1
  La  La1  1  0.606764  0.143063  0.308619  1
  La  La2  1  0.856734  0.692168  0.396315  1
  Pr  Pr3  1  0.143910  0.306379  0.613597  1
  Pr  Pr4  1  0.388993  0.856381  0.694799  1
  Pr  Pr5  1  0.692631  0.387318  0.856632  1
  Mo  Mo6  1  0.999023  0.999439  0.999670  1
  O  O7  1  0.064737  0.287516  0.963313  1
  O  O8  1  0.036760  0.935939  0.711941  1
  O  O9  1  0.407357  0.558846  0.825226  1
  O  O10  1  0.177481  0.593491  0.441749  1
  O  O11  1  0.714391  0.031025  0.927216  1
  O  O12  1  0.440711  0.176831  0.596261  1
  O  O13  1  0.560180  0.822183  0.408878  1
  O  O14  1  0.284219  0.968315  0.065176  1
  O  O15  1  0.822942  0.405277  0.560940  1
  O  O16  1  0.595363  0.438847  0.179641  1
  O  O17  1  0.975276  0.074128  0.281945  1
  O  O18  1  0.925975  0.717478  0.024425  1
