# generated using pymatgen
data_Tb3Ho7Cd3Ni
_symmetry_space_group_name_H-M   'P 1'
_cell_length_a   9.57565500
_cell_length_b   9.57565383
_cell_length_c   9.79100800
_cell_angle_alpha   90.00000000
_cell_angle_beta   90.00000000
_cell_angle_gamma   119.99999369
_symmetry_Int_Tables_number   1
_chemical_formula_structural   Tb3Ho7Cd3Ni
_chemical_formula_sum   'Tb6 Ho14 Cd6 Ni2'
_cell_volume   777.49032362
_cell_formula_units_Z   2
loop_
 _symmetry_equiv_pos_site_id
 _symmetry_equiv_pos_as_xyz
  1  'x, y, z'
loop_
 _atom_site_type_symbol
 _atom_site_label
 _atom_site_symmetry_multiplicity
 _atom_site_fract_x
 _atom_site_fract_y
 _atom_site_fract_z
 _atom_site_occupancy
  Tb  Tb0  1  0.543469  0.456531  0.250000  1
  Tb  Tb1  1  0.543469  0.086940  0.250000  1
  Tb  Tb2  1  0.913060  0.456531  0.250000  1
  Tb  Tb3  1  0.456531  0.543469  0.750000  1
  Tb  Tb4  1  0.456531  0.913060  0.750000  1
  Tb  Tb5  1  0.086940  0.543469  0.750000  1
  Ho  Ho6  1  0.000000  0.000000  0.500000  1
  Ho  Ho7  1  0.000000  0.000000  0.000000  1
  Ho  Ho8  1  0.210866  0.789134  0.437256  1
  Ho  Ho9  1  0.210866  0.421734  0.437256  1
  Ho  Ho10  1  0.578266  0.789134  0.437256  1
  Ho  Ho11  1  0.789134  0.210866  0.562744  1
  Ho  Ho12  1  0.789134  0.578266  0.562744  1
  Ho  Ho13  1  0.421734  0.210866  0.562744  1
  Ho  Ho14  1  0.789134  0.210866  0.937256  1
  Ho  Ho15  1  0.789134  0.578266  0.937256  1
  Ho  Ho16  1  0.421734  0.210866  0.937256  1
  Ho  Ho17  1  0.210866  0.789134  0.062744  1
  Ho  Ho18  1  0.210866  0.421734  0.062744  1
  Ho  Ho19  1  0.578266  0.789134  0.062744  1
  Cd  Cd20  1  0.885422  0.114578  0.250000  1
  Cd  Cd21  1  0.885422  0.770842  0.250000  1
  Cd  Cd22  1  0.229158  0.114578  0.250000  1
  Cd  Cd23  1  0.114578  0.885422  0.750000  1
  Cd  Cd24  1  0.114578  0.229158  0.750000  1
  Cd  Cd25  1  0.770842  0.885422  0.750000  1
  Ni  Ni26  1  0.333333  0.666667  0.250000  1
  Ni  Ni27  1  0.666667  0.333333  0.750000  1
