# generated using pymatgen
data_YZr2(Co2Si)3
_symmetry_space_group_name_H-M   'P 1'
_cell_length_a   5.07597200
_cell_length_b   5.07597226
_cell_length_c   14.69970500
_cell_angle_alpha   90.00000000
_cell_angle_beta   90.00000000
_cell_angle_gamma   119.99999831
_symmetry_Int_Tables_number   1
_chemical_formula_structural   YZr2(Co2Si)3
_chemical_formula_sum   'Y2 Zr4 Co12 Si6'
_cell_volume   328.00292458
_cell_formula_units_Z   2
loop_
 _symmetry_equiv_pos_site_id
 _symmetry_equiv_pos_as_xyz
  1  'x, y, z'
loop_
 _atom_site_type_symbol
 _atom_site_label
 _atom_site_symmetry_multiplicity
 _atom_site_fract_x
 _atom_site_fract_y
 _atom_site_fract_z
 _atom_site_occupancy
  Y  Y0  1  0.333333  0.666667  0.250000  1
  Y  Y1  1  0.666667  0.333334  0.750000  1
  Zr  Zr2  1  0.333333  0.666667  0.038422  1
  Zr  Zr3  1  0.333333  0.666667  0.461578  1
  Zr  Zr4  1  0.666667  0.333334  0.538422  1
  Zr  Zr5  1  0.666667  0.333334  0.961578  1
  Co  Co6  1  0.336077  0.168038  0.126428  1
  Co  Co7  1  0.831962  0.168038  0.126428  1
  Co  Co8  1  0.831962  0.663922  0.126428  1
  Co  Co9  1  0.336077  0.168038  0.373572  1
  Co  Co10  1  0.831962  0.168038  0.373572  1
  Co  Co11  1  0.831962  0.663922  0.373572  1
  Co  Co12  1  0.168038  0.336077  0.626427  1
  Co  Co13  1  0.168038  0.831961  0.626427  1
  Co  Co14  1  0.663922  0.831961  0.626427  1
  Co  Co15  1  0.168038  0.336077  0.873572  1
  Co  Co16  1  0.168038  0.831961  0.873572  1
  Co  Co17  1  0.663922  0.831961  0.873572  1
  Si  Si18  1  0.000000  0.000000  0.000000  1
  Si  Si19  1  0.000000  0.000000  0.250000  1
  Si  Si20  1  0.666667  0.333334  0.250000  1
  Si  Si21  1  0.000000  0.000000  0.500000  1
  Si  Si22  1  0.000000  0.000000  0.750000  1
  Si  Si23  1  0.333333  0.666667  0.750000  1
