# generated using pymatgen
data_Ho16MgTl(Co2Ag)2
_symmetry_space_group_name_H-M   'P 1'
_cell_length_a   9.47848440
_cell_length_b   9.46418352
_cell_length_c   9.46418315
_cell_angle_alpha   59.74087229
_cell_angle_beta   59.79948580
_cell_angle_gamma   59.79948216
_symmetry_Int_Tables_number   1
_chemical_formula_structural   Ho16MgTl(Co2Ag)2
_chemical_formula_sum   'Ho16 Mg1 Tl1 Co4 Ag2'
_cell_volume   597.33051910
_cell_formula_units_Z   1
loop_
 _symmetry_equiv_pos_site_id
 _symmetry_equiv_pos_as_xyz
  1  'x, y, z'
loop_
 _atom_site_type_symbol
 _atom_site_label
 _atom_site_symmetry_multiplicity
 _atom_site_fract_x
 _atom_site_fract_y
 _atom_site_fract_z
 _atom_site_occupancy
  Ho  Ho0  1  0.342935  0.344194  0.344194  1
  Ho  Ho1  1  0.346884  0.346737  0.963797  1
  Ho  Ho2  1  0.346884  0.963797  0.346737  1
  Ho  Ho3  1  0.956454  0.349491  0.349491  1
  Ho  Ho4  1  0.808869  0.188837  0.188837  1
  Ho  Ho5  1  0.187328  0.810996  0.810996  1
  Ho  Ho6  1  0.184776  0.812710  0.186394  1
  Ho  Ho7  1  0.809005  0.188460  0.810668  1
  Ho  Ho8  1  0.184776  0.186394  0.812710  1
  Ho  Ho9  1  0.809005  0.810668  0.188460  1
  Ho  Ho10  1  0.937889  0.564372  0.564372  1
  Ho  Ho11  1  0.561353  0.939267  0.939267  1
  Ho  Ho12  1  0.562426  0.943661  0.563780  1
  Ho  Ho13  1  0.937774  0.561787  0.941356  1
  Ho  Ho14  1  0.562426  0.563780  0.943661  1
  Ho  Ho15  1  0.937774  0.941356  0.561787  1
  Mg  Mg16  1  0.283243  0.568046  0.568046  1
  Tl  Tl17  1  0.583386  0.581384  0.581384  1
  Co  Co18  1  0.137703  0.142755  0.142755  1
  Co  Co19  1  0.138518  0.140853  0.578888  1
  Co  Co20  1  0.138518  0.578888  0.140853  1
  Co  Co21  1  0.577371  0.141124  0.141124  1
  Ag  Ag22  1  0.582350  0.581748  0.248697  1
  Ag  Ag23  1  0.582350  0.248697  0.581748  1
