# generated using pymatgen
data_U6CuSb8Pt5
_symmetry_space_group_name_H-M   'P 1'
_cell_length_a   8.44666210
_cell_length_b   8.44235560
_cell_length_c   8.45247867
_cell_angle_alpha   109.17645275
_cell_angle_beta   109.15024763
_cell_angle_gamma   110.02014653
_symmetry_Int_Tables_number   1
_chemical_formula_structural   U6CuSb8Pt5
_chemical_formula_sum   'U6 Cu1 Sb8 Pt5'
_cell_volume   464.34865469
_cell_formula_units_Z   1
loop_
 _symmetry_equiv_pos_site_id
 _symmetry_equiv_pos_as_xyz
  1  'x, y, z'
loop_
 _atom_site_type_symbol
 _atom_site_label
 _atom_site_symmetry_multiplicity
 _atom_site_fract_x
 _atom_site_fract_y
 _atom_site_fract_z
 _atom_site_occupancy
  U  U0  1  0.875794  0.255908  0.131544  1
  U  U1  1  0.623749  0.745331  0.368341  1
  U  U2  1  0.255041  0.122537  0.878367  1
  U  U3  1  0.744345  0.374647  0.620658  1
  U  U4  1  0.125135  0.874890  0.248865  1
  U  U5  1  0.373756  0.626019  0.750513  1
  Cu  Cu6  1  0.875540  0.124938  0.750163  1
  Sb  Sb7  1  0.677972  0.500334  0.998601  1
  Sb  Sb8  1  0.511597  0.005826  0.679238  1
  Sb  Sb9  1  0.001821  0.679431  0.501095  1
  Sb  Sb10  1  0.826468  0.832278  0.820981  1
  Sb  Sb11  1  0.499499  0.998622  0.177860  1
  Sb  Sb12  1  0.168311  0.488547  0.994741  1
  Sb  Sb13  1  0.994685  0.173183  0.505838  1
  Sb  Sb14  1  0.320214  0.321785  0.322609  1
  Pt  Pt15  1  0.374595  0.249829  0.625300  1
  Pt  Pt16  1  0.123614  0.746850  0.874563  1
  Pt  Pt17  1  0.252368  0.627238  0.376091  1
  Pt  Pt18  1  0.750608  0.875950  0.124090  1
  Pt  Pt19  1  0.624887  0.375857  0.250540  1
