# generated using pymatgen
data_Cs2KCeBr6
_symmetry_space_group_name_H-M   'P 1'
_cell_length_a   8.57010151
_cell_length_b   8.57010154
_cell_length_c   8.57010100
_cell_angle_alpha   121.23778422
_cell_angle_beta   121.23778439
_cell_angle_gamma   87.86913805
_symmetry_Int_Tables_number   1
_chemical_formula_structural   Cs2KCeBr6
_chemical_formula_sum   'Cs2 K1 Ce1 Br6'
_cell_volume   436.42998495
_cell_formula_units_Z   1
loop_
 _symmetry_equiv_pos_site_id
 _symmetry_equiv_pos_as_xyz
  1  'x, y, z'
loop_
 _atom_site_type_symbol
 _atom_site_label
 _atom_site_symmetry_multiplicity
 _atom_site_fract_x
 _atom_site_fract_y
 _atom_site_fract_z
 _atom_site_occupancy
  Cs  Cs0  1  0.749999  0.250000  0.500000  1
  Cs  Cs1  1  0.250000  0.749999  0.500000  1
  K  K2  1  0.500000  0.500000  0.000000  1
  Ce  Ce3  1  0.000000  0.000000  0.000000  1
  Br  Br4  1  0.237382  0.237382  0.000000  1
  Br  Br5  1  0.762618  0.762618  0.000000  1
  Br  Br6  1  0.301887  0.830430  0.132317  1
  Br  Br7  1  0.169569  0.301886  0.471455  1
  Br  Br8  1  0.830430  0.698114  0.528544  1
  Br  Br9  1  0.698113  0.169569  0.867682  1
