# generated using pymatgen
data_Pr4Ga5Cl2
_symmetry_space_group_name_H-M   'P 1'
_cell_length_a   11.43255042
_cell_length_b   11.43254977
_cell_length_c   4.22609400
_cell_angle_alpha   90.00000000
_cell_angle_beta   90.00000000
_cell_angle_gamma   93.85517353
_symmetry_Int_Tables_number   1
_chemical_formula_structural   Pr4Ga5Cl2
_chemical_formula_sum   'Pr8 Ga10 Cl4'
_cell_volume   551.11411993
_cell_formula_units_Z   2
loop_
 _symmetry_equiv_pos_site_id
 _symmetry_equiv_pos_as_xyz
  1  'x, y, z'
loop_
 _atom_site_type_symbol
 _atom_site_label
 _atom_site_symmetry_multiplicity
 _atom_site_fract_x
 _atom_site_fract_y
 _atom_site_fract_z
 _atom_site_occupancy
  Pr  Pr0  1  0.680130  0.041048  0.500000  1
  Pr  Pr1  1  0.319870  0.958952  0.500000  1
  Pr  Pr2  1  0.041048  0.680130  0.500000  1
  Pr  Pr3  1  0.958952  0.319870  0.500000  1
  Pr  Pr4  1  0.733642  0.733642  0.000000  1
  Pr  Pr5  1  0.266358  0.266358  0.000000  1
  Pr  Pr6  1  0.366644  0.633356  0.000000  1
  Pr  Pr7  1  0.633356  0.366644  0.000000  1
  Ga  Ga8  1  0.579784  0.579784  0.500000  1
  Ga  Ga9  1  0.420216  0.420216  0.500000  1
  Ga  Ga10  1  0.536502  0.899969  0.000000  1
  Ga  Ga11  1  0.463498  0.100031  0.000000  1
  Ga  Ga12  1  0.899969  0.536502  0.000000  1
  Ga  Ga13  1  0.100031  0.463498  0.000000  1
  Ga  Ga14  1  0.512906  0.782928  0.500000  1
  Ga  Ga15  1  0.487094  0.217072  0.500000  1
  Ga  Ga16  1  0.217072  0.487094  0.500000  1
  Ga  Ga17  1  0.782928  0.512906  0.500000  1
  Cl  Cl18  1  0.127996  0.127996  0.500000  1
  Cl  Cl19  1  0.872004  0.872004  0.500000  1
  Cl  Cl20  1  0.822858  0.177142  0.000000  1
  Cl  Cl21  1  0.177142  0.822858  0.000000  1
