# generated using pymatgen
data_Lu20HgBi11
_symmetry_space_group_name_H-M   'P 1'
_cell_length_a   8.09848004
_cell_length_b   9.39010100
_cell_length_c   11.78420452
_cell_angle_alpha   90.00000000
_cell_angle_beta   89.70354358
_cell_angle_gamma   90.00000000
_symmetry_Int_Tables_number   1
_chemical_formula_structural   Lu20HgBi11
_chemical_formula_sum   'Lu20 Hg1 Bi11'
_cell_volume   896.12426609
_cell_formula_units_Z   1
loop_
 _symmetry_equiv_pos_site_id
 _symmetry_equiv_pos_as_xyz
  1  'x, y, z'
loop_
 _atom_site_type_symbol
 _atom_site_label
 _atom_site_symmetry_multiplicity
 _atom_site_fract_x
 _atom_site_fract_y
 _atom_site_fract_z
 _atom_site_occupancy
  Lu  Lu0  1  0.034699  0.250000  0.508173  1
  Lu  Lu1  1  0.979202  0.750000  0.489862  1
  Lu  Lu2  1  0.475735  0.750000  0.009899  1
  Lu  Lu3  1  0.524913  0.250000  0.990374  1
  Lu  Lu4  1  0.355233  0.250000  0.289856  1
  Lu  Lu5  1  0.646877  0.750000  0.718212  1
  Lu  Lu6  1  0.148778  0.750000  0.782135  1
  Lu  Lu7  1  0.854318  0.250000  0.216522  1
  Lu  Lu8  1  0.193044  0.250000  0.779726  1
  Lu  Lu9  1  0.808145  0.750000  0.216097  1
  Lu  Lu10  1  0.311771  0.750000  0.282132  1
  Lu  Lu11  1  0.680640  0.250000  0.712421  1
  Lu  Lu12  1  0.193615  0.067318  0.060480  1
  Lu  Lu13  1  0.806227  0.932697  0.940827  1
  Lu  Lu14  1  0.307322  0.945114  0.559472  1
  Lu  Lu15  1  0.806227  0.567303  0.940827  1
  Lu  Lu16  1  0.687584  0.071632  0.444002  1
  Lu  Lu17  1  0.193615  0.432682  0.060480  1
  Lu  Lu18  1  0.687584  0.428368  0.444002  1
  Lu  Lu19  1  0.307322  0.554886  0.559472  1
  Hg  Hg20  1  0.405758  0.250000  0.541030  1
  Bi  Bi21  1  0.595676  0.750000  0.457329  1
  Bi  Bi22  1  0.096238  0.750000  0.043309  1
  Bi  Bi23  1  0.904356  0.250000  0.953898  1
  Bi  Bi24  1  0.061827  0.001707  0.322889  1
  Bi  Bi25  1  0.935909  0.997448  0.676046  1
  Bi  Bi26  1  0.436001  0.996957  0.825574  1
  Bi  Bi27  1  0.935909  0.502552  0.676046  1
  Bi  Bi28  1  0.563823  0.003705  0.175222  1
  Bi  Bi29  1  0.061827  0.498293  0.322889  1
  Bi  Bi30  1  0.563823  0.496295  0.175222  1
  Bi  Bi31  1  0.436001  0.503043  0.825574  1
