# generated using pymatgen
data_Nd2Dy4Zn4Pt13
_symmetry_space_group_name_H-M   'P 1'
_cell_length_a   8.31639346
_cell_length_b   8.31639406
_cell_length_c   8.31383602
_cell_angle_alpha   109.49335868
_cell_angle_beta   109.49335752
_cell_angle_gamma   109.43942920
_symmetry_Int_Tables_number   1
_chemical_formula_structural   Nd2Dy4Zn4Pt13
_chemical_formula_sum   'Nd2 Dy4 Zn4 Pt13'
_cell_volume   442.57066961
_cell_formula_units_Z   1
loop_
 _symmetry_equiv_pos_site_id
 _symmetry_equiv_pos_as_xyz
  1  'x, y, z'
loop_
 _atom_site_type_symbol
 _atom_site_label
 _atom_site_symmetry_multiplicity
 _atom_site_fract_x
 _atom_site_fract_y
 _atom_site_fract_z
 _atom_site_occupancy
  Nd  Nd0  1  0.702965  0.000014  0.702980  1
  Nd  Nd1  1  0.000014  0.702965  0.702980  1
  Dy  Dy2  1  0.698536  0.698536  0.000566  1
  Dy  Dy3  1  0.305058  0.999778  0.304836  1
  Dy  Dy4  1  0.999778  0.305058  0.304836  1
  Dy  Dy5  1  0.302031  0.302031  0.000566  1
  Zn  Zn6  1  0.999312  0.999312  0.495417  1
  Zn  Zn7  1  0.999345  0.499345  0.998689  1
  Zn  Zn8  1  0.499345  0.999345  0.998689  1
  Zn  Zn9  1  0.496105  0.496105  0.495417  1
  Pt  Pt10  1  0.332221  0.332221  0.664441  1
  Pt  Pt11  1  0.670516  0.000343  0.327415  1
  Pt  Pt12  1  0.000343  0.670516  0.327415  1
  Pt  Pt13  1  0.665949  0.335256  0.001205  1
  Pt  Pt14  1  0.327071  0.656898  0.327415  1
  Pt  Pt15  1  0.000908  0.330384  0.668469  1
  Pt  Pt16  1  0.335256  0.665949  0.001205  1
  Pt  Pt17  1  0.330384  0.000908  0.668469  1
  Pt  Pt18  1  0.656898  0.327071  0.327415  1
  Pt  Pt19  1  0.663801  0.663801  0.327603  1
  Pt  Pt20  1  0.667560  0.338086  0.668469  1
  Pt  Pt21  1  0.338086  0.667560  0.668469  1
  Pt  Pt22  1  0.008519  0.008519  0.017039  1
