# generated using pymatgen
data_TbNp3Ga12Fe
_symmetry_space_group_name_H-M   'P 1'
_cell_length_a   7.44326362
_cell_length_b   7.47248640
_cell_length_c   7.44326485
_cell_angle_alpha   109.55077450
_cell_angle_beta   109.39155312
_cell_angle_gamma   109.55077661
_symmetry_Int_Tables_number   1
_chemical_formula_structural   TbNp3Ga12Fe
_chemical_formula_sum   'Tb1 Np3 Ga12 Fe1'
_cell_volume   318.37778220
_cell_formula_units_Z   1
loop_
 _symmetry_equiv_pos_site_id
 _symmetry_equiv_pos_as_xyz
  1  'x, y, z'
loop_
 _atom_site_type_symbol
 _atom_site_label
 _atom_site_symmetry_multiplicity
 _atom_site_fract_x
 _atom_site_fract_y
 _atom_site_fract_z
 _atom_site_occupancy
  Tb  Tb0  1  0.000000  0.500000  0.000000  1
  Np  Np1  1  0.500000  0.000000  0.000000  1
  Np  Np2  1  0.000000  0.000000  0.500000  1
  Np  Np3  1  0.500000  0.500000  0.500000  1
  Ga  Ga4  1  0.284408  0.003257  0.284408  1
  Ga  Ga5  1  0.498149  0.249074  0.749074  1
  Ga  Ga6  1  0.000000  0.718850  0.715592  1
  Ga  Ga7  1  0.715592  0.996743  0.715592  1
  Ga  Ga8  1  0.749074  0.500000  0.250926  1
  Ga  Ga9  1  0.250926  0.750926  0.501851  1
  Ga  Ga10  1  0.749074  0.249074  0.498149  1
  Ga  Ga11  1  0.715592  0.718850  0.000000  1
  Ga  Ga12  1  0.250926  0.500000  0.749074  1
  Ga  Ga13  1  0.501851  0.750926  0.250926  1
  Ga  Ga14  1  0.284408  0.281150  0.000000  1
  Ga  Ga15  1  0.000000  0.281150  0.284408  1
  Fe  Fe16  1  0.000000  0.000000  0.000000  1
