# generated using pymatgen
data_TbPr9Si5Pb
_symmetry_space_group_name_H-M   'P 1'
_cell_length_a   7.80567231
_cell_length_b   7.80567173
_cell_length_c   9.25536764
_cell_angle_alpha   114.94093382
_cell_angle_beta   114.94092602
_cell_angle_gamma   89.99999988
_symmetry_Int_Tables_number   1
_chemical_formula_structural   TbPr9Si5Pb
_chemical_formula_sum   'Tb1 Pr9 Si5 Pb1'
_cell_volume   452.66874143
_cell_formula_units_Z   1
loop_
 _symmetry_equiv_pos_site_id
 _symmetry_equiv_pos_as_xyz
  1  'x, y, z'
loop_
 _atom_site_type_symbol
 _atom_site_label
 _atom_site_symmetry_multiplicity
 _atom_site_fract_x
 _atom_site_fract_y
 _atom_site_fract_z
 _atom_site_occupancy
  Tb  Tb0  1  0.516428  0.516428  0.032857  1
  Pr  Pr1  1  0.976082  0.976082  0.952163  1
  Pr  Pr2  1  0.975799  0.829363  0.279777  1
  Pr  Pr3  1  0.303978  0.450413  0.279777  1
  Pr  Pr4  1  0.829363  0.303978  0.279777  1
  Pr  Pr5  1  0.450413  0.975799  0.279777  1
  Pr  Pr6  1  0.049402  0.196422  0.721536  1
  Pr  Pr7  1  0.672135  0.525114  0.721536  1
  Pr  Pr8  1  0.196422  0.672135  0.721536  1
  Pr  Pr9  1  0.525114  0.049402  0.721536  1
  Si  Si10  1  0.253277  0.253277  0.506554  1
  Si  Si11  1  0.615726  0.882115  0.002982  1
  Si  Si12  1  0.387256  0.120867  0.002982  1
  Si  Si13  1  0.882115  0.387256  0.002982  1
  Si  Si14  1  0.120867  0.615726  0.002982  1
  Pb  Pb15  1  0.745624  0.745624  0.491248  1
