# generated using pymatgen
data_Eu2GaPdRh
_symmetry_space_group_name_H-M   'P 1'
_cell_length_a   5.82929772
_cell_length_b   5.82929858
_cell_length_c   7.90698323
_cell_angle_alpha   78.10850002
_cell_angle_beta   78.10850182
_cell_angle_gamma   59.39321026
_symmetry_Int_Tables_number   1
_chemical_formula_structural   Eu2GaPdRh
_chemical_formula_sum   'Eu4 Ga2 Pd2 Rh2'
_cell_volume   224.65165976
_cell_formula_units_Z   2
loop_
 _symmetry_equiv_pos_site_id
 _symmetry_equiv_pos_as_xyz
  1  'x, y, z'
loop_
 _atom_site_type_symbol
 _atom_site_label
 _atom_site_symmetry_multiplicity
 _atom_site_fract_x
 _atom_site_fract_y
 _atom_site_fract_z
 _atom_site_occupancy
  Eu  Eu0  1  0.787776  0.513537  0.352605  1
  Eu  Eu1  1  0.486463  0.212224  0.147395  1
  Eu  Eu2  1  0.217177  0.492806  0.648662  1
  Eu  Eu3  1  0.507194  0.782823  0.851338  1
  Ga  Ga4  1  0.128479  0.871521  0.250000  1
  Ga  Ga5  1  0.885452  0.114548  0.750000  1
  Pd  Pd6  1  0.995649  0.270702  0.996425  1
  Pd  Pd7  1  0.729298  0.004351  0.503575  1
  Rh  Rh8  1  0.003841  0.741332  0.008249  1
  Rh  Rh9  1  0.258668  0.996159  0.491751  1
