# generated using pymatgen
data_Hf18BeFe(ReMo)4
_symmetry_space_group_name_H-M   'P 1'
_cell_length_a   8.48867000
_cell_length_b   8.62129439
_cell_length_c   8.61096419
_cell_angle_alpha   120.03932534
_cell_angle_beta   90.00000000
_cell_angle_gamma   90.00000000
_symmetry_Int_Tables_number   1
_chemical_formula_structural   Hf18BeFe(ReMo)4
_chemical_formula_sum   'Hf18 Be1 Fe1 Re4 Mo4'
_cell_volume   545.53460856
_cell_formula_units_Z   1
loop_
 _symmetry_equiv_pos_site_id
 _symmetry_equiv_pos_as_xyz
  1  'x, y, z'
loop_
 _atom_site_type_symbol
 _atom_site_label
 _atom_site_symmetry_multiplicity
 _atom_site_fract_x
 _atom_site_fract_y
 _atom_site_fract_z
 _atom_site_occupancy
  Hf  Hf0  1  0.555983  0.802034  0.604072  1
  Hf  Hf1  1  0.554347  0.801362  0.197667  1
  Hf  Hf2  1  0.554339  0.396285  0.197657  1
  Hf  Hf3  1  0.440850  0.201844  0.403692  1
  Hf  Hf4  1  0.442885  0.202425  0.797812  1
  Hf  Hf5  1  0.442898  0.595402  0.797814  1
  Hf  Hf6  1  0.059150  0.201844  0.403692  1
  Hf  Hf7  1  0.057115  0.202425  0.797812  1
  Hf  Hf8  1  0.057102  0.595402  0.797814  1
  Hf  Hf9  1  0.944017  0.802034  0.604072  1
  Hf  Hf10  1  0.945653  0.801362  0.197667  1
  Hf  Hf11  1  0.945661  0.396285  0.197657  1
  Hf  Hf12  1  0.750000  0.459989  0.919997  1
  Hf  Hf13  1  0.750000  0.461551  0.540592  1
  Hf  Hf14  1  0.750000  0.079045  0.540602  1
  Hf  Hf15  1  0.250000  0.540365  0.080715  1
  Hf  Hf16  1  0.250000  0.539759  0.458726  1
  Hf  Hf17  1  0.250000  0.918973  0.458724  1
  Be  Be18  1  0.750000  0.666364  0.332772  1
  Fe  Fe19  1  0.250000  0.334243  0.668422  1
  Re  Re20  1  0.750000  0.111573  0.887532  1
  Re  Re21  1  0.750000  0.775944  0.887529  1
  Re  Re22  1  0.250000  0.888055  0.113361  1
  Re  Re23  1  0.250000  0.225313  0.113352  1
  Mo  Mo24  1  0.750000  0.110308  0.220637  1
  Mo  Mo25  1  0.250000  0.889807  0.779601  1
  Mo  Mo26  1  0.499386  0.000003  0.000004  1
  Mo  Mo27  1  0.000614  0.000003  0.000004  1
