# generated using pymatgen
data_TbDy2Ho3MnBi2
_symmetry_space_group_name_H-M   'P 1'
_cell_length_a   8.30489302
_cell_length_b   8.30663233
_cell_length_c   4.28019200
_cell_angle_alpha   90.00000000
_cell_angle_beta   90.00000000
_cell_angle_gamma   120.00691708
_symmetry_Int_Tables_number   1
_chemical_formula_structural   TbDy2Ho3MnBi2
_chemical_formula_sum   'Tb1 Dy2 Ho3 Mn1 Bi2'
_cell_volume   255.69523707
_cell_formula_units_Z   1
loop_
 _symmetry_equiv_pos_site_id
 _symmetry_equiv_pos_as_xyz
  1  'x, y, z'
loop_
 _atom_site_type_symbol
 _atom_site_label
 _atom_site_symmetry_multiplicity
 _atom_site_fract_x
 _atom_site_fract_y
 _atom_site_fract_z
 _atom_site_occupancy
  Tb  Tb0  1  0.000000  0.607119  0.500000  1
  Dy  Dy1  1  0.392274  0.392203  0.500000  1
  Dy  Dy2  1  0.607726  0.999928  0.500000  1
  Ho  Ho3  1  0.232794  0.000316  0.000000  1
  Ho  Ho4  1  0.767206  0.767521  0.000000  1
  Ho  Ho5  1  0.000000  0.232610  0.000000  1
  Mn  Mn6  1  0.000000  0.000629  0.500000  1
  Bi  Bi7  1  0.333785  0.666730  0.000000  1
  Bi  Bi8  1  0.666215  0.332944  0.000000  1
