# generated using pymatgen
data_Zr6TiAl14VSiRh7
_symmetry_space_group_name_H-M   'P 1'
_cell_length_a   8.81808819
_cell_length_b   8.81808706
_cell_length_c   8.81808800
_cell_angle_alpha   120.26348144
_cell_angle_beta   119.71974790
_cell_angle_gamma   90.01516844
_symmetry_Int_Tables_number   1
_chemical_formula_structural   Zr6TiAl14VSiRh7
_chemical_formula_sum   'Zr6 Ti1 Al14 V1 Si1 Rh7'
_cell_volume   484.89874455
_cell_formula_units_Z   1
loop_
 _symmetry_equiv_pos_site_id
 _symmetry_equiv_pos_as_xyz
  1  'x, y, z'
loop_
 _atom_site_type_symbol
 _atom_site_label
 _atom_site_symmetry_multiplicity
 _atom_site_fract_x
 _atom_site_fract_y
 _atom_site_fract_z
 _atom_site_occupancy
  Zr  Zr0  1  0.793181  0.292633  0.082444  1
  Zr  Zr1  1  0.210189  0.292633  0.499452  1
  Zr  Zr2  1  0.205952  0.708900  0.502949  1
  Zr  Zr3  1  0.207465  0.711291  0.911631  1
  Zr  Zr4  1  0.799660  0.711291  0.503826  1
  Zr  Zr5  1  0.791378  0.291063  0.499684  1
  Ti  Ti6  1  0.380565  0.637745  0.257180  1
  Al  Al7  1  0.162479  0.337544  0.175064  1
  Al  Al8  1  0.166333  0.994946  0.828613  1
  Al  Al9  1  0.161474  0.335959  0.822630  1
  Al  Al10  1  0.513326  0.335959  0.174485  1
  Al  Al11  1  0.835765  0.662400  0.826636  1
  Al  Al12  1  0.836049  0.009070  0.173023  1
  Al  Al13  1  0.835523  0.663227  0.171783  1
  Al  Al14  1  0.491444  0.663227  0.827703  1
  Al  Al15  1  0.380454  0.120293  0.259982  1
  Al  Al16  1  0.860312  0.120293  0.739838  1
  Al  Al17  1  0.618908  0.877905  0.258998  1
  Al  Al18  1  0.618676  0.359883  0.741206  1
  Al  Al19  1  0.618332  0.878971  0.740494  1
  Al  Al20  1  0.138476  0.878971  0.260640  1
  V  V21  1  0.379377  0.125103  0.745725  1
  Si  Si22  1  0.998503  0.495564  0.497061  1
  Rh  Rh23  1  0.002444  0.000039  0.500727  1
  Rh  Rh24  1  0.499312  0.000039  0.997596  1
  Rh  Rh25  1  0.497746  0.496946  0.999200  1
  Rh  Rh26  1  0.498268  0.499766  0.497380  1
  Rh  Rh27  1  0.002385  0.499766  0.001497  1
  Rh  Rh28  1  0.001326  0.001142  0.999817  1
  Rh  Rh29  1  0.494695  0.997431  0.502736  1
