# generated using pymatgen
data_La5MgAlIr3
_symmetry_space_group_name_H-M   'P 1'
_cell_length_a   8.77893537
_cell_length_b   8.77893473
_cell_length_c   8.74431103
_cell_angle_alpha   109.51532400
_cell_angle_beta   109.48538204
_cell_angle_gamma   109.57301659
_symmetry_Int_Tables_number   1
_chemical_formula_structural   La5MgAlIr3
_chemical_formula_sum   'La10 Mg2 Al2 Ir6'
_cell_volume   517.75740232
_cell_formula_units_Z   2
loop_
 _symmetry_equiv_pos_site_id
 _symmetry_equiv_pos_as_xyz
  1  'x, y, z'
loop_
 _atom_site_type_symbol
 _atom_site_label
 _atom_site_symmetry_multiplicity
 _atom_site_fract_x
 _atom_site_fract_y
 _atom_site_fract_z
 _atom_site_occupancy
  La  La0  1  0.241258  0.675794  0.427205  1
  La  La1  1  0.748590  0.814054  0.072796  1
  La  La2  1  0.429899  0.251176  0.682497  1
  La  La3  1  0.687998  0.437999  0.250000  1
  La  La4  1  0.068679  0.747401  0.817503  1
  La  La5  1  0.824876  0.074876  0.750000  1
  La  La6  1  0.208980  0.206147  0.207185  1
  La  La7  1  0.498963  0.001795  0.292815  1
  La  La8  1  0.287034  0.501092  0.002333  1
  La  La9  1  0.998758  0.284701  0.497668  1
  Mg  Mg10  1  0.501254  0.000646  0.903421  1
  Mg  Mg11  1  0.597225  0.597832  0.596579  1
  Al  Al12  1  0.900685  0.499963  0.999541  1
  Al  Al13  1  0.000421  0.901144  0.500460  1
  Ir  Ir14  1  0.239431  0.125393  0.865564  1
  Ir  Ir15  1  0.759829  0.373866  0.634435  1
  Ir  Ir16  1  0.888975  0.263377  0.126632  1
  Ir  Ir17  1  0.115104  0.865104  0.250001  1
  Ir  Ir18  1  0.636744  0.762343  0.373367  1
  Ir  Ir19  1  0.365301  0.615301  0.750000  1
