# generated using pymatgen
data_Rb2UTaSe6
_symmetry_space_group_name_H-M   'P 1'
_cell_length_a   7.73043100
_cell_length_b   7.73043121
_cell_length_c   6.50781600
_cell_angle_alpha   90.00000000
_cell_angle_beta   90.00000000
_cell_angle_gamma   120.00001196
_symmetry_Int_Tables_number   1
_chemical_formula_structural   Rb2UTaSe6
_chemical_formula_sum   'Rb2 U1 Ta1 Se6'
_cell_volume   336.80092260
_cell_formula_units_Z   1
loop_
 _symmetry_equiv_pos_site_id
 _symmetry_equiv_pos_as_xyz
  1  'x, y, z'
loop_
 _atom_site_type_symbol
 _atom_site_label
 _atom_site_symmetry_multiplicity
 _atom_site_fract_x
 _atom_site_fract_y
 _atom_site_fract_z
 _atom_site_occupancy
  Rb  Rb0  1  0.666667  0.333333  0.245624  1
  Rb  Rb1  1  0.333333  0.666667  0.755090  1
  U  U2  1  0.000000  0.000000  0.508603  1
  Ta  Ta3  1  0.000000  0.000000  0.010001  1
  Se  Se4  1  0.316545  0.158273  0.772279  1
  Se  Se5  1  0.841727  0.683455  0.772279  1
  Se  Se6  1  0.841727  0.158273  0.772279  1
  Se  Se7  1  0.682776  0.841389  0.243748  1
  Se  Se8  1  0.158611  0.317224  0.243748  1
  Se  Se9  1  0.158611  0.841389  0.243748  1
