# generated using pymatgen
data_TbGd4Ho3(ReB6)4
_symmetry_space_group_name_H-M   'P 1'
_cell_length_a   3.69485700
_cell_length_b   9.19468703
_cell_length_c   11.59642404
_cell_angle_alpha   90.00937658
_cell_angle_beta   90.00000000
_cell_angle_gamma   90.00000000
_symmetry_Int_Tables_number   1
_chemical_formula_structural   TbGd4Ho3(ReB6)4
_chemical_formula_sum   'Tb1 Gd4 Ho3 Re4 B24'
_cell_volume   393.96593177
_cell_formula_units_Z   1
loop_
 _symmetry_equiv_pos_site_id
 _symmetry_equiv_pos_as_xyz
  1  'x, y, z'
loop_
 _atom_site_type_symbol
 _atom_site_label
 _atom_site_symmetry_multiplicity
 _atom_site_fract_x
 _atom_site_fract_y
 _atom_site_fract_z
 _atom_site_occupancy
  Tb  Tb0  1  0.000000  0.942677  0.369997  1
  Gd  Gd1  1  0.000000  0.322941  0.414160  1
  Gd  Gd2  1  0.000000  0.676825  0.586061  1
  Gd  Gd3  1  0.000000  0.822923  0.085805  1
  Gd  Gd4  1  0.000000  0.176899  0.913817  1
  Ho  Ho5  1  0.000000  0.057502  0.630869  1
  Ho  Ho6  1  0.000000  0.442570  0.129992  1
  Ho  Ho7  1  0.000000  0.557625  0.869742  1
  Re  Re8  1  0.000000  0.638197  0.320012  1
  Re  Re9  1  0.000000  0.361400  0.680021  1
  Re  Re10  1  0.000000  0.138980  0.179280  1
  Re  Re11  1  0.000000  0.861271  0.820336  1
  B  B12  1  0.500000  0.553092  0.432164  1
  B  B13  1  0.500000  0.446252  0.567939  1
  B  B14  1  0.500000  0.053595  0.067414  1
  B  B15  1  0.500000  0.946428  0.932281  1
  B  B16  1  0.500000  0.747949  0.417596  1
  B  B17  1  0.500000  0.251015  0.582563  1
  B  B18  1  0.500000  0.249071  0.082094  1
  B  B19  1  0.500000  0.751121  0.917649  1
  B  B20  1  0.500000  0.790678  0.265184  1
  B  B21  1  0.500000  0.208738  0.734753  1
  B  B22  1  0.500000  0.291726  0.234333  1
  B  B23  1  0.500000  0.708576  0.765479  1
  B  B24  1  0.500000  0.629731  0.185452  1
  B  B25  1  0.500000  0.370252  0.814362  1
  B  B26  1  0.500000  0.130713  0.313819  1
  B  B27  1  0.500000  0.869974  0.685916  1
  B  B28  1  0.500000  0.982884  0.211581  1
  B  B29  1  0.500000  0.017480  0.788042  1
  B  B30  1  0.500000  0.482249  0.287625  1
  B  B31  1  0.500000  0.517624  0.712249  1
  B  B32  1  0.500000  0.598279  0.027410  1
  B  B33  1  0.500000  0.401986  0.972346  1
  B  B34  1  0.500000  0.099330  0.473218  1
  B  B35  1  0.500000  0.901448  0.528439  1
