# generated using pymatgen
data_Dy8NiHg2Ru
_symmetry_space_group_name_H-M   'P 1'
_cell_length_a   9.53626087
_cell_length_b   9.53626132
_cell_length_c   9.57837800
_cell_angle_alpha   59.85379625
_cell_angle_beta   59.85379470
_cell_angle_gamma   59.83668199
_symmetry_Int_Tables_number   1
_chemical_formula_structural   Dy8NiHg2Ru
_chemical_formula_sum   'Dy16 Ni2 Hg4 Ru2'
_cell_volume   613.80924652
_cell_formula_units_Z   2
loop_
 _symmetry_equiv_pos_site_id
 _symmetry_equiv_pos_as_xyz
  1  'x, y, z'
loop_
 _atom_site_type_symbol
 _atom_site_label
 _atom_site_symmetry_multiplicity
 _atom_site_fract_x
 _atom_site_fract_y
 _atom_site_fract_z
 _atom_site_occupancy
  Dy  Dy0  1  0.600633  0.600633  0.595494  1
  Dy  Dy1  1  0.600633  0.600633  0.203240  1
  Dy  Dy2  1  0.603370  0.200405  0.598113  1
  Dy  Dy3  1  0.200405  0.603370  0.598113  1
  Dy  Dy4  1  0.060242  0.437276  0.440496  1
  Dy  Dy5  1  0.437276  0.060242  0.061984  1
  Dy  Dy6  1  0.437276  0.060242  0.440496  1
  Dy  Dy7  1  0.060242  0.437276  0.061984  1
  Dy  Dy8  1  0.438662  0.438662  0.061338  1
  Dy  Dy9  1  0.059604  0.059604  0.440396  1
  Dy  Dy10  1  0.188260  0.808648  0.815773  1
  Dy  Dy11  1  0.808648  0.188260  0.187320  1
  Dy  Dy12  1  0.808648  0.188260  0.815773  1
  Dy  Dy13  1  0.188260  0.808648  0.187320  1
  Dy  Dy14  1  0.814543  0.814543  0.185457  1
  Dy  Dy15  1  0.189893  0.189893  0.810107  1
  Ni  Ni16  1  0.393573  0.825220  0.390603  1
  Ni  Ni17  1  0.825220  0.393573  0.390603  1
  Hg  Hg18  1  0.833578  0.833578  0.835933  1
  Hg  Hg19  1  0.833578  0.833578  0.496910  1
  Hg  Hg20  1  0.834387  0.495396  0.835108  1
  Hg  Hg21  1  0.495396  0.834387  0.835108  1
  Ru  Ru22  1  0.393835  0.393835  0.388867  1
  Ru  Ru23  1  0.393835  0.393835  0.823462  1
