# generated using pymatgen
data_Dy5Sc5Si20(IrPt)4
_symmetry_space_group_name_H-M   'P 1'
_cell_length_a   12.53027904
_cell_length_b   12.47253904
_cell_length_c   4.20216800
_cell_angle_alpha   90.00000000
_cell_angle_beta   90.00000000
_cell_angle_gamma   89.99118202
_symmetry_Int_Tables_number   1
_chemical_formula_structural   Dy5Sc5Si20(IrPt)4
_chemical_formula_sum   'Dy5 Sc5 Si20 Ir4 Pt4'
_cell_volume   656.73327341
_cell_formula_units_Z   1
loop_
 _symmetry_equiv_pos_site_id
 _symmetry_equiv_pos_as_xyz
  1  'x, y, z'
loop_
 _atom_site_type_symbol
 _atom_site_label
 _atom_site_symmetry_multiplicity
 _atom_site_fract_x
 _atom_site_fract_y
 _atom_site_fract_z
 _atom_site_occupancy
  Dy  Dy0  1  0.000000  0.000000  0.000000  1
  Dy  Dy1  1  0.885075  0.385085  0.500000  1
  Dy  Dy2  1  0.114925  0.614915  0.500000  1
  Dy  Dy3  1  0.386141  0.116179  0.500000  1
  Dy  Dy4  1  0.613859  0.883821  0.500000  1
  Sc  Sc5  1  0.500000  0.500000  0.000000  1
  Sc  Sc6  1  0.672458  0.175652  0.500000  1
  Sc  Sc7  1  0.327542  0.824348  0.500000  1
  Sc  Sc8  1  0.174196  0.326224  0.500000  1
  Sc  Sc9  1  0.825804  0.673776  0.500000  1
  Si  Si10  1  0.563724  0.068859  0.000000  1
  Si  Si11  1  0.436276  0.931141  0.000000  1
  Si  Si12  1  0.065570  0.433037  0.000000  1
  Si  Si13  1  0.934430  0.566963  0.000000  1
  Si  Si14  1  0.664968  0.701767  0.000000  1
  Si  Si15  1  0.335032  0.298233  0.000000  1
  Si  Si16  1  0.165194  0.797630  0.000000  1
  Si  Si17  1  0.834806  0.202370  0.000000  1
  Si  Si18  1  0.301066  0.667938  0.000000  1
  Si  Si19  1  0.698934  0.332062  0.000000  1
  Si  Si20  1  0.199209  0.168407  0.000000  1
  Si  Si21  1  0.800791  0.831593  0.000000  1
  Si  Si22  1  0.649075  0.506780  0.500000  1
  Si  Si23  1  0.350925  0.493220  0.500000  1
  Si  Si24  1  0.155427  0.993849  0.500000  1
  Si  Si25  1  0.844573  0.006151  0.500000  1
  Si  Si26  1  0.493179  0.651209  0.500000  1
  Si  Si27  1  0.506821  0.348791  0.500000  1
  Si  Si28  1  0.006270  0.157664  0.500000  1
  Si  Si29  1  0.993730  0.842336  0.500000  1
  Ir  Ir30  1  0.479457  0.741711  0.000000  1
  Ir  Ir31  1  0.520543  0.258289  0.000000  1
  Ir  Ir32  1  0.020845  0.245387  0.000000  1
  Ir  Ir33  1  0.979155  0.754613  0.000000  1
  Pt  Pt34  1  0.743096  0.520307  0.000000  1
  Pt  Pt35  1  0.256904  0.479693  0.000000  1
  Pt  Pt36  1  0.246924  0.979371  0.000000  1
  Pt  Pt37  1  0.753076  0.020629  0.000000  1
