# generated using pymatgen
data_K16ErPaSb8
_symmetry_space_group_name_H-M   'P 1'
_cell_length_a   11.78049084
_cell_length_b   11.78048998
_cell_length_c   11.78049000
_cell_angle_alpha   59.99999431
_cell_angle_beta   59.99999674
_cell_angle_gamma   59.99999378
_symmetry_Int_Tables_number   1
_chemical_formula_structural   K16ErPaSb8
_chemical_formula_sum   'K16 Er1 Pa1 Sb8'
_cell_volume   1156.04581873
_cell_formula_units_Z   1
loop_
 _symmetry_equiv_pos_site_id
 _symmetry_equiv_pos_as_xyz
  1  'x, y, z'
loop_
 _atom_site_type_symbol
 _atom_site_label
 _atom_site_symmetry_multiplicity
 _atom_site_fract_x
 _atom_site_fract_y
 _atom_site_fract_z
 _atom_site_occupancy
  K  K0  1  0.622263  0.133211  0.622263  1
  K  K1  1  0.622263  0.622263  0.133211  1
  K  K2  1  0.133211  0.622263  0.622263  1
  K  K3  1  0.622263  0.622263  0.622263  1
  K  K4  1  0.033763  0.033763  0.466237  1
  K  K5  1  0.773601  0.226399  0.226399  1
  K  K6  1  0.226399  0.773601  0.773601  1
  K  K7  1  0.773601  0.773601  0.226399  1
  K  K8  1  0.773601  0.226399  0.773601  1
  K  K9  1  0.226399  0.773601  0.226399  1
  K  K10  1  0.466237  0.033763  0.466237  1
  K  K11  1  0.466237  0.033763  0.033763  1
  K  K12  1  0.033763  0.466237  0.466237  1
  K  K13  1  0.033763  0.466237  0.033763  1
  K  K14  1  0.226399  0.226399  0.773601  1
  K  K15  1  0.466237  0.466237  0.033763  1
  Er  Er16  1  0.500000  0.500000  0.500000  1
  Pa  Pa17  1  0.750000  0.750000  0.750000  1
  Sb  Sb18  1  0.394546  0.816364  0.394546  1
  Sb  Sb19  1  0.852895  0.852895  0.441315  1
  Sb  Sb20  1  0.441315  0.852895  0.852895  1
  Sb  Sb21  1  0.852895  0.852895  0.852895  1
  Sb  Sb22  1  0.816364  0.394546  0.394546  1
  Sb  Sb23  1  0.394546  0.394546  0.394546  1
  Sb  Sb24  1  0.394546  0.394546  0.816364  1
  Sb  Sb25  1  0.852895  0.441315  0.852895  1
