# generated using pymatgen
data_Sr2Cd14Pt3
_symmetry_space_group_name_H-M   'P 1'
_cell_length_a   7.58852645
_cell_length_b   7.58852613
_cell_length_c   7.58852639
_cell_angle_alpha   83.33890959
_cell_angle_beta   83.33892015
_cell_angle_gamma   83.33889956
_symmetry_Int_Tables_number   1
_chemical_formula_structural   Sr2Cd14Pt3
_chemical_formula_sum   'Sr2 Cd14 Pt3'
_cell_volume   428.77600704
_cell_formula_units_Z   1
loop_
 _symmetry_equiv_pos_site_id
 _symmetry_equiv_pos_as_xyz
  1  'x, y, z'
loop_
 _atom_site_type_symbol
 _atom_site_label
 _atom_site_symmetry_multiplicity
 _atom_site_fract_x
 _atom_site_fract_y
 _atom_site_fract_z
 _atom_site_occupancy
  Sr  Sr0  1  0.337456  0.337456  0.337456  1
  Sr  Sr1  1  0.662544  0.662544  0.662544  1
  Cd  Cd2  1  0.295567  0.704433  0.000000  1
  Cd  Cd3  1  0.852348  0.348660  0.348660  1
  Cd  Cd4  1  0.651340  0.147652  0.651340  1
  Cd  Cd5  1  0.105240  0.105240  0.105240  1
  Cd  Cd6  1  0.295567  0.000000  0.704433  1
  Cd  Cd7  1  0.704433  0.295567  0.000000  1
  Cd  Cd8  1  0.348660  0.348660  0.852348  1
  Cd  Cd9  1  0.894760  0.894760  0.894760  1
  Cd  Cd10  1  0.000000  0.704433  0.295567  1
  Cd  Cd11  1  0.704433  0.000000  0.295567  1
  Cd  Cd12  1  0.348660  0.852348  0.348660  1
  Cd  Cd13  1  0.147652  0.651340  0.651340  1
  Cd  Cd14  1  0.651340  0.651340  0.147652  1
  Cd  Cd15  1  0.000000  0.295567  0.704433  1
  Pt  Pt16  1  0.000000  0.000000  0.500000  1
  Pt  Pt17  1  0.500000  0.000000  0.000000  1
  Pt  Pt18  1  0.000000  0.500000  0.000000  1
