# generated using pymatgen
data_Er2Tm6B24Ru3W
_symmetry_space_group_name_H-M   'P 1'
_cell_length_a   3.60917400
_cell_length_b   9.11001308
_cell_length_c   11.49803300
_cell_angle_alpha   89.85567318
_cell_angle_beta   90.00000000
_cell_angle_gamma   90.00000000
_symmetry_Int_Tables_number   1
_chemical_formula_structural   Er2Tm6B24Ru3W
_chemical_formula_sum   'Er2 Tm6 B24 Ru3 W1'
_cell_volume   378.04978357
_cell_formula_units_Z   1
loop_
 _symmetry_equiv_pos_site_id
 _symmetry_equiv_pos_as_xyz
  1  'x, y, z'
loop_
 _atom_site_type_symbol
 _atom_site_label
 _atom_site_symmetry_multiplicity
 _atom_site_fract_x
 _atom_site_fract_y
 _atom_site_fract_z
 _atom_site_occupancy
  Er  Er0  1  0.000000  0.321041  0.413660  1
  Er  Er1  1  0.000000  0.678126  0.585320  1
  Tm  Tm2  1  0.000000  0.820106  0.086831  1
  Tm  Tm3  1  0.000000  0.177093  0.914777  1
  Tm  Tm4  1  0.000000  0.946320  0.373317  1
  Tm  Tm5  1  0.000000  0.057791  0.628806  1
  Tm  Tm6  1  0.000000  0.442298  0.125630  1
  Tm  Tm7  1  0.000000  0.556911  0.871161  1
  B  B8  1  0.500000  0.549904  0.436801  1
  B  B9  1  0.500000  0.445782  0.568569  1
  B  B10  1  0.500000  0.053697  0.066286  1
  B  B11  1  0.500000  0.946349  0.933528  1
  B  B12  1  0.500000  0.752722  0.422762  1
  B  B13  1  0.500000  0.251283  0.581304  1
  B  B14  1  0.500000  0.248322  0.079421  1
  B  B15  1  0.500000  0.751231  0.919356  1
  B  B16  1  0.500000  0.796318  0.263471  1
  B  B17  1  0.500000  0.208295  0.734893  1
  B  B18  1  0.500000  0.290513  0.232289  1
  B  B19  1  0.500000  0.709255  0.765775  1
  B  B20  1  0.500000  0.632074  0.181212  1
  B  B21  1  0.500000  0.367926  0.815452  1
  B  B22  1  0.500000  0.131581  0.314383  1
  B  B23  1  0.500000  0.869619  0.685394  1
  B  B24  1  0.500000  0.983624  0.212408  1
  B  B25  1  0.500000  0.017714  0.788488  1
  B  B26  1  0.500000  0.476340  0.286100  1
  B  B27  1  0.500000  0.516692  0.713253  1
  B  B28  1  0.500000  0.605890  0.027273  1
  B  B29  1  0.500000  0.392674  0.969446  1
  B  B30  1  0.500000  0.107224  0.471447  1
  B  B31  1  0.500000  0.896968  0.530673  1
  Ru  Ru32  1  0.000000  0.360987  0.680694  1
  Ru  Ru33  1  0.000000  0.137360  0.177698  1
  Ru  Ru34  1  0.000000  0.862280  0.820885  1
  W  W35  1  0.000000  0.637690  0.321237  1
