# generated using pymatgen
data_K2Zr3ScS8
_symmetry_space_group_name_H-M   'P 1'
_cell_length_a   6.43892900
_cell_length_b   7.45083300
_cell_length_c   15.35012400
_cell_angle_alpha   90.00000000
_cell_angle_beta   90.00000000
_cell_angle_gamma   90.00000000
_symmetry_Int_Tables_number   1
_chemical_formula_structural   K2Zr3ScS8
_chemical_formula_sum   'K4 Zr6 Sc2 S16'
_cell_volume   736.42810375
_cell_formula_units_Z   2
loop_
 _symmetry_equiv_pos_site_id
 _symmetry_equiv_pos_as_xyz
  1  'x, y, z'
loop_
 _atom_site_type_symbol
 _atom_site_label
 _atom_site_symmetry_multiplicity
 _atom_site_fract_x
 _atom_site_fract_y
 _atom_site_fract_z
 _atom_site_occupancy
  K  K0  1  0.340734  0.000000  0.000000  1
  K  K1  1  0.656711  0.500000  0.500000  1
  K  K2  1  0.023897  0.000000  0.500000  1
  K  K3  1  0.976975  0.500000  0.000000  1
  Zr  Zr4  1  0.999726  0.500000  0.252771  1
  Zr  Zr5  1  0.999726  0.500000  0.747229  1
  Zr  Zr6  1  0.499834  0.247521  0.250205  1
  Zr  Zr7  1  0.499834  0.752479  0.749795  1
  Zr  Zr8  1  0.499834  0.752479  0.250205  1
  Zr  Zr9  1  0.499834  0.247521  0.749795  1
  Sc  Sc10  1  0.000740  0.000000  0.247582  1
  Sc  Sc11  1  0.000740  0.000000  0.752418  1
  S  S12  1  0.833588  0.248909  0.346193  1
  S  S13  1  0.833588  0.751091  0.653807  1
  S  S14  1  0.166636  0.747141  0.154226  1
  S  S15  1  0.166636  0.252859  0.845774  1
  S  S16  1  0.166636  0.252859  0.154226  1
  S  S17  1  0.166636  0.747141  0.845774  1
  S  S18  1  0.833588  0.751091  0.346193  1
  S  S19  1  0.833588  0.248909  0.653807  1
  S  S20  1  0.668014  0.000000  0.154565  1
  S  S21  1  0.668014  0.000000  0.845435  1
  S  S22  1  0.331173  0.500000  0.346194  1
  S  S23  1  0.331173  0.500000  0.653806  1
  S  S24  1  0.334719  0.000000  0.344583  1
  S  S25  1  0.334719  0.000000  0.655417  1
  S  S26  1  0.666354  0.500000  0.155909  1
  S  S27  1  0.666354  0.500000  0.844091  1
