# generated using pymatgen
data_Ac4Si4NiIr3
_symmetry_space_group_name_H-M   'P 1'
_cell_length_a   6.50707493
_cell_length_b   6.50707428
_cell_length_c   6.50707427
_cell_angle_alpha   90.46560710
_cell_angle_beta   89.53440103
_cell_angle_gamma   90.46560118
_symmetry_Int_Tables_number   1
_chemical_formula_structural   Ac4Si4NiIr3
_chemical_formula_sum   'Ac4 Si4 Ni1 Ir3'
_cell_volume   275.49552371
_cell_formula_units_Z   1
loop_
 _symmetry_equiv_pos_site_id
 _symmetry_equiv_pos_as_xyz
  1  'x, y, z'
loop_
 _atom_site_type_symbol
 _atom_site_label
 _atom_site_symmetry_multiplicity
 _atom_site_fract_x
 _atom_site_fract_y
 _atom_site_fract_z
 _atom_site_occupancy
  Ac  Ac0  1  0.140434  0.860456  0.361510  1
  Ac  Ac1  1  0.861510  0.359566  0.139544  1
  Ac  Ac2  1  0.639544  0.638490  0.640434  1
  Ac  Ac3  1  0.364638  0.135362  0.864638  1
  Si  Si4  1  0.657023  0.842977  0.157023  1
  Si  Si5  1  0.154339  0.650022  0.835334  1
  Si  Si6  1  0.849978  0.164666  0.654339  1
  Si  Si7  1  0.335334  0.345661  0.349978  1
  Ni  Ni8  1  0.083586  0.416414  0.583586  1
  Ir  Ir9  1  0.581622  0.089019  0.421011  1
  Ir  Ir10  1  0.921011  0.918378  0.910981  1
  Ir  Ir11  1  0.410981  0.578989  0.081622  1
