# generated using pymatgen
data_PrIO5
_symmetry_space_group_name_H-M   'P 1'
_cell_length_a   13.07537800
_cell_length_b   5.46287257
_cell_length_c   7.13227158
_cell_angle_alpha   62.97001390
_cell_angle_beta   90.00000000
_cell_angle_gamma   90.00000000
_symmetry_Int_Tables_number   1
_chemical_formula_structural   PrIO5
_chemical_formula_sum   'Pr4 I4 O20'
_cell_volume   453.80386763
_cell_formula_units_Z   4
loop_
 _symmetry_equiv_pos_site_id
 _symmetry_equiv_pos_as_xyz
  1  'x, y, z'
loop_
 _atom_site_type_symbol
 _atom_site_label
 _atom_site_symmetry_multiplicity
 _atom_site_fract_x
 _atom_site_fract_y
 _atom_site_fract_z
 _atom_site_occupancy
  Pr  Pr0  1  0.560623  0.626552  0.212712  1
  Pr  Pr1  1  0.439377  0.373448  0.787288  1
  Pr  Pr2  1  0.060623  0.373448  0.287288  1
  Pr  Pr3  1  0.939377  0.626552  0.712712  1
  I  I4  1  0.866478  0.869861  0.173352  1
  I  I5  1  0.133522  0.130139  0.826648  1
  I  I6  1  0.366478  0.130139  0.326648  1
  I  I7  1  0.633522  0.869861  0.673352  1
  O  O8  1  0.903058  0.536523  0.412675  1
  O  O9  1  0.096942  0.463477  0.587325  1
  O  O10  1  0.403058  0.463477  0.087325  1
  O  O11  1  0.596942  0.536523  0.912675  1
  O  O12  1  0.425957  0.969784  0.167741  1
  O  O13  1  0.574043  0.030216  0.832259  1
  O  O14  1  0.925957  0.030216  0.332259  1
  O  O15  1  0.074043  0.969784  0.667741  1
  O  O16  1  0.934952  0.711476  0.025208  1
  O  O17  1  0.065048  0.288524  0.974792  1
  O  O18  1  0.434952  0.288524  0.474792  1
  O  O19  1  0.565048  0.711476  0.525208  1
  O  O20  1  0.731062  0.803731  0.208727  1
  O  O21  1  0.268938  0.196269  0.791273  1
  O  O22  1  0.231062  0.196269  0.291273  1
  O  O23  1  0.768938  0.803731  0.708727  1
  O  O24  1  0.145471  0.801112  0.064329  1
  O  O25  1  0.854529  0.198888  0.935671  1
  O  O26  1  0.645471  0.198888  0.435671  1
  O  O27  1  0.354529  0.801112  0.564329  1
