# generated using pymatgen
data_Ti3V2SiGe2N
_symmetry_space_group_name_H-M   'P 1'
_cell_length_a   7.40683531
_cell_length_b   7.40683448
_cell_length_c   5.07642000
_cell_angle_alpha   90.00000000
_cell_angle_beta   90.00000000
_cell_angle_gamma   120.36370987
_symmetry_Int_Tables_number   1
_chemical_formula_structural   Ti3V2SiGe2N
_chemical_formula_sum   'Ti6 V4 Si2 Ge4 N2'
_cell_volume   240.29798499
_cell_formula_units_Z   2
loop_
 _symmetry_equiv_pos_site_id
 _symmetry_equiv_pos_as_xyz
  1  'x, y, z'
loop_
 _atom_site_type_symbol
 _atom_site_label
 _atom_site_symmetry_multiplicity
 _atom_site_fract_x
 _atom_site_fract_y
 _atom_site_fract_z
 _atom_site_occupancy
  Ti  Ti0  1  0.229658  0.004822  0.750000  1
  Ti  Ti1  1  0.770342  0.995178  0.250000  1
  Ti  Ti2  1  0.004822  0.229658  0.750000  1
  Ti  Ti3  1  0.995178  0.770342  0.250000  1
  Ti  Ti4  1  0.768307  0.768307  0.750000  1
  Ti  Ti5  1  0.231693  0.231693  0.250000  1
  V  V6  1  0.336571  0.663429  0.500000  1
  V  V7  1  0.663429  0.336571  0.500000  1
  V  V8  1  0.663429  0.336571  0.000000  1
  V  V9  1  0.336571  0.663429  0.000000  1
  Si  Si10  1  0.412496  0.412496  0.750000  1
  Si  Si11  1  0.587504  0.587504  0.250000  1
  Ge  Ge12  1  0.591546  0.001831  0.750000  1
  Ge  Ge13  1  0.408454  0.998169  0.250000  1
  Ge  Ge14  1  0.001831  0.591546  0.750000  1
  Ge  Ge15  1  0.998169  0.408454  0.250000  1
  N  N16  1  0.000000  0.000000  0.500000  1
  N  N17  1  0.000000  0.000000  0.000000  1
