# generated using pymatgen
data_Pr4Hg2Rh3Au
_symmetry_space_group_name_H-M   'P 1'
_cell_length_a   7.85266909
_cell_length_b   7.85266909
_cell_length_c   3.91686900
_cell_angle_alpha   90.00000000
_cell_angle_beta   90.00000000
_cell_angle_gamma   89.34805350
_symmetry_Int_Tables_number   1
_chemical_formula_structural   Pr4Hg2Rh3Au
_chemical_formula_sum   'Pr4 Hg2 Rh3 Au1'
_cell_volume   241.51578730
_cell_formula_units_Z   1
loop_
 _symmetry_equiv_pos_site_id
 _symmetry_equiv_pos_as_xyz
  1  'x, y, z'
loop_
 _atom_site_type_symbol
 _atom_site_label
 _atom_site_symmetry_multiplicity
 _atom_site_fract_x
 _atom_site_fract_y
 _atom_site_fract_z
 _atom_site_occupancy
  Pr  Pr0  1  0.309379  0.166370  0.499999  1
  Pr  Pr1  1  0.844110  0.344109  0.499999  1
  Pr  Pr2  1  0.175582  0.675582  0.499999  1
  Pr  Pr3  1  0.666370  0.809380  0.499999  1
  Hg  Hg4  1  0.001208  0.996227  0.000000  1
  Hg  Hg5  1  0.496227  0.501208  0.000000  1
  Rh  Rh6  1  0.133614  0.373039  0.000000  1
  Rh  Rh7  1  0.873039  0.633613  0.000000  1
  Rh  Rh8  1  0.372694  0.872694  0.000000  1
  Au  Au9  1  0.627778  0.127779  0.000000  1
