# generated using pymatgen
data_Tb2CeRu2
_symmetry_space_group_name_H-M   'P 1'
_cell_length_a   5.88724070
_cell_length_b   5.88724083
_cell_length_c   5.88724127
_cell_angle_alpha   138.28840761
_cell_angle_beta   118.90060811
_cell_angle_gamma   76.71498175
_symmetry_Int_Tables_number   1
_chemical_formula_structural   Tb2CeRu2
_chemical_formula_sum   'Tb2 Ce1 Ru2'
_cell_volume   115.81784618
_cell_formula_units_Z   1
loop_
 _symmetry_equiv_pos_site_id
 _symmetry_equiv_pos_as_xyz
  1  'x, y, z'
loop_
 _atom_site_type_symbol
 _atom_site_label
 _atom_site_symmetry_multiplicity
 _atom_site_fract_x
 _atom_site_fract_y
 _atom_site_fract_z
 _atom_site_occupancy
  Tb  Tb0  1  0.689593  0.189593  0.500000  1
  Tb  Tb1  1  0.310407  0.810406  0.500000  1
  Ce  Ce2  1  0.000000  0.000000  0.000000  1
  Ru  Ru3  1  0.745575  0.500000  0.245575  1
  Ru  Ru4  1  0.254425  0.500000  0.754424  1
