# generated using pymatgen
data_Ta11Nb7Os12
_symmetry_space_group_name_H-M   'P 1'
_cell_length_a   9.91534062
_cell_length_b   9.91534520
_cell_length_c   5.09789550
_cell_angle_alpha   90.03602132
_cell_angle_beta   89.96396910
_cell_angle_gamma   89.87712020
_symmetry_Int_Tables_number   1
_chemical_formula_structural   Ta11Nb7Os12
_chemical_formula_sum   'Ta11 Nb7 Os12'
_cell_volume   501.19327460
_cell_formula_units_Z   1
loop_
 _symmetry_equiv_pos_site_id
 _symmetry_equiv_pos_as_xyz
  1  'x, y, z'
loop_
 _atom_site_type_symbol
 _atom_site_label
 _atom_site_symmetry_multiplicity
 _atom_site_fract_x
 _atom_site_fract_y
 _atom_site_fract_z
 _atom_site_occupancy
  Ta  Ta0  1  0.038761  0.370694  0.501508  1
  Ta  Ta1  1  0.960994  0.629308  0.502223  1
  Ta  Ta2  1  0.534581  0.130424  0.002627  1
  Ta  Ta3  1  0.465505  0.869280  0.002445  1
  Ta  Ta4  1  0.629306  0.961239  0.501508  1
  Ta  Ta5  1  0.370692  0.039006  0.502223  1
  Ta  Ta6  1  0.869576  0.465419  0.002627  1
  Ta  Ta7  1  0.130720  0.534495  0.002445  1
  Ta  Ta8  1  0.681012  0.681115  0.750243  1
  Ta  Ta9  1  0.318885  0.318988  0.750243  1
  Ta  Ta10  1  0.818127  0.181873  0.250206  1
  Nb  Nb11  1  0.103592  0.104154  0.503485  1
  Nb  Nb12  1  0.895846  0.896408  0.503484  1
  Nb  Nb13  1  0.601414  0.398586  0.993217  1
  Nb  Nb14  1  0.399245  0.600755  0.994189  1
  Nb  Nb15  1  0.818506  0.181494  0.750455  1
  Nb  Nb16  1  0.181203  0.818797  0.751063  1
  Nb  Nb17  1  0.182061  0.817939  0.250427  1
  Os  Os18  1  0.500216  0.499784  0.475604  1
  Os  Os19  1  0.999699  0.000301  0.001698  1
  Os  Os20  1  0.758003  0.434425  0.498960  1
  Os  Os21  1  0.242332  0.565158  0.500652  1
  Os  Os22  1  0.260299  0.070189  0.001856  1
  Os  Os23  1  0.739652  0.930315  0.003115  1
  Os  Os24  1  0.565575  0.241997  0.498960  1
  Os  Os25  1  0.434842  0.757668  0.500652  1
  Os  Os26  1  0.929811  0.739701  0.001857  1
  Os  Os27  1  0.069685  0.260348  0.003115  1
  Os  Os28  1  0.319014  0.319153  0.249457  1
  Os  Os29  1  0.680847  0.680986  0.249456  1
