# generated using pymatgen
data_Ho4AgPt2Au
_symmetry_space_group_name_H-M   'P 1'
_cell_length_a   4.56698200
_cell_length_b   5.58469642
_cell_length_c   7.14136400
_cell_angle_alpha   91.66977326
_cell_angle_beta   90.00000000
_cell_angle_gamma   90.00000000
_symmetry_Int_Tables_number   1
_chemical_formula_structural   Ho4AgPt2Au
_chemical_formula_sum   'Ho4 Ag1 Pt2 Au1'
_cell_volume   182.06463177
_cell_formula_units_Z   1
loop_
 _symmetry_equiv_pos_site_id
 _symmetry_equiv_pos_as_xyz
  1  'x, y, z'
loop_
 _atom_site_type_symbol
 _atom_site_label
 _atom_site_symmetry_multiplicity
 _atom_site_fract_x
 _atom_site_fract_y
 _atom_site_fract_z
 _atom_site_occupancy
  Ho  Ho0  1  0.250000  0.364315  0.699365  1
  Ho  Ho1  1  0.250000  0.145104  0.167388  1
  Ho  Ho2  1  0.750000  0.639684  0.301740  1
  Ho  Ho3  1  0.750000  0.850159  0.830088  1
  Ag  Ag4  1  0.750000  0.150901  0.466096  1
  Pt  Pt5  1  0.250000  0.659652  0.045138  1
  Pt  Pt6  1  0.750000  0.336478  0.954687  1
  Au  Au7  1  0.250000  0.853707  0.535501  1
