# generated using pymatgen
data_HfTa5Al16Ir7
_symmetry_space_group_name_H-M   'P 1'
_cell_length_a   8.60289538
_cell_length_b   8.60289487
_cell_length_c   8.62283200
_cell_angle_alpha   59.92330836
_cell_angle_beta   59.92331032
_cell_angle_gamma   60.15337433
_symmetry_Int_Tables_number   1
_chemical_formula_structural   HfTa5Al16Ir7
_chemical_formula_sum   'Hf1 Ta5 Al16 Ir7'
_cell_volume   451.25235928
_cell_formula_units_Z   1
loop_
 _symmetry_equiv_pos_site_id
 _symmetry_equiv_pos_as_xyz
  1  'x, y, z'
loop_
 _atom_site_type_symbol
 _atom_site_label
 _atom_site_symmetry_multiplicity
 _atom_site_fract_x
 _atom_site_fract_y
 _atom_site_fract_z
 _atom_site_occupancy
  Hf  Hf0  1  0.684070  0.684070  0.315930  1
  Ta  Ta1  1  0.676787  0.321806  0.323213  1
  Ta  Ta2  1  0.321806  0.676787  0.678194  1
  Ta  Ta3  1  0.321806  0.676787  0.323213  1
  Ta  Ta4  1  0.676787  0.321806  0.678194  1
  Ta  Ta5  1  0.325077  0.325077  0.674923  1
  Al  Al6  1  0.336602  0.336602  0.337618  1
  Al  Al7  1  0.661885  0.661885  0.665195  1
  Al  Al8  1  0.336602  0.336602  0.989178  1
  Al  Al9  1  0.334805  0.988964  0.338115  1
  Al  Al10  1  0.661885  0.661885  0.011036  1
  Al  Al11  1  0.662382  0.010822  0.663398  1
  Al  Al12  1  0.988964  0.334805  0.338115  1
  Al  Al13  1  0.010822  0.662382  0.663398  1
  Al  Al14  1  0.119588  0.119588  0.119079  1
  Al  Al15  1  0.880960  0.880960  0.878503  1
  Al  Al16  1  0.119588  0.119588  0.641745  1
  Al  Al17  1  0.121497  0.640422  0.119040  1
  Al  Al18  1  0.880960  0.880960  0.359578  1
  Al  Al19  1  0.880921  0.358255  0.880412  1
  Al  Al20  1  0.640422  0.121497  0.119040  1
  Al  Al21  1  0.358255  0.880921  0.880412  1
  Ir  Ir22  1  0.499309  0.000969  0.999031  1
  Ir  Ir23  1  0.000969  0.499309  0.500691  1
  Ir  Ir24  1  0.000969  0.499309  0.999031  1
  Ir  Ir25  1  0.499309  0.000969  0.500691  1
  Ir  Ir26  1  0.998866  0.998866  0.501134  1
  Ir  Ir27  1  0.498866  0.498866  0.001134  1
  Ir  Ir28  1  0.999241  0.999241  0.000759  1
