# generated using pymatgen
data_Tb2Er10IrOs3
_symmetry_space_group_name_H-M   'P 1'
_cell_length_a   6.26607500
_cell_length_b   7.37826183
_cell_length_c   8.97907300
_cell_angle_alpha   90.00000000
_cell_angle_beta   90.00000000
_cell_angle_gamma   90.04040382
_symmetry_Int_Tables_number   1
_chemical_formula_structural   Tb2Er10IrOs3
_chemical_formula_sum   'Tb2 Er10 Ir1 Os3'
_cell_volume   415.12706241
_cell_formula_units_Z   1
loop_
 _symmetry_equiv_pos_site_id
 _symmetry_equiv_pos_as_xyz
  1  'x, y, z'
loop_
 _atom_site_type_symbol
 _atom_site_label
 _atom_site_symmetry_multiplicity
 _atom_site_fract_x
 _atom_site_fract_y
 _atom_site_fract_z
 _atom_site_occupancy
  Tb  Tb0  1  0.872209  0.538098  0.250000  1
  Tb  Tb1  1  0.628880  0.038800  0.250000  1
  Er  Er2  1  0.333386  0.673027  0.061125  1
  Er  Er3  1  0.167883  0.176938  0.438856  1
  Er  Er4  1  0.668050  0.324888  0.563943  1
  Er  Er5  1  0.829903  0.823968  0.934007  1
  Er  Er6  1  0.668050  0.324888  0.936057  1
  Er  Er7  1  0.829903  0.823968  0.565993  1
  Er  Er8  1  0.333386  0.673027  0.438875  1
  Er  Er9  1  0.167883  0.176938  0.061144  1
  Er  Er10  1  0.128027  0.461707  0.750000  1
  Er  Er11  1  0.370282  0.961858  0.750000  1
  Ir  Ir12  1  0.046536  0.884100  0.250000  1
  Os  Os13  1  0.456821  0.383510  0.250000  1
  Os  Os14  1  0.961532  0.116707  0.750000  1
  Os  Os15  1  0.537269  0.617582  0.750000  1
