# generated using pymatgen
data_DyLu9In8Pt3Rh
_symmetry_space_group_name_H-M   'P 1'
_cell_length_a   3.57999000
_cell_length_b   8.02103122
_cell_length_c   18.00562388
_cell_angle_alpha   90.07750063
_cell_angle_beta   90.00000000
_cell_angle_gamma   90.00000000
_symmetry_Int_Tables_number   1
_chemical_formula_structural   DyLu9In8Pt3Rh
_chemical_formula_sum   'Dy1 Lu9 In8 Pt3 Rh1'
_cell_volume   517.03482582
_cell_formula_units_Z   1
loop_
 _symmetry_equiv_pos_site_id
 _symmetry_equiv_pos_as_xyz
  1  'x, y, z'
loop_
 _atom_site_type_symbol
 _atom_site_label
 _atom_site_symmetry_multiplicity
 _atom_site_fract_x
 _atom_site_fract_y
 _atom_site_fract_z
 _atom_site_occupancy
  Dy  Dy0  1  0.000000  0.500363  0.499787  1
  Lu  Lu1  1  0.000000  0.115516  0.411938  1
  Lu  Lu2  1  0.000000  0.882323  0.585771  1
  Lu  Lu3  1  0.000000  0.383081  0.914438  1
  Lu  Lu4  1  0.000000  0.617184  0.086656  1
  Lu  Lu5  1  0.000000  0.240970  0.221965  1
  Lu  Lu6  1  0.000000  0.756230  0.778706  1
  Lu  Lu7  1  0.000000  0.256167  0.721500  1
  Lu  Lu8  1  0.000000  0.749468  0.278650  1
  Lu  Lu9  1  0.000000  0.000055  0.000064  1
  In  In10  1  0.500000  0.422946  0.351344  1
  In  In11  1  0.500000  0.575488  0.648744  1
  In  In12  1  0.500000  0.075116  0.852385  1
  In  In13  1  0.500000  0.928031  0.148742  1
  In  In14  1  0.500000  0.291726  0.066559  1
  In  In15  1  0.500000  0.708262  0.933872  1
  In  In16  1  0.500000  0.205559  0.566362  1
  In  In17  1  0.500000  0.794921  0.431586  1
  Pt  Pt18  1  0.500000  0.974607  0.696077  1
  Pt  Pt19  1  0.500000  0.474531  0.804339  1
  Pt  Pt20  1  0.500000  0.523656  0.195988  1
  Rh  Rh21  1  0.500000  0.023801  0.304525  1
