# generated using pymatgen
data_Nb10TlSiO19
_symmetry_space_group_name_H-M   'P 1'
_cell_length_a   7.86315900
_cell_length_b   7.86315873
_cell_length_c   14.72364300
_cell_angle_alpha   90.00000000
_cell_angle_beta   90.00000000
_cell_angle_gamma   119.99998852
_symmetry_Int_Tables_number   1
_chemical_formula_structural   Nb10TlSiO19
_chemical_formula_sum   'Nb20 Tl2 Si2 O38'
_cell_volume   788.38810064
_cell_formula_units_Z   2
loop_
 _symmetry_equiv_pos_site_id
 _symmetry_equiv_pos_as_xyz
  1  'x, y, z'
loop_
 _atom_site_type_symbol
 _atom_site_label
 _atom_site_symmetry_multiplicity
 _atom_site_fract_x
 _atom_site_fract_y
 _atom_site_fract_z
 _atom_site_occupancy
  Nb  Nb0  1  0.317551  0.448992  0.500233  1
  Nb  Nb1  1  0.666667  0.333333  0.333932  1
  Nb  Nb2  1  0.525018  0.639422  0.338427  1
  Nb  Nb3  1  0.551008  0.868561  0.500233  1
  Nb  Nb4  1  0.046506  0.233358  0.672511  1
  Nb  Nb5  1  0.885596  0.525018  0.838427  1
  Nb  Nb6  1  0.131439  0.682449  0.500233  1
  Nb  Nb7  1  0.233358  0.186852  0.172511  1
  Nb  Nb8  1  0.360578  0.885596  0.338427  1
  Nb  Nb9  1  0.639422  0.114404  0.838427  1
  Nb  Nb10  1  0.474982  0.360578  0.838427  1
  Nb  Nb11  1  0.813148  0.046506  0.172511  1
  Nb  Nb12  1  0.448992  0.131439  0.000233  1
  Nb  Nb13  1  0.333333  0.666667  0.833932  1
  Nb  Nb14  1  0.114404  0.474982  0.338427  1
  Nb  Nb15  1  0.682449  0.551008  0.000233  1
  Nb  Nb16  1  0.186852  0.953494  0.672511  1
  Nb  Nb17  1  0.766642  0.813148  0.672511  1
  Nb  Nb18  1  0.953494  0.766642  0.172511  1
  Nb  Nb19  1  0.868561  0.317551  0.000233  1
  Tl  Tl20  1  0.666667  0.333333  0.593336  1
  Tl  Tl21  1  0.333333  0.666667  0.093336  1
  Si  Si22  1  0.000000  0.000000  0.888917  1
  Si  Si23  1  0.000000  0.000000  0.388917  1
  O  O24  1  0.000000  0.000000  0.274843  1
  O  O25  1  0.919269  0.772057  0.919378  1
  O  O26  1  0.870396  0.302959  0.754816  1
  O  O27  1  0.772057  0.852787  0.419378  1
  O  O28  1  0.129604  0.697041  0.254816  1
  O  O29  1  0.697041  0.567437  0.754816  1
  O  O30  1  0.545450  0.644934  0.581772  1
  O  O31  1  0.593269  0.098403  0.418140  1
  O  O32  1  0.852787  0.080731  0.919378  1
  O  O33  1  0.494866  0.593269  0.918140  1
  O  O34  1  0.406731  0.901597  0.918140  1
  O  O35  1  0.900516  0.545450  0.081772  1
  O  O36  1  0.253341  0.205289  0.600156  1
  O  O37  1  0.577156  0.842068  0.761456  1
  O  O38  1  0.048052  0.253341  0.100156  1
  O  O39  1  0.099484  0.454550  0.581772  1
  O  O40  1  0.302959  0.432563  0.254816  1
  O  O41  1  0.432563  0.129604  0.754816  1
  O  O42  1  0.901597  0.494866  0.418140  1
  O  O43  1  0.454550  0.355066  0.081772  1
  O  O44  1  0.000000  0.000000  0.774843  1
  O  O45  1  0.951948  0.746659  0.600156  1
  O  O46  1  0.422844  0.157932  0.261456  1
  O  O47  1  0.735088  0.577156  0.261456  1
  O  O48  1  0.794711  0.048052  0.600156  1
  O  O49  1  0.746659  0.794711  0.100156  1
  O  O50  1  0.644934  0.099484  0.081772  1
  O  O51  1  0.355066  0.900516  0.581772  1
  O  O52  1  0.842068  0.264912  0.261456  1
  O  O53  1  0.567437  0.870396  0.254816  1
  O  O54  1  0.157932  0.735088  0.761456  1
  O  O55  1  0.227943  0.147213  0.919378  1
  O  O56  1  0.264912  0.422844  0.761456  1
  O  O57  1  0.098403  0.505134  0.918140  1
  O  O58  1  0.205289  0.951948  0.100156  1
  O  O59  1  0.147213  0.919269  0.419378  1
  O  O60  1  0.080731  0.227943  0.419378  1
  O  O61  1  0.505134  0.406731  0.418140  1
