# generated using pymatgen
data_Nd5OsRh2
_symmetry_space_group_name_H-M   'P 1'
_cell_length_a   11.27221400
_cell_length_b   11.27221400
_cell_length_c   6.58481600
_cell_angle_alpha   90.00000000
_cell_angle_beta   90.00000000
_cell_angle_gamma   90.00000000
_symmetry_Int_Tables_number   1
_chemical_formula_structural   Nd5OsRh2
_chemical_formula_sum   'Nd20 Os4 Rh8'
_cell_volume   836.68521416
_cell_formula_units_Z   4
loop_
 _symmetry_equiv_pos_site_id
 _symmetry_equiv_pos_as_xyz
  1  'x, y, z'
loop_
 _atom_site_type_symbol
 _atom_site_label
 _atom_site_symmetry_multiplicity
 _atom_site_fract_x
 _atom_site_fract_y
 _atom_site_fract_z
 _atom_site_occupancy
  Nd  Nd0  1  0.087927  0.294298  0.118268  1
  Nd  Nd1  1  0.794298  0.412073  0.118268  1
  Nd  Nd2  1  0.205702  0.587927  0.118268  1
  Nd  Nd3  1  0.912073  0.705702  0.118268  1
  Nd  Nd4  1  0.412073  0.794298  0.381732  1
  Nd  Nd5  1  0.587927  0.205702  0.381732  1
  Nd  Nd6  1  0.294298  0.087927  0.381732  1
  Nd  Nd7  1  0.705702  0.912073  0.381732  1
  Nd  Nd8  1  0.412073  0.205702  0.881732  1
  Nd  Nd9  1  0.705702  0.087927  0.881732  1
  Nd  Nd10  1  0.294298  0.912073  0.881732  1
  Nd  Nd11  1  0.587927  0.794298  0.881732  1
  Nd  Nd12  1  0.087927  0.705702  0.618268  1
  Nd  Nd13  1  0.912073  0.294298  0.618268  1
  Nd  Nd14  1  0.205702  0.412073  0.618268  1
  Nd  Nd15  1  0.794298  0.587927  0.618268  1
  Nd  Nd16  1  0.000000  0.000000  0.000000  1
  Nd  Nd17  1  0.500000  0.500000  0.000000  1
  Nd  Nd18  1  0.500000  0.500000  0.500000  1
  Nd  Nd19  1  0.000000  0.000000  0.500000  1
  Os  Os20  1  0.000000  0.500000  0.375068  1
  Os  Os21  1  0.500000  0.000000  0.124932  1
  Os  Os22  1  0.500000  0.000000  0.624932  1
  Os  Os23  1  0.000000  0.500000  0.875068  1
  Rh  Rh24  1  0.151617  0.848383  0.250000  1
  Rh  Rh25  1  0.348383  0.348383  0.250000  1
  Rh  Rh26  1  0.651617  0.651617  0.250000  1
  Rh  Rh27  1  0.848383  0.151617  0.250000  1
  Rh  Rh28  1  0.348383  0.651617  0.750000  1
  Rh  Rh29  1  0.151617  0.151617  0.750000  1
  Rh  Rh30  1  0.848383  0.848383  0.750000  1
  Rh  Rh31  1  0.651617  0.348383  0.750000  1
