# generated using pymatgen
data_Hf2Pd3Rh2Au
_symmetry_space_group_name_H-M   'P 1'
_cell_length_a   4.05833600
_cell_length_b   3.99580100
_cell_length_c   8.00743200
_cell_angle_alpha   90.00000000
_cell_angle_beta   90.00000000
_cell_angle_gamma   90.00000000
_symmetry_Int_Tables_number   1
_chemical_formula_structural   Hf2Pd3Rh2Au
_chemical_formula_sum   'Hf2 Pd3 Rh2 Au1'
_cell_volume   129.85094394
_cell_formula_units_Z   1
loop_
 _symmetry_equiv_pos_site_id
 _symmetry_equiv_pos_as_xyz
  1  'x, y, z'
loop_
 _atom_site_type_symbol
 _atom_site_label
 _atom_site_symmetry_multiplicity
 _atom_site_fract_x
 _atom_site_fract_y
 _atom_site_fract_z
 _atom_site_occupancy
  Hf  Hf0  1  0.000000  0.000000  0.229260  1
  Hf  Hf1  1  0.000000  0.000000  0.770740  1
  Pd  Pd2  1  0.500000  0.500000  0.246995  1
  Pd  Pd3  1  0.500000  0.500000  0.753005  1
  Pd  Pd4  1  0.000000  0.500000  0.500000  1
  Rh  Rh5  1  0.000000  0.500000  0.000000  1
  Rh  Rh6  1  0.500000  0.000000  0.000000  1
  Au  Au7  1  0.500000  0.000000  0.500000  1
