# generated using pymatgen
data_Nb2VI12
_symmetry_space_group_name_H-M   'P 1'
_cell_length_a   9.87084245
_cell_length_b   9.87084189
_cell_length_c   7.63783400
_cell_angle_alpha   70.52670845
_cell_angle_beta   70.52671575
_cell_angle_gamma   82.45389922
_symmetry_Int_Tables_number   1
_chemical_formula_structural   Nb2VI12
_chemical_formula_sum   'Nb2 V1 I12'
_cell_volume   661.30676115
_cell_formula_units_Z   1
loop_
 _symmetry_equiv_pos_site_id
 _symmetry_equiv_pos_as_xyz
  1  'x, y, z'
loop_
 _atom_site_type_symbol
 _atom_site_label
 _atom_site_symmetry_multiplicity
 _atom_site_fract_x
 _atom_site_fract_y
 _atom_site_fract_z
 _atom_site_occupancy
  Nb  Nb0  1  0.261311  0.261311  0.745794  1
  Nb  Nb1  1  0.738689  0.738689  0.254206  1
  V  V2  1  0.000000  0.000000  0.000000  1
  I  I3  1  0.969765  0.266093  0.738064  1
  I  I4  1  0.266093  0.969765  0.738064  1
  I  I5  1  0.030235  0.733907  0.261936  1
  I  I6  1  0.733907  0.030235  0.261936  1
  I  I7  1  0.216324  0.523983  0.790535  1
  I  I8  1  0.523983  0.216324  0.790535  1
  I  I9  1  0.783676  0.476017  0.209465  1
  I  I10  1  0.476017  0.783676  0.209465  1
  I  I11  1  0.133871  0.133871  0.161143  1
  I  I12  1  0.866129  0.866129  0.838857  1
  I  I13  1  0.644832  0.644832  0.647685  1
  I  I14  1  0.355168  0.355168  0.352315  1
