# generated using pymatgen
data_Hf6AsC4Se
_symmetry_space_group_name_H-M   'P 1'
_cell_length_a   3.39416000
_cell_length_b   3.39416105
_cell_length_c   17.83498700
_cell_angle_alpha   90.00000000
_cell_angle_beta   90.00000000
_cell_angle_gamma   119.99998974
_symmetry_Int_Tables_number   1
_chemical_formula_structural   Hf6AsC4Se
_chemical_formula_sum   'Hf6 As1 C4 Se1'
_cell_volume   177.93780562
_cell_formula_units_Z   1
loop_
 _symmetry_equiv_pos_site_id
 _symmetry_equiv_pos_as_xyz
  1  'x, y, z'
loop_
 _atom_site_type_symbol
 _atom_site_label
 _atom_site_symmetry_multiplicity
 _atom_site_fract_x
 _atom_site_fract_y
 _atom_site_fract_z
 _atom_site_occupancy
  Hf  Hf0  1  0.000000  0.000000  0.999250  1
  Hf  Hf1  1  0.333334  0.666668  0.140942  1
  Hf  Hf2  1  0.333334  0.666668  0.359058  1
  Hf  Hf3  1  0.000000  0.000000  0.500750  1
  Hf  Hf4  1  0.666667  0.333332  0.639877  1
  Hf  Hf5  1  0.666667  0.333332  0.860123  1
  As  As6  1  0.000000  0.000000  0.250000  1
  C  C7  1  0.666667  0.333332  0.076625  1
  C  C8  1  0.666667  0.333332  0.423375  1
  C  C9  1  0.333334  0.666668  0.576536  1
  C  C10  1  0.333334  0.666668  0.923464  1
  Se  Se11  1  0.000000  0.000000  0.750000  1
