# generated using pymatgen
data_DyLu5Al24Co3Os5
_symmetry_space_group_name_H-M   'P 1'
_cell_length_a   8.70838015
_cell_length_b   8.74374552
_cell_length_c   9.42722772
_cell_angle_alpha   90.00628302
_cell_angle_beta   89.66246724
_cell_angle_gamma   120.07609645
_symmetry_Int_Tables_number   1
_chemical_formula_structural   DyLu5Al24Co3Os5
_chemical_formula_sum   'Dy1 Lu5 Al24 Co3 Os5'
_cell_volume   621.16376199
_cell_formula_units_Z   1
loop_
 _symmetry_equiv_pos_site_id
 _symmetry_equiv_pos_as_xyz
  1  'x, y, z'
loop_
 _atom_site_type_symbol
 _atom_site_label
 _atom_site_symmetry_multiplicity
 _atom_site_fract_x
 _atom_site_fract_y
 _atom_site_fract_z
 _atom_site_occupancy
  Dy  Dy0  1  0.803225  0.190448  0.749546  1
  Lu  Lu1  1  0.199409  0.391635  0.251080  1
  Lu  Lu2  1  0.800339  0.608320  0.748992  1
  Lu  Lu3  1  0.606398  0.803421  0.247153  1
  Lu  Lu4  1  0.393430  0.196784  0.752827  1
  Lu  Lu5  1  0.199474  0.808073  0.251012  1
  Al  Al6  1  0.325336  0.662798  0.017586  1
  Al  Al7  1  0.673743  0.337104  0.983360  1
  Al  Al8  1  0.666764  0.333580  0.515846  1
  Al  Al9  1  0.333264  0.666824  0.483610  1
  Al  Al10  1  0.159284  0.318736  0.576821  1
  Al  Al11  1  0.841862  0.682133  0.422259  1
  Al  Al12  1  0.681114  0.840000  0.574865  1
  Al  Al13  1  0.842471  0.680542  0.075623  1
  Al  Al14  1  0.318073  0.159061  0.424278  1
  Al  Al15  1  0.158539  0.320143  0.925120  1
  Al  Al16  1  0.158189  0.840296  0.577144  1
  Al  Al17  1  0.320387  0.160296  0.076264  1
  Al  Al18  1  0.841731  0.159961  0.421459  1
  Al  Al19  1  0.678639  0.838652  0.924609  1
  Al  Al20  1  0.842210  0.161909  0.076688  1
  Al  Al21  1  0.157497  0.838044  0.924860  1
  Al  Al22  1  0.563505  0.124435  0.249038  1
  Al  Al23  1  0.435126  0.874877  0.751152  1
  Al  Al24  1  0.884491  0.442488  0.243394  1
  Al  Al25  1  0.116720  0.559218  0.756147  1
  Al  Al26  1  0.563664  0.439421  0.248861  1
  Al  Al27  1  0.436357  0.560637  0.751021  1
  Al  Al28  1  0.000650  0.000444  0.250140  1
  Al  Al29  1  0.000690  0.998104  0.749763  1
  Co  Co30  1  0.000201  0.500704  0.000344  1
  Co  Co31  1  0.999628  0.000323  0.999726  1
  Co  Co32  1  0.999673  0.000324  0.500148  1
  Os  Os33  1  0.498673  0.999189  0.000962  1
  Os  Os34  1  0.499095  0.999625  0.499361  1
  Os  Os35  1  0.499697  0.500200  0.000197  1
  Os  Os36  1  0.000567  0.501068  0.499051  1
  Os  Os37  1  0.499885  0.500183  0.499694  1
