# generated using pymatgen
data_Yb4Ga19Ir5
_symmetry_space_group_name_H-M   'P 1'
_cell_length_a   7.62115321
_cell_length_b   7.62115332
_cell_length_c   9.60948317
_cell_angle_alpha   90.12213595
_cell_angle_beta   90.12214450
_cell_angle_gamma   119.96011339
_symmetry_Int_Tables_number   1
_chemical_formula_structural   Yb4Ga19Ir5
_chemical_formula_sum   'Yb4 Ga19 Ir5'
_cell_volume   483.55126533
_cell_formula_units_Z   1
loop_
 _symmetry_equiv_pos_site_id
 _symmetry_equiv_pos_as_xyz
  1  'x, y, z'
loop_
 _atom_site_type_symbol
 _atom_site_label
 _atom_site_symmetry_multiplicity
 _atom_site_fract_x
 _atom_site_fract_y
 _atom_site_fract_z
 _atom_site_occupancy
  Yb  Yb0  1  0.998096  0.673795  0.250558  1
  Yb  Yb1  1  0.001904  0.326205  0.749442  1
  Yb  Yb2  1  0.673795  0.998096  0.250558  1
  Yb  Yb3  1  0.326205  0.001904  0.749442  1
  Ga  Ga4  1  0.138699  0.138699  0.258545  1
  Ga  Ga5  1  0.861301  0.861301  0.741455  1
  Ga  Ga6  1  0.998766  0.345753  0.085124  1
  Ga  Ga7  1  0.001234  0.654247  0.914876  1
  Ga  Ga8  1  0.004186  0.664931  0.574957  1
  Ga  Ga9  1  0.335069  0.995814  0.425043  1
  Ga  Ga10  1  0.995814  0.335069  0.425043  1
  Ga  Ga11  1  0.664931  0.004186  0.574957  1
  Ga  Ga12  1  0.654247  0.001234  0.914876  1
  Ga  Ga13  1  0.345753  0.998766  0.085124  1
  Ga  Ga14  1  0.331285  0.331285  0.560939  1
  Ga  Ga15  1  0.668715  0.668715  0.439061  1
  Ga  Ga16  1  0.656267  0.656267  0.070929  1
  Ga  Ga17  1  0.343733  0.343733  0.929071  1
  Ga  Ga18  1  0.338682  0.552036  0.251190  1
  Ga  Ga19  1  0.661318  0.447964  0.748810  1
  Ga  Ga20  1  0.552036  0.338682  0.251190  1
  Ga  Ga21  1  0.447964  0.661318  0.748810  1
  Ga  Ga22  1  0.000000  0.000000  0.000000  1
  Ir  Ir23  1  0.670373  0.329627  0.000000  1
  Ir  Ir24  1  0.329627  0.670373  0.000000  1
  Ir  Ir25  1  0.330250  0.669750  0.500000  1
  Ir  Ir26  1  0.669750  0.330250  0.500000  1
  Ir  Ir27  1  0.000000  0.000000  0.500000  1
