# generated using pymatgen
data_Ho5GaBiOs
_symmetry_space_group_name_H-M   'P 1'
_cell_length_a   8.72407599
_cell_length_b   8.72407637
_cell_length_c   8.81632355
_cell_angle_alpha   126.45935722
_cell_angle_beta   126.45936051
_cell_angle_gamma   78.40036366
_symmetry_Int_Tables_number   1
_chemical_formula_structural   Ho5GaBiOs
_chemical_formula_sum   'Ho10 Ga2 Bi2 Os2'
_cell_volume   421.88595133
_cell_formula_units_Z   2
loop_
 _symmetry_equiv_pos_site_id
 _symmetry_equiv_pos_as_xyz
  1  'x, y, z'
loop_
 _atom_site_type_symbol
 _atom_site_label
 _atom_site_symmetry_multiplicity
 _atom_site_fract_x
 _atom_site_fract_y
 _atom_site_fract_z
 _atom_site_occupancy
  Ho  Ho0  1  0.000000  0.000000  0.000000  1
  Ho  Ho1  1  0.500000  0.500000  0.000000  1
  Ho  Ho2  1  0.782264  0.282264  0.793726  1
  Ho  Ho3  1  0.217736  0.717736  0.206274  1
  Ho  Ho4  1  0.488539  0.988539  0.206274  1
  Ho  Ho5  1  0.307911  0.463336  0.500000  1
  Ho  Ho6  1  0.036664  0.192089  0.500000  1
  Ho  Ho7  1  0.511461  0.011461  0.793726  1
  Ho  Ho8  1  0.692089  0.536664  0.500000  1
  Ho  Ho9  1  0.963336  0.807911  0.500000  1
  Ga  Ga10  1  0.137698  0.637698  0.775395  1
  Ga  Ga11  1  0.862302  0.362302  0.224605  1
  Bi  Bi12  1  0.250000  0.250000  0.000000  1
  Bi  Bi13  1  0.750000  0.750000  0.000000  1
  Os  Os14  1  0.636436  0.863564  0.500000  1
  Os  Os15  1  0.363564  0.136436  0.500000  1
