# generated using pymatgen
data_Th4ZrTaRh10
_symmetry_space_group_name_H-M   'P 1'
_cell_length_a   5.92918416
_cell_length_b   5.92918473
_cell_length_c   8.92425800
_cell_angle_alpha   90.00000000
_cell_angle_beta   90.00000000
_cell_angle_gamma   102.56404757
_symmetry_Int_Tables_number   1
_chemical_formula_structural   Th4ZrTaRh10
_chemical_formula_sum   'Th4 Zr1 Ta1 Rh10'
_cell_volume   306.22147231
_cell_formula_units_Z   1
loop_
 _symmetry_equiv_pos_site_id
 _symmetry_equiv_pos_as_xyz
  1  'x, y, z'
loop_
 _atom_site_type_symbol
 _atom_site_label
 _atom_site_symmetry_multiplicity
 _atom_site_fract_x
 _atom_site_fract_y
 _atom_site_fract_z
 _atom_site_occupancy
  Th  Th0  1  0.793428  0.211828  0.499031  1
  Th  Th1  1  0.211828  0.793428  0.000969  1
  Th  Th2  1  0.211828  0.793428  0.499031  1
  Th  Th3  1  0.793428  0.211828  0.000969  1
  Zr  Zr4  1  0.387840  0.387840  0.250000  1
  Ta  Ta5  1  0.603082  0.603082  0.750000  1
  Rh  Rh6  1  0.691598  0.691598  0.037603  1
  Rh  Rh7  1  0.691598  0.691598  0.462397  1
  Rh  Rh8  1  0.323601  0.323601  0.931487  1
  Rh  Rh9  1  0.323601  0.323601  0.568513  1
  Rh  Rh10  1  0.494304  0.001743  0.750000  1
  Rh  Rh11  1  0.510143  0.972983  0.250000  1
  Rh  Rh12  1  0.001541  0.001541  0.250000  1
  Rh  Rh13  1  0.987457  0.987457  0.750000  1
  Rh  Rh14  1  0.001743  0.494304  0.750000  1
  Rh  Rh15  1  0.972983  0.510143  0.250000  1
