# generated using pymatgen
data_Y5Ge3P9Ru8Rh11
_symmetry_space_group_name_H-M   'P 1'
_cell_length_a   12.77588478
_cell_length_b   12.80216359
_cell_length_c   3.94477100
_cell_angle_alpha   90.00000000
_cell_angle_beta   90.00000000
_cell_angle_gamma   120.30242533
_symmetry_Int_Tables_number   1
_chemical_formula_structural   Y5Ge3P9Ru8Rh11
_chemical_formula_sum   'Y5 Ge3 P9 Ru8 Rh11'
_cell_volume   557.05133437
_cell_formula_units_Z   1
loop_
 _symmetry_equiv_pos_site_id
 _symmetry_equiv_pos_as_xyz
  1  'x, y, z'
loop_
 _atom_site_type_symbol
 _atom_site_label
 _atom_site_symmetry_multiplicity
 _atom_site_fract_x
 _atom_site_fract_y
 _atom_site_fract_z
 _atom_site_occupancy
  Y  Y0  1  0.998161  0.184374  0.500000  1
  Y  Y1  1  0.813840  0.814604  0.500000  1
  Y  Y2  1  0.186739  0.002431  0.500000  1
  Y  Y3  1  0.666110  0.331991  0.000000  1
  Y  Y4  1  0.333918  0.666516  0.000000  1
  Ge  Ge5  1  0.682483  0.163482  0.500000  1
  Ge  Ge6  1  0.834860  0.516757  0.500000  1
  Ge  Ge7  1  0.481488  0.317076  0.500000  1
  P  P8  1  0.005585  0.822624  0.000000  1
  P  P9  1  0.179337  0.184771  0.000000  1
  P  P10  1  0.816642  0.996911  0.000000  1
  P  P11  1  0.174914  0.688767  0.500000  1
  P  P12  1  0.517049  0.826759  0.500000  1
  P  P13  1  0.309436  0.482706  0.500000  1
  P  P14  1  0.998968  0.370735  0.000000  1
  P  P15  1  0.628529  0.628775  0.000000  1
  P  P16  1  0.371738  0.001146  0.000000  1
  Ru  Ru17  1  0.274106  0.284475  0.500000  1
  Ru  Ru18  1  0.715946  0.990565  0.500000  1
  Ru  Ru19  1  0.884526  0.357284  0.500000  1
  Ru  Ru20  1  0.643932  0.528248  0.500000  1
  Ru  Ru21  1  0.471560  0.114583  0.500000  1
  Ru  Ru22  1  0.362036  0.869343  0.500000  1
  Ru  Ru23  1  0.507807  0.637052  0.500000  1
  Ru  Ru24  1  0.129535  0.491862  0.500000  1
  Rh  Rh25  1  0.003788  0.553728  0.000000  1
  Rh  Rh26  1  0.446119  0.448483  0.000000  1
  Rh  Rh27  1  0.550371  0.996554  0.000000  1
  Rh  Rh28  1  0.009826  0.725787  0.500000  1
  Rh  Rh29  1  0.813779  0.178458  0.000000  1
  Rh  Rh30  1  0.823402  0.637059  0.000000  1
  Rh  Rh31  1  0.364197  0.186769  0.000000  1
  Rh  Rh32  1  0.186662  0.809815  0.000000  1
  Rh  Rh33  1  0.623075  0.812624  0.000000  1
  Rh  Rh34  1  0.189752  0.377614  0.000000  1
  Rh  Rh35  1  0.999782  0.999271  0.000000  1
