# generated using pymatgen
data_TbTm(Be12Cu)2
_symmetry_space_group_name_H-M   'P 1'
_cell_length_a   7.25785083
_cell_length_b   7.30972204
_cell_length_c   7.24374405
_cell_angle_alpha   59.82635245
_cell_angle_beta   59.81355756
_cell_angle_gamma   59.63536151
_symmetry_Int_Tables_number   1
_chemical_formula_structural   TbTm(Be12Cu)2
_chemical_formula_sum   'Tb1 Tm1 Be24 Cu2'
_cell_volume   270.24964308
_cell_formula_units_Z   1
loop_
 _symmetry_equiv_pos_site_id
 _symmetry_equiv_pos_as_xyz
  1  'x, y, z'
loop_
 _atom_site_type_symbol
 _atom_site_label
 _atom_site_symmetry_multiplicity
 _atom_site_fract_x
 _atom_site_fract_y
 _atom_site_fract_z
 _atom_site_occupancy
  Tb  Tb0  1  0.252889  0.247111  0.252889  1
  Tm  Tm1  1  0.747220  0.752780  0.747220  1
  Be  Be2  1  0.500000  0.500000  0.500000  1
  Be  Be3  1  0.999997  0.000003  0.999997  1
  Be  Be4  1  0.565143  0.792779  0.435981  1
  Be  Be5  1  0.435981  0.206096  0.565143  1
  Be  Be6  1  0.290810  0.935910  0.710167  1
  Be  Be7  1  0.710167  0.063112  0.290810  1
  Be  Be8  1  0.931141  0.278821  0.068245  1
  Be  Be9  1  0.068245  0.721793  0.931141  1
  Be  Be10  1  0.207275  0.799432  0.557907  1
  Be  Be11  1  0.792006  0.199431  0.443017  1
  Be  Be12  1  0.443017  0.565545  0.792006  1
  Be  Be13  1  0.557907  0.435387  0.207275  1
  Be  Be14  1  0.711720  0.286661  0.935996  1
  Be  Be15  1  0.289079  0.713909  0.063245  1
  Be  Be16  1  0.063245  0.933767  0.289079  1
  Be  Be17  1  0.935996  0.065623  0.711720  1
  Be  Be18  1  0.565908  0.205881  0.791717  1
  Be  Be19  1  0.434882  0.793136  0.207435  1
  Be  Be20  1  0.791717  0.436494  0.565908  1
  Be  Be21  1  0.207435  0.564546  0.434882  1
  Be  Be22  1  0.936031  0.712590  0.291653  1
  Be  Be23  1  0.063019  0.288164  0.709424  1
  Be  Be24  1  0.291653  0.059727  0.936031  1
  Be  Be25  1  0.709424  0.939391  0.063019  1
  Cu  Cu26  1  0.803037  0.558034  0.195053  1
  Cu  Cu27  1  0.195053  0.443877  0.803037  1
