# generated using pymatgen
data_Rb4LiP4Pt
_symmetry_space_group_name_H-M   'P 1'
_cell_length_a   8.42374390
_cell_length_b   8.42374446
_cell_length_c   5.76833230
_cell_angle_alpha   91.44254480
_cell_angle_beta   88.55745390
_cell_angle_gamma   133.54630300
_symmetry_Int_Tables_number   1
_chemical_formula_structural   Rb4LiP4Pt
_chemical_formula_sum   'Rb4 Li1 P4 Pt1'
_cell_volume   296.56948511
_cell_formula_units_Z   1
loop_
 _symmetry_equiv_pos_site_id
 _symmetry_equiv_pos_as_xyz
  1  'x, y, z'
loop_
 _atom_site_type_symbol
 _atom_site_label
 _atom_site_symmetry_multiplicity
 _atom_site_fract_x
 _atom_site_fract_y
 _atom_site_fract_z
 _atom_site_occupancy
  Rb  Rb0  1  0.783359  0.216641  0.252494  1
  Rb  Rb1  1  0.216641  0.783359  0.747506  1
  Rb  Rb2  1  0.422793  0.577207  0.256502  1
  Rb  Rb3  1  0.577207  0.422793  0.743498  1
  Li  Li4  1  0.000000  0.000000  0.000000  1
  P  P5  1  0.941879  0.726001  0.258075  1
  P  P6  1  0.058121  0.273999  0.741925  1
  P  P7  1  0.273999  0.058121  0.258075  1
  P  P8  1  0.726001  0.941879  0.741925  1
  Pt  Pt9  1  0.000000  0.000000  0.500000  1
