# generated using pymatgen
data_Dy4VOs7
_symmetry_space_group_name_H-M   'P 1'
_cell_length_a   5.23798457
_cell_length_b   5.23798551
_cell_length_c   8.87975200
_cell_angle_alpha   90.00000000
_cell_angle_beta   90.00000000
_cell_angle_gamma   117.23244200
_symmetry_Int_Tables_number   1
_chemical_formula_structural   Dy4VOs7
_chemical_formula_sum   'Dy4 V1 Os7'
_cell_volume   216.62471182
_cell_formula_units_Z   1
loop_
 _symmetry_equiv_pos_site_id
 _symmetry_equiv_pos_as_xyz
  1  'x, y, z'
loop_
 _atom_site_type_symbol
 _atom_site_label
 _atom_site_symmetry_multiplicity
 _atom_site_fract_x
 _atom_site_fract_y
 _atom_site_fract_z
 _atom_site_occupancy
  Dy  Dy0  1  0.330645  0.669355  0.436895  1
  Dy  Dy1  1  0.668671  0.331329  0.565998  1
  Dy  Dy2  1  0.668671  0.331329  0.934002  1
  Dy  Dy3  1  0.330645  0.669355  0.063105  1
  V  V4  1  0.834713  0.165287  0.250000  1
  Os  Os5  1  0.996082  0.003918  0.498670  1
  Os  Os6  1  0.996082  0.003918  0.001330  1
  Os  Os7  1  0.824328  0.651199  0.250000  1
  Os  Os8  1  0.348801  0.175672  0.250000  1
  Os  Os9  1  0.170729  0.829271  0.750000  1
  Os  Os10  1  0.174641  0.344006  0.750000  1
  Os  Os11  1  0.655994  0.825359  0.750000  1
