# generated using pymatgen
data_SrCo2(Sn3Ru)2
_symmetry_space_group_name_H-M   'P 1'
_cell_length_a   6.89437532
_cell_length_b   6.89437463
_cell_length_c   6.84994585
_cell_angle_alpha   119.76469426
_cell_angle_beta   119.76469987
_cell_angle_gamma   90.77466326
_symmetry_Int_Tables_number   1
_chemical_formula_structural   SrCo2(Sn3Ru)2
_chemical_formula_sum   'Sr1 Co2 Sn6 Ru2'
_cell_volume   230.28742779
_cell_formula_units_Z   1
loop_
 _symmetry_equiv_pos_site_id
 _symmetry_equiv_pos_as_xyz
  1  'x, y, z'
loop_
 _atom_site_type_symbol
 _atom_site_label
 _atom_site_symmetry_multiplicity
 _atom_site_fract_x
 _atom_site_fract_y
 _atom_site_fract_z
 _atom_site_occupancy
  Sr  Sr0  1  0.008632  0.008632  0.000000  1
  Co  Co1  1  0.412321  0.744877  0.000000  1
  Co  Co2  1  0.744877  0.412321  0.000000  1
  Sn  Sn3  1  0.479586  0.105684  0.000000  1
  Sn  Sn4  1  0.105684  0.479586  0.000000  1
  Sn  Sn5  1  0.878767  0.878767  0.348523  1
  Sn  Sn6  1  0.530244  0.530244  0.651477  1
  Sn  Sn7  1  0.999687  0.499687  0.500000  1
  Sn  Sn8  1  0.499687  0.999687  0.500000  1
  Ru  Ru9  1  0.259883  0.259883  0.679250  1
  Ru  Ru10  1  0.580633  0.580633  0.320750  1
