# generated using pymatgen
data_Ce4Y7Sc5(CdIr)4
_symmetry_space_group_name_H-M   'P 1'
_cell_length_a   9.47340248
_cell_length_b   9.47340237
_cell_length_c   9.45769800
_cell_angle_alpha   60.05482221
_cell_angle_beta   60.05482263
_cell_angle_gamma   60.42767599
_symmetry_Int_Tables_number   1
_chemical_formula_structural   Ce4Y7Sc5(CdIr)4
_chemical_formula_sum   'Ce4 Y7 Sc5 Cd4 Ir4'
_cell_volume   602.59872758
_cell_formula_units_Z   1
loop_
 _symmetry_equiv_pos_site_id
 _symmetry_equiv_pos_as_xyz
  1  'x, y, z'
loop_
 _atom_site_type_symbol
 _atom_site_label
 _atom_site_symmetry_multiplicity
 _atom_site_fract_x
 _atom_site_fract_y
 _atom_site_fract_z
 _atom_site_occupancy
  Ce  Ce0  1  0.350856  0.350856  0.351880  1
  Ce  Ce1  1  0.350856  0.350856  0.946409  1
  Ce  Ce2  1  0.347997  0.947832  0.352085  1
  Ce  Ce3  1  0.947832  0.347997  0.352085  1
  Y  Y4  1  0.817586  0.817586  0.182414  1
  Y  Y5  1  0.942126  0.557268  0.562405  1
  Y  Y6  1  0.557268  0.942126  0.938201  1
  Y  Y7  1  0.557268  0.942126  0.562405  1
  Y  Y8  1  0.942126  0.557268  0.938201  1
  Y  Y9  1  0.560074  0.560074  0.939926  1
  Y  Y10  1  0.939357  0.939357  0.560643  1
  Sc  Sc11  1  0.815532  0.186394  0.182965  1
  Sc  Sc12  1  0.186394  0.815532  0.815108  1
  Sc  Sc13  1  0.186394  0.815532  0.182965  1
  Sc  Sc14  1  0.815532  0.186394  0.815108  1
  Sc  Sc15  1  0.181809  0.181809  0.818191  1
  Cd  Cd16  1  0.581490  0.581490  0.582084  1
  Cd  Cd17  1  0.581490  0.581490  0.254937  1
  Cd  Cd18  1  0.581675  0.254773  0.581776  1
  Cd  Cd19  1  0.254773  0.581675  0.581776  1
  Ir  Ir20  1  0.138629  0.138629  0.141177  1
  Ir  Ir21  1  0.138629  0.138629  0.581566  1
  Ir  Ir22  1  0.149597  0.574709  0.137847  1
  Ir  Ir23  1  0.574709  0.149597  0.137847  1
