# generated using pymatgen
data_VCl30
_symmetry_space_group_name_H-M   'P 1'
_cell_length_a   13.22759587
_cell_length_b   13.22759606
_cell_length_c   15.63331760
_cell_angle_alpha   83.86707542
_cell_angle_beta   83.86707468
_cell_angle_gamma   125.13712482
_symmetry_Int_Tables_number   1
_chemical_formula_structural   VCl30
_chemical_formula_sum   'V1 Cl30'
_cell_volume   2175.92528265
_cell_formula_units_Z   1
loop_
 _symmetry_equiv_pos_site_id
 _symmetry_equiv_pos_as_xyz
  1  'x, y, z'
loop_
 _atom_site_type_symbol
 _atom_site_label
 _atom_site_symmetry_multiplicity
 _atom_site_fract_x
 _atom_site_fract_y
 _atom_site_fract_z
 _atom_site_occupancy
  V  V0  1  0.000000  0.000000  0.000000  1
  Cl  Cl1  1  0.943773  0.943773  0.155757  1
  Cl  Cl2  1  0.056227  0.056227  0.844243  1
  Cl  Cl3  1  0.060507  0.194478  0.005428  1
  Cl  Cl4  1  0.939493  0.805522  0.994572  1
  Cl  Cl5  1  0.194478  0.060507  0.005428  1
  Cl  Cl6  1  0.805522  0.939493  0.994572  1
  Cl  Cl7  1  0.202619  0.741371  0.065664  1
  Cl  Cl8  1  0.797381  0.258629  0.934336  1
  Cl  Cl9  1  0.699933  0.078670  0.261409  1
  Cl  Cl10  1  0.258629  0.797381  0.934336  1
  Cl  Cl11  1  0.300067  0.921330  0.738591  1
  Cl  Cl12  1  0.741371  0.202619  0.065664  1
  Cl  Cl13  1  0.981835  0.195613  0.778777  1
  Cl  Cl14  1  0.921330  0.300067  0.738591  1
  Cl  Cl15  1  0.018165  0.804387  0.221223  1
  Cl  Cl16  1  0.078670  0.699933  0.261409  1
  Cl  Cl17  1  0.804387  0.018165  0.221223  1
  Cl  Cl18  1  0.195613  0.981835  0.778777  1
  Cl  Cl19  1  0.464090  0.548898  0.259821  1
  Cl  Cl20  1  0.535910  0.451102  0.740179  1
  Cl  Cl21  1  0.508001  0.204658  0.449854  1
  Cl  Cl22  1  0.451102  0.535910  0.740179  1
  Cl  Cl23  1  0.491999  0.795342  0.550146  1
  Cl  Cl24  1  0.548898  0.464090  0.259821  1
  Cl  Cl25  1  0.239211  0.427179  0.545776  1
  Cl  Cl26  1  0.795342  0.491999  0.550146  1
  Cl  Cl27  1  0.760789  0.572821  0.454224  1
  Cl  Cl28  1  0.204658  0.508001  0.449854  1
  Cl  Cl29  1  0.572821  0.760789  0.454224  1
  Cl  Cl30  1  0.427179  0.239211  0.545776  1
