# generated using pymatgen
data_Hf2SiPRh2
_symmetry_space_group_name_H-M   'P 1'
_cell_length_a   3.84840500
_cell_length_b   6.49804414
_cell_length_c   7.46840488
_cell_angle_alpha   89.45314564
_cell_angle_beta   90.00000000
_cell_angle_gamma   90.00000000
_symmetry_Int_Tables_number   1
_chemical_formula_structural   Hf2SiPRh2
_chemical_formula_sum   'Hf4 Si2 P2 Rh4'
_cell_volume   186.75468242
_cell_formula_units_Z   2
loop_
 _symmetry_equiv_pos_site_id
 _symmetry_equiv_pos_as_xyz
  1  'x, y, z'
loop_
 _atom_site_type_symbol
 _atom_site_label
 _atom_site_symmetry_multiplicity
 _atom_site_fract_x
 _atom_site_fract_y
 _atom_site_fract_z
 _atom_site_occupancy
  Hf  Hf0  1  0.250000  0.524408  0.178491  1
  Hf  Hf1  1  0.750000  0.475592  0.821509  1
  Hf  Hf2  1  0.250000  0.027747  0.315954  1
  Hf  Hf3  1  0.750000  0.972253  0.684046  1
  Si  Si4  1  0.250000  0.269146  0.619468  1
  Si  Si5  1  0.750000  0.730854  0.380532  1
  P  P6  1  0.250000  0.761917  0.876982  1
  P  P7  1  0.750000  0.238083  0.123018  1
  Rh  Rh8  1  0.750000  0.849737  0.064657  1
  Rh  Rh9  1  0.250000  0.150263  0.935343  1
  Rh  Rh10  1  0.750000  0.350793  0.436158  1
  Rh  Rh11  1  0.250000  0.649207  0.563842  1
