# generated using pymatgen
data_Mn2V4O13
_symmetry_space_group_name_H-M   'P 1'
_cell_length_a   9.55155100
_cell_length_b   8.48419567
_cell_length_c   14.90447900
_cell_angle_alpha   76.88776897
_cell_angle_beta   90.00000000
_cell_angle_gamma   90.00000000
_symmetry_Int_Tables_number   1
_chemical_formula_structural   Mn2V4O13
_chemical_formula_sum   'Mn8 V16 O52'
_cell_volume   1176.32690590
_cell_formula_units_Z   4
loop_
 _symmetry_equiv_pos_site_id
 _symmetry_equiv_pos_as_xyz
  1  'x, y, z'
loop_
 _atom_site_type_symbol
 _atom_site_label
 _atom_site_symmetry_multiplicity
 _atom_site_fract_x
 _atom_site_fract_y
 _atom_site_fract_z
 _atom_site_occupancy
  Mn  Mn0  1  0.999697  0.809509  0.508934  1
  Mn  Mn1  1  0.499697  0.190491  0.991066  1
  Mn  Mn2  1  0.000303  0.190491  0.491066  1
  Mn  Mn3  1  0.500303  0.809509  0.008934  1
  Mn  Mn4  1  0.497714  0.695812  0.486059  1
  Mn  Mn5  1  0.997714  0.304188  0.013941  1
  Mn  Mn6  1  0.502286  0.304188  0.513941  1
  Mn  Mn7  1  0.002286  0.695812  0.986059  1
  V  V8  1  0.711618  0.470651  0.094797  1
  V  V9  1  0.211618  0.529349  0.405203  1
  V  V10  1  0.288382  0.529349  0.905203  1
  V  V11  1  0.788382  0.470651  0.594797  1
  V  V12  1  0.722484  0.256835  0.329513  1
  V  V13  1  0.222484  0.743165  0.170487  1
  V  V14  1  0.277516  0.743165  0.670487  1
  V  V15  1  0.777516  0.256835  0.829513  1
  V  V16  1  0.737494  0.858812  0.327701  1
  V  V17  1  0.237494  0.141188  0.172299  1
  V  V18  1  0.262506  0.141188  0.672299  1
  V  V19  1  0.762506  0.858812  0.827701  1
  V  V20  1  0.287222  0.050360  0.405484  1
  V  V21  1  0.787222  0.949640  0.094516  1
  V  V22  1  0.712778  0.949640  0.594516  1
  V  V23  1  0.212778  0.050360  0.905484  1
  O  O24  1  0.114914  0.645881  0.456694  1
  O  O25  1  0.614914  0.354119  0.043306  1
  O  O26  1  0.885086  0.354119  0.543306  1
  O  O27  1  0.385086  0.645881  0.956694  1
  O  O28  1  0.114239  0.762218  0.626212  1
  O  O29  1  0.614239  0.237782  0.873788  1
  O  O30  1  0.885761  0.237782  0.373788  1
  O  O31  1  0.385761  0.762218  0.126212  1
  O  O32  1  0.860797  0.663711  0.572318  1
  O  O33  1  0.360797  0.336289  0.927682  1
  O  O34  1  0.139203  0.336289  0.427682  1
  O  O35  1  0.639203  0.663711  0.072318  1
  O  O36  1  0.882981  0.003953  0.544726  1
  O  O37  1  0.382981  0.996047  0.955274  1
  O  O38  1  0.117019  0.996047  0.455274  1
  O  O39  1  0.617019  0.003953  0.044726  1
  O  O40  1  0.885844  0.841304  0.390048  1
  O  O41  1  0.385844  0.158696  0.109952  1
  O  O42  1  0.114156  0.158696  0.609952  1
  O  O43  1  0.614156  0.841304  0.890048  1
  O  O44  1  0.615170  0.718301  0.377162  1
  O  O45  1  0.115170  0.281699  0.122838  1
  O  O46  1  0.384830  0.281699  0.622838  1
  O  O47  1  0.884830  0.718301  0.877162  1
  O  O48  1  0.615477  0.475881  0.551447  1
  O  O49  1  0.115477  0.524119  0.948553  1
  O  O50  1  0.384523  0.524119  0.448553  1
  O  O51  1  0.884523  0.475881  0.051447  1
  O  O52  1  0.388623  0.677577  0.597818  1
  O  O53  1  0.888623  0.322423  0.902182  1
  O  O54  1  0.611377  0.322423  0.402182  1
  O  O55  1  0.111377  0.677577  0.097818  1
  O  O56  1  0.363316  0.874262  0.404934  1
  O  O57  1  0.863316  0.125738  0.095066  1
  O  O58  1  0.636684  0.125738  0.595066  1
  O  O59  1  0.136684  0.874262  0.904934  1
  O  O60  1  0.774828  0.836510  0.213451  1
  O  O61  1  0.274828  0.163490  0.286549  1
  O  O62  1  0.225172  0.163490  0.786549  1
  O  O63  1  0.725172  0.836510  0.713451  1
  O  O64  1  0.666950  0.058392  0.319629  1
  O  O65  1  0.166950  0.941608  0.180371  1
  O  O66  1  0.333050  0.941608  0.680371  1
  O  O67  1  0.833050  0.058392  0.819629  1
  O  O68  1  0.717925  0.389019  0.217982  1
  O  O69  1  0.217925  0.610981  0.282018  1
  O  O70  1  0.282075  0.610981  0.782018  1
  O  O71  1  0.782075  0.389019  0.717982  1
  O  O72  1  0.386331  0.148196  0.472411  1
  O  O73  1  0.886331  0.851804  0.027589  1
  O  O74  1  0.613669  0.851804  0.527589  1
  O  O75  1  0.113669  0.148196  0.972411  1
