# generated using pymatgen
data_LiTm6Zn22Si
_symmetry_space_group_name_H-M   'P 1'
_cell_length_a   9.01064967
_cell_length_b   9.01064887
_cell_length_c   9.01065000
_cell_angle_alpha   60.00000318
_cell_angle_beta   60.00000613
_cell_angle_gamma   59.99999902
_symmetry_Int_Tables_number   1
_chemical_formula_structural   LiTm6Zn22Si
_chemical_formula_sum   'Li1 Tm6 Zn22 Si1'
_cell_volume   517.31291526
_cell_formula_units_Z   1
loop_
 _symmetry_equiv_pos_site_id
 _symmetry_equiv_pos_as_xyz
  1  'x, y, z'
loop_
 _atom_site_type_symbol
 _atom_site_label
 _atom_site_symmetry_multiplicity
 _atom_site_fract_x
 _atom_site_fract_y
 _atom_site_fract_z
 _atom_site_occupancy
  Li  Li0  1  0.000000  0.000000  0.000000  1
  Tm  Tm1  1  0.715866  0.284134  0.284134  1
  Tm  Tm2  1  0.284134  0.715866  0.715866  1
  Tm  Tm3  1  0.284134  0.715866  0.284134  1
  Tm  Tm4  1  0.715866  0.284134  0.715866  1
  Tm  Tm5  1  0.284134  0.284134  0.715866  1
  Tm  Tm6  1  0.715866  0.715866  0.284134  1
  Zn  Zn7  1  0.123321  0.123321  0.123321  1
  Zn  Zn8  1  0.876679  0.876679  0.876679  1
  Zn  Zn9  1  0.123321  0.123321  0.630038  1
  Zn  Zn10  1  0.123321  0.630038  0.123321  1
  Zn  Zn11  1  0.876679  0.876679  0.369962  1
  Zn  Zn12  1  0.876679  0.369962  0.876679  1
  Zn  Zn13  1  0.630038  0.123321  0.123321  1
  Zn  Zn14  1  0.369962  0.876679  0.876679  1
  Zn  Zn15  1  0.500000  0.000000  0.000000  1
  Zn  Zn16  1  0.000000  0.500000  0.500000  1
  Zn  Zn17  1  0.000000  0.500000  0.000000  1
  Zn  Zn18  1  0.500000  0.000000  0.500000  1
  Zn  Zn19  1  0.000000  0.000000  0.500000  1
  Zn  Zn20  1  0.500000  0.500000  0.000000  1
  Zn  Zn21  1  0.333970  0.333970  0.333970  1
  Zn  Zn22  1  0.666030  0.666030  0.666030  1
  Zn  Zn23  1  0.333970  0.333970  0.998090  1
  Zn  Zn24  1  0.333970  0.998090  0.333970  1
  Zn  Zn25  1  0.666030  0.666030  0.001910  1
  Zn  Zn26  1  0.666030  0.001910  0.666030  1
  Zn  Zn27  1  0.998090  0.333970  0.333970  1
  Zn  Zn28  1  0.001910  0.666030  0.666030  1
  Si  Si29  1  0.500000  0.500000  0.500000  1
