# generated using pymatgen
data_Re2Ir3OsRu2
_symmetry_space_group_name_H-M   'P 1'
_cell_length_a   5.51287978
_cell_length_b   5.52897532
_cell_length_c   4.37319800
_cell_angle_alpha   90.00000000
_cell_angle_beta   90.00000000
_cell_angle_gamma   120.18578486
_symmetry_Int_Tables_number   1
_chemical_formula_structural   Re2Ir3OsRu2
_chemical_formula_sum   'Re2 Ir3 Os1 Ru2'
_cell_volume   115.22238459
_cell_formula_units_Z   1
loop_
 _symmetry_equiv_pos_site_id
 _symmetry_equiv_pos_as_xyz
  1  'x, y, z'
loop_
 _atom_site_type_symbol
 _atom_site_label
 _atom_site_symmetry_multiplicity
 _atom_site_fract_x
 _atom_site_fract_y
 _atom_site_fract_z
 _atom_site_occupancy
  Re  Re0  1  0.330526  0.666096  0.750000  1
  Re  Re1  1  0.669712  0.333705  0.250000  1
  Ir  Ir2  1  0.666164  0.833200  0.250000  1
  Ir  Ir3  1  0.833082  0.665785  0.750000  1
  Ir  Ir4  1  0.334164  0.166394  0.750000  1
  Os  Os5  1  0.166555  0.334956  0.250000  1
  Ru  Ru6  1  0.167158  0.832073  0.250000  1
  Ru  Ru7  1  0.832639  0.167791  0.750000  1
