# generated using pymatgen
data_Y4BCl6
_symmetry_space_group_name_H-M   'P 1'
_cell_length_a   3.87828400
_cell_length_b   12.66821200
_cell_length_c   13.13721800
_cell_angle_alpha   90.00000000
_cell_angle_beta   90.00000000
_cell_angle_gamma   90.00000000
_symmetry_Int_Tables_number   1
_chemical_formula_structural   Y4BCl6
_chemical_formula_sum   'Y8 B2 Cl12'
_cell_volume   645.44365792
_cell_formula_units_Z   2
loop_
 _symmetry_equiv_pos_site_id
 _symmetry_equiv_pos_as_xyz
  1  'x, y, z'
loop_
 _atom_site_type_symbol
 _atom_site_label
 _atom_site_symmetry_multiplicity
 _atom_site_fract_x
 _atom_site_fract_y
 _atom_site_fract_z
 _atom_site_occupancy
  Y  Y0  1  0.000000  0.106583  0.084460  1
  Y  Y1  1  0.000000  0.893417  0.915540  1
  Y  Y2  1  0.000000  0.606583  0.415540  1
  Y  Y3  1  0.000000  0.393417  0.584460  1
  Y  Y4  1  0.500000  0.126661  0.851012  1
  Y  Y5  1  0.500000  0.873339  0.148988  1
  Y  Y6  1  0.500000  0.626661  0.648988  1
  Y  Y7  1  0.500000  0.373339  0.351012  1
  B  B8  1  0.500000  0.000000  0.000000  1
  B  B9  1  0.500000  0.500000  0.500000  1
  Cl  Cl10  1  0.500000  0.267777  0.682398  1
  Cl  Cl11  1  0.500000  0.732223  0.317602  1
  Cl  Cl12  1  0.500000  0.767777  0.817602  1
  Cl  Cl13  1  0.500000  0.232223  0.182398  1
  Cl  Cl14  1  0.000000  0.256726  0.929770  1
  Cl  Cl15  1  0.000000  0.743274  0.070230  1
  Cl  Cl16  1  0.000000  0.478613  0.243358  1
  Cl  Cl17  1  0.000000  0.521387  0.756642  1
  Cl  Cl18  1  0.000000  0.978613  0.256642  1
  Cl  Cl19  1  0.000000  0.021387  0.743358  1
  Cl  Cl20  1  0.000000  0.243274  0.429770  1
  Cl  Cl21  1  0.000000  0.756726  0.570230  1
