# generated using pymatgen
data_LaNd2Bi(Pt2O7)2
_symmetry_space_group_name_H-M   'P 1'
_cell_length_a   7.45471138
_cell_length_b   7.43842347
_cell_length_c   7.45471227
_cell_angle_alpha   60.22540336
_cell_angle_beta   60.25195272
_cell_angle_gamma   60.22539567
_symmetry_Int_Tables_number   1
_chemical_formula_structural   LaNd2Bi(Pt2O7)2
_chemical_formula_sum   'La1 Nd2 Bi1 Pt4 O14'
_cell_volume   293.84926008
_cell_formula_units_Z   1
loop_
 _symmetry_equiv_pos_site_id
 _symmetry_equiv_pos_as_xyz
  1  'x, y, z'
loop_
 _atom_site_type_symbol
 _atom_site_label
 _atom_site_symmetry_multiplicity
 _atom_site_fract_x
 _atom_site_fract_y
 _atom_site_fract_z
 _atom_site_occupancy
  La  La0  1  0.125000  0.625000  0.125000  1
  Nd  Nd1  1  0.125000  0.125000  0.625000  1
  Nd  Nd2  1  0.625000  0.125000  0.125000  1
  Bi  Bi3  1  0.125000  0.125000  0.125000  1
  Pt  Pt4  1  0.625000  0.625000  0.125000  1
  Pt  Pt5  1  0.625000  0.125000  0.625000  1
  Pt  Pt6  1  0.125000  0.625000  0.625000  1
  Pt  Pt7  1  0.625000  0.625000  0.625000  1
  O  O8  1  0.251531  0.247656  0.251531  1
  O  O9  1  0.998469  0.002344  0.998469  1
  O  O10  1  0.539425  0.960399  0.539425  1
  O  O11  1  0.292516  0.708570  0.292516  1
  O  O12  1  0.543279  0.537521  0.959087  1
  O  O13  1  0.959087  0.537521  0.543279  1
  O  O14  1  0.543008  0.958891  0.958285  1
  O  O15  1  0.958285  0.958891  0.543008  1
  O  O16  1  0.957484  0.541430  0.957484  1
  O  O17  1  0.706992  0.291109  0.291715  1
  O  O18  1  0.290913  0.712479  0.706721  1
  O  O19  1  0.710575  0.289601  0.710575  1
  O  O20  1  0.291715  0.291109  0.706992  1
  O  O21  1  0.706721  0.712479  0.290913  1
