# generated using pymatgen
data_Dy6Tm4AlSb5
_symmetry_space_group_name_H-M   'P 1'
_cell_length_a   6.32999400
_cell_length_b   8.89119295
_cell_length_c   8.89369664
_cell_angle_alpha   119.99069498
_cell_angle_beta   90.00057437
_cell_angle_gamma   89.99884281
_symmetry_Int_Tables_number   1
_chemical_formula_structural   Dy6Tm4AlSb5
_chemical_formula_sum   'Dy6 Tm4 Al1 Sb5'
_cell_volume   433.52783854
_cell_formula_units_Z   1
loop_
 _symmetry_equiv_pos_site_id
 _symmetry_equiv_pos_as_xyz
  1  'x, y, z'
loop_
 _atom_site_type_symbol
 _atom_site_label
 _atom_site_symmetry_multiplicity
 _atom_site_fract_x
 _atom_site_fract_y
 _atom_site_fract_z
 _atom_site_occupancy
  Dy  Dy0  1  0.749997  0.248185  0.000000  1
  Dy  Dy1  1  0.750001  0.753703  0.762738  1
  Dy  Dy2  1  0.750001  0.990965  0.237262  1
  Dy  Dy3  1  0.250000  0.757107  0.000000  1
  Dy  Dy4  1  0.249999  0.245399  0.244822  1
  Dy  Dy5  1  0.249999  0.000577  0.755178  1
  Tm  Tm6  1  0.501394  0.338432  0.673314  1
  Tm  Tm7  1  0.501394  0.665119  0.326686  1
  Tm  Tm8  1  0.998606  0.665120  0.326684  1
  Tm  Tm9  1  0.998606  0.338437  0.673316  1
  Al  Al10  1  0.749998  0.603328  0.000000  1
  Sb  Sb11  1  0.750001  0.389494  0.391524  1
  Sb  Sb12  1  0.750001  0.997970  0.608476  1
  Sb  Sb13  1  0.249999  0.393566  0.000000  1
  Sb  Sb14  1  0.250002  0.609784  0.606967  1
  Sb  Sb15  1  0.250002  0.002816  0.393033  1
