# generated using pymatgen
data_Y19Er(Al3Ru)2
_symmetry_space_group_name_H-M   'P 1'
_cell_length_a   9.58254300
_cell_length_b   9.58239244
_cell_length_c   9.65505100
_cell_angle_alpha   90.00026538
_cell_angle_beta   89.99991660
_cell_angle_gamma   120.00374630
_symmetry_Int_Tables_number   1
_chemical_formula_structural   Y19Er(Al3Ru)2
_chemical_formula_sum   'Y19 Er1 Al6 Ru2'
_cell_volume   767.75656354
_cell_formula_units_Z   1
loop_
 _symmetry_equiv_pos_site_id
 _symmetry_equiv_pos_as_xyz
  1  'x, y, z'
loop_
 _atom_site_type_symbol
 _atom_site_label
 _atom_site_symmetry_multiplicity
 _atom_site_fract_x
 _atom_site_fract_y
 _atom_site_fract_z
 _atom_site_occupancy
  Y  Y0  1  0.000000  0.000000  0.000000  1
  Y  Y1  1  0.206742  0.793261  0.440038  1
  Y  Y2  1  0.206741  0.413485  0.440032  1
  Y  Y3  1  0.586512  0.793259  0.440032  1
  Y  Y4  1  0.793258  0.206739  0.559962  1
  Y  Y5  1  0.793259  0.586515  0.559968  1
  Y  Y6  1  0.413488  0.206741  0.559968  1
  Y  Y7  1  0.792908  0.207089  0.939892  1
  Y  Y8  1  0.792909  0.585819  0.939884  1
  Y  Y9  1  0.414184  0.207092  0.939886  1
  Y  Y10  1  0.207092  0.792911  0.060108  1
  Y  Y11  1  0.207091  0.414181  0.060116  1
  Y  Y12  1  0.585816  0.792908  0.060114  1
  Y  Y13  1  0.540101  0.459897  0.250043  1
  Y  Y14  1  0.540108  0.080212  0.250045  1
  Y  Y15  1  0.919788  0.459893  0.250043  1
  Y  Y16  1  0.459899  0.540103  0.749957  1
  Y  Y17  1  0.459892  0.919788  0.749955  1
  Y  Y18  1  0.080212  0.540107  0.749957  1
  Er  Er19  1  0.000000  0.000000  0.500000  1
  Al  Al20  1  0.888409  0.111591  0.250509  1
  Al  Al21  1  0.888410  0.776823  0.250509  1
  Al  Al22  1  0.223177  0.111590  0.250510  1
  Al  Al23  1  0.111591  0.888409  0.749491  1
  Al  Al24  1  0.111590  0.223177  0.749491  1
  Al  Al25  1  0.776823  0.888410  0.749490  1
  Ru  Ru26  1  0.333336  0.666670  0.250117  1
  Ru  Ru27  1  0.666664  0.333330  0.749883  1
