# generated using pymatgen
data_Dy8Lu11Si16Hg
_symmetry_space_group_name_H-M   'P 1'
_cell_length_a   7.22064581
_cell_length_b   7.58562378
_cell_length_c   14.36909200
_cell_angle_alpha   90.00000000
_cell_angle_beta   90.00000000
_cell_angle_gamma   89.98627682
_symmetry_Int_Tables_number   1
_chemical_formula_structural   Dy8Lu11Si16Hg
_chemical_formula_sum   'Dy8 Lu11 Si16 Hg1'
_cell_volume   787.03972711
_cell_formula_units_Z   1
loop_
 _symmetry_equiv_pos_site_id
 _symmetry_equiv_pos_as_xyz
  1  'x, y, z'
loop_
 _atom_site_type_symbol
 _atom_site_label
 _atom_site_symmetry_multiplicity
 _atom_site_fract_x
 _atom_site_fract_y
 _atom_site_fract_z
 _atom_site_occupancy
  Dy  Dy0  1  0.012689  0.177296  0.096625  1
  Dy  Dy1  1  0.988284  0.813068  0.900940  1
  Dy  Dy2  1  0.481196  0.674154  0.901109  1
  Dy  Dy3  1  0.988284  0.813068  0.599060  1
  Dy  Dy4  1  0.513079  0.322973  0.096861  1
  Dy  Dy5  1  0.012689  0.177296  0.403375  1
  Dy  Dy6  1  0.513079  0.322973  0.403139  1
  Dy  Dy7  1  0.481196  0.674154  0.598891  1
  Lu  Lu8  1  0.837274  0.491862  0.250000  1
  Lu  Lu9  1  0.340312  0.010139  0.250000  1
  Lu  Lu10  1  0.655957  0.992575  0.750000  1
  Lu  Lu11  1  0.323098  0.185853  0.625967  1
  Lu  Lu12  1  0.673193  0.823496  0.376804  1
  Lu  Lu13  1  0.170934  0.682672  0.374651  1
  Lu  Lu14  1  0.673193  0.823496  0.123196  1
  Lu  Lu15  1  0.840558  0.325198  0.626149  1
  Lu  Lu16  1  0.323098  0.185853  0.874033  1
  Lu  Lu17  1  0.840558  0.325198  0.873851  1
  Lu  Lu18  1  0.170934  0.682672  0.125349  1
  Si  Si19  1  0.026660  0.082220  0.750000  1
  Si  Si20  1  0.968284  0.895207  0.250000  1
  Si  Si21  1  0.467020  0.612430  0.250000  1
  Si  Si22  1  0.542132  0.389279  0.750000  1
  Si  Si23  1  0.284794  0.878586  0.750000  1
  Si  Si24  1  0.717670  0.130905  0.250000  1
  Si  Si25  1  0.216264  0.371418  0.250000  1
  Si  Si26  1  0.766244  0.631660  0.750000  1
  Si  Si27  1  0.162711  0.461707  0.528210  1
  Si  Si28  1  0.842889  0.532741  0.461969  1
  Si  Si29  1  0.344746  0.969811  0.463672  1
  Si  Si30  1  0.842889  0.532741  0.038031  1
  Si  Si31  1  0.656485  0.030849  0.540951  1
  Si  Si32  1  0.162711  0.461707  0.971790  1
  Si  Si33  1  0.656485  0.030849  0.959049  1
  Si  Si34  1  0.344746  0.969811  0.036328  1
  Hg  Hg35  1  0.157664  0.514084  0.750000  1
