# generated using pymatgen
data_Hf4InPRh10
_symmetry_space_group_name_H-M   'P 1'
_cell_length_a   4.06213500
_cell_length_b   5.60898593
_cell_length_c   11.00194005
_cell_angle_alpha   89.08832636
_cell_angle_beta   90.00000000
_cell_angle_gamma   90.00000000
_symmetry_Int_Tables_number   1
_chemical_formula_structural   Hf4InPRh10
_chemical_formula_sum   'Hf4 In1 P1 Rh10'
_cell_volume   250.64150914
_cell_formula_units_Z   1
loop_
 _symmetry_equiv_pos_site_id
 _symmetry_equiv_pos_as_xyz
  1  'x, y, z'
loop_
 _atom_site_type_symbol
 _atom_site_label
 _atom_site_symmetry_multiplicity
 _atom_site_fract_x
 _atom_site_fract_y
 _atom_site_fract_z
 _atom_site_occupancy
  Hf  Hf0  1  0.500000  0.184137  0.642258  1
  Hf  Hf1  1  0.500000  0.815863  0.357742  1
  Hf  Hf2  1  0.500000  0.675255  0.860369  1
  Hf  Hf3  1  0.500000  0.324745  0.139631  1
  In  In4  1  0.000000  0.500000  0.500000  1
  P  P5  1  0.000000  0.000000  0.000000  1
  Rh  Rh6  1  0.500000  0.178864  0.900683  1
  Rh  Rh7  1  0.500000  0.821136  0.099317  1
  Rh  Rh8  1  0.500000  0.709824  0.619633  1
  Rh  Rh9  1  0.500000  0.290176  0.380367  1
  Rh  Rh10  1  0.000000  0.433576  0.751857  1
  Rh  Rh11  1  0.000000  0.566424  0.248143  1
  Rh  Rh12  1  0.000000  0.000000  0.500000  1
  Rh  Rh13  1  0.000000  0.500000  0.000000  1
  Rh  Rh14  1  0.000000  0.060918  0.235886  1
  Rh  Rh15  1  0.000000  0.939082  0.764114  1
