# generated using pymatgen
data_Dy12ZnInFe4
_symmetry_space_group_name_H-M   'P 1'
_cell_length_a   8.36283913
_cell_length_b   8.36283887
_cell_length_c   8.36283876
_cell_angle_alpha   111.33927136
_cell_angle_beta   110.29781522
_cell_angle_gamma   106.81068521
_symmetry_Int_Tables_number   1
_chemical_formula_structural   Dy12ZnInFe4
_chemical_formula_sum   'Dy12 Zn1 In1 Fe4'
_cell_volume   449.47219234
_cell_formula_units_Z   1
loop_
 _symmetry_equiv_pos_site_id
 _symmetry_equiv_pos_as_xyz
  1  'x, y, z'
loop_
 _atom_site_type_symbol
 _atom_site_label
 _atom_site_symmetry_multiplicity
 _atom_site_fract_x
 _atom_site_fract_y
 _atom_site_fract_z
 _atom_site_occupancy
  Dy  Dy0  1  0.187471  0.291106  0.478577  1
  Dy  Dy1  1  0.812529  0.708894  0.521423  1
  Dy  Dy2  1  0.187471  0.708894  0.896366  1
  Dy  Dy3  1  0.812529  0.291106  0.103634  1
  Dy  Dy4  1  0.313810  0.614796  0.300987  1
  Dy  Dy5  1  0.686190  0.385204  0.699013  1
  Dy  Dy6  1  0.313810  0.012823  0.699013  1
  Dy  Dy7  1  0.686190  0.987177  0.300987  1
  Dy  Dy8  1  0.430011  0.220976  0.209036  1
  Dy  Dy9  1  0.569989  0.779024  0.790964  1
  Dy  Dy10  1  0.011940  0.220976  0.790964  1
  Dy  Dy11  1  0.988060  0.779024  0.209036  1
  Zn  Zn12  1  0.000000  0.000000  0.000000  1
  In  In13  1  0.500000  0.500000  0.000000  1
  Fe  Fe14  1  0.106899  0.606899  0.500000  1
  Fe  Fe15  1  0.893101  0.393101  0.500000  1
  Fe  Fe16  1  0.386483  0.000000  0.386483  1
  Fe  Fe17  1  0.613517  0.000000  0.613517  1
