# generated using pymatgen
data_LaDyZn2(SiH)2
_symmetry_space_group_name_H-M   'P 1'
_cell_length_a   4.17753500
_cell_length_b   4.17754263
_cell_length_c   8.55107500
_cell_angle_alpha   90.00001372
_cell_angle_beta   89.99995885
_cell_angle_gamma   60.00016337
_symmetry_Int_Tables_number   1
_chemical_formula_structural   LaDyZn2(SiH)2
_chemical_formula_sum   'La1 Dy1 Zn2 Si2 H2'
_cell_volume   129.23883958
_cell_formula_units_Z   1
loop_
 _symmetry_equiv_pos_site_id
 _symmetry_equiv_pos_as_xyz
  1  'x, y, z'
loop_
 _atom_site_type_symbol
 _atom_site_label
 _atom_site_symmetry_multiplicity
 _atom_site_fract_x
 _atom_site_fract_y
 _atom_site_fract_z
 _atom_site_occupancy
  La  La0  1  0.000000  0.000000  0.000000  1
  Dy  Dy1  1  0.000000  0.000000  0.500000  1
  Zn  Zn2  1  0.333332  0.333334  0.742353  1
  Zn  Zn3  1  0.666668  0.666666  0.257647  1
  Si  Si4  1  0.333335  0.333333  0.292960  1
  Si  Si5  1  0.666665  0.666667  0.707040  1
  H  H6  1  0.333334  0.333333  0.953831  1
  H  H7  1  0.666666  0.666667  0.046169  1
