# generated using pymatgen
data_Y(S8Br)3
_symmetry_space_group_name_H-M   'P 1'
_cell_length_a   15.67133370
_cell_length_b   15.67133285
_cell_length_c   15.67133415
_cell_angle_alpha   119.26429988
_cell_angle_beta   119.26430019
_cell_angle_gamma   119.26429349
_symmetry_Int_Tables_number   1
_chemical_formula_structural   Y(S8Br)3
_chemical_formula_sum   'Y1 S24 Br3'
_cell_volume   856.11686758
_cell_formula_units_Z   1
loop_
 _symmetry_equiv_pos_site_id
 _symmetry_equiv_pos_as_xyz
  1  'x, y, z'
loop_
 _atom_site_type_symbol
 _atom_site_label
 _atom_site_symmetry_multiplicity
 _atom_site_fract_x
 _atom_site_fract_y
 _atom_site_fract_z
 _atom_site_occupancy
  Y  Y0  1  0.433169  0.433169  0.433169  1
  S  S1  1  0.006451  0.591401  0.591401  1
  S  S2  1  0.591401  0.591401  0.006451  1
  S  S3  1  0.591401  0.006451  0.591401  1
  S  S4  1  0.265889  0.864807  0.740132  1
  S  S5  1  0.864807  0.740132  0.265889  1
  S  S6  1  0.740132  0.265889  0.864807  1
  S  S7  1  0.864807  0.265889  0.740132  1
  S  S8  1  0.265889  0.740132  0.864807  1
  S  S9  1  0.740132  0.864807  0.265889  1
  S  S10  1  0.085237  0.603292  0.427463  1
  S  S11  1  0.603292  0.427463  0.085237  1
  S  S12  1  0.427463  0.085237  0.603292  1
  S  S13  1  0.603292  0.085237  0.427463  1
  S  S14  1  0.085237  0.427463  0.603292  1
  S  S15  1  0.427463  0.603292  0.085237  1
  S  S16  1  0.382683  0.765210  0.639355  1
  S  S17  1  0.765210  0.639355  0.382683  1
  S  S18  1  0.639355  0.382683  0.765210  1
  S  S19  1  0.765210  0.382683  0.639355  1
  S  S20  1  0.382683  0.639355  0.765210  1
  S  S21  1  0.639355  0.765210  0.382683  1
  S  S22  1  0.173676  0.449865  0.449865  1
  S  S23  1  0.449865  0.449865  0.173676  1
  S  S24  1  0.449865  0.173676  0.449865  1
  Br  Br25  1  0.023135  0.890001  0.890001  1
  Br  Br26  1  0.890001  0.890001  0.023135  1
  Br  Br27  1  0.890001  0.023135  0.890001  1
