# generated using pymatgen
data_Lu11ThTc3Ir
_symmetry_space_group_name_H-M   'P 1'
_cell_length_a   6.18539642
_cell_length_b   7.33729936
_cell_length_c   8.96159300
_cell_angle_alpha   90.00000000
_cell_angle_beta   90.00000000
_cell_angle_gamma   90.27279206
_symmetry_Int_Tables_number   1
_chemical_formula_structural   Lu11ThTc3Ir
_chemical_formula_sum   'Lu11 Th1 Tc3 Ir1'
_cell_volume   406.70926996
_cell_formula_units_Z   1
loop_
 _symmetry_equiv_pos_site_id
 _symmetry_equiv_pos_as_xyz
  1  'x, y, z'
loop_
 _atom_site_type_symbol
 _atom_site_label
 _atom_site_symmetry_multiplicity
 _atom_site_fract_x
 _atom_site_fract_y
 _atom_site_fract_z
 _atom_site_occupancy
  Lu  Lu0  1  0.339377  0.677434  0.062624  1
  Lu  Lu1  1  0.162904  0.174895  0.439067  1
  Lu  Lu2  1  0.661584  0.317601  0.565230  1
  Lu  Lu3  1  0.834970  0.831132  0.935433  1
  Lu  Lu4  1  0.661584  0.317601  0.934770  1
  Lu  Lu5  1  0.834970  0.831132  0.564567  1
  Lu  Lu6  1  0.339377  0.677434  0.437376  1
  Lu  Lu7  1  0.162904  0.174895  0.060933  1
  Lu  Lu8  1  0.621795  0.038991  0.250000  1
  Lu  Lu9  1  0.128377  0.462932  0.750000  1
  Lu  Lu10  1  0.370884  0.958115  0.750000  1
  Th  Th11  1  0.867687  0.546845  0.250000  1
  Tc  Tc12  1  0.027068  0.869647  0.250000  1
  Tc  Tc13  1  0.480529  0.383823  0.250000  1
  Tc  Tc14  1  0.966256  0.119013  0.750000  1
  Ir  Ir15  1  0.539735  0.618510  0.750000  1
