# generated using pymatgen
data_Tb10Lu2Tc3Ni
_symmetry_space_group_name_H-M   'P 1'
_cell_length_a   6.27427502
_cell_length_b   7.33223132
_cell_length_c   9.22472249
_cell_angle_alpha   89.93793176
_cell_angle_beta   89.57017114
_cell_angle_gamma   90.17632955
_symmetry_Int_Tables_number   1
_chemical_formula_structural   Tb10Lu2Tc3Ni
_chemical_formula_sum   'Tb10 Lu2 Tc3 Ni1'
_cell_volume   424.36394295
_cell_formula_units_Z   1
loop_
 _symmetry_equiv_pos_site_id
 _symmetry_equiv_pos_as_xyz
  1  'x, y, z'
loop_
 _atom_site_type_symbol
 _atom_site_label
 _atom_site_symmetry_multiplicity
 _atom_site_fract_x
 _atom_site_fract_y
 _atom_site_fract_z
 _atom_site_occupancy
  Tb  Tb0  1  0.666566  0.322737  0.562519  1
  Tb  Tb1  1  0.834332  0.823198  0.938338  1
  Tb  Tb2  1  0.666568  0.323990  0.938124  1
  Tb  Tb3  1  0.835336  0.824088  0.561506  1
  Tb  Tb4  1  0.327470  0.678163  0.430891  1
  Tb  Tb5  1  0.164294  0.178128  0.064514  1
  Tb  Tb6  1  0.872411  0.540738  0.249808  1
  Tb  Tb7  1  0.622191  0.039885  0.250565  1
  Tb  Tb8  1  0.142282  0.457353  0.750247  1
  Tb  Tb9  1  0.370612  0.956883  0.749617  1
  Lu  Lu10  1  0.329209  0.676762  0.068096  1
  Lu  Lu11  1  0.163080  0.176210  0.436774  1
  Tc  Tc12  1  0.040338  0.886570  0.248255  1
  Tc  Tc13  1  0.456377  0.387908  0.250924  1
  Tc  Tc14  1  0.961309  0.112599  0.746208  1
  Ni  Ni15  1  0.547624  0.614786  0.753613  1
