# generated using pymatgen
data_TbYbMnRh3
_symmetry_space_group_name_H-M   'P 1'
_cell_length_a   5.19081059
_cell_length_b   5.52867949
_cell_length_c   5.52867900
_cell_angle_alpha   59.99999697
_cell_angle_beta   57.82243087
_cell_angle_gamma   57.82242538
_symmetry_Int_Tables_number   1
_chemical_formula_structural   TbYbMnRh3
_chemical_formula_sum   'Tb1 Yb1 Mn1 Rh3'
_cell_volume   108.35657994
_cell_formula_units_Z   1
loop_
 _symmetry_equiv_pos_site_id
 _symmetry_equiv_pos_as_xyz
  1  'x, y, z'
loop_
 _atom_site_type_symbol
 _atom_site_label
 _atom_site_symmetry_multiplicity
 _atom_site_fract_x
 _atom_site_fract_y
 _atom_site_fract_z
 _atom_site_occupancy
  Tb  Tb0  1  0.505896  0.498035  0.498035  1
  Yb  Yb1  1  0.742341  0.752553  0.752553  1
  Mn  Mn2  1  0.624112  0.125296  0.125296  1
  Rh  Rh3  1  0.125884  0.124130  0.625856  1
  Rh  Rh4  1  0.125884  0.625856  0.124130  1
  Rh  Rh5  1  0.125884  0.124130  0.124130  1
