# generated using pymatgen
data_Th6Mg7Cd16P
_symmetry_space_group_name_H-M   'P 1'
_cell_length_a   10.02123107
_cell_length_b   10.01702731
_cell_length_c   10.01713098
_cell_angle_alpha   60.02719964
_cell_angle_beta   59.98271445
_cell_angle_gamma   59.99113651
_symmetry_Int_Tables_number   1
_chemical_formula_structural   Th6Mg7Cd16P
_chemical_formula_sum   'Th6 Mg7 Cd16 P1'
_cell_volume   711.03599878
_cell_formula_units_Z   1
loop_
 _symmetry_equiv_pos_site_id
 _symmetry_equiv_pos_as_xyz
  1  'x, y, z'
loop_
 _atom_site_type_symbol
 _atom_site_label
 _atom_site_symmetry_multiplicity
 _atom_site_fract_x
 _atom_site_fract_y
 _atom_site_fract_z
 _atom_site_occupancy
  Th  Th0  1  0.795663  0.795684  0.204352  1
  Th  Th1  1  0.204317  0.795668  0.204383  1
  Th  Th2  1  0.795650  0.204327  0.204397  1
  Th  Th3  1  0.204337  0.204316  0.795648  1
  Th  Th4  1  0.795683  0.204332  0.795617  1
  Th  Th5  1  0.204350  0.795673  0.795603  1
  Mg  Mg6  1  0.000000  0.000000  0.500000  1
  Mg  Mg7  1  0.500000  0.000000  0.500000  1
  Mg  Mg8  1  0.000000  0.500000  0.500000  1
  Mg  Mg9  1  0.500000  0.500000  0.000000  1
  Mg  Mg10  1  0.000000  0.500000  0.000000  1
  Mg  Mg11  1  0.500000  0.000000  0.000000  1
  Mg  Mg12  1  0.500000  0.500000  0.500000  1
  Cd  Cd13  1  0.833612  0.833608  0.499170  1
  Cd  Cd14  1  0.833608  0.499210  0.833581  1
  Cd  Cd15  1  0.499212  0.833608  0.833583  1
  Cd  Cd16  1  0.833601  0.833611  0.833591  1
  Cd  Cd17  1  0.166388  0.166392  0.500830  1
  Cd  Cd18  1  0.166392  0.500790  0.166419  1
  Cd  Cd19  1  0.500788  0.166392  0.166417  1
  Cd  Cd20  1  0.166399  0.166389  0.166409  1
  Cd  Cd21  1  0.620746  0.620748  0.137781  1
  Cd  Cd22  1  0.620743  0.137743  0.620757  1
  Cd  Cd23  1  0.137751  0.620739  0.620753  1
  Cd  Cd24  1  0.620754  0.620750  0.620735  1
  Cd  Cd25  1  0.379254  0.379252  0.862219  1
  Cd  Cd26  1  0.379257  0.862257  0.379243  1
  Cd  Cd27  1  0.862249  0.379261  0.379247  1
  Cd  Cd28  1  0.379246  0.379250  0.379265  1
  P  P29  1  0.000000  0.000000  0.000000  1
