# generated using pymatgen
data_Fe11Ni(Mo6C)2
_symmetry_space_group_name_H-M   'P 1'
_cell_length_a   7.72375458
_cell_length_b   7.72375511
_cell_length_c   7.72375583
_cell_angle_alpha   59.86006999
_cell_angle_beta   59.86007061
_cell_angle_gamma   59.86007262
_symmetry_Int_Tables_number   1
_chemical_formula_structural   Fe11Ni(Mo6C)2
_chemical_formula_sum   'Fe11 Ni1 Mo12 C2'
_cell_volume   324.78000297
_cell_formula_units_Z   1
loop_
 _symmetry_equiv_pos_site_id
 _symmetry_equiv_pos_as_xyz
  1  'x, y, z'
loop_
 _atom_site_type_symbol
 _atom_site_label
 _atom_site_symmetry_multiplicity
 _atom_site_fract_x
 _atom_site_fract_y
 _atom_site_fract_z
 _atom_site_occupancy
  Fe  Fe0  1  0.421810  0.421810  0.735755  1
  Fe  Fe1  1  0.421810  0.735755  0.421810  1
  Fe  Fe2  1  0.735755  0.421810  0.421810  1
  Fe  Fe3  1  0.421917  0.421917  0.421917  1
  Fe  Fe4  1  0.830574  0.830574  0.510548  1
  Fe  Fe5  1  0.830574  0.510548  0.830574  1
  Fe  Fe6  1  0.510548  0.830574  0.830574  1
  Fe  Fe7  1  0.622810  0.622810  0.125344  1
  Fe  Fe8  1  0.622810  0.125344  0.622810  1
  Fe  Fe9  1  0.125344  0.622810  0.622810  1
  Fe  Fe10  1  0.625478  0.625478  0.625478  1
  Ni  Ni11  1  0.833612  0.833612  0.833612  1
  Mo  Mo12  1  0.052527  0.052527  0.448314  1
  Mo  Mo13  1  0.446411  0.053795  0.446411  1
  Mo  Mo14  1  0.053795  0.446411  0.446411  1
  Mo  Mo15  1  0.446411  0.446411  0.053795  1
  Mo  Mo16  1  0.052527  0.448314  0.052527  1
  Mo  Mo17  1  0.448314  0.052527  0.052527  1
  Mo  Mo18  1  0.195844  0.195844  0.804188  1
  Mo  Mo19  1  0.802097  0.198516  0.802097  1
  Mo  Mo20  1  0.198516  0.802097  0.802097  1
  Mo  Mo21  1  0.802097  0.802097  0.198516  1
  Mo  Mo22  1  0.195844  0.804188  0.195844  1
  Mo  Mo23  1  0.804188  0.195844  0.195844  1
  C  C24  1  0.249568  0.249568  0.249568  1
  C  C25  1  0.998823  0.998823  0.998823  1
