# generated using pymatgen
data_Al7GaPt16
_symmetry_space_group_name_H-M   'P 1'
_cell_length_a   16.54331000
_cell_length_b   3.95694600
_cell_length_c   5.50801400
_cell_angle_alpha   90.00000000
_cell_angle_beta   90.00000000
_cell_angle_gamma   90.00000000
_symmetry_Int_Tables_number   1
_chemical_formula_structural   Al7GaPt16
_chemical_formula_sum   'Al7 Ga1 Pt16'
_cell_volume   360.56001815
_cell_formula_units_Z   1
loop_
 _symmetry_equiv_pos_site_id
 _symmetry_equiv_pos_as_xyz
  1  'x, y, z'
loop_
 _atom_site_type_symbol
 _atom_site_label
 _atom_site_symmetry_multiplicity
 _atom_site_fract_x
 _atom_site_fract_y
 _atom_site_fract_z
 _atom_site_occupancy
  Al  Al0  1  0.091208  0.000000  0.308192  1
  Al  Al1  1  0.408792  0.000000  0.308192  1
  Al  Al2  1  0.591568  0.000000  0.692522  1
  Al  Al3  1  0.908431  0.000000  0.692522  1
  Al  Al4  1  0.750000  0.000000  0.207460  1
  Al  Al5  1  0.999444  0.499999  0.000836  1
  Al  Al6  1  0.500556  0.499999  0.000836  1
  Ga  Ga7  1  0.250000  0.000000  0.791905  1
  Pt  Pt8  1  0.250000  0.000000  0.266340  1
  Pt  Pt9  1  0.750000  0.000000  0.731541  1
  Pt  Pt10  1  0.166986  0.499999  0.552879  1
  Pt  Pt11  1  0.333014  0.499999  0.552879  1
  Pt  Pt12  1  0.667922  0.499999  0.445930  1
  Pt  Pt13  1  0.832078  0.499999  0.445930  1
  Pt  Pt14  1  0.154181  0.499999  0.051307  1
  Pt  Pt15  1  0.345820  0.499999  0.051307  1
  Pt  Pt16  1  0.656260  0.499999  0.949888  1
  Pt  Pt17  1  0.843741  0.499999  0.949888  1
  Pt  Pt18  1  0.999399  0.499999  0.499970  1
  Pt  Pt19  1  0.500601  0.499999  0.499970  1
  Pt  Pt20  1  0.067713  0.000000  0.794725  1
  Pt  Pt21  1  0.432287  0.000000  0.794725  1
  Pt  Pt22  1  0.569501  0.000000  0.205127  1
  Pt  Pt23  1  0.930498  0.000000  0.205127  1
