# generated using pymatgen
data_Ba7Au3
_symmetry_space_group_name_H-M   'P 1'
_cell_length_a   11.78680000
_cell_length_b   11.78680117
_cell_length_c   7.64857900
_cell_angle_alpha   90.00000000
_cell_angle_beta   90.00000000
_cell_angle_gamma   120.00000234
_symmetry_Int_Tables_number   1
_chemical_formula_structural   Ba7Au3
_chemical_formula_sum   'Ba14 Au6'
_cell_volume   920.24454153
_cell_formula_units_Z   2
loop_
 _symmetry_equiv_pos_site_id
 _symmetry_equiv_pos_as_xyz
  1  'x, y, z'
loop_
 _atom_site_type_symbol
 _atom_site_label
 _atom_site_symmetry_multiplicity
 _atom_site_fract_x
 _atom_site_fract_y
 _atom_site_fract_z
 _atom_site_occupancy
  Ba  Ba0  1  0.666667  0.333333  0.538317  1
  Ba  Ba1  1  0.333333  0.666667  0.038317  1
  Ba  Ba2  1  0.876756  0.753513  0.745114  1
  Ba  Ba3  1  0.246487  0.123244  0.745114  1
  Ba  Ba4  1  0.876756  0.123244  0.745114  1
  Ba  Ba5  1  0.123244  0.246487  0.245114  1
  Ba  Ba6  1  0.753513  0.876756  0.245114  1
  Ba  Ba7  1  0.123244  0.876756  0.245114  1
  Ba  Ba8  1  0.456436  0.912871  0.570713  1
  Ba  Ba9  1  0.087129  0.543564  0.570713  1
  Ba  Ba10  1  0.456436  0.543564  0.570713  1
  Ba  Ba11  1  0.543564  0.087129  0.070713  1
  Ba  Ba12  1  0.912871  0.456436  0.070713  1
  Ba  Ba13  1  0.543564  0.456436  0.070713  1
  Au  Au14  1  0.189438  0.378876  0.833375  1
  Au  Au15  1  0.621124  0.810562  0.833375  1
  Au  Au16  1  0.189438  0.810562  0.833375  1
  Au  Au17  1  0.810562  0.621124  0.333375  1
  Au  Au18  1  0.378876  0.189438  0.333375  1
  Au  Au19  1  0.810562  0.189438  0.333375  1
