# generated using pymatgen
data_U3Al(PO4)6
_symmetry_space_group_name_H-M   'P 1'
_cell_length_a   9.08204605
_cell_length_b   9.08243364
_cell_length_c   9.39518500
_cell_angle_alpha   90.08911274
_cell_angle_beta   118.79524108
_cell_angle_gamma   119.99585765
_symmetry_Int_Tables_number   1
_chemical_formula_structural   U3Al(PO4)6
_chemical_formula_sum   'U3 Al1 P6 O24'
_cell_volume   557.39139494
_cell_formula_units_Z   1
loop_
 _symmetry_equiv_pos_site_id
 _symmetry_equiv_pos_as_xyz
  1  'x, y, z'
loop_
 _atom_site_type_symbol
 _atom_site_label
 _atom_site_symmetry_multiplicity
 _atom_site_fract_x
 _atom_site_fract_y
 _atom_site_fract_z
 _atom_site_occupancy
  U  U0  1  0.783074  0.640702  0.424518  1
  U  U1  1  0.208225  0.354910  0.562793  1
  U  U2  1  0.785784  0.142256  0.928063  1
  Al  Al3  1  0.207477  0.854607  0.061630  1
  P  P4  1  0.021490  0.965509  0.241604  1
  P  P5  1  0.275896  0.556427  0.243033  1
  P  P6  1  0.275172  0.744842  0.763199  1
  P  P7  1  0.685925  0.219102  0.243753  1
  P  P8  1  0.733903  0.489632  0.764085  1
  P  P9  1  0.021622  0.031861  0.765481  1
  O  O10  1  0.269070  0.714030  0.203175  1
  O  O11  1  0.875180  0.994411  0.085376  1
  O  O12  1  0.873347  0.866260  0.598823  1
  O  O13  1  0.882064  0.805084  0.279636  1
  O  O14  1  0.150823  0.933919  0.207540  1
  O  O15  1  0.475570  0.579253  0.282380  1
  O  O16  1  0.092712  0.723126  0.592817  1
  O  O17  1  0.921981  0.652911  0.916484  1
  O  O18  1  0.265511  0.774239  0.915503  1
  O  O19  1  0.474548  0.903211  0.784013  1
  O  O20  1  0.730052  0.500640  0.595707  1
  O  O21  1  0.698839  0.395278  0.276935  1
  O  O22  1  0.263951  0.569496  0.728019  1
  O  O23  1  0.261612  0.520031  0.401721  1
  O  O24  1  0.490212  0.054682  0.207122  1
  O  O25  1  0.711526  0.209175  0.091036  1
  O  O26  1  0.091839  0.377330  0.090200  1
  O  O27  1  0.882720  0.246424  0.404485  1
  O  O28  1  0.532066  0.464272  0.723038  1
  O  O29  1  0.883258  0.073642  0.783931  1
  O  O30  1  0.158427  0.192791  0.725359  1
  O  O31  1  0.153467  0.138806  0.398670  1
  O  O32  1  0.147814  0.998829  0.921098  1
  O  O33  1  0.714842  0.312307  0.788776  1
