# generated using pymatgen
data_Tb2Y6SiPd24
_symmetry_space_group_name_H-M   'P 1'
_cell_length_a   8.34412300
_cell_length_b   8.34412300
_cell_length_c   8.34412300
_cell_angle_alpha   89.99920347
_cell_angle_beta   89.99920347
_cell_angle_gamma   89.99920347
_symmetry_Int_Tables_number   1
_chemical_formula_structural   Tb2Y6SiPd24
_chemical_formula_sum   'Tb2 Y6 Si1 Pd24'
_cell_volume   580.95446252
_cell_formula_units_Z   1
loop_
 _symmetry_equiv_pos_site_id
 _symmetry_equiv_pos_as_xyz
  1  'x, y, z'
loop_
 _atom_site_type_symbol
 _atom_site_label
 _atom_site_symmetry_multiplicity
 _atom_site_fract_x
 _atom_site_fract_y
 _atom_site_fract_z
 _atom_site_occupancy
  Tb  Tb0  1  0.253441  0.253441  0.253441  1
  Tb  Tb1  1  0.746559  0.746559  0.746559  1
  Y  Y2  1  0.746590  0.746590  0.253406  1
  Y  Y3  1  0.746590  0.253406  0.746590  1
  Y  Y4  1  0.253410  0.253410  0.746594  1
  Y  Y5  1  0.253410  0.746594  0.253410  1
  Y  Y6  1  0.253406  0.746590  0.746590  1
  Y  Y7  1  0.746594  0.253410  0.253410  1
  Si  Si8  1  0.000000  0.000000  0.000000  1
  Pd  Pd9  1  0.257757  0.499979  0.000014  1
  Pd  Pd10  1  0.742243  0.500021  0.999986  1
  Pd  Pd11  1  0.000014  0.257757  0.499979  1
  Pd  Pd12  1  0.499979  0.257757  0.000014  1
  Pd  Pd13  1  0.999986  0.742243  0.500021  1
  Pd  Pd14  1  0.500021  0.742243  0.999986  1
  Pd  Pd15  1  0.499979  0.000014  0.257757  1
  Pd  Pd16  1  0.257757  0.000014  0.499979  1
  Pd  Pd17  1  0.500021  0.999986  0.742243  1
  Pd  Pd18  1  0.742243  0.999986  0.500021  1
  Pd  Pd19  1  0.000014  0.499979  0.257757  1
  Pd  Pd20  1  0.999986  0.500021  0.742243  1
  Pd  Pd21  1  0.252994  0.499978  0.499978  1
  Pd  Pd22  1  0.747006  0.500022  0.500022  1
  Pd  Pd23  1  0.499978  0.252994  0.499978  1
  Pd  Pd24  1  0.500022  0.747006  0.500022  1
  Pd  Pd25  1  0.499978  0.499978  0.252994  1
  Pd  Pd26  1  0.500022  0.500022  0.747006  1
  Pd  Pd27  1  0.280922  0.999999  0.999999  1
  Pd  Pd28  1  0.719078  0.000001  0.000001  1
  Pd  Pd29  1  0.999999  0.280922  0.999999  1
  Pd  Pd30  1  0.000001  0.719078  0.000001  1
  Pd  Pd31  1  0.999999  0.999999  0.280922  1
  Pd  Pd32  1  0.000001  0.000001  0.719078  1
