# generated using pymatgen
data_La8InPd23Au
_symmetry_space_group_name_H-M   'P 1'
_cell_length_a   8.62696400
_cell_length_b   8.68286700
_cell_length_c   8.68399800
_cell_angle_alpha   90.00000000
_cell_angle_beta   90.00000000
_cell_angle_gamma   90.00000000
_symmetry_Int_Tables_number   1
_chemical_formula_structural   La8InPd23Au
_chemical_formula_sum   'La8 In1 Pd23 Au1'
_cell_volume   650.49033661
_cell_formula_units_Z   1
loop_
 _symmetry_equiv_pos_site_id
 _symmetry_equiv_pos_as_xyz
  1  'x, y, z'
loop_
 _atom_site_type_symbol
 _atom_site_label
 _atom_site_symmetry_multiplicity
 _atom_site_fract_x
 _atom_site_fract_y
 _atom_site_fract_z
 _atom_site_occupancy
  La  La0  1  0.250890  0.246463  0.256385  1
  La  La1  1  0.748381  0.748199  0.748654  1
  La  La2  1  0.748381  0.748199  0.251346  1
  La  La3  1  0.748381  0.251801  0.748654  1
  La  La4  1  0.250890  0.246463  0.743615  1
  La  La5  1  0.250890  0.753537  0.256385  1
  La  La6  1  0.250890  0.753537  0.743615  1
  La  La7  1  0.748381  0.251801  0.251346  1
  In  In8  1  0.000197  0.000000  0.000000  1
  Pd  Pd9  1  0.732994  0.500000  0.000000  1
  Pd  Pd10  1  0.998828  0.266818  0.500000  1
  Pd  Pd11  1  0.499124  0.265707  0.000000  1
  Pd  Pd12  1  0.998828  0.733182  0.500000  1
  Pd  Pd13  1  0.499124  0.734293  0.000000  1
  Pd  Pd14  1  0.500786  0.000000  0.266905  1
  Pd  Pd15  1  0.267170  0.000000  0.500000  1
  Pd  Pd16  1  0.500786  0.000000  0.733095  1
  Pd  Pd17  1  0.732281  0.000000  0.500000  1
  Pd  Pd18  1  0.000998  0.500000  0.267518  1
  Pd  Pd19  1  0.000998  0.500000  0.732482  1
  Pd  Pd20  1  0.254608  0.500000  0.500000  1
  Pd  Pd21  1  0.745681  0.500000  0.500000  1
  Pd  Pd22  1  0.500934  0.254935  0.500000  1
  Pd  Pd23  1  0.500934  0.745065  0.500000  1
  Pd  Pd24  1  0.498814  0.500000  0.256535  1
  Pd  Pd25  1  0.498814  0.500000  0.743465  1
  Pd  Pd26  1  0.314945  0.000000  0.000000  1
  Pd  Pd27  1  0.684842  0.000000  0.000000  1
  Pd  Pd28  1  0.001549  0.313478  0.000000  1
  Pd  Pd29  1  0.001549  0.686522  0.000000  1
  Pd  Pd30  1  0.998915  0.000000  0.314278  1
  Pd  Pd31  1  0.998915  0.000000  0.685722  1
  Au  Au32  1  0.270299  0.500000  0.000000  1
