# generated using pymatgen
data_Tb9Ce(ThRu2)2
_symmetry_space_group_name_H-M   'P 1'
_cell_length_a   6.36552087
_cell_length_b   7.22079691
_cell_length_c   9.54088100
_cell_angle_alpha   90.00000000
_cell_angle_beta   90.00000000
_cell_angle_gamma   91.06550066
_symmetry_Int_Tables_number   1
_chemical_formula_structural   Tb9Ce(ThRu2)2
_chemical_formula_sum   'Tb9 Ce1 Th2 Ru4'
_cell_volume   438.46249978
_cell_formula_units_Z   1
loop_
 _symmetry_equiv_pos_site_id
 _symmetry_equiv_pos_as_xyz
  1  'x, y, z'
loop_
 _atom_site_type_symbol
 _atom_site_label
 _atom_site_symmetry_multiplicity
 _atom_site_fract_x
 _atom_site_fract_y
 _atom_site_fract_z
 _atom_site_occupancy
  Tb  Tb0  1  0.333288  0.676303  0.063565  1
  Tb  Tb1  1  0.164148  0.176059  0.434255  1
  Tb  Tb2  1  0.671429  0.325600  0.565472  1
  Tb  Tb3  1  0.830656  0.822778  0.930826  1
  Tb  Tb4  1  0.671429  0.325600  0.934528  1
  Tb  Tb5  1  0.830656  0.822778  0.569174  1
  Tb  Tb6  1  0.333288  0.676303  0.436435  1
  Tb  Tb7  1  0.164148  0.176059  0.065745  1
  Tb  Tb8  1  0.363848  0.961328  0.750000  1
  Ce  Ce9  1  0.152960  0.445050  0.750000  1
  Th  Th10  1  0.845949  0.548703  0.250000  1
  Th  Th11  1  0.650308  0.046016  0.250000  1
  Ru  Ru12  1  0.033823  0.872630  0.250000  1
  Ru  Ru13  1  0.469330  0.369600  0.250000  1
  Ru  Ru14  1  0.971197  0.144079  0.750000  1
  Ru  Ru15  1  0.513542  0.611114  0.750000  1
