# generated using pymatgen
data_Dy2Tm10InCo4Ru
_symmetry_space_group_name_H-M   'P 1'
_cell_length_a   8.18393541
_cell_length_b   8.18393575
_cell_length_c   8.18193954
_cell_angle_alpha   111.16450760
_cell_angle_beta   110.96827173
_cell_angle_gamma   106.33646326
_symmetry_Int_Tables_number   1
_chemical_formula_structural   Dy2Tm10InCo4Ru
_chemical_formula_sum   'Dy2 Tm10 In1 Co4 Ru1'
_cell_volume   420.85131507
_cell_formula_units_Z   1
loop_
 _symmetry_equiv_pos_site_id
 _symmetry_equiv_pos_as_xyz
  1  'x, y, z'
loop_
 _atom_site_type_symbol
 _atom_site_label
 _atom_site_symmetry_multiplicity
 _atom_site_fract_x
 _atom_site_fract_y
 _atom_site_fract_z
 _atom_site_occupancy
  Dy  Dy0  1  0.184559  0.283901  0.468459  1
  Dy  Dy1  1  0.815441  0.716099  0.531541  1
  Tm  Tm2  1  0.184567  0.717033  0.901601  1
  Tm  Tm3  1  0.815433  0.282967  0.098399  1
  Tm  Tm4  1  0.313378  0.620151  0.305410  1
  Tm  Tm5  1  0.686622  0.379849  0.694590  1
  Tm  Tm6  1  0.314741  0.007969  0.694590  1
  Tm  Tm7  1  0.685259  0.992031  0.305410  1
  Tm  Tm8  1  0.412637  0.218441  0.192501  1
  Tm  Tm9  1  0.587363  0.781559  0.807499  1
  Tm  Tm10  1  0.025940  0.220136  0.807499  1
  Tm  Tm11  1  0.974060  0.779864  0.192501  1
  In  In12  1  0.500000  0.500000  0.000000  1
  Co  Co13  1  0.112278  0.612278  0.500000  1
  Co  Co14  1  0.887722  0.387722  0.500000  1
  Co  Co15  1  0.376049  0.999112  0.375161  1
  Co  Co16  1  0.623951  0.000888  0.624839  1
  Ru  Ru17  1  0.000000  0.000000  0.000000  1
