# generated using pymatgen
data_PrAl7ZnCu4
_symmetry_space_group_name_H-M   'P 1'
_cell_length_a   6.75488715
_cell_length_b   6.75488725
_cell_length_c   6.75488801
_cell_angle_alpha   98.20596429
_cell_angle_beta   98.67481457
_cell_angle_gamma   134.94613793
_symmetry_Int_Tables_number   1
_chemical_formula_structural   PrAl7ZnCu4
_chemical_formula_sum   'Pr1 Al7 Zn1 Cu4'
_cell_volume   201.49909074
_cell_formula_units_Z   1
loop_
 _symmetry_equiv_pos_site_id
 _symmetry_equiv_pos_as_xyz
  1  'x, y, z'
loop_
 _atom_site_type_symbol
 _atom_site_label
 _atom_site_symmetry_multiplicity
 _atom_site_fract_x
 _atom_site_fract_y
 _atom_site_fract_z
 _atom_site_occupancy
  Pr  Pr0  1  0.999687  0.000000  0.999687  1
  Al  Al1  1  0.501982  0.279838  0.781820  1
  Al  Al2  1  0.349580  0.000000  0.349580  1
  Al  Al3  1  0.998034  0.650342  0.648375  1
  Al  Al4  1  0.649818  0.000000  0.649818  1
  Al  Al5  1  0.998034  0.349658  0.347692  1
  Al  Al6  1  0.276481  0.500000  0.776481  1
  Al  Al7  1  0.501982  0.720162  0.222144  1
  Zn  Zn8  1  0.721621  0.500000  0.221621  1
  Cu  Cu9  1  0.499917  0.500280  0.501754  1
  Cu  Cu10  1  0.001474  0.001837  0.501754  1
  Cu  Cu11  1  0.001474  0.499720  0.999637  1
  Cu  Cu12  1  0.499917  0.998163  0.999637  1
