# generated using pymatgen
data_Er4Lu8GaNi4Pd
_symmetry_space_group_name_H-M   'P 1'
_cell_length_a   8.15938009
_cell_length_b   8.15938549
_cell_length_c   8.15938900
_cell_angle_alpha   107.01917743
_cell_angle_beta   110.91077225
_cell_angle_gamma   110.51165374
_symmetry_Int_Tables_number   1
_chemical_formula_structural   Er4Lu8GaNi4Pd
_chemical_formula_sum   'Er4 Lu8 Ga1 Ni4 Pd1'
_cell_volume   417.58988684
_cell_formula_units_Z   1
loop_
 _symmetry_equiv_pos_site_id
 _symmetry_equiv_pos_as_xyz
  1  'x, y, z'
loop_
 _atom_site_type_symbol
 _atom_site_label
 _atom_site_symmetry_multiplicity
 _atom_site_fract_x
 _atom_site_fract_y
 _atom_site_fract_z
 _atom_site_occupancy
  Er  Er0  1  0.606247  0.793702  0.812579  1
  Er  Er1  1  0.981125  0.793703  0.187456  1
  Er  Er2  1  0.018875  0.206297  0.812544  1
  Er  Er3  1  0.393753  0.206298  0.187421  1
  Lu  Lu4  1  0.694114  0.277664  0.971766  1
  Lu  Lu5  1  0.305886  0.722336  0.028234  1
  Lu  Lu6  1  0.694103  0.722336  0.416450  1
  Lu  Lu7  1  0.305897  0.277664  0.583550  1
  Lu  Lu8  1  0.802837  0.123716  0.320878  1
  Lu  Lu9  1  0.802882  0.482017  0.679135  1
  Lu  Lu10  1  0.197163  0.876284  0.679122  1
  Lu  Lu11  1  0.197118  0.517983  0.320865  1
  Ga  Ga12  1  0.500000  0.000000  0.500000  1
  Ni  Ni13  1  0.866749  0.500000  0.366749  1
  Ni  Ni14  1  0.133251  0.500000  0.633251  1
  Ni  Ni15  1  0.000000  0.124504  0.124505  1
  Ni  Ni16  1  0.000000  0.875496  0.875495  1
  Pd  Pd17  1  0.500000  0.500000  0.000000  1
