# generated using pymatgen
data_Lu2Ta2Co10P7
_symmetry_space_group_name_H-M   'P 1'
_cell_length_a   3.64841200
_cell_length_b   9.01697386
_cell_length_c   8.99538900
_cell_angle_alpha   120.49350940
_cell_angle_beta   90.00000000
_cell_angle_gamma   90.00000000
_symmetry_Int_Tables_number   1
_chemical_formula_structural   Lu2Ta2Co10P7
_chemical_formula_sum   'Lu2 Ta2 Co10 P7'
_cell_volume   254.99637092
_cell_formula_units_Z   1
loop_
 _symmetry_equiv_pos_site_id
 _symmetry_equiv_pos_as_xyz
  1  'x, y, z'
loop_
 _atom_site_type_symbol
 _atom_site_label
 _atom_site_symmetry_multiplicity
 _atom_site_fract_x
 _atom_site_fract_y
 _atom_site_fract_z
 _atom_site_occupancy
  Lu  Lu0  1  0.000000  0.662149  0.327977  1
  Lu  Lu1  1  0.500000  0.331458  0.667787  1
  Ta  Ta2  1  0.500000  0.102800  0.221386  1
  Ta  Ta3  1  0.500000  0.776743  0.878121  1
  Co  Co4  1  0.000000  0.367545  0.938876  1
  Co  Co5  1  0.000000  0.064600  0.435199  1
  Co  Co6  1  0.000000  0.567677  0.631313  1
  Co  Co7  1  0.000000  0.879653  0.713567  1
  Co  Co8  1  0.000000  0.282229  0.160170  1
  Co  Co9  1  0.000000  0.836258  0.123164  1
  Co  Co10  1  0.500000  0.955051  0.565530  1
  Co  Co11  1  0.500000  0.441614  0.386456  1
  Co  Co12  1  0.500000  0.608825  0.052486  1
  Co  Co13  1  0.500000  0.128634  0.904533  1
  P  P14  1  0.000000  0.114766  0.702174  1
  P  P15  1  0.000000  0.308210  0.422080  1
  P  P16  1  0.000000  0.577845  0.886487  1
  P  P17  1  0.500000  0.713335  0.580640  1
  P  P18  1  0.500000  0.403187  0.116520  1
  P  P19  1  0.500000  0.873747  0.292898  1
  P  P20  1  0.000000  0.003674  0.992641  1
