# generated using pymatgen
data_CeDy3In2CuRh3
_symmetry_space_group_name_H-M   'P 1'
_cell_length_a   7.64213884
_cell_length_b   7.55430625
_cell_length_c   3.74167900
_cell_angle_alpha   90.00000000
_cell_angle_beta   90.00000000
_cell_angle_gamma   88.54051201
_symmetry_Int_Tables_number   1
_chemical_formula_structural   CeDy3In2CuRh3
_chemical_formula_sum   'Ce1 Dy3 In2 Cu1 Rh3'
_cell_volume   215.94100672
_cell_formula_units_Z   1
loop_
 _symmetry_equiv_pos_site_id
 _symmetry_equiv_pos_as_xyz
  1  'x, y, z'
loop_
 _atom_site_type_symbol
 _atom_site_label
 _atom_site_symmetry_multiplicity
 _atom_site_fract_x
 _atom_site_fract_y
 _atom_site_fract_z
 _atom_site_occupancy
  Ce  Ce0  1  0.811441  0.664100  0.500000  1
  Dy  Dy1  1  0.670208  0.174619  0.500000  1
  Dy  Dy2  1  0.334116  0.841273  0.500000  1
  Dy  Dy3  1  0.169178  0.316637  0.500000  1
  In  In4  1  0.001709  0.001326  0.000000  1
  In  In5  1  0.484253  0.496852  0.000000  1
  Cu  Cu6  1  0.131153  0.624986  0.000000  1
  Rh  Rh7  1  0.870606  0.396595  0.000000  1
  Rh  Rh8  1  0.650983  0.858192  0.000000  1
  Rh  Rh9  1  0.376355  0.125422  0.000000  1
