# generated using pymatgen
data_La4Al3GaPt3Rh
_symmetry_space_group_name_H-M   'P 1'
_cell_length_a   4.28749000
_cell_length_b   7.34300055
_cell_length_c   16.60578247
_cell_angle_alpha   89.18787425
_cell_angle_beta   90.00000000
_cell_angle_gamma   90.00000000
_symmetry_Int_Tables_number   1
_chemical_formula_structural   La4Al3GaPt3Rh
_chemical_formula_sum   'La8 Al6 Ga2 Pt6 Rh2'
_cell_volume   522.74802035
_cell_formula_units_Z   2
loop_
 _symmetry_equiv_pos_site_id
 _symmetry_equiv_pos_as_xyz
  1  'x, y, z'
loop_
 _atom_site_type_symbol
 _atom_site_label
 _atom_site_symmetry_multiplicity
 _atom_site_fract_x
 _atom_site_fract_y
 _atom_site_fract_z
 _atom_site_occupancy
  La  La0  1  0.250000  0.514455  0.775145  1
  La  La1  1  0.750000  0.485545  0.224855  1
  La  La2  1  0.750000  0.975464  0.281492  1
  La  La3  1  0.250000  0.024536  0.718508  1
  La  La4  1  0.250000  0.653792  0.557575  1
  La  La5  1  0.750000  0.346208  0.442425  1
  La  La6  1  0.750000  0.851510  0.058119  1
  La  La7  1  0.250000  0.148490  0.941881  1
  Al  Al8  1  0.750000  0.840534  0.850340  1
  Al  Al9  1  0.250000  0.159466  0.149660  1
  Al  Al10  1  0.250000  0.506136  0.062009  1
  Al  Al11  1  0.750000  0.493864  0.937991  1
  Al  Al12  1  0.750000  0.993948  0.559747  1
  Al  Al13  1  0.250000  0.006052  0.440253  1
  Ga  Ga14  1  0.250000  0.655185  0.353669  1
  Ga  Ga15  1  0.750000  0.344815  0.646331  1
  Pt  Pt16  1  0.250000  0.772393  0.176229  1
  Pt  Pt17  1  0.750000  0.227607  0.823771  1
  Pt  Pt18  1  0.750000  0.737486  0.681551  1
  Pt  Pt19  1  0.250000  0.262514  0.318449  1
  Pt  Pt20  1  0.250000  0.709338  0.928140  1
  Pt  Pt21  1  0.750000  0.290662  0.071860  1
  Rh  Rh22  1  0.750000  0.790728  0.429067  1
  Rh  Rh23  1  0.250000  0.209272  0.570933  1
