# generated using pymatgen
data_NdEr2Si2Ni
_symmetry_space_group_name_H-M   'P 1'
_cell_length_a   4.12803000
_cell_length_b   11.53630200
_cell_length_c   11.34242300
_cell_angle_alpha   90.00000000
_cell_angle_beta   90.00000000
_cell_angle_gamma   90.00000000
_symmetry_Int_Tables_number   1
_chemical_formula_structural   NdEr2Si2Ni
_chemical_formula_sum   'Nd4 Er8 Si8 Ni4'
_cell_volume   540.15114504
_cell_formula_units_Z   4
loop_
 _symmetry_equiv_pos_site_id
 _symmetry_equiv_pos_as_xyz
  1  'x, y, z'
loop_
 _atom_site_type_symbol
 _atom_site_label
 _atom_site_symmetry_multiplicity
 _atom_site_fract_x
 _atom_site_fract_y
 _atom_site_fract_z
 _atom_site_occupancy
  Nd  Nd0  1  0.250000  0.373110  0.055808  1
  Nd  Nd1  1  0.750000  0.626890  0.944192  1
  Nd  Nd2  1  0.750000  0.873110  0.444192  1
  Nd  Nd3  1  0.250000  0.126890  0.555808  1
  Er  Er4  1  0.250000  0.694333  0.218129  1
  Er  Er5  1  0.750000  0.305667  0.781871  1
  Er  Er6  1  0.750000  0.194333  0.281871  1
  Er  Er7  1  0.250000  0.805667  0.718129  1
  Er  Er8  1  0.250000  0.442244  0.383843  1
  Er  Er9  1  0.750000  0.557756  0.616157  1
  Er  Er10  1  0.750000  0.942244  0.116157  1
  Er  Er11  1  0.250000  0.057756  0.883843  1
  Si  Si12  1  0.250000  0.680942  0.476981  1
  Si  Si13  1  0.750000  0.319058  0.523019  1
  Si  Si14  1  0.750000  0.180942  0.023019  1
  Si  Si15  1  0.250000  0.819058  0.976981  1
  Si  Si16  1  0.250000  0.007002  0.298573  1
  Si  Si17  1  0.750000  0.992998  0.701427  1
  Si  Si18  1  0.750000  0.507002  0.201427  1
  Si  Si19  1  0.250000  0.492998  0.798573  1
  Ni  Ni20  1  0.250000  0.130083  0.127616  1
  Ni  Ni21  1  0.750000  0.869917  0.872384  1
  Ni  Ni22  1  0.750000  0.630083  0.372384  1
  Ni  Ni23  1  0.250000  0.369917  0.627616  1
