# generated using pymatgen
data_Er6ZrZn22P
_symmetry_space_group_name_H-M   'P 1'
_cell_length_a   9.05229297
_cell_length_b   9.05247530
_cell_length_c   9.05366209
_cell_angle_alpha   59.98340365
_cell_angle_beta   60.00089636
_cell_angle_gamma   59.99695929
_symmetry_Int_Tables_number   1
_chemical_formula_structural   Er6ZrZn22P
_chemical_formula_sum   'Er6 Zr1 Zn22 P1'
_cell_volume   524.53405983
_cell_formula_units_Z   1
loop_
 _symmetry_equiv_pos_site_id
 _symmetry_equiv_pos_as_xyz
  1  'x, y, z'
loop_
 _atom_site_type_symbol
 _atom_site_label
 _atom_site_symmetry_multiplicity
 _atom_site_fract_x
 _atom_site_fract_y
 _atom_site_fract_z
 _atom_site_occupancy
  Er  Er0  1  0.710725  0.289230  0.289225  1
  Er  Er1  1  0.710805  0.289240  0.710822  1
  Er  Er2  1  0.710799  0.710775  0.289245  1
  Er  Er3  1  0.289275  0.710770  0.710775  1
  Er  Er4  1  0.289195  0.710760  0.289178  1
  Er  Er5  1  0.289201  0.289225  0.710755  1
  Zr  Zr6  1  0.000000  0.000000  0.000000  1
  Zn  Zn7  1  0.621793  0.126084  0.126074  1
  Zn  Zn8  1  0.126063  0.621829  0.126048  1
  Zn  Zn9  1  0.126077  0.126068  0.621800  1
  Zn  Zn10  1  0.126061  0.126083  0.126061  1
  Zn  Zn11  1  0.378207  0.873916  0.873926  1
  Zn  Zn12  1  0.873937  0.378171  0.873952  1
  Zn  Zn13  1  0.873923  0.873932  0.378200  1
  Zn  Zn14  1  0.873939  0.873917  0.873939  1
  Zn  Zn15  1  0.500000  0.000000  0.000000  1
  Zn  Zn16  1  0.500000  0.000000  0.500000  1
  Zn  Zn17  1  0.500000  0.500000  0.000000  1
  Zn  Zn18  1  0.000000  0.500000  0.500000  1
  Zn  Zn19  1  0.000000  0.500000  0.000000  1
  Zn  Zn20  1  0.000000  0.000000  0.500000  1
  Zn  Zn21  1  0.009464  0.330196  0.330187  1
  Zn  Zn22  1  0.330210  0.009492  0.330177  1
  Zn  Zn23  1  0.330210  0.330188  0.009417  1
  Zn  Zn24  1  0.330222  0.330175  0.330231  1
  Zn  Zn25  1  0.990536  0.669804  0.669813  1
  Zn  Zn26  1  0.669790  0.990508  0.669823  1
  Zn  Zn27  1  0.669790  0.669812  0.990583  1
  Zn  Zn28  1  0.669778  0.669825  0.669769  1
  P  P29  1  0.500000  0.500000  0.500000  1
