# generated using pymatgen
data_Hf3Al3ZnFeNi
_symmetry_space_group_name_H-M   'P 1'
_cell_length_a   7.03717700
_cell_length_b   7.03717757
_cell_length_c   3.39604900
_cell_angle_alpha   90.00000000
_cell_angle_beta   90.00000000
_cell_angle_gamma   119.99999262
_symmetry_Int_Tables_number   1
_chemical_formula_structural   Hf3Al3ZnFeNi
_chemical_formula_sum   'Hf3 Al3 Zn1 Fe1 Ni1'
_cell_volume   145.64701766
_cell_formula_units_Z   1
loop_
 _symmetry_equiv_pos_site_id
 _symmetry_equiv_pos_as_xyz
  1  'x, y, z'
loop_
 _atom_site_type_symbol
 _atom_site_label
 _atom_site_symmetry_multiplicity
 _atom_site_fract_x
 _atom_site_fract_y
 _atom_site_fract_z
 _atom_site_occupancy
  Hf  Hf0  1  0.386134  0.413986  0.500000  1
  Hf  Hf1  1  0.586014  0.972148  0.500000  1
  Hf  Hf2  1  0.027852  0.613866  0.500000  1
  Al  Al3  1  0.750863  0.745343  0.000000  1
  Al  Al4  1  0.254657  0.005520  0.000000  1
  Al  Al5  1  0.994480  0.249137  0.000000  1
  Zn  Zn6  1  0.666667  0.333333  0.000000  1
  Fe  Fe7  1  0.333333  0.666667  0.000000  1
  Ni  Ni8  1  0.000000  0.000000  0.500000  1
