# generated using pymatgen
data_Er8ZnSi12AgRh2
_symmetry_space_group_name_H-M   'P 1'
_cell_length_a   8.17359100
_cell_length_b   8.17359086
_cell_length_c   7.84864700
_cell_angle_alpha   90.00000000
_cell_angle_beta   90.00000000
_cell_angle_gamma   120.00000460
_symmetry_Int_Tables_number   1
_chemical_formula_structural   Er8ZnSi12AgRh2
_chemical_formula_sum   'Er8 Zn1 Si12 Ag1 Rh2'
_cell_volume   454.09968997
_cell_formula_units_Z   1
loop_
 _symmetry_equiv_pos_site_id
 _symmetry_equiv_pos_as_xyz
  1  'x, y, z'
loop_
 _atom_site_type_symbol
 _atom_site_label
 _atom_site_symmetry_multiplicity
 _atom_site_fract_x
 _atom_site_fract_y
 _atom_site_fract_z
 _atom_site_occupancy
  Er  Er0  1  0.975411  0.487707  0.256987  1
  Er  Er1  1  0.512293  0.487707  0.256987  1
  Er  Er2  1  0.491147  0.982293  0.743556  1
  Er  Er3  1  0.017707  0.508853  0.743556  1
  Er  Er4  1  0.491147  0.508853  0.743556  1
  Er  Er5  1  0.512293  0.024589  0.256987  1
  Er  Er6  1  0.000000  0.000000  0.749633  1
  Er  Er7  1  0.000000  0.000000  0.249496  1
  Zn  Zn8  1  0.666667  0.333333  0.955922  1
  Si  Si9  1  0.167171  0.832829  0.492003  1
  Si  Si10  1  0.167171  0.334342  0.492003  1
  Si  Si11  1  0.665658  0.832829  0.492003  1
  Si  Si12  1  0.333461  0.166731  0.007243  1
  Si  Si13  1  0.833912  0.667825  0.507742  1
  Si  Si14  1  0.833269  0.166731  0.007243  1
  Si  Si15  1  0.833269  0.666539  0.007243  1
  Si  Si16  1  0.162969  0.325938  0.990916  1
  Si  Si17  1  0.674062  0.837031  0.990916  1
  Si  Si18  1  0.332175  0.166088  0.507742  1
  Si  Si19  1  0.833912  0.166088  0.507742  1
  Si  Si20  1  0.162969  0.837031  0.990916  1
  Ag  Ag21  1  0.333333  0.666667  0.047556  1
  Rh  Rh22  1  0.666667  0.333333  0.530899  1
  Rh  Rh23  1  0.333333  0.666667  0.471152  1
