# generated using pymatgen
data_Sc2FeSi2Rh
_symmetry_space_group_name_H-M   'P 1'
_cell_length_a   4.08498400
_cell_length_b   6.53905800
_cell_length_c   6.93223900
_cell_angle_alpha   90.00000000
_cell_angle_beta   90.00000000
_cell_angle_gamma   90.00000000
_symmetry_Int_Tables_number   1
_chemical_formula_structural   Sc2FeSi2Rh
_chemical_formula_sum   'Sc4 Fe2 Si4 Rh2'
_cell_volume   185.17360287
_cell_formula_units_Z   2
loop_
 _symmetry_equiv_pos_site_id
 _symmetry_equiv_pos_as_xyz
  1  'x, y, z'
loop_
 _atom_site_type_symbol
 _atom_site_label
 _atom_site_symmetry_multiplicity
 _atom_site_fract_x
 _atom_site_fract_y
 _atom_site_fract_z
 _atom_site_occupancy
  Sc  Sc0  1  0.750000  0.508895  0.807223  1
  Sc  Sc1  1  0.250000  0.999250  0.312736  1
  Sc  Sc2  1  0.750000  0.008895  0.692777  1
  Sc  Sc3  1  0.250000  0.499250  0.187264  1
  Fe  Fe4  1  0.250000  0.648750  0.561639  1
  Fe  Fe5  1  0.250000  0.148750  0.938361  1
  Si  Si6  1  0.250000  0.797622  0.872583  1
  Si  Si7  1  0.250000  0.297622  0.627417  1
  Si  Si8  1  0.750000  0.208550  0.095868  1
  Si  Si9  1  0.750000  0.708550  0.404132  1
  Rh  Rh10  1  0.750000  0.836933  0.061852  1
  Rh  Rh11  1  0.750000  0.336933  0.438148  1
