# generated using pymatgen
data_Na7U2AgS10
_symmetry_space_group_name_H-M   'P 1'
_cell_length_a   6.90723569
_cell_length_b   10.36576461
_cell_length_c   6.84826400
_cell_angle_alpha   101.93961768
_cell_angle_beta   100.88042968
_cell_angle_gamma   109.69196973
_symmetry_Int_Tables_number   1
_chemical_formula_structural   Na7U2AgS10
_chemical_formula_sum   'Na7 U2 Ag1 S10'
_cell_volume   433.51935409
_cell_formula_units_Z   1
loop_
 _symmetry_equiv_pos_site_id
 _symmetry_equiv_pos_as_xyz
  1  'x, y, z'
loop_
 _atom_site_type_symbol
 _atom_site_label
 _atom_site_symmetry_multiplicity
 _atom_site_fract_x
 _atom_site_fract_y
 _atom_site_fract_z
 _atom_site_occupancy
  Na  Na0  1  0.996952  0.499052  0.996069  1
  Na  Na1  1  0.408362  0.901096  0.213401  1
  Na  Na2  1  0.597166  0.600730  0.296451  1
  Na  Na3  1  0.807318  0.304882  0.417750  1
  Na  Na4  1  0.005405  0.998798  0.503575  1
  Na  Na5  1  0.191841  0.695981  0.581265  1
  Na  Na6  1  0.400967  0.399323  0.699083  1
  U  U7  1  0.210820  0.205093  0.102383  1
  U  U8  1  0.785502  0.794269  0.897455  1
  Ag  Ag9  1  0.614082  0.105608  0.801413  1
  S  S10  1  0.571015  0.322030  0.039309  1
  S  S11  1  0.832699  0.044979  0.138383  1
  S  S12  1  0.977943  0.751005  0.215614  1
  S  S13  1  0.196385  0.426823  0.325671  1
  S  S14  1  0.390233  0.155215  0.419467  1
  S  S15  1  0.606380  0.857669  0.587390  1
  S  S16  1  0.802115  0.575706  0.667053  1
  S  S17  1  0.014906  0.244879  0.781448  1
  S  S18  1  0.163727  0.951428  0.872721  1
  S  S19  1  0.426181  0.665432  0.944100  1
