# generated using pymatgen
data_Nd4B4SbRh9
_symmetry_space_group_name_H-M   'P 1'
_cell_length_a   5.62034301
_cell_length_b   5.62034404
_cell_length_c   20.90568700
_cell_angle_alpha   90.00000000
_cell_angle_beta   90.00000000
_cell_angle_gamma   120.00376619
_symmetry_Int_Tables_number   1
_chemical_formula_structural   Nd4B4SbRh9
_chemical_formula_sum   'Nd8 B8 Sb2 Rh18'
_cell_volume   571.87921892
_cell_formula_units_Z   2
loop_
 _symmetry_equiv_pos_site_id
 _symmetry_equiv_pos_as_xyz
  1  'x, y, z'
loop_
 _atom_site_type_symbol
 _atom_site_label
 _atom_site_symmetry_multiplicity
 _atom_site_fract_x
 _atom_site_fract_y
 _atom_site_fract_z
 _atom_site_occupancy
  Nd  Nd0  1  0.666667  0.333333  0.526037  1
  Nd  Nd1  1  0.333333  0.666667  0.473963  1
  Nd  Nd2  1  0.333333  0.666667  0.026037  1
  Nd  Nd3  1  0.666667  0.333333  0.973963  1
  Nd  Nd4  1  0.666645  0.333355  0.674604  1
  Nd  Nd5  1  0.333355  0.666645  0.325396  1
  Nd  Nd6  1  0.333355  0.666645  0.174604  1
  Nd  Nd7  1  0.666645  0.333355  0.825396  1
  B  B8  1  0.999982  0.000018  0.675733  1
  B  B9  1  0.000018  0.999982  0.324267  1
  B  B10  1  0.000018  0.999982  0.175733  1
  B  B11  1  0.999982  0.000018  0.824267  1
  B  B12  1  0.666708  0.333292  0.325013  1
  B  B13  1  0.333292  0.666708  0.674987  1
  B  B14  1  0.333292  0.666708  0.825013  1
  B  B15  1  0.666708  0.333292  0.174987  1
  Sb  Sb16  1  0.000000  0.000000  0.500000  1
  Sb  Sb17  1  0.000000  0.000000  0.000000  1
  Rh  Rh18  1  0.167074  0.334227  0.750000  1
  Rh  Rh19  1  0.167084  0.832916  0.750000  1
  Rh  Rh20  1  0.665773  0.832926  0.750000  1
  Rh  Rh21  1  0.832926  0.665773  0.250000  1
  Rh  Rh22  1  0.832916  0.167084  0.250000  1
  Rh  Rh23  1  0.334227  0.167074  0.250000  1
  Rh  Rh24  1  0.166556  0.333225  0.608346  1
  Rh  Rh25  1  0.166557  0.833443  0.608357  1
  Rh  Rh26  1  0.666775  0.833444  0.608346  1
  Rh  Rh27  1  0.833444  0.666775  0.391654  1
  Rh  Rh28  1  0.833443  0.166557  0.391643  1
  Rh  Rh29  1  0.333225  0.166556  0.391654  1
  Rh  Rh30  1  0.833444  0.666775  0.108346  1
  Rh  Rh31  1  0.833443  0.166557  0.108357  1
  Rh  Rh32  1  0.333225  0.166556  0.108346  1
  Rh  Rh33  1  0.166556  0.333225  0.891654  1
  Rh  Rh34  1  0.166557  0.833443  0.891643  1
  Rh  Rh35  1  0.666775  0.833444  0.891654  1
