# generated using pymatgen
data_Y3Ho2Ga2Sb
_symmetry_space_group_name_H-M   'P 1'
_cell_length_a   8.67183900
_cell_length_b   8.69606621
_cell_length_c   6.51555000
_cell_angle_alpha   90.00000000
_cell_angle_beta   90.00000000
_cell_angle_gamma   120.09247165
_symmetry_Int_Tables_number   1
_chemical_formula_structural   Y3Ho2Ga2Sb
_chemical_formula_sum   'Y6 Ho4 Ga4 Sb2'
_cell_volume   425.11881316
_cell_formula_units_Z   2
loop_
 _symmetry_equiv_pos_site_id
 _symmetry_equiv_pos_as_xyz
  1  'x, y, z'
loop_
 _atom_site_type_symbol
 _atom_site_label
 _atom_site_symmetry_multiplicity
 _atom_site_fract_x
 _atom_site_fract_y
 _atom_site_fract_z
 _atom_site_occupancy
  Y  Y0  1  0.987160  0.750545  0.750000  1
  Y  Y1  1  0.987160  0.236616  0.250000  1
  Y  Y2  1  0.764225  0.764404  0.250000  1
  Y  Y3  1  0.764225  0.999821  0.750000  1
  Y  Y4  1  0.237552  0.249712  0.750000  1
  Y  Y5  1  0.237552  0.987840  0.250000  1
  Ho  Ho6  1  0.331945  0.665973  0.500000  1
  Ho  Ho7  1  0.685231  0.342616  0.000000  1
  Ho  Ho8  1  0.685231  0.342616  0.500000  1
  Ho  Ho9  1  0.331945  0.665973  0.000000  1
  Ga  Ga10  1  0.001751  0.600767  0.250000  1
  Ga  Ga11  1  0.001751  0.400985  0.750000  1
  Ga  Ga12  1  0.596871  0.601090  0.750000  1
  Ga  Ga13  1  0.596871  0.995780  0.250000  1
  Sb  Sb14  1  0.395265  0.004418  0.750000  1
  Sb  Sb15  1  0.395265  0.390846  0.250000  1
