# generated using pymatgen
data_NaSm(MgPb)2
_symmetry_space_group_name_H-M   'P 1'
_cell_length_a   7.82189500
_cell_length_b   4.76350500
_cell_length_c   8.95738100
_cell_angle_alpha   90.00000000
_cell_angle_beta   90.00000000
_cell_angle_gamma   90.00000000
_symmetry_Int_Tables_number   1
_chemical_formula_structural   NaSm(MgPb)2
_chemical_formula_sum   'Na2 Sm2 Mg4 Pb4'
_cell_volume   333.74875505
_cell_formula_units_Z   2
loop_
 _symmetry_equiv_pos_site_id
 _symmetry_equiv_pos_as_xyz
  1  'x, y, z'
loop_
 _atom_site_type_symbol
 _atom_site_label
 _atom_site_symmetry_multiplicity
 _atom_site_fract_x
 _atom_site_fract_y
 _atom_site_fract_z
 _atom_site_occupancy
  Na  Na0  1  0.525753  0.249999  0.179526  1
  Na  Na1  1  0.025753  0.249999  0.320473  1
  Sm  Sm2  1  0.975335  0.749999  0.688804  1
  Sm  Sm3  1  0.475335  0.749999  0.811197  1
  Mg  Mg4  1  0.855761  0.749999  0.068690  1
  Mg  Mg5  1  0.355761  0.749999  0.431309  1
  Mg  Mg6  1  0.645060  0.249999  0.560194  1
  Mg  Mg7  1  0.145060  0.249999  0.939807  1
  Pb  Pb8  1  0.239165  0.749999  0.108888  1
  Pb  Pb9  1  0.739165  0.749999  0.391111  1
  Pb  Pb10  1  0.258924  0.249999  0.624238  1
  Pb  Pb11  1  0.758923  0.249999  0.875763  1
