# generated using pymatgen
data_TbSm2Th(Sn5Rh3)2
_symmetry_space_group_name_H-M   'P 1'
_cell_length_a   13.57782809
_cell_length_b   13.57782831
_cell_length_c   7.30446288
_cell_angle_alpha   90.06483110
_cell_angle_beta   89.93516981
_cell_angle_gamma   161.00166184
_symmetry_Int_Tables_number   1
_chemical_formula_structural   TbSm2Th(Sn5Rh3)2
_chemical_formula_sum   'Tb1 Sm2 Th1 Sn10 Rh6'
_cell_volume   438.38324982
_cell_formula_units_Z   1
loop_
 _symmetry_equiv_pos_site_id
 _symmetry_equiv_pos_as_xyz
  1  'x, y, z'
loop_
 _atom_site_type_symbol
 _atom_site_label
 _atom_site_symmetry_multiplicity
 _atom_site_fract_x
 _atom_site_fract_y
 _atom_site_fract_z
 _atom_site_occupancy
  Tb  Tb0  1  0.525335  0.474665  0.237466  1
  Sm  Sm1  1  0.172282  0.827718  0.754971  1
  Sm  Sm2  1  0.827440  0.172560  0.255499  1
  Th  Th3  1  0.475553  0.524447  0.734586  1
  Sn  Sn4  1  0.878267  0.121733  0.729332  1
  Sn  Sn5  1  0.120101  0.879899  0.233100  1
  Sn  Sn6  1  0.704111  0.295889  0.050818  1
  Sn  Sn7  1  0.295089  0.704911  0.549958  1
  Sn  Sn8  1  0.597210  0.402790  0.612020  1
  Sn  Sn9  1  0.403577  0.596423  0.115642  1
  Sn  Sn10  1  0.952722  0.047278  0.390216  1
  Sn  Sn11  1  0.049631  0.950369  0.903508  1
  Sn  Sn12  1  0.289491  0.710509  0.977396  1
  Sn  Sn13  1  0.709713  0.290287  0.477395  1
  Rh  Rh14  1  0.049717  0.950283  0.519688  1
  Rh  Rh15  1  0.949292  0.050708  0.011104  1
  Rh  Rh16  1  0.776911  0.223089  0.765557  1
  Rh  Rh17  1  0.222438  0.777562  0.265590  1
  Rh  Rh18  1  0.395204  0.604796  0.487944  1
  Rh  Rh19  1  0.605915  0.394085  0.984209  1
