# generated using pymatgen
data_NaEr(P3Pt2)4
_symmetry_space_group_name_H-M   'P 1'
_cell_length_a   5.75879171
_cell_length_b   5.75879378
_cell_length_c   11.50373400
_cell_angle_alpha   89.55114416
_cell_angle_beta   89.55114400
_cell_angle_gamma   88.25468780
_symmetry_Int_Tables_number   1
_chemical_formula_structural   NaEr(P3Pt2)4
_chemical_formula_sum   'Na1 Er1 P12 Pt8'
_cell_volume   381.30661586
_cell_formula_units_Z   1
loop_
 _symmetry_equiv_pos_site_id
 _symmetry_equiv_pos_as_xyz
  1  'x, y, z'
loop_
 _atom_site_type_symbol
 _atom_site_label
 _atom_site_symmetry_multiplicity
 _atom_site_fract_x
 _atom_site_fract_y
 _atom_site_fract_z
 _atom_site_occupancy
  Na  Na0  1  0.599788  0.400212  0.750000  1
  Er  Er1  1  0.409623  0.590377  0.250000  1
  P  P2  1  0.088958  0.127863  0.306582  1
  P  P3  1  0.872137  0.911042  0.193418  1
  P  P4  1  0.908368  0.866857  0.696610  1
  P  P5  1  0.133143  0.091632  0.803390  1
  P  P6  1  0.613327  0.887614  0.945732  1
  P  P7  1  0.112386  0.386673  0.554268  1
  P  P8  1  0.381411  0.113031  0.052951  1
  P  P9  1  0.886969  0.618589  0.447049  1
  P  P10  1  0.884308  0.394576  0.051649  1
  P  P11  1  0.605424  0.115692  0.448351  1
  P  P12  1  0.388818  0.885074  0.552145  1
  P  P13  1  0.114926  0.611182  0.947855  1
  Pt  Pt14  1  0.506369  0.918457  0.749841  1
  Pt  Pt15  1  0.081543  0.493631  0.750159  1
  Pt  Pt16  1  0.494060  0.505158  0.490580  1
  Pt  Pt17  1  0.494842  0.505940  0.009420  1
  Pt  Pt18  1  0.997908  0.002182  0.500956  1
  Pt  Pt19  1  0.997818  0.002092  0.999044  1
  Pt  Pt20  1  0.937720  0.509847  0.250066  1
  Pt  Pt21  1  0.490153  0.062280  0.249934  1
