# generated using pymatgen
data_Nd2Cu18Si7Ge
_symmetry_space_group_name_H-M   'P 1'
_cell_length_a   8.16899203
_cell_length_b   8.16899181
_cell_length_c   8.18342648
_cell_angle_alpha   120.57851987
_cell_angle_beta   120.57851990
_cell_angle_gamma   89.04100520
_symmetry_Int_Tables_number   1
_chemical_formula_structural   Nd2Cu18Si7Ge
_chemical_formula_sum   'Nd2 Cu18 Si7 Ge1'
_cell_volume   382.57925866
_cell_formula_units_Z   1
loop_
 _symmetry_equiv_pos_site_id
 _symmetry_equiv_pos_as_xyz
  1  'x, y, z'
loop_
 _atom_site_type_symbol
 _atom_site_label
 _atom_site_symmetry_multiplicity
 _atom_site_fract_x
 _atom_site_fract_y
 _atom_site_fract_z
 _atom_site_occupancy
  Nd  Nd0  1  0.750536  0.749962  0.999960  1
  Nd  Nd1  1  0.249962  0.250536  0.999960  1
  Cu  Cu2  1  0.434297  0.698472  0.138249  1
  Cu  Cu3  1  0.702054  0.564583  0.266669  1
  Cu  Cu4  1  0.296941  0.431945  0.732411  1
  Cu  Cu5  1  0.931945  0.796941  0.732411  1
  Cu  Cu6  1  0.566481  0.299655  0.864545  1
  Cu  Cu7  1  0.306777  0.553772  0.494618  1
  Cu  Cu8  1  0.053772  0.806777  0.494618  1
  Cu  Cu9  1  0.692130  0.443395  0.500640  1
  Cu  Cu10  1  0.943395  0.192130  0.500640  1
  Cu  Cu11  1  0.443293  0.943293  0.741598  1
  Cu  Cu12  1  0.192863  0.692863  0.250969  1
  Cu  Cu13  1  0.563699  0.063699  0.262701  1
  Cu  Cu14  1  0.198472  0.934297  0.138249  1
  Cu  Cu15  1  0.064583  0.202054  0.266669  1
  Cu  Cu16  1  0.997728  0.497728  0.497903  1
  Cu  Cu17  1  0.500410  0.000410  0.499272  1
  Cu  Cu18  1  0.807032  0.307032  0.749521  1
  Cu  Cu19  1  0.799655  0.066481  0.864545  1
  Si  Si20  1  0.055224  0.555224  0.849734  1
  Si  Si21  1  0.556819  0.707025  0.499511  1
  Si  Si22  1  0.793384  0.943281  0.501176  1
  Si  Si23  1  0.443281  0.293384  0.501176  1
  Si  Si24  1  0.943425  0.443425  0.150116  1
  Si  Si25  1  0.704592  0.204592  0.148349  1
  Si  Si26  1  0.207025  0.056819  0.499511  1
  Ge  Ge27  1  0.300225  0.800225  0.854281  1
