# generated using pymatgen
data_Ce4Dy3Ho3(TcBi2)2
_symmetry_space_group_name_H-M   'P 1'
_cell_length_a   8.05618336
_cell_length_b   9.01255500
_cell_length_c   12.40548683
_cell_angle_alpha   90.00000000
_cell_angle_beta   89.89535543
_cell_angle_gamma   90.00000000
_symmetry_Int_Tables_number   1
_chemical_formula_structural   Ce4Dy3Ho3(TcBi2)2
_chemical_formula_sum   'Ce8 Dy6 Ho6 Tc4 Bi8'
_cell_volume   900.72114481
_cell_formula_units_Z   2
loop_
 _symmetry_equiv_pos_site_id
 _symmetry_equiv_pos_as_xyz
  1  'x, y, z'
loop_
 _atom_site_type_symbol
 _atom_site_label
 _atom_site_symmetry_multiplicity
 _atom_site_fract_x
 _atom_site_fract_y
 _atom_site_fract_z
 _atom_site_occupancy
  Ce  Ce0  1  0.664583  0.028954  0.556168  1
  Ce  Ce1  1  0.335417  0.971046  0.443832  1
  Ce  Ce2  1  0.164651  0.970951  0.943853  1
  Ce  Ce3  1  0.335417  0.528954  0.443832  1
  Ce  Ce4  1  0.835349  0.029049  0.056147  1
  Ce  Ce5  1  0.664583  0.471046  0.556168  1
  Ce  Ce6  1  0.835349  0.470951  0.056147  1
  Ce  Ce7  1  0.164651  0.529049  0.943853  1
  Dy  Dy8  1  0.862475  0.250000  0.792315  1
  Dy  Dy9  1  0.137525  0.750000  0.207685  1
  Dy  Dy10  1  0.965689  0.750000  0.499228  1
  Dy  Dy11  1  0.034311  0.250000  0.500772  1
  Dy  Dy12  1  0.465867  0.250000  0.000682  1
  Dy  Dy13  1  0.534133  0.750000  0.999318  1
  Ho  Ho14  1  0.828029  0.750000  0.787200  1
  Ho  Ho15  1  0.171971  0.250000  0.212800  1
  Ho  Ho16  1  0.328048  0.250000  0.712856  1
  Ho  Ho17  1  0.671952  0.750000  0.287144  1
  Ho  Ho18  1  0.363293  0.750000  0.707157  1
  Ho  Ho19  1  0.636707  0.250000  0.292843  1
  Tc  Tc20  1  0.593596  0.750000  0.523767  1
  Tc  Tc21  1  0.406404  0.250000  0.476233  1
  Tc  Tc22  1  0.093709  0.250000  0.976380  1
  Tc  Tc23  1  0.906291  0.750000  0.023620  1
  Bi  Bi24  1  0.565066  0.490454  0.826371  1
  Bi  Bi25  1  0.434934  0.509546  0.173629  1
  Bi  Bi26  1  0.066037  0.510111  0.673546  1
  Bi  Bi27  1  0.434934  0.990454  0.173629  1
  Bi  Bi28  1  0.933963  0.489889  0.326454  1
  Bi  Bi29  1  0.565066  0.009546  0.826371  1
  Bi  Bi30  1  0.933963  0.010111  0.326454  1
  Bi  Bi31  1  0.066037  0.989889  0.673546  1
