# generated using pymatgen
data_Tm3Lu2P12Ru10Rh9
_symmetry_space_group_name_H-M   'P 1'
_cell_length_a   12.59039700
_cell_length_b   12.55968053
_cell_length_c   3.92328200
_cell_angle_alpha   90.00000000
_cell_angle_beta   90.00000000
_cell_angle_gamma   119.83072594
_symmetry_Int_Tables_number   1
_chemical_formula_structural   Tm3Lu2P12Ru10Rh9
_chemical_formula_sum   'Tm3 Lu2 P12 Ru10 Rh9'
_cell_volume   538.19100397
_cell_formula_units_Z   1
loop_
 _symmetry_equiv_pos_site_id
 _symmetry_equiv_pos_as_xyz
  1  'x, y, z'
loop_
 _atom_site_type_symbol
 _atom_site_label
 _atom_site_symmetry_multiplicity
 _atom_site_fract_x
 _atom_site_fract_y
 _atom_site_fract_z
 _atom_site_occupancy
  Tm  Tm0  1  0.812523  0.000818  0.500000  1
  Tm  Tm1  1  0.184857  0.186976  0.500000  1
  Tm  Tm2  1  0.000140  0.813820  0.500000  1
  Lu  Lu3  1  0.666668  0.332329  0.000000  1
  Lu  Lu4  1  0.333469  0.666966  0.000000  1
  P  P5  1  0.632063  0.997680  0.000000  1
  P  P6  1  0.365432  0.370935  0.000000  1
  P  P7  1  0.006004  0.634559  0.000000  1
  P  P8  1  0.686653  0.518814  0.500000  1
  P  P9  1  0.830924  0.308799  0.500000  1
  P  P10  1  0.315273  0.832085  0.500000  1
  P  P11  1  0.517081  0.685135  0.500000  1
  P  P12  1  0.179713  0.001488  0.000000  1
  P  P13  1  0.820277  0.819752  0.000000  1
  P  P14  1  0.995938  0.179729  0.000000  1
  P  P15  1  0.479695  0.165503  0.500000  1
  P  P16  1  0.168479  0.483756  0.500000  1
  Ru  Ru17  1  0.128118  0.642079  0.500000  1
  Ru  Ru18  1  0.359788  0.487502  0.500000  1
  Ru  Ru19  1  0.512072  0.870343  0.500000  1
  Ru  Ru20  1  0.717360  0.715683  0.500000  1
  Ru  Ru21  1  0.001178  0.284835  0.500000  1
  Ru  Ru22  1  0.451055  0.002914  0.000000  1
  Ru  Ru23  1  0.553027  0.547338  0.000000  1
  Ru  Ru24  1  0.000309  0.449778  0.000000  1
  Ru  Ru25  1  0.816932  0.194607  0.000000  1
  Ru  Ru26  1  0.283209  0.001434  0.500000  1
  Rh  Rh27  1  0.625026  0.804190  0.000000  1
  Rh  Rh28  1  0.180833  0.374954  0.000000  1
  Rh  Rh29  1  0.374307  0.184462  0.000000  1
  Rh  Rh30  1  0.195062  0.821242  0.000000  1
  Rh  Rh31  1  0.809746  0.624810  0.000000  1
  Rh  Rh32  1  0.868619  0.506688  0.500000  1
  Rh  Rh33  1  0.491005  0.358992  0.500000  1
  Rh  Rh34  1  0.637816  0.128831  0.500000  1
  Rh  Rh35  1  0.999353  0.000170  0.000000  1
