# generated using pymatgen
data_Lu4Si4Os3Rh
_symmetry_space_group_name_H-M   'P 1'
_cell_length_a   4.20940700
_cell_length_b   6.82718229
_cell_length_c   7.24647240
_cell_angle_alpha   89.88829757
_cell_angle_beta   90.00000000
_cell_angle_gamma   90.00000000
_symmetry_Int_Tables_number   1
_chemical_formula_structural   Lu4Si4Os3Rh
_chemical_formula_sum   'Lu4 Si4 Os3 Rh1'
_cell_volume   208.25154620
_cell_formula_units_Z   1
loop_
 _symmetry_equiv_pos_site_id
 _symmetry_equiv_pos_as_xyz
  1  'x, y, z'
loop_
 _atom_site_type_symbol
 _atom_site_label
 _atom_site_symmetry_multiplicity
 _atom_site_fract_x
 _atom_site_fract_y
 _atom_site_fract_z
 _atom_site_occupancy
  Lu  Lu0  1  0.250000  0.001187  0.815833  1
  Lu  Lu1  1  0.750000  0.003101  0.185044  1
  Lu  Lu2  1  0.250000  0.493755  0.686405  1
  Lu  Lu3  1  0.750000  0.504385  0.314235  1
  Si  Si4  1  0.250000  0.296731  0.112256  1
  Si  Si5  1  0.750000  0.699256  0.880023  1
  Si  Si6  1  0.250000  0.799770  0.395106  1
  Si  Si7  1  0.750000  0.200201  0.610490  1
  Os  Os8  1  0.750000  0.841912  0.563417  1
  Os  Os9  1  0.250000  0.159678  0.436193  1
  Os  Os10  1  0.750000  0.342871  0.939034  1
  Rh  Rh11  1  0.250000  0.657154  0.061965  1
