# generated using pymatgen
data_Tb2Si5PPd21
_symmetry_space_group_name_H-M   'P 1'
_cell_length_a   8.70121497
_cell_length_b   8.70121334
_cell_length_c   8.68891200
_cell_angle_alpha   60.04676307
_cell_angle_beta   60.04676925
_cell_angle_gamma   59.90648013
_symmetry_Int_Tables_number   1
_chemical_formula_structural   Tb2Si5PPd21
_chemical_formula_sum   'Tb2 Si5 P1 Pd21'
_cell_volume   465.16649216
_cell_formula_units_Z   1
loop_
 _symmetry_equiv_pos_site_id
 _symmetry_equiv_pos_as_xyz
  1  'x, y, z'
loop_
 _atom_site_type_symbol
 _atom_site_label
 _atom_site_symmetry_multiplicity
 _atom_site_fract_x
 _atom_site_fract_y
 _atom_site_fract_z
 _atom_site_occupancy
  Tb  Tb0  1  0.749722  0.749722  0.750278  1
  Tb  Tb1  1  0.249722  0.249722  0.250278  1
  Si  Si2  1  0.263394  0.735292  0.264708  1
  Si  Si3  1  0.735292  0.263394  0.264708  1
  Si  Si4  1  0.264315  0.264315  0.735685  1
  Si  Si5  1  0.735292  0.263394  0.736606  1
  Si  Si6  1  0.263394  0.735292  0.736606  1
  P  P7  1  0.735519  0.735519  0.264481  1
  Pd  Pd8  1  0.001228  0.001228  0.998772  1
  Pd  Pd9  1  0.616057  0.616057  0.153730  1
  Pd  Pd10  1  0.616138  0.152612  0.615626  1
  Pd  Pd11  1  0.152612  0.616138  0.615626  1
  Pd  Pd12  1  0.616057  0.616057  0.614159  1
  Pd  Pd13  1  0.384374  0.384374  0.847388  1
  Pd  Pd14  1  0.385841  0.846270  0.383943  1
  Pd  Pd15  1  0.846270  0.385841  0.383943  1
  Pd  Pd16  1  0.384374  0.384374  0.383862  1
  Pd  Pd17  1  0.000558  0.000558  0.344440  1
  Pd  Pd18  1  0.656305  0.998256  0.343695  1
  Pd  Pd19  1  0.998256  0.656305  0.343695  1
  Pd  Pd20  1  0.655560  0.345556  0.999442  1
  Pd  Pd21  1  0.999775  0.344747  0.000225  1
  Pd  Pd22  1  0.999775  0.344747  0.655253  1
  Pd  Pd23  1  0.345556  0.655560  0.999442  1
  Pd  Pd24  1  0.344747  0.999775  0.655253  1
  Pd  Pd25  1  0.344747  0.999775  0.000225  1
  Pd  Pd26  1  0.000558  0.000558  0.654444  1
  Pd  Pd27  1  0.998256  0.656305  0.001744  1
  Pd  Pd28  1  0.656305  0.998256  0.001744  1
