# generated using pymatgen
data_TbHo7Ga3Fe
_symmetry_space_group_name_H-M   'P 1'
_cell_length_a   9.94546300
_cell_length_b   9.94546359
_cell_length_c   6.96717500
_cell_angle_alpha   90.00000000
_cell_angle_beta   90.00000000
_cell_angle_gamma   120.00000137
_symmetry_Int_Tables_number   1
_chemical_formula_structural   TbHo7Ga3Fe
_chemical_formula_sum   'Tb2 Ho14 Ga6 Fe2'
_cell_volume   596.81177428
_cell_formula_units_Z   2
loop_
 _symmetry_equiv_pos_site_id
 _symmetry_equiv_pos_as_xyz
  1  'x, y, z'
loop_
 _atom_site_type_symbol
 _atom_site_label
 _atom_site_symmetry_multiplicity
 _atom_site_fract_x
 _atom_site_fract_y
 _atom_site_fract_z
 _atom_site_occupancy
  Tb  Tb0  1  0.000000  0.000000  0.767796  1
  Tb  Tb1  1  0.000000  0.000000  0.267796  1
  Ho  Ho2  1  0.826688  0.653376  0.488218  1
  Ho  Ho3  1  0.346624  0.173312  0.488218  1
  Ho  Ho4  1  0.826688  0.173312  0.488218  1
  Ho  Ho5  1  0.173312  0.346624  0.988218  1
  Ho  Ho6  1  0.653376  0.826688  0.988218  1
  Ho  Ho7  1  0.173312  0.826688  0.988218  1
  Ho  Ho8  1  0.666667  0.333333  0.171530  1
  Ho  Ho9  1  0.333333  0.666667  0.671530  1
  Ho  Ho10  1  0.537324  0.074649  0.792388  1
  Ho  Ho11  1  0.925351  0.462676  0.792388  1
  Ho  Ho12  1  0.537324  0.462676  0.792388  1
  Ho  Ho13  1  0.462676  0.925351  0.292388  1
  Ho  Ho14  1  0.074649  0.537324  0.292388  1
  Ho  Ho15  1  0.462676  0.537324  0.292388  1
  Ga  Ga16  1  0.835522  0.671046  0.042872  1
  Ga  Ga17  1  0.328954  0.164478  0.042872  1
  Ga  Ga18  1  0.835522  0.164478  0.042872  1
  Ga  Ga19  1  0.164478  0.328954  0.542872  1
  Ga  Ga20  1  0.671046  0.835522  0.542872  1
  Ga  Ga21  1  0.164478  0.835522  0.542872  1
  Fe  Fe22  1  0.666667  0.333333  0.553274  1
  Fe  Fe23  1  0.333333  0.666667  0.053274  1
