# generated using pymatgen
data_TmTaP7Ru12
_symmetry_space_group_name_H-M   'P 1'
_cell_length_a   9.38092200
_cell_length_b   9.38092084
_cell_length_c   3.89031000
_cell_angle_alpha   90.00000000
_cell_angle_beta   90.00000000
_cell_angle_gamma   119.99999704
_symmetry_Int_Tables_number   1
_chemical_formula_structural   TmTaP7Ru12
_chemical_formula_sum   'Tm1 Ta1 P7 Ru12'
_cell_volume   296.48713285
_cell_formula_units_Z   1
loop_
 _symmetry_equiv_pos_site_id
 _symmetry_equiv_pos_as_xyz
  1  'x, y, z'
loop_
 _atom_site_type_symbol
 _atom_site_label
 _atom_site_symmetry_multiplicity
 _atom_site_fract_x
 _atom_site_fract_y
 _atom_site_fract_z
 _atom_site_occupancy
  Tm  Tm0  1  0.333333  0.666667  0.000000  1
  Ta  Ta1  1  0.666667  0.333333  0.500000  1
  P  P2  1  0.596728  0.719026  0.500000  1
  P  P3  1  0.000000  0.000000  0.000000  1
  P  P4  1  0.280974  0.877704  0.500000  1
  P  P5  1  0.122296  0.403272  0.500000  1
  P  P6  1  0.886108  0.574681  0.000000  1
  P  P7  1  0.425319  0.311428  0.000000  1
  P  P8  1  0.688572  0.113892  0.000000  1
  Ru  Ru9  1  0.557337  0.955804  0.500000  1
  Ru  Ru10  1  0.398468  0.442663  0.500000  1
  Ru  Ru11  1  0.912543  0.124551  0.500000  1
  Ru  Ru12  1  0.212008  0.087457  0.500000  1
  Ru  Ru13  1  0.875449  0.787992  0.500000  1
  Ru  Ru14  1  0.724967  0.887198  0.000000  1
  Ru  Ru15  1  0.112802  0.837769  0.000000  1
  Ru  Ru16  1  0.162231  0.275033  0.000000  1
  Ru  Ru17  1  0.432764  0.079239  0.000000  1
  Ru  Ru18  1  0.920761  0.353526  0.000000  1
  Ru  Ru19  1  0.646474  0.567236  0.000000  1
  Ru  Ru20  1  0.044196  0.601532  0.500000  1
