# generated using pymatgen
data_Pa10Si2Sn5Bi
_symmetry_space_group_name_H-M   'P 1'
_cell_length_a   9.16004100
_cell_length_b   9.16004082
_cell_length_c   6.20618100
_cell_angle_alpha   90.00000000
_cell_angle_beta   90.00000000
_cell_angle_gamma   119.93512301
_symmetry_Int_Tables_number   1
_chemical_formula_structural   Pa10Si2Sn5Bi
_chemical_formula_sum   'Pa10 Si2 Sn5 Bi1'
_cell_volume   451.26686086
_cell_formula_units_Z   1
loop_
 _symmetry_equiv_pos_site_id
 _symmetry_equiv_pos_as_xyz
  1  'x, y, z'
loop_
 _atom_site_type_symbol
 _atom_site_label
 _atom_site_symmetry_multiplicity
 _atom_site_fract_x
 _atom_site_fract_y
 _atom_site_fract_z
 _atom_site_occupancy
  Pa  Pa0  1  0.669148  0.332609  0.002726  1
  Pa  Pa1  1  0.332609  0.669148  0.002726  1
  Pa  Pa2  1  0.332609  0.669148  0.497274  1
  Pa  Pa3  1  0.669148  0.332609  0.497274  1
  Pa  Pa4  1  0.740224  0.740224  0.750000  1
  Pa  Pa5  1  0.260738  0.995643  0.750000  1
  Pa  Pa6  1  0.995643  0.260738  0.750000  1
  Pa  Pa7  1  0.261615  0.261615  0.250000  1
  Pa  Pa8  1  0.737317  0.000509  0.250000  1
  Pa  Pa9  1  0.000509  0.737317  0.250000  1
  Si  Si10  1  0.000292  0.000292  0.000502  1
  Si  Si11  1  0.000292  0.000292  0.499498  1
  Sn  Sn12  1  0.612590  0.999195  0.750000  1
  Sn  Sn13  1  0.999195  0.612590  0.750000  1
  Sn  Sn14  1  0.614816  0.614816  0.250000  1
  Sn  Sn15  1  0.386032  0.000806  0.250000  1
  Sn  Sn16  1  0.000806  0.386032  0.250000  1
  Bi  Bi17  1  0.386416  0.386416  0.750000  1
