# generated using pymatgen
data_La4RuRhAu2
_symmetry_space_group_name_H-M   'P 1'
_cell_length_a   4.59690700
_cell_length_b   5.92950137
_cell_length_c   7.63695064
_cell_angle_alpha   92.25190977
_cell_angle_beta   90.00000000
_cell_angle_gamma   90.00000000
_symmetry_Int_Tables_number   1
_chemical_formula_structural   La4RuRhAu2
_chemical_formula_sum   'La4 Ru1 Rh1 Au2'
_cell_volume   208.00240258
_cell_formula_units_Z   1
loop_
 _symmetry_equiv_pos_site_id
 _symmetry_equiv_pos_as_xyz
  1  'x, y, z'
loop_
 _atom_site_type_symbol
 _atom_site_label
 _atom_site_symmetry_multiplicity
 _atom_site_fract_x
 _atom_site_fract_y
 _atom_site_fract_z
 _atom_site_occupancy
  La  La0  1  0.250000  0.638485  0.166824  1
  La  La1  1  0.750000  0.350839  0.834265  1
  La  La2  1  0.750000  0.133017  0.284494  1
  La  La3  1  0.250000  0.861711  0.715431  1
  Ru  Ru4  1  0.250000  0.193069  0.047830  1
  Rh  Rh5  1  0.750000  0.837772  0.949569  1
  Au  Au6  1  0.750000  0.644246  0.463851  1
  Au  Au7  1  0.250000  0.340861  0.537734  1
