# generated using pymatgen
data_Th10Al7Si11Au2
_symmetry_space_group_name_H-M   'P 1'
_cell_length_a   4.21692402
_cell_length_b   4.27122226
_cell_length_c   36.48406644
_cell_angle_alpha   86.64422785
_cell_angle_beta   86.68696095
_cell_angle_gamma   90.00000904
_symmetry_Int_Tables_number   1
_chemical_formula_structural   Th10Al7Si11Au2
_chemical_formula_sum   'Th10 Al7 Si11 Au2'
_cell_volume   654.90290346
_cell_formula_units_Z   1
loop_
 _symmetry_equiv_pos_site_id
 _symmetry_equiv_pos_as_xyz
  1  'x, y, z'
loop_
 _atom_site_type_symbol
 _atom_site_label
 _atom_site_symmetry_multiplicity
 _atom_site_fract_x
 _atom_site_fract_y
 _atom_site_fract_z
 _atom_site_occupancy
  Th  Th0  1  0.950562  0.450562  0.098876  1
  Th  Th1  1  0.350228  0.850228  0.299545  1
  Th  Th2  1  0.749911  0.249911  0.500178  1
  Th  Th3  1  0.148395  0.648395  0.703210  1
  Th  Th4  1  0.546940  0.046940  0.906120  1
  Th  Th5  1  0.000652  0.000652  0.998697  1
  Th  Th6  1  0.400556  0.400556  0.198886  1
  Th  Th7  1  0.800575  0.800575  0.398850  1
  Th  Th8  1  0.203107  0.203107  0.593786  1
  Th  Th9  1  0.602034  0.602034  0.795930  1
  Al  Al10  1  0.467304  0.967304  0.065393  1
  Al  Al11  1  0.867134  0.367134  0.265730  1
  Al  Al12  1  0.267077  0.767077  0.465847  1
  Al  Al13  1  0.666944  0.166944  0.666112  1
  Al  Al14  1  0.066120  0.566120  0.867760  1
  Al  Al15  1  0.916972  0.916972  0.166057  1
  Al  Al16  1  0.316896  0.316896  0.366208  1
  Si  Si17  1  0.717859  0.717859  0.564281  1
  Si  Si18  1  0.116836  0.116836  0.766328  1
  Si  Si19  1  0.516335  0.516335  0.967328  1
  Si  Si20  1  0.433769  0.933769  0.132461  1
  Si  Si21  1  0.833703  0.333703  0.332595  1
  Si  Si22  1  0.233613  0.733613  0.532773  1
  Si  Si23  1  0.633202  0.133202  0.733593  1
  Si  Si24  1  0.032691  0.532691  0.934619  1
  Si  Si25  1  0.483723  0.483723  0.032554  1
  Si  Si26  1  0.883507  0.883507  0.232986  1
  Si  Si27  1  0.283425  0.283425  0.433149  1
  Au  Au28  1  0.684063  0.684063  0.631874  1
  Au  Au29  1  0.083065  0.083065  0.833871  1
