# generated using pymatgen
data_Sc4Zn2TcOs5
_symmetry_space_group_name_H-M   'P 1'
_cell_length_a   5.29854000
_cell_length_b   5.20921477
_cell_length_c   8.63479200
_cell_angle_alpha   90.00000000
_cell_angle_beta   90.00000000
_cell_angle_gamma   121.53121974
_symmetry_Int_Tables_number   1
_chemical_formula_structural   Sc4Zn2TcOs5
_chemical_formula_sum   'Sc4 Zn2 Tc1 Os5'
_cell_volume   203.14261785
_cell_formula_units_Z   1
loop_
 _symmetry_equiv_pos_site_id
 _symmetry_equiv_pos_as_xyz
  1  'x, y, z'
loop_
 _atom_site_type_symbol
 _atom_site_label
 _atom_site_symmetry_multiplicity
 _atom_site_fract_x
 _atom_site_fract_y
 _atom_site_fract_z
 _atom_site_occupancy
  Sc  Sc0  1  0.325720  0.671510  0.444225  1
  Sc  Sc1  1  0.663904  0.340770  0.569674  1
  Sc  Sc2  1  0.663904  0.340770  0.930326  1
  Sc  Sc3  1  0.325720  0.671510  0.055775  1
  Zn  Zn4  1  0.355362  0.158003  0.250000  1
  Zn  Zn5  1  0.844825  0.642721  0.250000  1
  Tc  Tc6  1  0.168753  0.339179  0.750000  1
  Os  Os7  1  0.169641  0.827664  0.750000  1
  Os  Os8  1  0.654996  0.828959  0.750000  1
  Os  Os9  1  0.992791  0.014929  0.002554  1
  Os  Os10  1  0.841590  0.149057  0.250000  1
  Os  Os11  1  0.992791  0.014929  0.497446  1
