# generated using pymatgen
data_Mn2AlP6IN12
_symmetry_space_group_name_H-M   'P 1'
_cell_length_a   7.26459705
_cell_length_b   7.27057878
_cell_length_c   7.26459605
_cell_angle_alpha   109.52497677
_cell_angle_beta   109.59363555
_cell_angle_gamma   109.52495389
_symmetry_Int_Tables_number   1
_chemical_formula_structural   Mn2AlP6IN12
_chemical_formula_sum   'Mn2 Al1 P6 I1 N12'
_cell_volume   294.53136885
_cell_formula_units_Z   1
loop_
 _symmetry_equiv_pos_site_id
 _symmetry_equiv_pos_as_xyz
  1  'x, y, z'
loop_
 _atom_site_type_symbol
 _atom_site_label
 _atom_site_symmetry_multiplicity
 _atom_site_fract_x
 _atom_site_fract_y
 _atom_site_fract_z
 _atom_site_occupancy
  Mn  Mn0  1  0.004036  0.997958  0.366840  1
  Mn  Mn1  1  0.366840  0.997958  0.004036  1
  Al  Al2  1  0.003410  0.402203  0.003410  1
  P  P3  1  0.501671  0.254486  0.752510  1
  P  P4  1  0.259729  0.746565  0.500619  1
  P  P5  1  0.747107  0.495316  0.252251  1
  P  P6  1  0.752510  0.254486  0.501671  1
  P  P7  1  0.500619  0.746565  0.259729  1
  P  P8  1  0.252251  0.495316  0.747107  1
  I  I9  1  0.974045  0.011474  0.974045  1
  N  N10  1  0.431436  0.698783  0.431436  1
  N  N11  1  0.720088  0.433266  0.434887  1
  N  N12  1  0.434887  0.433266  0.720088  1
  N  N13  1  0.737104  0.296826  0.737104  1
  N  N14  1  0.000449  0.562563  0.266848  1
  N  N15  1  0.266848  0.562563  0.000449  1
  N  N16  1  0.286662  0.997658  0.560833  1
  N  N17  1  0.999398  0.271877  0.566927  1
  N  N18  1  0.718013  0.715666  0.275132  1
  N  N19  1  0.560833  0.997658  0.286662  1
  N  N20  1  0.275132  0.715666  0.718013  1
  N  N21  1  0.566927  0.271877  0.999398  1
