# generated using pymatgen
data_ErTmTh(CoSn)3
_symmetry_space_group_name_H-M   'P 1'
_cell_length_a   7.40431709
_cell_length_b   7.20269660
_cell_length_c   3.93166000
_cell_angle_alpha   90.00000000
_cell_angle_beta   90.00000000
_cell_angle_gamma   120.91262833
_symmetry_Int_Tables_number   1
_chemical_formula_structural   ErTmTh(CoSn)3
_chemical_formula_sum   'Er1 Tm1 Th1 Co3 Sn3'
_cell_volume   179.89492951
_cell_formula_units_Z   1
loop_
 _symmetry_equiv_pos_site_id
 _symmetry_equiv_pos_as_xyz
  1  'x, y, z'
loop_
 _atom_site_type_symbol
 _atom_site_label
 _atom_site_symmetry_multiplicity
 _atom_site_fract_x
 _atom_site_fract_y
 _atom_site_fract_z
 _atom_site_occupancy
  Er  Er0  1  0.997390  0.592099  0.500000  1
  Tm  Tm1  1  0.405061  0.407074  0.500000  1
  Th  Th2  1  0.582958  0.000237  0.500000  1
  Co  Co3  1  0.354099  0.687208  0.000000  1
  Co  Co4  1  0.995417  0.000859  0.500000  1
  Co  Co5  1  0.665531  0.312456  0.000000  1
  Sn  Sn6  1  0.744790  0.732092  0.000000  1
  Sn  Sn7  1  0.013018  0.267714  0.000000  1
  Sn  Sn8  1  0.241737  0.000262  0.000000  1
