# generated using pymatgen
data_HoEr5Mn3(Co5P4)3
_symmetry_space_group_name_H-M   'P 1'
_cell_length_a   3.68583900
_cell_length_b   10.52760900
_cell_length_c   12.10974800
_cell_angle_alpha   90.00000000
_cell_angle_beta   90.00000000
_cell_angle_gamma   90.00000000
_symmetry_Int_Tables_number   1
_chemical_formula_structural   HoEr5Mn3(Co5P4)3
_chemical_formula_sum   'Ho1 Er5 Mn3 Co15 P12'
_cell_volume   469.89542147
_cell_formula_units_Z   1
loop_
 _symmetry_equiv_pos_site_id
 _symmetry_equiv_pos_as_xyz
  1  'x, y, z'
loop_
 _atom_site_type_symbol
 _atom_site_label
 _atom_site_symmetry_multiplicity
 _atom_site_fract_x
 _atom_site_fract_y
 _atom_site_fract_z
 _atom_site_occupancy
  Ho  Ho0  1  0.750000  0.250000  0.476562  1
  Er  Er1  1  0.250000  0.750000  0.523485  1
  Er  Er2  1  0.250000  0.930236  0.795855  1
  Er  Er3  1  0.250000  0.569764  0.795855  1
  Er  Er4  1  0.750000  0.068316  0.204524  1
  Er  Er5  1  0.750000  0.431684  0.204524  1
  Mn  Mn6  1  0.250000  0.250000  0.840994  1
  Mn  Mn7  1  0.750000  0.750000  0.156775  1
  Mn  Mn8  1  0.250000  0.750000  0.988496  1
  Co  Co9  1  0.250000  0.250000  0.297873  1
  Co  Co10  1  0.750000  0.750000  0.699285  1
  Co  Co11  1  0.750000  0.250000  0.013603  1
  Co  Co12  1  0.250000  0.415656  0.005864  1
  Co  Co13  1  0.250000  0.084344  0.005864  1
  Co  Co14  1  0.750000  0.580956  0.994123  1
  Co  Co15  1  0.750000  0.919044  0.994123  1
  Co  Co16  1  0.250000  0.453757  0.569925  1
  Co  Co17  1  0.250000  0.046243  0.569925  1
  Co  Co18  1  0.750000  0.546286  0.430554  1
  Co  Co19  1  0.750000  0.953714  0.430554  1
  Co  Co20  1  0.250000  0.871350  0.291620  1
  Co  Co21  1  0.250000  0.628650  0.291620  1
  Co  Co22  1  0.750000  0.129251  0.709325  1
  Co  Co23  1  0.750000  0.370749  0.709325  1
  P  P24  1  0.250000  0.250000  0.118059  1
  P  P25  1  0.750000  0.750000  0.881730  1
  P  P26  1  0.250000  0.250000  0.654391  1
  P  P27  1  0.750000  0.750000  0.345519  1
  P  P28  1  0.250000  0.438517  0.383483  1
  P  P29  1  0.250000  0.061483  0.383483  1
  P  P30  1  0.750000  0.561260  0.616619  1
  P  P31  1  0.750000  0.938740  0.616619  1
  P  P32  1  0.250000  0.903954  0.107092  1
  P  P33  1  0.250000  0.596046  0.107092  1
  P  P34  1  0.750000  0.096688  0.892632  1
  P  P35  1  0.750000  0.403312  0.892632  1
