# generated using pymatgen
data_DyPu2ThB16
_symmetry_space_group_name_H-M   'P 1'
_cell_length_a   7.14996043
_cell_length_b   7.15066510
_cell_length_c   4.05103200
_cell_angle_alpha   90.00000000
_cell_angle_beta   90.00000000
_cell_angle_gamma   89.28995148
_symmetry_Int_Tables_number   1
_chemical_formula_structural   DyPu2ThB16
_chemical_formula_sum   'Dy1 Pu2 Th1 B16'
_cell_volume   207.10109763
_cell_formula_units_Z   1
loop_
 _symmetry_equiv_pos_site_id
 _symmetry_equiv_pos_as_xyz
  1  'x, y, z'
loop_
 _atom_site_type_symbol
 _atom_site_label
 _atom_site_symmetry_multiplicity
 _atom_site_fract_x
 _atom_site_fract_y
 _atom_site_fract_z
 _atom_site_occupancy
  Dy  Dy0  1  0.184538  0.683948  0.000000  1
  Pu  Pu1  1  0.311642  0.187309  0.000000  1
  Pu  Pu2  1  0.816069  0.315425  0.000000  1
  Th  Th3  1  0.686319  0.814380  0.000000  1
  B  B4  1  0.321871  0.459465  0.500000  1
  B  B5  1  0.674595  0.535186  0.500000  1
  B  B6  1  0.537843  0.320949  0.500000  1
  B  B7  1  0.459072  0.673719  0.500000  1
  B  B8  1  0.003435  0.002378  0.201468  1
  B  B9  1  0.497123  0.496685  0.798650  1
  B  B10  1  0.003435  0.002378  0.798532  1
  B  B11  1  0.497123  0.496685  0.201350  1
  B  B12  1  0.587161  0.086658  0.500000  1
  B  B13  1  0.087134  0.413603  0.500000  1
  B  B14  1  0.910888  0.589440  0.500000  1
  B  B15  1  0.412637  0.912547  0.500000  1
  B  B16  1  0.040264  0.178791  0.500000  1
  B  B17  1  0.178833  0.962870  0.500000  1
  B  B18  1  0.825692  0.041383  0.500000  1
  B  B19  1  0.964323  0.826201  0.500000  1
