# generated using pymatgen
data_Pr4NdOs2
_symmetry_space_group_name_H-M   'P 1'
_cell_length_a   8.88483073
_cell_length_b   8.88483062
_cell_length_c   7.48272230
_cell_angle_alpha   83.63478574
_cell_angle_beta   83.63478535
_cell_angle_gamma   44.28327168
_symmetry_Int_Tables_number   1
_chemical_formula_structural   Pr4NdOs2
_chemical_formula_sum   'Pr8 Nd2 Os4'
_cell_volume   409.45699872
_cell_formula_units_Z   2
loop_
 _symmetry_equiv_pos_site_id
 _symmetry_equiv_pos_as_xyz
  1  'x, y, z'
loop_
 _atom_site_type_symbol
 _atom_site_label
 _atom_site_symmetry_multiplicity
 _atom_site_fract_x
 _atom_site_fract_y
 _atom_site_fract_z
 _atom_site_occupancy
  Pr  Pr0  1  0.021378  0.795813  0.914800  1
  Pr  Pr1  1  0.204187  0.978622  0.585200  1
  Pr  Pr2  1  0.978622  0.204187  0.085200  1
  Pr  Pr3  1  0.795813  0.021378  0.414800  1
  Pr  Pr4  1  0.359271  0.207084  0.815355  1
  Pr  Pr5  1  0.792916  0.640729  0.684645  1
  Pr  Pr6  1  0.640729  0.792916  0.184645  1
  Pr  Pr7  1  0.207084  0.359271  0.315355  1
  Nd  Nd8  1  0.572104  0.427896  0.750000  1
  Nd  Nd9  1  0.427896  0.572104  0.250000  1
  Os  Os10  1  0.177473  0.603362  0.574221  1
  Os  Os11  1  0.396638  0.822527  0.925779  1
  Os  Os12  1  0.822527  0.396638  0.425779  1
  Os  Os13  1  0.603362  0.177473  0.074221  1
