# generated using pymatgen
data_LaY2(ZnPd)4
_symmetry_space_group_name_H-M   'P 1'
_cell_length_a   8.27944633
_cell_length_b   8.27944621
_cell_length_c   8.27944639
_cell_angle_alpha   151.10091418
_cell_angle_beta   126.60594531
_cell_angle_gamma   61.85007204
_symmetry_Int_Tables_number   1
_chemical_formula_structural   LaY2(ZnPd)4
_chemical_formula_sum   'La1 Y2 Zn4 Pd4'
_cell_volume   218.32247986
_cell_formula_units_Z   1
loop_
 _symmetry_equiv_pos_site_id
 _symmetry_equiv_pos_as_xyz
  1  'x, y, z'
loop_
 _atom_site_type_symbol
 _atom_site_label
 _atom_site_symmetry_multiplicity
 _atom_site_fract_x
 _atom_site_fract_y
 _atom_site_fract_z
 _atom_site_occupancy
  La  La0  1  0.500000  0.000000  0.500000  1
  Y  Y1  1  0.870395  0.870395  0.000000  1
  Y  Y2  1  0.129605  0.129605  0.000000  1
  Zn  Zn3  1  0.478095  0.674008  0.804087  1
  Zn  Zn4  1  0.869921  0.674008  0.195913  1
  Zn  Zn5  1  0.130079  0.325992  0.804087  1
  Zn  Zn6  1  0.521905  0.325992  0.195913  1
  Pd  Pd7  1  0.280659  0.780659  0.500000  1
  Pd  Pd8  1  0.719341  0.219341  0.500000  1
  Pd  Pd9  1  0.809950  0.500000  0.309950  1
  Pd  Pd10  1  0.190050  0.500000  0.690050  1
