# generated using pymatgen
data_Sm8ZnSiBr12
_symmetry_space_group_name_H-M   'P 1'
_cell_length_a   4.13233100
_cell_length_b   13.60813151
_cell_length_c   14.42256483
_cell_angle_alpha   89.89692648
_cell_angle_beta   90.00000000
_cell_angle_gamma   90.00000000
_symmetry_Int_Tables_number   1
_chemical_formula_structural   Sm8ZnSiBr12
_chemical_formula_sum   'Sm8 Zn1 Si1 Br12'
_cell_volume   811.02715567
_cell_formula_units_Z   1
loop_
 _symmetry_equiv_pos_site_id
 _symmetry_equiv_pos_as_xyz
  1  'x, y, z'
loop_
 _atom_site_type_symbol
 _atom_site_label
 _atom_site_symmetry_multiplicity
 _atom_site_fract_x
 _atom_site_fract_y
 _atom_site_fract_z
 _atom_site_occupancy
  Sm  Sm0  1  0.500000  0.119655  0.339169  1
  Sm  Sm1  1  0.500000  0.880345  0.660831  1
  Sm  Sm2  1  0.500000  0.617399  0.158233  1
  Sm  Sm3  1  0.500000  0.382601  0.841767  1
  Sm  Sm4  1  0.000000  0.123049  0.581666  1
  Sm  Sm5  1  0.000000  0.876951  0.418334  1
  Sm  Sm6  1  0.000000  0.618542  0.921317  1
  Sm  Sm7  1  0.000000  0.381458  0.078683  1
  Zn  Zn8  1  0.500000  0.000000  0.500000  1
  Si  Si9  1  0.500000  0.500000  0.000000  1
  Br  Br10  1  0.500000  0.244831  0.162257  1
  Br  Br11  1  0.500000  0.755169  0.837743  1
  Br  Br12  1  0.500000  0.743047  0.336148  1
  Br  Br13  1  0.500000  0.256953  0.663852  1
  Br  Br14  1  0.000000  0.255479  0.411161  1
  Br  Br15  1  0.000000  0.744521  0.588839  1
  Br  Br16  1  0.000000  0.753992  0.088549  1
  Br  Br17  1  0.000000  0.246008  0.911451  1
  Br  Br18  1  0.000000  0.001639  0.243238  1
  Br  Br19  1  0.000000  0.998361  0.756762  1
  Br  Br20  1  0.000000  0.501584  0.255638  1
  Br  Br21  1  0.000000  0.498416  0.744362  1
