# generated using pymatgen
data_Y4AgPd
_symmetry_space_group_name_H-M   'P 1'
_cell_length_a   9.64662848
_cell_length_b   9.64657419
_cell_length_c   9.64662700
_cell_angle_alpha   59.99986626
_cell_angle_beta   59.99991298
_cell_angle_gamma   59.99953623
_symmetry_Int_Tables_number   1
_chemical_formula_structural   Y4AgPd
_chemical_formula_sum   'Y16 Ag4 Pd4'
_cell_volume   634.75612928
_cell_formula_units_Z   4
loop_
 _symmetry_equiv_pos_site_id
 _symmetry_equiv_pos_as_xyz
  1  'x, y, z'
loop_
 _atom_site_type_symbol
 _atom_site_label
 _atom_site_symmetry_multiplicity
 _atom_site_fract_x
 _atom_site_fract_y
 _atom_site_fract_z
 _atom_site_occupancy
  Y  Y0  1  0.358044  0.358046  0.358048  1
  Y  Y1  1  0.358045  0.358048  0.925861  1
  Y  Y2  1  0.358044  0.925863  0.358047  1
  Y  Y3  1  0.925861  0.358046  0.358048  1
  Y  Y4  1  0.811772  0.188227  0.188223  1
  Y  Y5  1  0.188228  0.811767  0.811780  1
  Y  Y6  1  0.188227  0.811765  0.188225  1
  Y  Y7  1  0.811774  0.188228  0.811774  1
  Y  Y8  1  0.188228  0.188230  0.811769  1
  Y  Y9  1  0.811780  0.811772  0.188225  1
  Y  Y10  1  0.934101  0.565901  0.565900  1
  Y  Y11  1  0.565902  0.934101  0.934096  1
  Y  Y12  1  0.565902  0.934099  0.565900  1
  Y  Y13  1  0.934101  0.565901  0.934096  1
  Y  Y14  1  0.565902  0.565901  0.934097  1
  Y  Y15  1  0.934101  0.934100  0.565899  1
  Ag  Ag16  1  0.583305  0.583306  0.583342  1
  Ag  Ag17  1  0.583306  0.583302  0.250050  1
  Ag  Ag18  1  0.583315  0.250066  0.583308  1
  Ag  Ag19  1  0.250065  0.583314  0.583312  1
  Pd  Pd20  1  0.146097  0.146101  0.146097  1
  Pd  Pd21  1  0.146096  0.146099  0.561711  1
  Pd  Pd22  1  0.146090  0.561719  0.146097  1
  Pd  Pd23  1  0.561713  0.146098  0.146096  1
