# generated using pymatgen
data_La2Ni18GeP9
_symmetry_space_group_name_H-M   'P 1'
_cell_length_a   6.52732400
_cell_length_b   6.52732315
_cell_length_c   10.74891800
_cell_angle_alpha   90.00000000
_cell_angle_beta   90.00000000
_cell_angle_gamma   119.99999417
_symmetry_Int_Tables_number   1
_chemical_formula_structural   La2Ni18GeP9
_chemical_formula_sum   'La2 Ni18 Ge1 P9'
_cell_volume   396.61185516
_cell_formula_units_Z   1
loop_
 _symmetry_equiv_pos_site_id
 _symmetry_equiv_pos_as_xyz
  1  'x, y, z'
loop_
 _atom_site_type_symbol
 _atom_site_label
 _atom_site_symmetry_multiplicity
 _atom_site_fract_x
 _atom_site_fract_y
 _atom_site_fract_z
 _atom_site_occupancy
  La  La0  1  0.000000  0.000000  0.000411  1
  La  La1  1  0.000000  0.000000  0.499585  1
  Ni  Ni2  1  0.540042  0.080085  0.108086  1
  Ni  Ni3  1  0.464205  0.535795  0.606785  1
  Ni  Ni4  1  0.071591  0.535795  0.606785  1
  Ni  Ni5  1  0.919915  0.459958  0.108086  1
  Ni  Ni6  1  0.540042  0.459958  0.108086  1
  Ni  Ni7  1  0.467006  0.934011  0.889784  1
  Ni  Ni8  1  0.467006  0.532994  0.889784  1
  Ni  Ni9  1  0.464205  0.928409  0.606785  1
  Ni  Ni10  1  0.065989  0.532994  0.889784  1
  Ni  Ni11  1  0.928246  0.464123  0.393713  1
  Ni  Ni12  1  0.535877  0.071754  0.393713  1
  Ni  Ni13  1  0.535877  0.464123  0.393713  1
  Ni  Ni14  1  0.200922  0.401845  0.252320  1
  Ni  Ni15  1  0.798487  0.201513  0.748523  1
  Ni  Ni16  1  0.403026  0.201513  0.748523  1
  Ni  Ni17  1  0.598155  0.799078  0.252320  1
  Ni  Ni18  1  0.200922  0.799078  0.252320  1
  Ni  Ni19  1  0.798487  0.596974  0.748523  1
  Ge  Ge20  1  0.333333  0.666667  0.063667  1
  P  P21  1  0.825755  0.651511  0.250493  1
  P  P22  1  0.174287  0.825713  0.749820  1
  P  P23  1  0.651428  0.825713  0.749820  1
  P  P24  1  0.348489  0.174245  0.250493  1
  P  P25  1  0.825755  0.174245  0.250493  1
  P  P26  1  0.174287  0.348572  0.749820  1
  P  P27  1  0.666667  0.333333  0.561622  1
  P  P28  1  0.666667  0.333333  0.938071  1
  P  P29  1  0.333333  0.666667  0.438067  1
