# generated using pymatgen
data_Ac6SiGeI6
_symmetry_space_group_name_H-M   'P 1'
_cell_length_a   11.47035298
_cell_length_b   11.47035486
_cell_length_c   11.49681700
_cell_angle_alpha   109.47343727
_cell_angle_beta   109.47344589
_cell_angle_gamma   109.37335304
_symmetry_Int_Tables_number   1
_chemical_formula_structural   Ac6SiGeI6
_chemical_formula_sum   'Ac12 Si2 Ge2 I12'
_cell_volume   1165.75896993
_cell_formula_units_Z   2
loop_
 _symmetry_equiv_pos_site_id
 _symmetry_equiv_pos_as_xyz
  1  'x, y, z'
loop_
 _atom_site_type_symbol
 _atom_site_label
 _atom_site_symmetry_multiplicity
 _atom_site_fract_x
 _atom_site_fract_y
 _atom_site_fract_z
 _atom_site_occupancy
  Ac  Ac0  1  0.468413  0.482466  0.235938  1
  Ac  Ac1  1  0.746526  0.232474  0.264061  1
  Ac  Ac2  1  0.745701  0.014034  0.481337  1
  Ac  Ac3  1  0.235634  0.467304  0.481337  1
  Ac  Ac4  1  0.267526  0.753473  0.235938  1
  Ac  Ac5  1  0.032698  0.264366  0.018662  1
  Ac  Ac6  1  0.017535  0.031588  0.264062  1
  Ac  Ac7  1  0.485966  0.754298  0.018662  1
  Ac  Ac8  1  0.483346  0.233346  0.466692  1
  Ac  Ac9  1  0.015307  0.484692  0.750000  1
  Ac  Ac10  1  0.266653  0.016653  0.033307  1
  Ac  Ac11  1  0.234692  0.265308  0.750000  1
  Si  Si12  1  0.250595  0.249404  0.250000  1
  Si  Si13  1  0.499405  0.000595  0.250000  1
  Ge  Ge14  1  0.999656  0.249656  0.499311  1
  Ge  Ge15  1  0.250344  0.500344  0.000690  1
  I  I16  1  0.249794  0.755852  0.743005  1
  I  I17  1  0.512846  0.506789  0.756995  1
  I  I18  1  0.985794  0.742270  0.992299  1
  I  I19  1  0.744148  0.250206  0.756995  1
  I  I20  1  0.993211  0.987154  0.743005  1
  I  I21  1  0.249972  0.993494  0.507702  1
  I  I22  1  0.757730  0.514206  0.507702  1
  I  I23  1  0.506506  0.250029  0.992299  1
  I  I24  1  0.756653  0.743347  0.250000  1
  I  I25  1  0.743096  0.993096  0.986192  1
  I  I26  1  0.993347  0.506653  0.250000  1
  I  I27  1  0.506904  0.756904  0.513808  1
