# generated using pymatgen
data_La16Cd4TcIrPt2
_symmetry_space_group_name_H-M   'P 1'
_cell_length_a   10.23099934
_cell_length_b   10.19085978
_cell_length_c   10.19085879
_cell_angle_alpha   59.53103596
_cell_angle_beta   59.43085803
_cell_angle_gamma   59.43086581
_symmetry_Int_Tables_number   1
_chemical_formula_structural   La16Cd4TcIrPt2
_chemical_formula_sum   'La16 Cd4 Tc1 Ir1 Pt2'
_cell_volume   742.16167618
_cell_formula_units_Z   1
loop_
 _symmetry_equiv_pos_site_id
 _symmetry_equiv_pos_as_xyz
  1  'x, y, z'
loop_
 _atom_site_type_symbol
 _atom_site_label
 _atom_site_symmetry_multiplicity
 _atom_site_fract_x
 _atom_site_fract_y
 _atom_site_fract_z
 _atom_site_occupancy
  La  La0  1  0.603241  0.596476  0.596476  1
  La  La1  1  0.597622  0.593084  0.208391  1
  La  La2  1  0.597622  0.208391  0.593084  1
  La  La3  1  0.205093  0.595499  0.595499  1
  La  La4  1  0.063363  0.438669  0.438669  1
  La  La5  1  0.443564  0.056141  0.056141  1
  La  La6  1  0.439223  0.067672  0.439274  1
  La  La7  1  0.053917  0.440944  0.063185  1
  La  La8  1  0.439223  0.439274  0.067672  1
  La  La9  1  0.053917  0.063185  0.440944  1
  La  La10  1  0.187684  0.812947  0.812947  1
  La  La11  1  0.805897  0.190498  0.190498  1
  La  La12  1  0.813382  0.188049  0.811358  1
  La  La13  1  0.190748  0.805176  0.190126  1
  La  La14  1  0.813382  0.811358  0.188049  1
  La  La15  1  0.190748  0.190126  0.805176  1
  Cd  Cd16  1  0.829504  0.829399  0.829399  1
  Cd  Cd17  1  0.829630  0.829624  0.510545  1
  Cd  Cd18  1  0.829630  0.510545  0.829624  1
  Cd  Cd19  1  0.510884  0.829468  0.829468  1
  Tc  Tc20  1  0.388658  0.389480  0.389480  1
  Ir  Ir21  1  0.827649  0.393310  0.393310  1
  Pt  Pt22  1  0.392708  0.394705  0.825980  1
  Pt  Pt23  1  0.392708  0.825980  0.394705  1
