# generated using pymatgen
data_Zr2Si7(Ni3Ru)3
_symmetry_space_group_name_H-M   'P 1'
_cell_length_a   9.13770819
_cell_length_b   9.25847883
_cell_length_c   3.68460000
_cell_angle_alpha   90.00000000
_cell_angle_beta   90.00000000
_cell_angle_gamma   119.49186039
_symmetry_Int_Tables_number   1
_chemical_formula_structural   Zr2Si7(Ni3Ru)3
_chemical_formula_sum   'Zr2 Si7 Ni9 Ru3'
_cell_volume   271.33070738
_cell_formula_units_Z   1
loop_
 _symmetry_equiv_pos_site_id
 _symmetry_equiv_pos_as_xyz
  1  'x, y, z'
loop_
 _atom_site_type_symbol
 _atom_site_label
 _atom_site_symmetry_multiplicity
 _atom_site_fract_x
 _atom_site_fract_y
 _atom_site_fract_z
 _atom_site_occupancy
  Zr  Zr0  1  0.999728  0.000273  0.000000  1
  Zr  Zr1  1  0.327834  0.660295  0.500000  1
  Si  Si2  1  0.669424  0.336976  0.000000  1
  Si  Si3  1  0.070085  0.448794  0.000000  1
  Si  Si4  1  0.258782  0.220045  0.500000  1
  Si  Si5  1  0.777962  0.038511  0.500000  1
  Si  Si6  1  0.954134  0.739609  0.500000  1
  Si  Si7  1  0.544654  0.620619  0.000000  1
  Si  Si8  1  0.387662  0.927458  0.000000  1
  Ni  Ni9  1  0.285273  0.392312  0.000000  1
  Ni  Ni10  1  0.101249  0.707959  0.000000  1
  Ni  Ni11  1  0.387301  0.178989  0.000000  1
  Ni  Ni12  1  0.791479  0.621562  0.000000  1
  Ni  Ni13  1  0.822895  0.203732  0.000000  1
  Ni  Ni14  1  0.046528  0.277337  0.500000  1
  Ni  Ni15  1  0.716116  0.767860  0.500000  1
  Ni  Ni16  1  0.580283  0.131772  0.500000  1
  Ni  Ni17  1  0.611799  0.891441  0.000000  1
  Ru  Ru18  1  0.884604  0.452960  0.500000  1
  Ru  Ru19  1  0.547741  0.431332  0.500000  1
  Ru  Ru20  1  0.234464  0.950162  0.500000  1
