# generated using pymatgen
data_Th5SnPb3
_symmetry_space_group_name_H-M   'P 1'
_cell_length_a   9.80874300
_cell_length_b   9.80874172
_cell_length_c   6.64170800
_cell_angle_alpha   90.00000000
_cell_angle_beta   90.00000000
_cell_angle_gamma   119.99999421
_symmetry_Int_Tables_number   1
_chemical_formula_structural   Th5SnPb3
_chemical_formula_sum   'Th10 Sn2 Pb6'
_cell_volume   553.39736843
_cell_formula_units_Z   2
loop_
 _symmetry_equiv_pos_site_id
 _symmetry_equiv_pos_as_xyz
  1  'x, y, z'
loop_
 _atom_site_type_symbol
 _atom_site_label
 _atom_site_symmetry_multiplicity
 _atom_site_fract_x
 _atom_site_fract_y
 _atom_site_fract_z
 _atom_site_occupancy
  Th  Th0  1  0.000000  0.721139  0.750000  1
  Th  Th1  1  0.278861  0.278861  0.750000  1
  Th  Th2  1  0.333333  0.666667  0.500000  1
  Th  Th3  1  0.666667  0.333333  0.500000  1
  Th  Th4  1  0.721139  0.721139  0.250000  1
  Th  Th5  1  0.721139  0.000000  0.750000  1
  Th  Th6  1  0.000000  0.278861  0.250000  1
  Th  Th7  1  0.278861  0.000000  0.250000  1
  Th  Th8  1  0.333333  0.666667  0.000000  1
  Th  Th9  1  0.666667  0.333333  0.000000  1
  Sn  Sn10  1  0.000000  0.000000  0.000000  1
  Sn  Sn11  1  0.000000  0.000000  0.500000  1
  Pb  Pb12  1  0.619304  0.619304  0.750000  1
  Pb  Pb13  1  0.000000  0.380696  0.750000  1
  Pb  Pb14  1  0.380696  0.000000  0.750000  1
  Pb  Pb15  1  0.619304  0.000000  0.250000  1
  Pb  Pb16  1  0.380696  0.380696  0.250000  1
  Pb  Pb17  1  0.000000  0.619304  0.250000  1
