# generated using pymatgen
data_Pr2Tc5(PRh)7
_symmetry_space_group_name_H-M   'P 1'
_cell_length_a   3.97107400
_cell_length_b   9.53607100
_cell_length_c   9.56423980
_cell_angle_alpha   119.64739596
_cell_angle_beta   89.99929620
_cell_angle_gamma   90.00048166
_symmetry_Int_Tables_number   1
_chemical_formula_structural   Pr2Tc5(PRh)7
_chemical_formula_sum   'Pr2 Tc5 P7 Rh7'
_cell_volume   314.76807989
_cell_formula_units_Z   1
loop_
 _symmetry_equiv_pos_site_id
 _symmetry_equiv_pos_as_xyz
  1  'x, y, z'
loop_
 _atom_site_type_symbol
 _atom_site_label
 _atom_site_symmetry_multiplicity
 _atom_site_fract_x
 _atom_site_fract_y
 _atom_site_fract_z
 _atom_site_occupancy
  Pr  Pr0  1  0.262046  0.667998  0.333073  1
  Pr  Pr1  1  0.762101  0.333405  0.666376  1
  Tc  Tc2  1  0.761892  0.093515  0.872733  1
  Tc  Tc3  1  0.761885  0.125391  0.216965  1
  Tc  Tc4  1  0.761901  0.782535  0.906856  1
  Tc  Tc5  1  0.261886  0.886612  0.158212  1
  Tc  Tc6  1  0.261903  0.842961  0.728705  1
  P  P7  1  0.261721  0.996916  0.997779  1
  P  P8  1  0.761888  0.885884  0.603055  1
  P  P9  1  0.761862  0.398663  0.287981  1
  P  P10  1  0.761828  0.718372  0.115913  1
  P  P11  1  0.261992  0.112348  0.408120  1
  P  P12  1  0.261951  0.590996  0.703894  1
  P  P13  1  0.261902  0.295040  0.884867  1
  Rh  Rh14  1  0.261862  0.270240  0.111882  1
  Rh  Rh15  1  0.761901  0.609214  0.560267  1
  Rh  Rh16  1  0.761882  0.439362  0.052504  1
  Rh  Rh17  1  0.761916  0.950077  0.391263  1
  Rh  Rh18  1  0.261892  0.367340  0.432024  1
  Rh  Rh19  1  0.261872  0.565431  0.934443  1
  Rh  Rh20  1  0.261919  0.067703  0.633092  1
