# generated using pymatgen
data_Tb8Er12Sn15Sb
_symmetry_space_group_name_H-M   'P 1'
_cell_length_a   8.02588899
_cell_length_b   8.14965454
_cell_length_c   15.38447867
_cell_angle_alpha   90.03470664
_cell_angle_beta   90.17003722
_cell_angle_gamma   90.02329543
_symmetry_Int_Tables_number   1
_chemical_formula_structural   Tb8Er12Sn15Sb
_chemical_formula_sum   'Tb8 Er12 Sn15 Sb1'
_cell_volume   1006.26670655
_cell_formula_units_Z   1
loop_
 _symmetry_equiv_pos_site_id
 _symmetry_equiv_pos_as_xyz
  1  'x, y, z'
loop_
 _atom_site_type_symbol
 _atom_site_label
 _atom_site_symmetry_multiplicity
 _atom_site_fract_x
 _atom_site_fract_y
 _atom_site_fract_z
 _atom_site_occupancy
  Tb  Tb0  1  0.522074  0.321909  0.902074  1
  Tb  Tb1  1  0.020373  0.179506  0.597421  1
  Tb  Tb2  1  0.479560  0.679265  0.402473  1
  Tb  Tb3  1  0.976723  0.820582  0.098171  1
  Tb  Tb4  1  0.479387  0.678268  0.097504  1
  Tb  Tb5  1  0.979565  0.820556  0.402480  1
  Tb  Tb6  1  0.520552  0.320550  0.597469  1
  Tb  Tb7  1  0.020209  0.179552  0.901833  1
  Er  Er8  1  0.368281  0.836323  0.878035  1
  Er  Er9  1  0.867185  0.663336  0.622630  1
  Er  Er10  1  0.632704  0.163315  0.377268  1
  Er  Er11  1  0.131651  0.337366  0.122436  1
  Er  Er12  1  0.633355  0.163665  0.121837  1
  Er  Er13  1  0.133221  0.336687  0.377306  1
  Er  Er14  1  0.367183  0.836551  0.622572  1
  Er  Er15  1  0.867322  0.663642  0.877536  1
  Er  Er16  1  0.197557  0.502854  0.749791  1
  Er  Er17  1  0.697387  0.996743  0.750441  1
  Er  Er18  1  0.802304  0.497007  0.250349  1
  Er  Er19  1  0.302473  0.002705  0.250930  1
  Sn  Sn20  1  0.793947  0.463145  0.458122  1
  Sn  Sn21  1  0.706127  0.963005  0.541774  1
  Sn  Sn22  1  0.207110  0.536304  0.958219  1
  Sn  Sn23  1  0.709855  0.963897  0.957994  1
  Sn  Sn24  1  0.206075  0.536830  0.541720  1
  Sn  Sn25  1  0.294192  0.036774  0.458148  1
  Sn  Sn26  1  0.793444  0.463704  0.041962  1
  Sn  Sn27  1  0.564636  0.620616  0.749990  1
  Sn  Sn28  1  0.064948  0.879543  0.750348  1
  Sn  Sn29  1  0.435494  0.379211  0.249523  1
  Sn  Sn30  1  0.935390  0.120382  0.249586  1
  Sn  Sn31  1  0.329531  0.146686  0.750009  1
  Sn  Sn32  1  0.829622  0.353360  0.749942  1
  Sn  Sn33  1  0.669816  0.853244  0.249839  1
  Sn  Sn34  1  0.170283  0.646958  0.249741  1
  Sb  Sb35  1  0.290464  0.035958  0.042524  1
