# generated using pymatgen
data_Li2Pr2Zn15
_symmetry_space_group_name_H-M   'P 1'
_cell_length_a   6.88038710
_cell_length_b   6.88038739
_cell_length_c   6.88038738
_cell_angle_alpha   84.11338602
_cell_angle_beta   84.11338563
_cell_angle_gamma   84.11340979
_symmetry_Int_Tables_number   1
_chemical_formula_structural   Li2Pr2Zn15
_chemical_formula_sum   'Li2 Pr2 Zn15'
_cell_volume   320.89224647
_cell_formula_units_Z   1
loop_
 _symmetry_equiv_pos_site_id
 _symmetry_equiv_pos_as_xyz
  1  'x, y, z'
loop_
 _atom_site_type_symbol
 _atom_site_label
 _atom_site_symmetry_multiplicity
 _atom_site_fract_x
 _atom_site_fract_y
 _atom_site_fract_z
 _atom_site_occupancy
  Li  Li0  1  0.900323  0.900323  0.900323  1
  Li  Li1  1  0.099677  0.099677  0.099677  1
  Pr  Pr2  1  0.660570  0.660570  0.660570  1
  Pr  Pr3  1  0.339430  0.339430  0.339430  1
  Zn  Zn4  1  0.000000  0.000000  0.500000  1
  Zn  Zn5  1  0.500000  0.000000  0.000000  1
  Zn  Zn6  1  0.000000  0.500000  0.000000  1
  Zn  Zn7  1  0.708697  0.291303  0.000000  1
  Zn  Zn8  1  0.000000  0.708697  0.291303  1
  Zn  Zn9  1  0.291303  0.000000  0.708697  1
  Zn  Zn10  1  0.000000  0.291303  0.708697  1
  Zn  Zn11  1  0.708697  0.000000  0.291303  1
  Zn  Zn12  1  0.291303  0.708697  0.000000  1
  Zn  Zn13  1  0.348984  0.348984  0.842184  1
  Zn  Zn14  1  0.842184  0.348984  0.348984  1
  Zn  Zn15  1  0.348984  0.842184  0.348984  1
  Zn  Zn16  1  0.651016  0.651016  0.157816  1
  Zn  Zn17  1  0.157816  0.651016  0.651016  1
  Zn  Zn18  1  0.651016  0.157816  0.651016  1
