# generated using pymatgen
data_Nb(Pt3Rh)2
_symmetry_space_group_name_H-M   'P 1'
_cell_length_a   6.21263370
_cell_length_b   6.21263377
_cell_length_c   6.30788585
_cell_angle_alpha   95.74085955
_cell_angle_beta   95.74085864
_cell_angle_gamma   142.83263415
_symmetry_Int_Tables_number   1
_chemical_formula_structural   Nb(Pt3Rh)2
_chemical_formula_sum   'Nb1 Pt6 Rh2'
_cell_volume   139.65454353
_cell_formula_units_Z   1
loop_
 _symmetry_equiv_pos_site_id
 _symmetry_equiv_pos_as_xyz
  1  'x, y, z'
loop_
 _atom_site_type_symbol
 _atom_site_label
 _atom_site_symmetry_multiplicity
 _atom_site_fract_x
 _atom_site_fract_y
 _atom_site_fract_z
 _atom_site_occupancy
  Nb  Nb0  1  0.000000  0.000000  0.000000  1
  Pt  Pt1  1  0.662102  0.662102  0.324202  1
  Pt  Pt2  1  0.329062  0.996769  0.325831  1
  Pt  Pt3  1  0.996769  0.329062  0.325831  1
  Pt  Pt4  1  0.670938  0.003231  0.674169  1
  Pt  Pt5  1  0.003231  0.670938  0.674169  1
  Pt  Pt6  1  0.337899  0.337899  0.675798  1
  Rh  Rh7  1  0.662295  0.337706  0.000000  1
  Rh  Rh8  1  0.337706  0.662295  0.000000  1
