# generated using pymatgen
data_Y4NbOs7
_symmetry_space_group_name_H-M   'P 1'
_cell_length_a   5.31279479
_cell_length_b   5.31279478
_cell_length_c   8.97662600
_cell_angle_alpha   90.00000000
_cell_angle_beta   90.00000000
_cell_angle_gamma   117.70572943
_symmetry_Int_Tables_number   1
_chemical_formula_structural   Y4NbOs7
_chemical_formula_sum   'Y4 Nb1 Os7'
_cell_volume   224.32248160
_cell_formula_units_Z   1
loop_
 _symmetry_equiv_pos_site_id
 _symmetry_equiv_pos_as_xyz
  1  'x, y, z'
loop_
 _atom_site_type_symbol
 _atom_site_label
 _atom_site_symmetry_multiplicity
 _atom_site_fract_x
 _atom_site_fract_y
 _atom_site_fract_z
 _atom_site_occupancy
  Y  Y0  1  0.329811  0.670189  0.439880  1
  Y  Y1  1  0.667100  0.332900  0.568785  1
  Y  Y2  1  0.667100  0.332900  0.931215  1
  Y  Y3  1  0.329811  0.670189  0.060120  1
  Nb  Nb4  1  0.836231  0.163769  0.250000  1
  Os  Os5  1  0.998604  0.001396  0.506478  1
  Os  Os6  1  0.998604  0.001396  0.993522  1
  Os  Os7  1  0.822655  0.654222  0.250000  1
  Os  Os8  1  0.345778  0.177345  0.250000  1
  Os  Os9  1  0.174179  0.825821  0.750000  1
  Os  Os10  1  0.173691  0.343564  0.750000  1
  Os  Os11  1  0.656436  0.826309  0.750000  1
