# generated using pymatgen
data_Ho12Zn11GaC4
_symmetry_space_group_name_H-M   'P 1'
_cell_length_a   9.13768409
_cell_length_b   9.13768437
_cell_length_c   9.13807500
_cell_angle_alpha   60.00140638
_cell_angle_beta   60.00141010
_cell_angle_gamma   60.00000269
_symmetry_Int_Tables_number   1
_chemical_formula_structural   Ho12Zn11GaC4
_chemical_formula_sum   'Ho12 Zn11 Ga1 C4'
_cell_volume   539.53704077
_cell_formula_units_Z   1
loop_
 _symmetry_equiv_pos_site_id
 _symmetry_equiv_pos_as_xyz
  1  'x, y, z'
loop_
 _atom_site_type_symbol
 _atom_site_label
 _atom_site_symmetry_multiplicity
 _atom_site_fract_x
 _atom_site_fract_y
 _atom_site_fract_z
 _atom_site_occupancy
  Ho  Ho0  1  0.446644  0.446644  0.053343  1
  Ho  Ho1  1  0.053369  0.446644  0.053343  1
  Ho  Ho2  1  0.446644  0.053369  0.053343  1
  Ho  Ho3  1  0.053589  0.053589  0.446512  1
  Ho  Ho4  1  0.446310  0.053589  0.446512  1
  Ho  Ho5  1  0.053589  0.446310  0.446512  1
  Ho  Ho6  1  0.803054  0.803054  0.197152  1
  Ho  Ho7  1  0.196740  0.803054  0.197152  1
  Ho  Ho8  1  0.803054  0.196740  0.197152  1
  Ho  Ho9  1  0.196630  0.196630  0.803572  1
  Ho  Ho10  1  0.803168  0.196630  0.803572  1
  Ho  Ho11  1  0.196630  0.803168  0.803572  1
  Zn  Zn12  1  0.826635  0.519536  0.827194  1
  Zn  Zn13  1  0.519536  0.826635  0.827194  1
  Zn  Zn14  1  0.826635  0.826635  0.827194  1
  Zn  Zn15  1  0.423160  0.423160  0.730520  1
  Zn  Zn16  1  0.423440  0.730168  0.422952  1
  Zn  Zn17  1  0.730168  0.423440  0.422952  1
  Zn  Zn18  1  0.423440  0.423440  0.422952  1
  Zn  Zn19  1  0.624826  0.624826  0.125521  1
  Zn  Zn20  1  0.624479  0.125715  0.625328  1
  Zn  Zn21  1  0.125715  0.624479  0.625328  1
  Zn  Zn22  1  0.624479  0.624479  0.625328  1
  Ga  Ga23  1  0.827871  0.827871  0.516388  1
  C  C24  1  0.125100  0.125100  0.624699  1
  C  C25  1  0.125005  0.625085  0.124905  1
  C  C26  1  0.625085  0.125005  0.124905  1
  C  C27  1  0.125005  0.125005  0.124905  1
