# generated using pymatgen
data_LuBi3(Rh2O7)2
_symmetry_space_group_name_H-M   'P 1'
_cell_length_a   7.25950955
_cell_length_b   7.25950937
_cell_length_c   7.25950909
_cell_angle_alpha   60.59313397
_cell_angle_beta   60.59313506
_cell_angle_gamma   60.59313221
_symmetry_Int_Tables_number   1
_chemical_formula_structural   LuBi3(Rh2O7)2
_chemical_formula_sum   'Lu1 Bi3 Rh4 O14'
_cell_volume   274.14873139
_cell_formula_units_Z   1
loop_
 _symmetry_equiv_pos_site_id
 _symmetry_equiv_pos_as_xyz
  1  'x, y, z'
loop_
 _atom_site_type_symbol
 _atom_site_label
 _atom_site_symmetry_multiplicity
 _atom_site_fract_x
 _atom_site_fract_y
 _atom_site_fract_z
 _atom_site_occupancy
  Lu  Lu0  1  0.125000  0.125000  0.125000  1
  Bi  Bi1  1  0.125000  0.625000  0.125000  1
  Bi  Bi2  1  0.625000  0.125000  0.125000  1
  Bi  Bi3  1  0.125000  0.125000  0.625000  1
  Rh  Rh4  1  0.625000  0.625000  0.625000  1
  Rh  Rh5  1  0.625000  0.625000  0.125000  1
  Rh  Rh6  1  0.125000  0.625000  0.625000  1
  Rh  Rh7  1  0.625000  0.125000  0.625000  1
  O  O8  1  0.245580  0.245580  0.245580  1
  O  O9  1  0.287681  0.719139  0.287681  1
  O  O10  1  0.962319  0.962319  0.530861  1
  O  O11  1  0.542084  0.958094  0.542084  1
  O  O12  1  0.707916  0.707916  0.291906  1
  O  O13  1  0.958094  0.542084  0.542084  1
  O  O14  1  0.707916  0.291906  0.707916  1
  O  O15  1  0.287681  0.287681  0.719139  1
  O  O16  1  0.719139  0.287681  0.287681  1
  O  O17  1  0.291906  0.707916  0.707916  1
  O  O18  1  0.962319  0.530861  0.962319  1
  O  O19  1  0.542084  0.542084  0.958094  1
  O  O20  1  0.004420  0.004420  0.004420  1
  O  O21  1  0.530861  0.962319  0.962319  1
