# generated using pymatgen
data_LaTb4Nd3(CdPd)2
_symmetry_space_group_name_H-M   'P 1'
_cell_length_a   9.91627993
_cell_length_b   9.91628071
_cell_length_c   9.89937200
_cell_angle_alpha   60.05638977
_cell_angle_beta   60.05638719
_cell_angle_gamma   59.82233791
_symmetry_Int_Tables_number   1
_chemical_formula_structural   LaTb4Nd3(CdPd)2
_chemical_formula_sum   'La2 Tb8 Nd6 Cd4 Pd4'
_cell_volume   687.97453660
_cell_formula_units_Z   2
loop_
 _symmetry_equiv_pos_site_id
 _symmetry_equiv_pos_as_xyz
  1  'x, y, z'
loop_
 _atom_site_type_symbol
 _atom_site_label
 _atom_site_symmetry_multiplicity
 _atom_site_fract_x
 _atom_site_fract_y
 _atom_site_fract_z
 _atom_site_occupancy
  La  La0  1  0.351132  0.351132  0.353374  1
  La  La1  1  0.351132  0.351132  0.944361  1
  Tb  Tb2  1  0.352109  0.940430  0.353730  1
  Tb  Tb3  1  0.940430  0.352109  0.353730  1
  Tb  Tb4  1  0.814524  0.187553  0.187326  1
  Tb  Tb5  1  0.187553  0.814524  0.810597  1
  Tb  Tb6  1  0.187553  0.814524  0.187326  1
  Tb  Tb7  1  0.814524  0.187553  0.810597  1
  Tb  Tb8  1  0.187144  0.187144  0.812856  1
  Tb  Tb9  1  0.810901  0.810901  0.189099  1
  Nd  Nd10  1  0.936686  0.563437  0.564388  1
  Nd  Nd11  1  0.563437  0.936686  0.935490  1
  Nd  Nd12  1  0.563437  0.936686  0.564388  1
  Nd  Nd13  1  0.936686  0.563437  0.935490  1
  Nd  Nd14  1  0.563601  0.563601  0.936399  1
  Nd  Nd15  1  0.936918  0.936918  0.563082  1
  Cd  Cd16  1  0.582721  0.582721  0.575735  1
  Cd  Cd17  1  0.582721  0.582721  0.258825  1
  Cd  Cd18  1  0.585235  0.258272  0.578247  1
  Cd  Cd19  1  0.258272  0.585235  0.578247  1
  Pd  Pd20  1  0.140779  0.140779  0.148369  1
  Pd  Pd21  1  0.140779  0.140779  0.570073  1
  Pd  Pd22  1  0.138432  0.573296  0.144136  1
  Pd  Pd23  1  0.573296  0.138432  0.144136  1
