# generated using pymatgen
data_Zr3Nb2Ir3N
_symmetry_space_group_name_H-M   'P 1'
_cell_length_a   8.02996100
_cell_length_b   8.02996056
_cell_length_c   5.37969400
_cell_angle_alpha   90.00000000
_cell_angle_beta   90.00000000
_cell_angle_gamma   119.99999769
_symmetry_Int_Tables_number   1
_chemical_formula_structural   Zr3Nb2Ir3N
_chemical_formula_sum   'Zr6 Nb4 Ir6 N2'
_cell_volume   300.41046917
_cell_formula_units_Z   2
loop_
 _symmetry_equiv_pos_site_id
 _symmetry_equiv_pos_as_xyz
  1  'x, y, z'
loop_
 _atom_site_type_symbol
 _atom_site_label
 _atom_site_symmetry_multiplicity
 _atom_site_fract_x
 _atom_site_fract_y
 _atom_site_fract_z
 _atom_site_occupancy
  Zr  Zr0  1  0.233765  0.000000  0.750000  1
  Zr  Zr1  1  0.766235  0.000000  0.250000  1
  Zr  Zr2  1  0.000000  0.233765  0.750000  1
  Zr  Zr3  1  0.000000  0.766235  0.250000  1
  Zr  Zr4  1  0.766235  0.766235  0.750000  1
  Zr  Zr5  1  0.233765  0.233765  0.250000  1
  Nb  Nb6  1  0.333333  0.666667  0.500000  1
  Nb  Nb7  1  0.666667  0.333333  0.500000  1
  Nb  Nb8  1  0.666667  0.333333  0.000000  1
  Nb  Nb9  1  0.333333  0.666667  0.000000  1
  Ir  Ir10  1  0.583934  0.000000  0.750000  1
  Ir  Ir11  1  0.416066  0.000000  0.250000  1
  Ir  Ir12  1  0.000000  0.583934  0.750000  1
  Ir  Ir13  1  0.000000  0.416066  0.250000  1
  Ir  Ir14  1  0.416066  0.416066  0.750000  1
  Ir  Ir15  1  0.583934  0.583934  0.250000  1
  N  N16  1  0.000000  0.000000  0.500000  1
  N  N17  1  0.000000  0.000000  0.000000  1
