# generated using pymatgen
data_Dy3Lu2Bi2Ru
_symmetry_space_group_name_H-M   'P 1'
_cell_length_a   7.90547500
_cell_length_b   8.96970100
_cell_length_c   12.42163500
_cell_angle_alpha   90.00000000
_cell_angle_beta   90.00000000
_cell_angle_gamma   90.00000000
_symmetry_Int_Tables_number   1
_chemical_formula_structural   Dy3Lu2Bi2Ru
_chemical_formula_sum   'Dy12 Lu8 Bi8 Ru4'
_cell_volume   880.81499534
_cell_formula_units_Z   4
loop_
 _symmetry_equiv_pos_site_id
 _symmetry_equiv_pos_as_xyz
  1  'x, y, z'
loop_
 _atom_site_type_symbol
 _atom_site_label
 _atom_site_symmetry_multiplicity
 _atom_site_fract_x
 _atom_site_fract_y
 _atom_site_fract_z
 _atom_site_occupancy
  Dy  Dy0  1  0.843426  0.750000  0.793486  1
  Dy  Dy1  1  0.156574  0.250000  0.206514  1
  Dy  Dy2  1  0.343426  0.250000  0.706514  1
  Dy  Dy3  1  0.656574  0.750000  0.293486  1
  Dy  Dy4  1  0.376255  0.750000  0.690691  1
  Dy  Dy5  1  0.623745  0.250000  0.309309  1
  Dy  Dy6  1  0.876255  0.250000  0.809309  1
  Dy  Dy7  1  0.123745  0.750000  0.190691  1
  Dy  Dy8  1  0.946312  0.750000  0.504534  1
  Dy  Dy9  1  0.053688  0.250000  0.495466  1
  Dy  Dy10  1  0.446312  0.250000  0.995466  1
  Dy  Dy11  1  0.553688  0.750000  0.004534  1
  Lu  Lu12  1  0.672338  0.042163  0.563756  1
  Lu  Lu13  1  0.327662  0.957837  0.436244  1
  Lu  Lu14  1  0.172338  0.957837  0.936244  1
  Lu  Lu15  1  0.327662  0.542163  0.436244  1
  Lu  Lu16  1  0.827662  0.042163  0.063756  1
  Lu  Lu17  1  0.672338  0.457837  0.563756  1
  Lu  Lu18  1  0.827662  0.457837  0.063756  1
  Lu  Lu19  1  0.172338  0.542163  0.936244  1
  Bi  Bi20  1  0.568044  0.493553  0.827320  1
  Bi  Bi21  1  0.431956  0.506447  0.172680  1
  Bi  Bi22  1  0.068044  0.506447  0.672680  1
  Bi  Bi23  1  0.431956  0.993553  0.172680  1
  Bi  Bi24  1  0.931956  0.493553  0.327320  1
  Bi  Bi25  1  0.568044  0.006447  0.827320  1
  Bi  Bi26  1  0.931956  0.006447  0.327320  1
  Bi  Bi27  1  0.068044  0.993553  0.672680  1
  Ru  Ru28  1  0.570970  0.750000  0.509713  1
  Ru  Ru29  1  0.429030  0.250000  0.490287  1
  Ru  Ru30  1  0.070970  0.250000  0.990287  1
  Ru  Ru31  1  0.929030  0.750000  0.009713  1
