# generated using pymatgen
data_Tm4Lu4Tc3B24Rh
_symmetry_space_group_name_H-M   'P 1'
_cell_length_a   3.62159200
_cell_length_b   9.05887996
_cell_length_c   11.42882303
_cell_angle_alpha   90.11316593
_cell_angle_beta   90.00000000
_cell_angle_gamma   90.00000000
_symmetry_Int_Tables_number   1
_chemical_formula_structural   Tm4Lu4Tc3B24Rh
_chemical_formula_sum   'Tm4 Lu4 Tc3 B24 Rh1'
_cell_volume   374.95114790
_cell_formula_units_Z   1
loop_
 _symmetry_equiv_pos_site_id
 _symmetry_equiv_pos_as_xyz
  1  'x, y, z'
loop_
 _atom_site_type_symbol
 _atom_site_label
 _atom_site_symmetry_multiplicity
 _atom_site_fract_x
 _atom_site_fract_y
 _atom_site_fract_z
 _atom_site_occupancy
  Tm  Tm0  1  0.500000  0.317268  0.415861  1
  Tm  Tm1  1  0.500000  0.678927  0.591205  1
  Tm  Tm2  1  0.500000  0.177981  0.912749  1
  Tm  Tm3  1  0.500000  0.826723  0.080957  1
  Lu  Lu4  1  0.500000  0.440484  0.128581  1
  Lu  Lu5  1  0.500000  0.557244  0.871104  1
  Lu  Lu6  1  0.500000  0.056266  0.629416  1
  Lu  Lu7  1  0.500000  0.943764  0.370091  1
  Tc  Tc8  1  0.500000  0.138430  0.180570  1
  Tc  Tc9  1  0.500000  0.861630  0.820418  1
  Tc  Tc10  1  0.500000  0.362513  0.678096  1
  B  B11  1  0.000000  0.100140  0.471809  1
  B  B12  1  0.000000  0.896723  0.527765  1
  B  B13  1  0.000000  0.398667  0.972296  1
  B  B14  1  0.000000  0.602505  0.028831  1
  B  B15  1  0.000000  0.129956  0.315898  1
  B  B16  1  0.000000  0.869405  0.684587  1
  B  B17  1  0.000000  0.370222  0.815085  1
  B  B18  1  0.000000  0.630818  0.183235  1
  B  B19  1  0.000000  0.053454  0.066161  1
  B  B20  1  0.000000  0.947563  0.932983  1
  B  B21  1  0.000000  0.446591  0.566056  1
  B  B22  1  0.000000  0.553788  0.434328  1
  B  B23  1  0.000000  0.481730  0.287789  1
  B  B24  1  0.000000  0.519345  0.712444  1
  B  B25  1  0.000000  0.019001  0.786976  1
  B  B26  1  0.000000  0.981269  0.212119  1
  B  B27  1  0.000000  0.250138  0.080809  1
  B  B28  1  0.000000  0.750837  0.919304  1
  B  B29  1  0.000000  0.249291  0.580566  1
  B  B30  1  0.000000  0.749772  0.420720  1
  B  B31  1  0.000000  0.292443  0.235965  1
  B  B32  1  0.000000  0.707794  0.765257  1
  B  B33  1  0.000000  0.207958  0.734817  1
  B  B34  1  0.000000  0.791539  0.264341  1
  Rh  Rh35  1  0.500000  0.637820  0.320817  1
