# generated using pymatgen
data_Nd8Co(Si4Ni)3
_symmetry_space_group_name_H-M   'P 1'
_cell_length_a   8.09160100
_cell_length_b   8.09160123
_cell_length_c   8.51582700
_cell_angle_alpha   90.00000000
_cell_angle_beta   90.00000000
_cell_angle_gamma   120.00000315
_symmetry_Int_Tables_number   1
_chemical_formula_structural   Nd8Co(Si4Ni)3
_chemical_formula_sum   'Nd8 Co1 Si12 Ni3'
_cell_volume   482.86572495
_cell_formula_units_Z   1
loop_
 _symmetry_equiv_pos_site_id
 _symmetry_equiv_pos_as_xyz
  1  'x, y, z'
loop_
 _atom_site_type_symbol
 _atom_site_label
 _atom_site_symmetry_multiplicity
 _atom_site_fract_x
 _atom_site_fract_y
 _atom_site_fract_z
 _atom_site_occupancy
  Nd  Nd0  1  0.000000  0.000000  0.749566  1
  Nd  Nd1  1  0.000000  0.000000  0.250455  1
  Nd  Nd2  1  0.498962  0.501038  0.751701  1
  Nd  Nd3  1  0.498962  0.997924  0.751701  1
  Nd  Nd4  1  0.002076  0.501038  0.751701  1
  Nd  Nd5  1  0.499247  0.500753  0.248254  1
  Nd  Nd6  1  0.001508  0.500753  0.248254  1
  Nd  Nd7  1  0.499247  0.998492  0.248254  1
  Co  Co8  1  0.333333  0.666667  0.001107  1
  Si  Si9  1  0.829490  0.170510  0.999845  1
  Si  Si10  1  0.829490  0.658981  0.999845  1
  Si  Si11  1  0.341019  0.170510  0.999845  1
  Si  Si12  1  0.829074  0.170926  0.500163  1
  Si  Si13  1  0.829074  0.658147  0.500163  1
  Si  Si14  1  0.341853  0.170926  0.500163  1
  Si  Si15  1  0.170660  0.829340  0.499938  1
  Si  Si16  1  0.658680  0.829340  0.499938  1
  Si  Si17  1  0.170660  0.341320  0.499938  1
  Si  Si18  1  0.172085  0.827915  0.000056  1
  Si  Si19  1  0.655832  0.827915  0.000056  1
  Si  Si20  1  0.172085  0.344168  0.000056  1
  Ni  Ni21  1  0.666667  0.333333  0.999181  1
  Ni  Ni22  1  0.666667  0.333333  0.500439  1
  Ni  Ni23  1  0.333333  0.666667  0.499380  1
