# generated using pymatgen
data_Sr6Cd2AgSn3
_symmetry_space_group_name_H-M   'P 1'
_cell_length_a   5.71028900
_cell_length_b   8.05876500
_cell_length_c   17.15735200
_cell_angle_alpha   90.00006894
_cell_angle_beta   90.00183142
_cell_angle_gamma   90.00000000
_symmetry_Int_Tables_number   1
_chemical_formula_structural   Sr6Cd2AgSn3
_chemical_formula_sum   'Sr12 Cd4 Ag2 Sn6'
_cell_volume   789.54491606
_cell_formula_units_Z   2
loop_
 _symmetry_equiv_pos_site_id
 _symmetry_equiv_pos_as_xyz
  1  'x, y, z'
loop_
 _atom_site_type_symbol
 _atom_site_label
 _atom_site_symmetry_multiplicity
 _atom_site_fract_x
 _atom_site_fract_y
 _atom_site_fract_z
 _atom_site_occupancy
  Sr  Sr0  1  0.500004  0.246792  0.003157  1
  Sr  Sr1  1  0.499999  0.753209  0.003158  1
  Sr  Sr2  1  0.000073  0.253198  0.163473  1
  Sr  Sr3  1  0.000077  0.746803  0.163473  1
  Sr  Sr4  1  0.500108  0.253986  0.329897  1
  Sr  Sr5  1  0.500107  0.746014  0.329896  1
  Sr  Sr6  1  0.000000  0.249306  0.499787  1
  Sr  Sr7  1  0.000001  0.750695  0.499787  1
  Sr  Sr8  1  0.499886  0.250778  0.666891  1
  Sr  Sr9  1  0.499883  0.749223  0.666891  1
  Sr  Sr10  1  0.999909  0.245936  0.836821  1
  Sr  Sr11  1  0.999909  0.754065  0.836822  1
  Cd  Cd12  1  0.000188  0.000000  0.330451  1
  Cd  Cd13  1  0.500003  0.500000  0.498672  1
  Cd  Cd14  1  0.999835  0.000000  0.668076  1
  Cd  Cd15  1  0.499846  0.500000  0.836236  1
  Ag  Ag16  1  0.999977  0.000000  0.000993  1
  Ag  Ag17  1  0.500174  0.500000  0.165900  1
  Sn  Sn18  1  0.000001  0.500000  0.997577  1
  Sn  Sn19  1  0.500064  0.000000  0.168972  1
  Sn  Sn20  1  0.000094  0.500000  0.334781  1
  Sn  Sn21  1  0.500002  0.000001  0.499364  1
  Sn  Sn22  1  0.999952  0.500001  0.667406  1
  Sn  Sn23  1  0.499903  0.000001  0.831519  1
