# generated using pymatgen
data_Nd4Sc6Ga7As
_symmetry_space_group_name_H-M   'P 1'
_cell_length_a   7.40692900
_cell_length_b   7.69445402
_cell_length_c   14.52625600
_cell_angle_alpha   90.00000000
_cell_angle_beta   90.00000000
_cell_angle_gamma   89.85983677
_symmetry_Int_Tables_number   1
_chemical_formula_structural   Nd4Sc6Ga7As
_chemical_formula_sum   'Nd8 Sc12 Ga14 As2'
_cell_volume   827.88189432
_cell_formula_units_Z   2
loop_
 _symmetry_equiv_pos_site_id
 _symmetry_equiv_pos_as_xyz
  1  'x, y, z'
loop_
 _atom_site_type_symbol
 _atom_site_label
 _atom_site_symmetry_multiplicity
 _atom_site_fract_x
 _atom_site_fract_y
 _atom_site_fract_z
 _atom_site_occupancy
  Nd  Nd0  1  0.011199  0.178344  0.404266  1
  Nd  Nd1  1  0.512839  0.317735  0.404803  1
  Nd  Nd2  1  0.487161  0.682265  0.904803  1
  Nd  Nd3  1  0.489584  0.672626  0.594867  1
  Nd  Nd4  1  0.986200  0.824693  0.594748  1
  Nd  Nd5  1  0.988801  0.821656  0.904266  1
  Nd  Nd6  1  0.510416  0.327374  0.094867  1
  Nd  Nd7  1  0.013800  0.175307  0.094748  1
  Sc  Sc8  1  0.323827  0.173168  0.624079  1
  Sc  Sc9  1  0.669385  0.832814  0.375109  1
  Sc  Sc10  1  0.662590  0.001310  0.749455  1
  Sc  Sc11  1  0.171937  0.671286  0.376222  1
  Sc  Sc12  1  0.828063  0.328714  0.876222  1
  Sc  Sc13  1  0.831019  0.326600  0.624907  1
  Sc  Sc14  1  0.837332  0.498685  0.250044  1
  Sc  Sc15  1  0.337410  0.998690  0.249455  1
  Sc  Sc16  1  0.330615  0.167186  0.875109  1
  Sc  Sc17  1  0.168981  0.673400  0.124907  1
  Sc  Sc18  1  0.676173  0.826832  0.124079  1
  Sc  Sc19  1  0.162668  0.501315  0.750044  1
  Ga  Ga20  1  0.284555  0.877231  0.748825  1
  Ga  Ga21  1  0.469489  0.622700  0.251240  1
  Ga  Ga22  1  0.030581  0.121783  0.749190  1
  Ga  Ga23  1  0.530511  0.377300  0.751240  1
  Ga  Ga24  1  0.969419  0.878217  0.249190  1
  Ga  Ga25  1  0.715445  0.122769  0.248825  1
  Ga  Ga26  1  0.345797  0.960623  0.044107  1
  Ga  Ga27  1  0.167936  0.459389  0.955913  1
  Ga  Ga28  1  0.654203  0.039377  0.544107  1
  Ga  Ga29  1  0.341634  0.961600  0.459252  1
  Ga  Ga30  1  0.832064  0.540611  0.455913  1
  Ga  Ga31  1  0.785435  0.620938  0.750079  1
  Ga  Ga32  1  0.214565  0.379062  0.250079  1
  Ga  Ga33  1  0.658366  0.038400  0.959252  1
  As  As34  1  0.157134  0.463581  0.542893  1
  As  As35  1  0.842866  0.536419  0.042893  1
