# generated using pymatgen
data_LaNdPI
_symmetry_space_group_name_H-M   'P 1'
_cell_length_a   8.15742324
_cell_length_b   8.15742324
_cell_length_c   8.15742304
_cell_angle_alpha   30.32359164
_cell_angle_beta   30.32358769
_cell_angle_gamma   30.32359563
_symmetry_Int_Tables_number   1
_chemical_formula_structural   LaNdPI
_chemical_formula_sum   'La1 Nd1 P1 I1'
_cell_volume   122.62438321
_cell_formula_units_Z   1
loop_
 _symmetry_equiv_pos_site_id
 _symmetry_equiv_pos_as_xyz
  1  'x, y, z'
loop_
 _atom_site_type_symbol
 _atom_site_label
 _atom_site_symmetry_multiplicity
 _atom_site_fract_x
 _atom_site_fract_y
 _atom_site_fract_z
 _atom_site_occupancy
  La  La0  1  0.229781  0.229781  0.229781  1
  Nd  Nd1  1  0.770674  0.770674  0.770674  1
  P  P2  1  0.498362  0.498362  0.498362  1
  I  I3  1  0.001183  0.001183  0.001183  1
