# generated using pymatgen
data_K4PPt3Au5
_symmetry_space_group_name_H-M   'P 1'
_cell_length_a   10.57570425
_cell_length_b   10.57570363
_cell_length_c   10.44589048
_cell_angle_alpha   80.72332579
_cell_angle_beta   80.72332046
_cell_angle_gamma   33.31589237
_symmetry_Int_Tables_number   1
_chemical_formula_structural   K4PPt3Au5
_chemical_formula_sum   'K8 P2 Pt6 Au10'
_cell_volume   632.55900166
_cell_formula_units_Z   2
loop_
 _symmetry_equiv_pos_site_id
 _symmetry_equiv_pos_as_xyz
  1  'x, y, z'
loop_
 _atom_site_type_symbol
 _atom_site_label
 _atom_site_symmetry_multiplicity
 _atom_site_fract_x
 _atom_site_fract_y
 _atom_site_fract_z
 _atom_site_occupancy
  K  K0  1  0.480958  0.480958  0.832607  1
  K  K1  1  0.519042  0.519042  0.167393  1
  K  K2  1  0.281518  0.281518  0.903323  1
  K  K3  1  0.718482  0.718482  0.096677  1
  K  K4  1  0.222716  0.222716  0.590839  1
  K  K5  1  0.777284  0.777284  0.409161  1
  K  K6  1  0.041487  0.041487  0.657747  1
  K  K7  1  0.958513  0.958513  0.342253  1
  P  P8  1  0.669456  0.669456  0.762219  1
  P  P9  1  0.330544  0.330544  0.237781  1
  Pt  Pt10  1  0.781201  0.781201  0.743108  1
  Pt  Pt11  1  0.218799  0.218799  0.256892  1
  Pt  Pt12  1  0.621309  0.621309  0.583735  1
  Pt  Pt13  1  0.378691  0.378691  0.416265  1
  Pt  Pt14  1  0.108254  0.108254  0.139954  1
  Pt  Pt15  1  0.891746  0.891746  0.860046  1
  Au  Au16  1  0.500000  0.500000  0.500000  1
  Au  Au17  1  0.000000  0.000000  0.000000  1
  Au  Au18  1  0.861951  0.362355  0.366279  1
  Au  Au19  1  0.637645  0.138049  0.633721  1
  Au  Au20  1  0.138049  0.637645  0.633721  1
  Au  Au21  1  0.362355  0.861951  0.366279  1
  Au  Au22  1  0.110066  0.647593  0.087909  1
  Au  Au23  1  0.352407  0.889934  0.912091  1
  Au  Au24  1  0.889934  0.352407  0.912091  1
  Au  Au25  1  0.647593  0.110066  0.087909  1
