# generated using pymatgen
data_Y4IrPd3O14
_symmetry_space_group_name_H-M   'P 1'
_cell_length_a   7.25314627
_cell_length_b   7.25314692
_cell_length_c   7.27480109
_cell_angle_alpha   60.09842337
_cell_angle_beta   60.09841954
_cell_angle_gamma   60.00000379
_symmetry_Int_Tables_number   1
_chemical_formula_structural   Y4IrPd3O14
_chemical_formula_sum   'Y4 Ir1 Pd3 O14'
_cell_volume   271.02136131
_cell_formula_units_Z   1
loop_
 _symmetry_equiv_pos_site_id
 _symmetry_equiv_pos_as_xyz
  1  'x, y, z'
loop_
 _atom_site_type_symbol
 _atom_site_label
 _atom_site_symmetry_multiplicity
 _atom_site_fract_x
 _atom_site_fract_y
 _atom_site_fract_z
 _atom_site_occupancy
  Y  Y0  1  0.625000  0.125000  0.125000  1
  Y  Y1  1  0.125000  0.625000  0.125000  1
  Y  Y2  1  0.125000  0.125000  0.625000  1
  Y  Y3  1  0.125000  0.125000  0.125000  1
  Ir  Ir4  1  0.625000  0.625000  0.125000  1
  Pd  Pd5  1  0.125000  0.625000  0.625000  1
  Pd  Pd6  1  0.625000  0.125000  0.625000  1
  Pd  Pd7  1  0.625000  0.625000  0.625000  1
  O  O8  1  0.712788  0.712788  0.283777  1
  O  O9  1  0.284040  0.284040  0.717260  1
  O  O10  1  0.714660  0.284040  0.717260  1
  O  O11  1  0.290647  0.712788  0.283777  1
  O  O12  1  0.284040  0.714660  0.717260  1
  O  O13  1  0.712788  0.290647  0.283777  1
  O  O14  1  0.537212  0.537212  0.966223  1
  O  O15  1  0.965960  0.965960  0.532740  1
  O  O16  1  0.535340  0.965960  0.532740  1
  O  O17  1  0.959353  0.537212  0.966223  1
  O  O18  1  0.965960  0.535340  0.532740  1
  O  O19  1  0.537212  0.959353  0.966223  1
  O  O20  1  0.250420  0.250420  0.248740  1
  O  O21  1  0.999580  0.999580  0.001260  1
