# generated using pymatgen
data_Pr12ZnBBr17
_symmetry_space_group_name_H-M   'P 1'
_cell_length_a   9.49599184
_cell_length_b   11.37880137
_cell_length_c   11.13390700
_cell_angle_alpha   93.91816695
_cell_angle_beta   104.71277943
_cell_angle_gamma   115.81572594
_symmetry_Int_Tables_number   1
_chemical_formula_structural   Pr12ZnBBr17
_chemical_formula_sum   'Pr12 Zn1 B1 Br17'
_cell_volume   1025.11896296
_cell_formula_units_Z   1
loop_
 _symmetry_equiv_pos_site_id
 _symmetry_equiv_pos_as_xyz
  1  'x, y, z'
loop_
 _atom_site_type_symbol
 _atom_site_label
 _atom_site_symmetry_multiplicity
 _atom_site_fract_x
 _atom_site_fract_y
 _atom_site_fract_z
 _atom_site_occupancy
  Pr  Pr0  1  0.058820  0.520675  0.328139  1
  Pr  Pr1  1  0.989772  0.819095  0.562367  1
  Pr  Pr2  1  0.630896  0.237860  0.278442  1
  Pr  Pr3  1  0.010554  0.192942  0.423306  1
  Pr  Pr4  1  0.219708  0.650545  0.021117  1
  Pr  Pr5  1  0.302699  0.017048  0.920330  1
  Pr  Pr6  1  0.386517  0.764899  0.714058  1
  Pr  Pr7  1  0.924270  0.458311  0.654395  1
  Pr  Pr8  1  0.723705  0.009975  0.092325  1
  Pr  Pr9  1  0.150585  0.293335  0.142271  1
  Pr  Pr10  1  0.774034  0.332073  0.000605  1
  Pr  Pr11  1  0.826367  0.704200  0.860504  1
  Zn  Zn12  1  0.107638  0.735721  0.789104  1
  B  B13  1  0.895903  0.262880  0.215414  1
  Br  Br14  1  0.774451  0.529616  0.411746  1
  Br  Br15  1  0.631629  0.413835  0.742485  1
  Br  Br16  1  0.839017  0.900216  0.317918  1
  Br  Br17  1  0.314118  0.213025  0.363390  1
  Br  Br18  1  0.163047  0.105498  0.682726  1
  Br  Br19  1  0.593174  0.058881  0.826845  1
  Br  Br20  1  0.732330  0.158367  0.527666  1
  Br  Br21  1  0.535181  0.691959  0.956752  1
  Br  Br22  1  0.375357  0.582067  0.268471  1
  Br  Br23  1  0.225995  0.474215  0.584128  1
  Br  Br24  1  0.051509  0.359200  0.884579  1
  Br  Br25  1  0.463640  0.319428  0.049583  1
  Br  Br26  1  0.002070  0.000735  0.000096  1
  Br  Br27  1  0.260531  0.829622  0.464470  1
  Br  Br28  1  0.414769  0.940082  0.173339  1
  Br  Br29  1  0.687174  0.788273  0.631685  1
  Br  Br30  1  0.934543  0.635424  0.111746  1
