# generated using pymatgen
data_CaPrNbRh3
_symmetry_space_group_name_H-M   'P 1'
_cell_length_a   5.28761935
_cell_length_b   5.28761925
_cell_length_c   5.28761902
_cell_angle_alpha   66.31791221
_cell_angle_beta   66.31791068
_cell_angle_gamma   66.31791925
_symmetry_Int_Tables_number   1
_chemical_formula_structural   CaPrNbRh3
_chemical_formula_sum   'Ca1 Pr1 Nb1 Rh3'
_cell_volume   118.78572150
_cell_formula_units_Z   1
loop_
 _symmetry_equiv_pos_site_id
 _symmetry_equiv_pos_as_xyz
  1  'x, y, z'
loop_
 _atom_site_type_symbol
 _atom_site_label
 _atom_site_symmetry_multiplicity
 _atom_site_fract_x
 _atom_site_fract_y
 _atom_site_fract_z
 _atom_site_occupancy
  Ca  Ca0  1  0.628306  0.628306  0.628306  1
  Pr  Pr1  1  0.374168  0.374168  0.374168  1
  Nb  Nb2  1  0.999961  0.999961  0.999961  1
  Rh  Rh3  1  0.998657  0.998657  0.500251  1
  Rh  Rh4  1  0.500251  0.998657  0.998657  1
  Rh  Rh5  1  0.998657  0.500251  0.998657  1
