# generated using pymatgen
data_Er12Ni5Pb
_symmetry_space_group_name_H-M   'P 1'
_cell_length_a   8.22730412
_cell_length_b   8.22730394
_cell_length_c   8.22730504
_cell_angle_alpha   106.98780906
_cell_angle_beta   109.84732187
_cell_angle_gamma   111.61185282
_symmetry_Int_Tables_number   1
_chemical_formula_structural   Er12Ni5Pb
_chemical_formula_sum   'Er12 Ni5 Pb1'
_cell_volume   427.99023839
_cell_formula_units_Z   1
loop_
 _symmetry_equiv_pos_site_id
 _symmetry_equiv_pos_as_xyz
  1  'x, y, z'
loop_
 _atom_site_type_symbol
 _atom_site_label
 _atom_site_symmetry_multiplicity
 _atom_site_fract_x
 _atom_site_fract_y
 _atom_site_fract_z
 _atom_site_occupancy
  Er  Er0  1  0.475666  0.293986  0.181680  1
  Er  Er1  1  0.112307  0.293986  0.818320  1
  Er  Er2  1  0.887693  0.706014  0.181680  1
  Er  Er3  1  0.524334  0.706014  0.818320  1
  Er  Er4  1  0.306592  0.628225  0.321633  1
  Er  Er5  1  0.306592  0.984960  0.678367  1
  Er  Er6  1  0.693408  0.371775  0.678367  1
  Er  Er7  1  0.693408  0.015040  0.321633  1
  Er  Er8  1  0.191726  0.211492  0.403218  1
  Er  Er9  1  0.808274  0.788508  0.596782  1
  Er  Er10  1  0.191726  0.788508  0.980233  1
  Er  Er11  1  0.808274  0.211492  0.019767  1
  Ni  Ni12  1  0.500000  0.624610  0.124610  1
  Ni  Ni13  1  0.500000  0.375390  0.875390  1
  Ni  Ni14  1  0.363759  0.000000  0.363759  1
  Ni  Ni15  1  0.636241  0.000000  0.636241  1
  Ni  Ni16  1  0.000000  0.000000  0.000000  1
  Pb  Pb17  1  0.000000  0.500000  0.500000  1
