# generated using pymatgen
data_DyLu2Mg3Si2Ag
_symmetry_space_group_name_H-M   'P 1'
_cell_length_a   7.21440155
_cell_length_b   7.18112380
_cell_length_c   4.28539400
_cell_angle_alpha   90.00000000
_cell_angle_beta   90.00000000
_cell_angle_gamma   119.84753416
_symmetry_Int_Tables_number   1
_chemical_formula_structural   DyLu2Mg3Si2Ag
_chemical_formula_sum   'Dy1 Lu2 Mg3 Si2 Ag1'
_cell_volume   192.56585955
_cell_formula_units_Z   1
loop_
 _symmetry_equiv_pos_site_id
 _symmetry_equiv_pos_as_xyz
  1  'x, y, z'
loop_
 _atom_site_type_symbol
 _atom_site_label
 _atom_site_symmetry_multiplicity
 _atom_site_fract_x
 _atom_site_fract_y
 _atom_site_fract_z
 _atom_site_occupancy
  Dy  Dy0  1  0.000000  0.575385  0.500000  1
  Lu  Lu1  1  0.424044  0.423265  0.500000  1
  Lu  Lu2  1  0.575956  0.999221  0.500000  1
  Mg  Mg3  1  0.750193  0.751426  0.000000  1
  Mg  Mg4  1  0.249807  0.001233  0.000000  1
  Mg  Mg5  1  0.000000  0.247642  0.000000  1
  Si  Si6  1  0.663666  0.331157  0.000000  1
  Si  Si7  1  0.336334  0.667492  0.000000  1
  Ag  Ag8  1  0.000000  0.003178  0.500000  1
