# generated using pymatgen
data_Cs2Cd(IBr)2
_symmetry_space_group_name_H-M   'P 1'
_cell_length_a   7.76796813
_cell_length_b   7.76796770
_cell_length_c   12.37742000
_cell_angle_alpha   90.00000000
_cell_angle_beta   90.00000000
_cell_angle_gamma   109.79518988
_symmetry_Int_Tables_number   1
_chemical_formula_structural   Cs2Cd(IBr)2
_chemical_formula_sum   'Cs4 Cd2 I4 Br4'
_cell_volume   702.73678995
_cell_formula_units_Z   2
loop_
 _symmetry_equiv_pos_site_id
 _symmetry_equiv_pos_as_xyz
  1  'x, y, z'
loop_
 _atom_site_type_symbol
 _atom_site_label
 _atom_site_symmetry_multiplicity
 _atom_site_fract_x
 _atom_site_fract_y
 _atom_site_fract_z
 _atom_site_occupancy
  Cs  Cs0  1  0.615288  0.615288  0.500000  1
  Cs  Cs1  1  0.615288  0.615288  0.000000  1
  Cs  Cs2  1  0.249093  0.898925  0.250000  1
  Cs  Cs3  1  0.898925  0.249093  0.750000  1
  Cd  Cd4  1  0.849670  0.295542  0.250000  1
  Cd  Cd5  1  0.295542  0.849670  0.750000  1
  I  I6  1  0.044569  0.461610  0.437480  1
  I  I7  1  0.461610  0.044569  0.562520  1
  I  I8  1  0.044569  0.461610  0.062520  1
  I  I9  1  0.461610  0.044569  0.937480  1
  Br  Br10  1  0.534228  0.361355  0.250000  1
  Br  Br11  1  0.361355  0.534228  0.750000  1
  Br  Br12  1  0.771641  0.934611  0.250000  1
  Br  Br13  1  0.934611  0.771641  0.750000  1
