# generated using pymatgen
data_Dy8Ga12Pd3Pt
_symmetry_space_group_name_H-M   'P 1'
_cell_length_a   8.91531900
_cell_length_b   8.91531948
_cell_length_c   7.07136700
_cell_angle_alpha   90.00000000
_cell_angle_beta   90.00000000
_cell_angle_gamma   120.00000194
_symmetry_Int_Tables_number   1
_chemical_formula_structural   Dy8Ga12Pd3Pt
_chemical_formula_sum   'Dy8 Ga12 Pd3 Pt1'
_cell_volume   486.75206049
_cell_formula_units_Z   1
loop_
 _symmetry_equiv_pos_site_id
 _symmetry_equiv_pos_as_xyz
  1  'x, y, z'
loop_
 _atom_site_type_symbol
 _atom_site_label
 _atom_site_symmetry_multiplicity
 _atom_site_fract_x
 _atom_site_fract_y
 _atom_site_fract_z
 _atom_site_occupancy
  Dy  Dy0  1  0.515228  0.030456  0.249628  1
  Dy  Dy1  1  0.482789  0.965576  0.750859  1
  Dy  Dy2  1  0.969544  0.484772  0.249628  1
  Dy  Dy3  1  0.034424  0.517211  0.750859  1
  Dy  Dy4  1  0.515228  0.484772  0.249628  1
  Dy  Dy5  1  0.482789  0.517211  0.750859  1
  Dy  Dy6  1  0.000000  0.000000  0.250446  1
  Dy  Dy7  1  0.000000  0.000000  0.749555  1
  Ga  Ga8  1  0.166642  0.333284  0.043345  1
  Ga  Ga9  1  0.832431  0.664862  0.957469  1
  Ga  Ga10  1  0.666716  0.833358  0.043345  1
  Ga  Ga11  1  0.832514  0.665028  0.542259  1
  Ga  Ga12  1  0.335138  0.167569  0.957469  1
  Ga  Ga13  1  0.166839  0.333677  0.459211  1
  Ga  Ga14  1  0.166642  0.833358  0.043345  1
  Ga  Ga15  1  0.334972  0.167486  0.542259  1
  Ga  Ga16  1  0.832431  0.167569  0.957469  1
  Ga  Ga17  1  0.666323  0.833161  0.459211  1
  Ga  Ga18  1  0.832514  0.167486  0.542259  1
  Ga  Ga19  1  0.166839  0.833161  0.459211  1
  Pd  Pd20  1  0.666667  0.333333  0.972646  1
  Pd  Pd21  1  0.666667  0.333333  0.527523  1
  Pd  Pd22  1  0.333333  0.666667  0.467740  1
  Pt  Pt23  1  0.333333  0.666667  0.023781  1
