# generated using pymatgen
data_Yb2Re7Si4Os
_symmetry_space_group_name_H-M   'P 1'
_cell_length_a   7.10666025
_cell_length_b   7.61628784
_cell_length_c   4.17073100
_cell_angle_alpha   90.00000000
_cell_angle_beta   90.00000000
_cell_angle_gamma   89.69511470
_symmetry_Int_Tables_number   1
_chemical_formula_structural   Yb2Re7Si4Os
_chemical_formula_sum   'Yb2 Re7 Si4 Os1'
_cell_volume   225.74333324
_cell_formula_units_Z   1
loop_
 _symmetry_equiv_pos_site_id
 _symmetry_equiv_pos_as_xyz
  1  'x, y, z'
loop_
 _atom_site_type_symbol
 _atom_site_label
 _atom_site_symmetry_multiplicity
 _atom_site_fract_x
 _atom_site_fract_y
 _atom_site_fract_z
 _atom_site_occupancy
  Yb  Yb0  1  0.498590  0.500809  0.000000  1
  Yb  Yb1  1  0.998074  0.999116  0.500000  1
  Re  Re2  1  0.415807  0.841994  0.500000  1
  Re  Re3  1  0.082573  0.337947  0.000000  1
  Re  Re4  1  0.916764  0.658463  0.000000  1
  Re  Re5  1  0.157328  0.607357  0.500000  1
  Re  Re6  1  0.846418  0.394184  0.500000  1
  Re  Re7  1  0.344497  0.105722  0.000000  1
  Re  Re8  1  0.656241  0.892598  0.000000  1
  Si  Si9  1  0.719851  0.693602  0.500000  1
  Si  Si10  1  0.280851  0.304828  0.500000  1
  Si  Si11  1  0.218636  0.807954  0.000000  1
  Si  Si12  1  0.776895  0.191966  0.000000  1
  Os  Os13  1  0.587473  0.163462  0.500000  1
