# generated using pymatgen
data_Zr24AlGe3Se8
_symmetry_space_group_name_H-M   'P 1'
_cell_length_a   3.72438500
_cell_length_b   12.76038040
_cell_length_c   15.73051770
_cell_angle_alpha   90.02378003
_cell_angle_beta   90.00000000
_cell_angle_gamma   90.00000000
_symmetry_Int_Tables_number   1
_chemical_formula_structural   Zr24AlGe3Se8
_chemical_formula_sum   'Zr24 Al1 Ge3 Se8'
_cell_volume   747.58601469
_cell_formula_units_Z   1
loop_
 _symmetry_equiv_pos_site_id
 _symmetry_equiv_pos_as_xyz
  1  'x, y, z'
loop_
 _atom_site_type_symbol
 _atom_site_label
 _atom_site_symmetry_multiplicity
 _atom_site_fract_x
 _atom_site_fract_y
 _atom_site_fract_z
 _atom_site_occupancy
  Zr  Zr0  1  0.000000  0.347586  0.479450  1
  Zr  Zr1  1  0.000000  0.644902  0.523056  1
  Zr  Zr2  1  0.500000  0.151387  0.979109  1
  Zr  Zr3  1  0.500000  0.848253  0.020170  1
  Zr  Zr4  1  0.000000  0.084920  0.576244  1
  Zr  Zr5  1  0.000000  0.920739  0.426254  1
  Zr  Zr6  1  0.500000  0.415008  0.074994  1
  Zr  Zr7  1  0.500000  0.585321  0.924630  1
  Zr  Zr8  1  0.000000  0.688049  0.291087  1
  Zr  Zr9  1  0.000000  0.310090  0.706079  1
  Zr  Zr10  1  0.500000  0.809985  0.794737  1
  Zr  Zr11  1  0.500000  0.190805  0.204753  1
  Zr  Zr12  1  0.000000  0.028244  0.107880  1
  Zr  Zr13  1  0.000000  0.971957  0.891934  1
  Zr  Zr14  1  0.500000  0.471025  0.608820  1
  Zr  Zr15  1  0.500000  0.526958  0.391532  1
  Zr  Zr16  1  0.000000  0.617369  0.079223  1
  Zr  Zr17  1  0.000000  0.382850  0.920002  1
  Zr  Zr18  1  0.500000  0.882917  0.580516  1
  Zr  Zr19  1  0.500000  0.118925  0.421641  1
  Zr  Zr20  1  0.000000  0.404446  0.241375  1
  Zr  Zr21  1  0.000000  0.594263  0.758049  1
  Zr  Zr22  1  0.500000  0.093718  0.742794  1
  Zr  Zr23  1  0.500000  0.908109  0.256502  1
  Al  Al24  1  0.500000  0.756311  0.414481  1
  Ge  Ge25  1  0.000000  0.255752  0.084981  1
  Ge  Ge26  1  0.000000  0.744424  0.913764  1
  Ge  Ge27  1  0.500000  0.244454  0.586488  1
  Se  Se28  1  0.000000  0.813437  0.150441  1
  Se  Se29  1  0.000000  0.187370  0.849209  1
  Se  Se30  1  0.500000  0.686965  0.651013  1
  Se  Se31  1  0.500000  0.312484  0.348978  1
  Se  Se32  1  0.000000  0.066295  0.290619  1
  Se  Se33  1  0.000000  0.935837  0.709978  1
  Se  Se34  1  0.500000  0.436639  0.791073  1
  Se  Se35  1  0.500000  0.562205  0.208142  1
