# generated using pymatgen
data_CaLu2Pa(ReB6)2
_symmetry_space_group_name_H-M   'P 1'
_cell_length_a   3.67175900
_cell_length_b   9.12509864
_cell_length_c   11.50322124
_cell_angle_alpha   90.30638064
_cell_angle_beta   90.00000000
_cell_angle_gamma   90.00000000
_symmetry_Int_Tables_number   1
_chemical_formula_structural   CaLu2Pa(ReB6)2
_chemical_formula_sum   'Ca2 Lu4 Pa2 Re4 B24'
_cell_volume   385.41179304
_cell_formula_units_Z   2
loop_
 _symmetry_equiv_pos_site_id
 _symmetry_equiv_pos_as_xyz
  1  'x, y, z'
loop_
 _atom_site_type_symbol
 _atom_site_label
 _atom_site_symmetry_multiplicity
 _atom_site_fract_x
 _atom_site_fract_y
 _atom_site_fract_z
 _atom_site_occupancy
  Ca  Ca0  1  0.000000  0.824905  0.085141  1
  Ca  Ca1  1  0.000000  0.175095  0.914859  1
  Lu  Lu2  1  0.000000  0.944715  0.370957  1
  Lu  Lu3  1  0.000000  0.055285  0.629043  1
  Lu  Lu4  1  0.000000  0.442597  0.129353  1
  Lu  Lu5  1  0.000000  0.557403  0.870647  1
  Pa  Pa6  1  0.000000  0.319874  0.413163  1
  Pa  Pa7  1  0.000000  0.680126  0.586837  1
  Re  Re8  1  0.000000  0.635256  0.324524  1
  Re  Re9  1  0.000000  0.364744  0.675476  1
  Re  Re10  1  0.000000  0.143986  0.185049  1
  Re  Re11  1  0.000000  0.856014  0.814951  1
  B  B12  1  0.500000  0.553666  0.432722  1
  B  B13  1  0.500000  0.446334  0.567278  1
  B  B14  1  0.500000  0.054102  0.067626  1
  B  B15  1  0.500000  0.945898  0.932374  1
  B  B16  1  0.500000  0.750402  0.418618  1
  B  B17  1  0.500000  0.249598  0.581382  1
  B  B18  1  0.500000  0.250671  0.081242  1
  B  B19  1  0.500000  0.749329  0.918758  1
  B  B20  1  0.500000  0.792272  0.266117  1
  B  B21  1  0.500000  0.207728  0.733883  1
  B  B22  1  0.500000  0.293487  0.234834  1
  B  B23  1  0.500000  0.706513  0.765166  1
  B  B24  1  0.500000  0.630104  0.185228  1
  B  B25  1  0.500000  0.369896  0.814772  1
  B  B26  1  0.500000  0.131935  0.315159  1
  B  B27  1  0.500000  0.868065  0.684841  1
  B  B28  1  0.500000  0.983340  0.212598  1
  B  B29  1  0.500000  0.016660  0.787402  1
  B  B30  1  0.500000  0.482302  0.287224  1
  B  B31  1  0.500000  0.517698  0.712776  1
  B  B32  1  0.500000  0.595597  0.026671  1
  B  B33  1  0.500000  0.404403  0.973329  1
  B  B34  1  0.500000  0.105521  0.471251  1
  B  B35  1  0.500000  0.894479  0.528749  1
