# generated using pymatgen
data_Lu12Fe4SnRh
_symmetry_space_group_name_H-M   'P 1'
_cell_length_a   8.11371648
_cell_length_b   8.11371753
_cell_length_c   8.11371612
_cell_angle_alpha   110.86439880
_cell_angle_beta   111.24776540
_cell_angle_gamma   106.34622505
_symmetry_Int_Tables_number   1
_chemical_formula_structural   Lu12Fe4SnRh
_chemical_formula_sum   'Lu12 Fe4 Sn1 Rh1'
_cell_volume   410.26943142
_cell_formula_units_Z   1
loop_
 _symmetry_equiv_pos_site_id
 _symmetry_equiv_pos_as_xyz
  1  'x, y, z'
loop_
 _atom_site_type_symbol
 _atom_site_label
 _atom_site_symmetry_multiplicity
 _atom_site_fract_x
 _atom_site_fract_y
 _atom_site_fract_z
 _atom_site_occupancy
  Lu  Lu0  1  0.417826  0.220025  0.197800  1
  Lu  Lu1  1  0.582174  0.779975  0.802200  1
  Lu  Lu2  1  0.022226  0.220025  0.802200  1
  Lu  Lu3  1  0.977774  0.779975  0.197800  1
  Lu  Lu4  1  0.185494  0.281994  0.467489  1
  Lu  Lu5  1  0.814506  0.718006  0.532511  1
  Lu  Lu6  1  0.185494  0.718006  0.903499  1
  Lu  Lu7  1  0.814506  0.281994  0.096501  1
  Lu  Lu8  1  0.312923  0.615786  0.302863  1
  Lu  Lu9  1  0.687077  0.384214  0.697137  1
  Lu  Lu10  1  0.312923  0.010060  0.697137  1
  Lu  Lu11  1  0.687077  0.989940  0.302863  1
  Fe  Fe12  1  0.380781  0.000000  0.380781  1
  Fe  Fe13  1  0.619219  0.000000  0.619219  1
  Fe  Fe14  1  0.108483  0.608483  0.500000  1
  Fe  Fe15  1  0.891517  0.391517  0.500000  1
  Sn  Sn16  1  0.500000  0.500000  0.000000  1
  Rh  Rh17  1  0.000000  0.000000  0.000000  1
