# generated using pymatgen
data_Ho11Er9(Cd3Ru)2
_symmetry_space_group_name_H-M   'P 1'
_cell_length_a   9.53251007
_cell_length_b   9.53432778
_cell_length_c   9.78697601
_cell_angle_alpha   90.00000019
_cell_angle_beta   90.00528461
_cell_angle_gamma   120.00630582
_symmetry_Int_Tables_number   1
_chemical_formula_structural   Ho11Er9(Cd3Ru)2
_chemical_formula_sum   'Ho11 Er9 Cd6 Ru2'
_cell_volume   770.28050220
_cell_formula_units_Z   1
loop_
 _symmetry_equiv_pos_site_id
 _symmetry_equiv_pos_as_xyz
  1  'x, y, z'
loop_
 _atom_site_type_symbol
 _atom_site_label
 _atom_site_symmetry_multiplicity
 _atom_site_fract_x
 _atom_site_fract_y
 _atom_site_fract_z
 _atom_site_occupancy
  Ho  Ho0  1  0.209800  0.790328  0.440434  1
  Ho  Ho1  1  0.209800  0.419473  0.440434  1
  Ho  Ho2  1  0.580475  0.790238  0.440385  1
  Ho  Ho3  1  0.790089  0.209791  0.559620  1
  Ho  Ho4  1  0.790089  0.580297  0.559620  1
  Ho  Ho5  1  0.540952  0.458953  0.249800  1
  Ho  Ho6  1  0.540952  0.081999  0.249800  1
  Ho  Ho7  1  0.918083  0.459041  0.249740  1
  Ho  Ho8  1  0.459014  0.540873  0.750200  1
  Ho  Ho9  1  0.459014  0.918141  0.750200  1
  Ho  Ho10  1  0.081973  0.540987  0.750278  1
  Er  Er11  1  0.000168  0.000084  0.500042  1
  Er  Er12  1  0.000024  0.000012  0.000037  1
  Er  Er13  1  0.419583  0.209791  0.559640  1
  Er  Er14  1  0.790098  0.209915  0.940481  1
  Er  Er15  1  0.790098  0.580182  0.940481  1
  Er  Er16  1  0.419842  0.209920  0.940385  1
  Er  Er17  1  0.209853  0.790090  0.059516  1
  Er  Er18  1  0.209853  0.419764  0.059516  1
  Er  Er19  1  0.580271  0.790136  0.059524  1
  Cd  Cd20  1  0.885488  0.114510  0.249870  1
  Cd  Cd21  1  0.885488  0.770979  0.249870  1
  Cd  Cd22  1  0.229090  0.114545  0.249919  1
  Cd  Cd23  1  0.114558  0.885525  0.750104  1
  Cd  Cd24  1  0.114558  0.229032  0.750104  1
  Cd  Cd25  1  0.770963  0.885481  0.750130  1
  Ru  Ru26  1  0.333293  0.666647  0.249711  1
  Ru  Ru27  1  0.666531  0.333265  0.750160  1
