# generated using pymatgen
data_Y8Al3Ir13
_symmetry_space_group_name_H-M   'P 1'
_cell_length_a   5.54255500
_cell_length_b   5.54255574
_cell_length_c   16.39942300
_cell_angle_alpha   89.99998233
_cell_angle_beta   89.99999651
_cell_angle_gamma   119.99999120
_symmetry_Int_Tables_number   1
_chemical_formula_structural   Y8Al3Ir13
_chemical_formula_sum   'Y8 Al3 Ir13'
_cell_volume   436.29407902
_cell_formula_units_Z   1
loop_
 _symmetry_equiv_pos_site_id
 _symmetry_equiv_pos_as_xyz
  1  'x, y, z'
loop_
 _atom_site_type_symbol
 _atom_site_label
 _atom_site_symmetry_multiplicity
 _atom_site_fract_x
 _atom_site_fract_y
 _atom_site_fract_z
 _atom_site_occupancy
  Y  Y0  1  0.999999  0.999996  0.094781  1
  Y  Y1  1  0.666668  0.333333  0.158470  1
  Y  Y2  1  0.666669  0.333335  0.344974  1
  Y  Y3  1  0.999999  0.999999  0.405561  1
  Y  Y4  1  0.000001  0.000002  0.588894  1
  Y  Y5  1  0.333335  0.666668  0.651991  1
  Y  Y6  1  0.333334  0.666668  0.844500  1
  Y  Y7  1  0.999998  0.999999  0.905862  1
  Al  Al8  1  0.333333  0.666666  0.131422  1
  Al  Al9  1  0.333333  0.666666  0.373668  1
  Al  Al10  1  0.666667  0.333333  0.623804  1
  Ir  Ir11  1  0.499157  0.998312  0.003372  1
  Ir  Ir12  1  0.001688  0.500843  0.003372  1
  Ir  Ir13  1  0.499156  0.500843  0.003372  1
  Ir  Ir14  1  0.162405  0.324809  0.251787  1
  Ir  Ir15  1  0.162404  0.837595  0.251787  1
  Ir  Ir16  1  0.675190  0.837595  0.251788  1
  Ir  Ir17  1  0.500213  0.000423  0.498430  1
  Ir  Ir18  1  0.999577  0.499789  0.498430  1
  Ir  Ir19  1  0.500213  0.499789  0.498431  1
  Ir  Ir20  1  0.324762  0.162380  0.746608  1
  Ir  Ir21  1  0.837619  0.162381  0.746608  1
  Ir  Ir22  1  0.837619  0.675237  0.746608  1
  Ir  Ir23  1  0.666667  0.333333  0.875478  1
