# generated using pymatgen
data_Cs2K2Hf6FeI18
_symmetry_space_group_name_H-M   'P 1'
_cell_length_a   11.45945818
_cell_length_b   11.63593544
_cell_length_c   11.75480547
_cell_angle_alpha   118.40871373
_cell_angle_beta   100.24877386
_cell_angle_gamma   104.02996836
_symmetry_Int_Tables_number   1
_chemical_formula_structural   Cs2K2Hf6FeI18
_chemical_formula_sum   'Cs2 K2 Hf6 Fe1 I18'
_cell_volume   1256.06013942
_cell_formula_units_Z   1
loop_
 _symmetry_equiv_pos_site_id
 _symmetry_equiv_pos_as_xyz
  1  'x, y, z'
loop_
 _atom_site_type_symbol
 _atom_site_label
 _atom_site_symmetry_multiplicity
 _atom_site_fract_x
 _atom_site_fract_y
 _atom_site_fract_z
 _atom_site_occupancy
  Cs  Cs0  1  0.658358  0.537966  0.231379  1
  Cs  Cs1  1  0.341642  0.462034  0.768621  1
  K  K2  1  0.676459  0.220651  0.560651  1
  K  K3  1  0.323541  0.779349  0.439349  1
  Hf  Hf4  1  0.143616  0.048072  0.213779  1
  Hf  Hf5  1  0.856384  0.951928  0.786221  1
  Hf  Hf6  1  0.870341  0.115916  0.128118  1
  Hf  Hf7  1  0.129659  0.884084  0.871882  1
  Hf  Hf8  1  0.136519  0.227996  0.046925  1
  Hf  Hf9  1  0.863481  0.772004  0.953075  1
  Fe  Fe10  1  0.000000  0.000000  0.000000  1
  I  I11  1  0.006019  0.401754  0.199221  1
  I  I12  1  0.993981  0.598246  0.800779  1
  I  I13  1  0.326577  0.325587  0.308042  1
  I  I14  1  0.673423  0.674413  0.691958  1
  I  I15  1  0.310139  0.518658  0.109436  1
  I  I16  1  0.689861  0.481342  0.890564  1
  I  I17  1  0.003999  0.793906  0.201093  1
  I  I18  1  0.996001  0.206094  0.798907  1
  I  I19  1  0.710397  0.258964  0.289738  1
  I  I20  1  0.289603  0.741036  0.710262  1
  I  I21  1  0.312056  0.132985  0.907623  1
  I  I22  1  0.687944  0.867015  0.092377  1
  I  I23  1  0.019667  0.196094  0.402137  1
  I  I24  1  0.980333  0.803906  0.597863  1
  I  I25  1  0.316909  0.921623  0.100877  1
  I  I26  1  0.683091  0.078377  0.899123  1
  I  I27  1  0.330248  0.105835  0.483273  1
  I  I28  1  0.669752  0.894165  0.516727  1
