# generated using pymatgen
data_DyLu2Sc3CoTe2
_symmetry_space_group_name_H-M   'P 1'
_cell_length_a   3.89516000
_cell_length_b   8.03390937
_cell_length_c   7.89540733
_cell_angle_alpha   120.58199641
_cell_angle_beta   90.00000000
_cell_angle_gamma   90.00000000
_symmetry_Int_Tables_number   1
_chemical_formula_structural   DyLu2Sc3CoTe2
_chemical_formula_sum   'Dy1 Lu2 Sc3 Co1 Te2'
_cell_volume   212.70634984
_cell_formula_units_Z   1
loop_
 _symmetry_equiv_pos_site_id
 _symmetry_equiv_pos_as_xyz
  1  'x, y, z'
loop_
 _atom_site_type_symbol
 _atom_site_label
 _atom_site_symmetry_multiplicity
 _atom_site_fract_x
 _atom_site_fract_y
 _atom_site_fract_z
 _atom_site_occupancy
  Dy  Dy0  1  0.000000  0.604714  0.000000  1
  Lu  Lu1  1  0.000000  0.380903  0.381859  1
  Lu  Lu2  1  0.000000  0.999044  0.618141  1
  Sc  Sc3  1  0.500000  0.768898  0.774237  1
  Sc  Sc4  1  0.500000  0.994660  0.225763  1
  Sc  Sc5  1  0.500000  0.231251  0.000000  1
  Co  Co6  1  0.000000  0.026048  0.000000  1
  Te  Te7  1  0.500000  0.665425  0.336366  1
  Te  Te8  1  0.500000  0.329057  0.663634  1
