# generated using pymatgen
data_Li2NdDySi4
_symmetry_space_group_name_H-M   'P 1'
_cell_length_a   3.83512400
_cell_length_b   7.65533782
_cell_length_c   10.30915603
_cell_angle_alpha   89.72063682
_cell_angle_beta   90.00000000
_cell_angle_gamma   90.00000000
_symmetry_Int_Tables_number   1
_chemical_formula_structural   Li2NdDySi4
_chemical_formula_sum   'Li4 Nd2 Dy2 Si8'
_cell_volume   302.66466490
_cell_formula_units_Z   2
loop_
 _symmetry_equiv_pos_site_id
 _symmetry_equiv_pos_as_xyz
  1  'x, y, z'
loop_
 _atom_site_type_symbol
 _atom_site_label
 _atom_site_symmetry_multiplicity
 _atom_site_fract_x
 _atom_site_fract_y
 _atom_site_fract_z
 _atom_site_occupancy
  Li  Li0  1  0.250000  0.994602  0.389404  1
  Li  Li1  1  0.750000  0.005398  0.610596  1
  Li  Li2  1  0.250000  0.490357  0.107236  1
  Li  Li3  1  0.750000  0.509643  0.892764  1
  Nd  Nd4  1  0.250000  0.639825  0.636620  1
  Nd  Nd5  1  0.750000  0.360175  0.363380  1
  Dy  Dy6  1  0.250000  0.134500  0.864735  1
  Dy  Dy7  1  0.750000  0.865500  0.135265  1
  Si  Si8  1  0.750000  0.265750  0.064502  1
  Si  Si9  1  0.250000  0.734250  0.935498  1
  Si  Si10  1  0.750000  0.776347  0.425728  1
  Si  Si11  1  0.250000  0.223653  0.574272  1
  Si  Si12  1  0.750000  0.842892  0.825412  1
  Si  Si13  1  0.250000  0.157108  0.174588  1
  Si  Si14  1  0.750000  0.333823  0.683127  1
  Si  Si15  1  0.250000  0.666177  0.316873  1
