# generated using pymatgen
data_ZrNb(SiTc)2
_symmetry_space_group_name_H-M   'P 1'
_cell_length_a   3.37919100
_cell_length_b   6.96459420
_cell_length_c   11.95554449
_cell_angle_alpha   89.64898961
_cell_angle_beta   90.00000000
_cell_angle_gamma   90.00000000
_symmetry_Int_Tables_number   1
_chemical_formula_structural   ZrNb(SiTc)2
_chemical_formula_sum   'Zr3 Nb3 Si6 Tc6'
_cell_volume   281.36480173
_cell_formula_units_Z   3
loop_
 _symmetry_equiv_pos_site_id
 _symmetry_equiv_pos_as_xyz
  1  'x, y, z'
loop_
 _atom_site_type_symbol
 _atom_site_label
 _atom_site_symmetry_multiplicity
 _atom_site_fract_x
 _atom_site_fract_y
 _atom_site_fract_z
 _atom_site_occupancy
  Zr  Zr0  1  0.500000  0.296286  0.299204  1
  Zr  Zr1  1  0.500000  0.296281  0.700815  1
  Zr  Zr2  1  0.500000  0.798282  0.201386  1
  Nb  Nb3  1  0.500000  0.406616  0.999773  1
  Nb  Nb4  1  0.500000  0.902723  0.501932  1
  Nb  Nb5  1  0.500000  0.795609  0.799025  1
  Si  Si6  1  0.000000  0.991759  0.667613  1
  Si  Si7  1  0.000000  0.497830  0.161663  1
  Si  Si8  1  0.000000  0.502915  0.835350  1
  Si  Si9  1  0.000000  0.996067  0.338891  1
  Si  Si10  1  0.500000  0.005235  0.997823  1
  Si  Si11  1  0.500000  0.503609  0.499528  1
  Tc  Tc12  1  0.000000  0.748596  0.996581  1
  Tc  Tc13  1  0.000000  0.246107  0.502035  1
  Tc  Tc14  1  0.000000  0.627774  0.627313  1
  Tc  Tc15  1  0.000000  0.128930  0.124236  1
  Tc  Tc16  1  0.000000  0.127859  0.872408  1
  Tc  Tc17  1  0.000000  0.627718  0.374425  1
