# generated using pymatgen
data_DyTm3Al12(GaIr)6
_symmetry_space_group_name_H-M   'P 1'
_cell_length_a   7.51687500
_cell_length_b   7.51815904
_cell_length_c   9.54494400
_cell_angle_alpha   90.00000000
_cell_angle_beta   90.00000000
_cell_angle_gamma   119.65416216
_symmetry_Int_Tables_number   1
_chemical_formula_structural   DyTm3Al12(GaIr)6
_chemical_formula_sum   'Dy1 Tm3 Al12 Ga6 Ir6'
_cell_volume   468.76566999
_cell_formula_units_Z   1
loop_
 _symmetry_equiv_pos_site_id
 _symmetry_equiv_pos_as_xyz
  1  'x, y, z'
loop_
 _atom_site_type_symbol
 _atom_site_label
 _atom_site_symmetry_multiplicity
 _atom_site_fract_x
 _atom_site_fract_y
 _atom_site_fract_z
 _atom_site_occupancy
  Dy  Dy0  1  0.996196  0.670079  0.250000  1
  Tm  Tm1  1  0.003821  0.329827  0.750000  1
  Tm  Tm2  1  0.670119  0.996229  0.250000  1
  Tm  Tm3  1  0.329865  0.003853  0.750000  1
  Al  Al4  1  0.001247  0.334199  0.072990  1
  Al  Al5  1  0.998738  0.665365  0.926398  1
  Al  Al6  1  0.998738  0.665365  0.573602  1
  Al  Al7  1  0.335079  0.001666  0.426994  1
  Al  Al8  1  0.001247  0.334199  0.427010  1
  Al  Al9  1  0.665363  0.998742  0.573251  1
  Al  Al10  1  0.665363  0.998742  0.926749  1
  Al  Al11  1  0.335079  0.001666  0.073006  1
  Al  Al12  1  0.333615  0.333619  0.556067  1
  Al  Al13  1  0.665987  0.666410  0.444229  1
  Al  Al14  1  0.665987  0.666410  0.055771  1
  Al  Al15  1  0.333615  0.333619  0.943933  1
  Ga  Ga16  1  0.128128  0.128406  0.250000  1
  Ga  Ga17  1  0.872119  0.872146  0.750000  1
  Ga  Ga18  1  0.339159  0.547791  0.250000  1
  Ga  Ga19  1  0.661073  0.452002  0.750000  1
  Ga  Ga20  1  0.547347  0.338451  0.250000  1
  Ga  Ga21  1  0.452072  0.661147  0.750000  1
  Ir  Ir22  1  0.671836  0.327768  0.999807  1
  Ir  Ir23  1  0.328127  0.671988  0.999803  1
  Ir  Ir24  1  0.328127  0.671988  0.500197  1
  Ir  Ir25  1  0.671836  0.327768  0.500193  1
  Ir  Ir26  1  0.000059  0.000277  0.999795  1
  Ir  Ir27  1  0.000059  0.000277  0.500205  1
