# generated using pymatgen
data_Ta2ZnB2Ru5
_symmetry_space_group_name_H-M   'P 1'
_cell_length_a   9.29330900
_cell_length_b   9.29330900
_cell_length_c   3.01413400
_cell_angle_alpha   90.00000000
_cell_angle_beta   90.00000000
_cell_angle_gamma   90.00000000
_symmetry_Int_Tables_number   1
_chemical_formula_structural   Ta2ZnB2Ru5
_chemical_formula_sum   'Ta4 Zn2 B4 Ru10'
_cell_volume   260.31746779
_cell_formula_units_Z   2
loop_
 _symmetry_equiv_pos_site_id
 _symmetry_equiv_pos_as_xyz
  1  'x, y, z'
loop_
 _atom_site_type_symbol
 _atom_site_label
 _atom_site_symmetry_multiplicity
 _atom_site_fract_x
 _atom_site_fract_y
 _atom_site_fract_z
 _atom_site_occupancy
  Ta  Ta0  1  0.823179  0.676821  0.000000  1
  Ta  Ta1  1  0.176821  0.323179  0.000000  1
  Ta  Ta2  1  0.323179  0.823179  0.000000  1
  Ta  Ta3  1  0.676821  0.176821  0.000000  1
  Zn  Zn4  1  0.500000  0.500000  0.000000  1
  Zn  Zn5  1  0.000000  0.000000  0.000000  1
  B  B6  1  0.625598  0.874402  0.000000  1
  B  B7  1  0.374402  0.125598  0.000000  1
  B  B8  1  0.125598  0.625598  0.000000  1
  B  B9  1  0.874402  0.374402  0.000000  1
  Ru  Ru10  1  0.571138  0.715487  0.500000  1
  Ru  Ru11  1  0.428862  0.284513  0.500000  1
  Ru  Ru12  1  0.071138  0.784513  0.500000  1
  Ru  Ru13  1  0.928862  0.215487  0.500000  1
  Ru  Ru14  1  0.284513  0.571138  0.500000  1
  Ru  Ru15  1  0.715487  0.428862  0.500000  1
  Ru  Ru16  1  0.215487  0.071138  0.500000  1
  Ru  Ru17  1  0.784513  0.928862  0.500000  1
  Ru  Ru18  1  0.500000  0.000000  0.500000  1
  Ru  Ru19  1  0.000000  0.500000  0.500000  1
