# generated using pymatgen
data_TbBiOs4O13
_symmetry_space_group_name_H-M   'P 1'
_cell_length_a   7.25436800
_cell_length_b   7.17399566
_cell_length_c   10.09301100
_cell_angle_alpha   89.02641948
_cell_angle_beta   90.00000000
_cell_angle_gamma   90.00000000
_symmetry_Int_Tables_number   1
_chemical_formula_structural   TbBiOs4O13
_chemical_formula_sum   'Tb2 Bi2 Os8 O26'
_cell_volume   525.19276939
_cell_formula_units_Z   2
loop_
 _symmetry_equiv_pos_site_id
 _symmetry_equiv_pos_as_xyz
  1  'x, y, z'
loop_
 _atom_site_type_symbol
 _atom_site_label
 _atom_site_symmetry_multiplicity
 _atom_site_fract_x
 _atom_site_fract_y
 _atom_site_fract_z
 _atom_site_occupancy
  Tb  Tb0  1  0.500000  0.500000  0.000000  1
  Tb  Tb1  1  0.000000  0.500000  0.000000  1
  Bi  Bi2  1  0.250000  0.750517  0.734846  1
  Bi  Bi3  1  0.750000  0.249483  0.265154  1
  Os  Os4  1  0.500000  0.000000  0.000000  1
  Os  Os5  1  0.750000  0.758891  0.745788  1
  Os  Os6  1  0.250000  0.747824  0.245503  1
  Os  Os7  1  0.500000  0.500000  0.500000  1
  Os  Os8  1  0.000000  0.500000  0.500000  1
  Os  Os9  1  0.750000  0.252176  0.754497  1
  Os  Os10  1  0.250000  0.241109  0.254212  1
  Os  Os11  1  0.000000  0.000000  0.000000  1
  O  O12  1  0.432231  0.673334  0.373049  1
  O  O13  1  0.750000  0.469738  0.126964  1
  O  O14  1  0.250000  0.490881  0.161164  1
  O  O15  1  0.451170  0.301341  0.373234  1
  O  O16  1  0.553742  0.214553  0.884765  1
  O  O17  1  0.946258  0.214553  0.884765  1
  O  O18  1  0.458205  0.201309  0.129365  1
  O  O19  1  0.750000  0.999512  0.062988  1
  O  O20  1  0.250000  0.000488  0.937012  1
  O  O21  1  0.750000  0.006115  0.702462  1
  O  O22  1  0.541795  0.798691  0.870635  1
  O  O23  1  0.958205  0.798691  0.870635  1
  O  O24  1  0.446258  0.785447  0.115235  1
  O  O25  1  0.067769  0.673334  0.373049  1
  O  O26  1  0.548830  0.698659  0.626766  1
  O  O27  1  0.951170  0.698659  0.626766  1
  O  O28  1  0.250000  0.515991  0.580021  1
  O  O29  1  0.750000  0.509119  0.838836  1
  O  O30  1  0.750000  0.484009  0.419979  1
  O  O31  1  0.048830  0.301341  0.373234  1
  O  O32  1  0.567769  0.326666  0.626951  1
  O  O33  1  0.932231  0.326666  0.626951  1
  O  O34  1  0.041795  0.201309  0.129365  1
  O  O35  1  0.250000  0.993885  0.297538  1
  O  O36  1  0.053742  0.785447  0.115235  1
  O  O37  1  0.250000  0.530262  0.873036  1
