# generated using pymatgen
data_B12CSe
_symmetry_space_group_name_H-M   'P 1'
_cell_length_a   5.18549980
_cell_length_b   5.18550064
_cell_length_c   5.18550057
_cell_angle_alpha   68.09221182
_cell_angle_beta   68.09221098
_cell_angle_gamma   68.09222598
_symmetry_Int_Tables_number   1
_chemical_formula_structural   B12CSe
_chemical_formula_sum   'B12 C1 Se1'
_cell_volume   115.50774927
_cell_formula_units_Z   1
loop_
 _symmetry_equiv_pos_site_id
 _symmetry_equiv_pos_as_xyz
  1  'x, y, z'
loop_
 _atom_site_type_symbol
 _atom_site_label
 _atom_site_symmetry_multiplicity
 _atom_site_fract_x
 _atom_site_fract_y
 _atom_site_fract_z
 _atom_site_occupancy
  B  B0  1  0.007657  0.007657  0.326241  1
  B  B1  1  0.326241  0.007657  0.007657  1
  B  B2  1  0.310818  0.797147  0.797147  1
  B  B3  1  0.797147  0.797147  0.310818  1
  B  B4  1  0.797147  0.310818  0.797147  1
  B  B5  1  0.178914  0.717612  0.178914  1
  B  B6  1  0.717612  0.178914  0.178914  1
  B  B7  1  0.178914  0.178914  0.717612  1
  B  B8  1  0.668903  0.989666  0.989666  1
  B  B9  1  0.989666  0.989666  0.668903  1
  B  B10  1  0.989666  0.668903  0.989666  1
  B  B11  1  0.007657  0.326241  0.007657  1
  C  C12  1  0.607217  0.607217  0.607217  1
  Se  Se13  1  0.422446  0.422446  0.422446  1
