# generated using pymatgen
data_LuU7B24MoW3
_symmetry_space_group_name_H-M   'P 1'
_cell_length_a   3.67922300
_cell_length_b   9.27568276
_cell_length_c   11.36469867
_cell_angle_alpha   89.97545387
_cell_angle_beta   90.00000000
_cell_angle_gamma   90.00000000
_symmetry_Int_Tables_number   1
_chemical_formula_structural   LuU7B24MoW3
_chemical_formula_sum   'Lu1 U7 B24 Mo1 W3'
_cell_volume   387.84650635
_cell_formula_units_Z   1
loop_
 _symmetry_equiv_pos_site_id
 _symmetry_equiv_pos_as_xyz
  1  'x, y, z'
loop_
 _atom_site_type_symbol
 _atom_site_label
 _atom_site_symmetry_multiplicity
 _atom_site_fract_x
 _atom_site_fract_y
 _atom_site_fract_z
 _atom_site_occupancy
  Lu  Lu0  1  0.000000  0.335002  0.407987  1
  U  U1  1  0.000000  0.664246  0.592136  1
  U  U2  1  0.000000  0.834351  0.092801  1
  U  U3  1  0.000000  0.165635  0.907468  1
  U  U4  1  0.000000  0.956706  0.394726  1
  U  U5  1  0.000000  0.044938  0.604560  1
  U  U6  1  0.000000  0.456169  0.105430  1
  U  U7  1  0.000000  0.543501  0.895047  1
  B  B8  1  0.500000  0.551326  0.433432  1
  B  B9  1  0.500000  0.451028  0.568180  1
  B  B10  1  0.500000  0.049702  0.066707  1
  B  B11  1  0.500000  0.950165  0.933110  1
  B  B12  1  0.500000  0.742538  0.424747  1
  B  B13  1  0.500000  0.256413  0.575795  1
  B  B14  1  0.500000  0.243998  0.075953  1
  B  B15  1  0.500000  0.756320  0.924422  1
  B  B16  1  0.500000  0.803378  0.273036  1
  B  B17  1  0.500000  0.196398  0.727139  1
  B  B18  1  0.500000  0.303174  0.225811  1
  B  B19  1  0.500000  0.696194  0.772302  1
  B  B20  1  0.500000  0.643681  0.187939  1
  B  B21  1  0.500000  0.355317  0.812682  1
  B  B22  1  0.500000  0.143941  0.312240  1
  B  B23  1  0.500000  0.855391  0.687283  1
  B  B24  1  0.500000  0.985677  0.218477  1
  B  B25  1  0.500000  0.014564  0.781238  1
  B  B26  1  0.500000  0.486326  0.281079  1
  B  B27  1  0.500000  0.515118  0.717910  1
  B  B28  1  0.500000  0.641867  0.039563  1
  B  B29  1  0.500000  0.358285  0.960813  1
  B  B30  1  0.500000  0.140215  0.460942  1
  B  B31  1  0.500000  0.857711  0.539458  1
  Mo  Mo32  1  0.000000  0.646868  0.319566  1
  W  W33  1  0.000000  0.355265  0.681902  1
  W  W34  1  0.000000  0.143581  0.177873  1
  W  W35  1  0.000000  0.855009  0.820243  1
