# generated using pymatgen
data_Y2Zn19Cu3
_symmetry_space_group_name_H-M   'P 1'
_cell_length_a   6.71073371
_cell_length_b   8.16469755
_cell_length_c   8.16390873
_cell_angle_alpha   99.77709002
_cell_angle_beta   65.69943456
_cell_angle_gamma   114.31126230
_symmetry_Int_Tables_number   1
_chemical_formula_structural   Y2Zn19Cu3
_chemical_formula_sum   'Y2 Zn19 Cu3'
_cell_volume   371.52571668
_cell_formula_units_Z   1
loop_
 _symmetry_equiv_pos_site_id
 _symmetry_equiv_pos_as_xyz
  1  'x, y, z'
loop_
 _atom_site_type_symbol
 _atom_site_label
 _atom_site_symmetry_multiplicity
 _atom_site_fract_x
 _atom_site_fract_y
 _atom_site_fract_z
 _atom_site_occupancy
  Y  Y0  1  0.997495  0.998307  0.001651  1
  Y  Y1  1  0.752567  0.501650  0.498334  1
  Zn  Zn2  1  0.499940  0.003810  0.996196  1
  Zn  Zn3  1  0.100375  0.675750  0.079691  1
  Zn  Zn4  1  0.815529  0.322971  0.080758  1
  Zn  Zn5  1  0.649700  0.579745  0.175740  1
  Zn  Zn6  1  0.172966  0.411073  0.172418  1
  Zn  Zn7  1  0.374879  0.749935  0.250038  1
  Zn  Zn8  1  0.577010  0.088825  0.327510  1
  Zn  Zn9  1  0.100338  0.920294  0.324223  1
  Zn  Zn10  1  0.934501  0.176947  0.419156  1
  Zn  Zn11  1  0.649609  0.824218  0.420304  1
  Zn  Zn12  1  0.250159  0.496239  0.503789  1
  Zn  Zn13  1  0.241100  0.175375  0.583327  1
  Zn  Zn14  1  0.173064  0.827545  0.588842  1
  Zn  Zn15  1  0.508925  0.083406  0.675351  1
  Zn  Zn16  1  0.815572  0.919177  0.676968  1
  Zn  Zn17  1  0.241158  0.416650  0.824599  1
  Zn  Zn18  1  0.934509  0.580889  0.823051  1
  Zn  Zn19  1  0.576938  0.672467  0.911193  1
  Zn  Zn20  1  0.508912  0.324618  0.916701  1
  Cu  Cu21  1  0.374859  0.250079  0.250101  1
  Cu  Cu22  1  0.374893  0.749920  0.750018  1
  Cu  Cu23  1  0.875012  0.250108  0.750040  1
