# generated using pymatgen
data_Tb4Hf3AlPt4
_symmetry_space_group_name_H-M   'P 1'
_cell_length_a   4.58068300
_cell_length_b   7.11196555
_cell_length_c   8.16930942
_cell_angle_alpha   86.97770036
_cell_angle_beta   90.00000000
_cell_angle_gamma   90.00000000
_symmetry_Int_Tables_number   1
_chemical_formula_structural   Tb4Hf3AlPt4
_chemical_formula_sum   'Tb4 Hf3 Al1 Pt4'
_cell_volume   265.76680961
_cell_formula_units_Z   1
loop_
 _symmetry_equiv_pos_site_id
 _symmetry_equiv_pos_as_xyz
  1  'x, y, z'
loop_
 _atom_site_type_symbol
 _atom_site_label
 _atom_site_symmetry_multiplicity
 _atom_site_fract_x
 _atom_site_fract_y
 _atom_site_fract_z
 _atom_site_occupancy
  Tb  Tb0  1  0.250000  0.472559  0.186932  1
  Tb  Tb1  1  0.750000  0.517277  0.814857  1
  Tb  Tb2  1  0.750000  0.039389  0.671395  1
  Tb  Tb3  1  0.250000  0.988168  0.337215  1
  Hf  Hf4  1  0.250000  0.856003  0.923906  1
  Hf  Hf5  1  0.750000  0.137382  0.070526  1
  Hf  Hf6  1  0.750000  0.640256  0.435509  1
  Al  Al7  1  0.250000  0.358666  0.572210  1
  Pt  Pt8  1  0.250000  0.725077  0.610034  1
  Pt  Pt9  1  0.750000  0.270685  0.381166  1
  Pt  Pt10  1  0.750000  0.766077  0.101934  1
  Pt  Pt11  1  0.250000  0.228463  0.894315  1
