# generated using pymatgen
data_TbDy2Tm(Al3Rh)6
_symmetry_space_group_name_H-M   'P 1'
_cell_length_a   7.54969802
_cell_length_b   7.55331562
_cell_length_c   9.47229600
_cell_angle_alpha   90.00000000
_cell_angle_beta   90.00000000
_cell_angle_gamma   119.30877568
_symmetry_Int_Tables_number   1
_chemical_formula_structural   TbDy2Tm(Al3Rh)6
_chemical_formula_sum   'Tb1 Dy2 Tm1 Al18 Rh6'
_cell_volume   471.01650226
_cell_formula_units_Z   1
loop_
 _symmetry_equiv_pos_site_id
 _symmetry_equiv_pos_as_xyz
  1  'x, y, z'
loop_
 _atom_site_type_symbol
 _atom_site_label
 _atom_site_symmetry_multiplicity
 _atom_site_fract_x
 _atom_site_fract_y
 _atom_site_fract_z
 _atom_site_occupancy
  Tb  Tb0  1  0.994351  0.671597  0.250000  1
  Dy  Dy1  1  0.005575  0.328060  0.750000  1
  Dy  Dy2  1  0.671800  0.994370  0.250000  1
  Tm  Tm3  1  0.328135  0.005503  0.750000  1
  Al  Al4  1  0.128510  0.128788  0.250000  1
  Al  Al5  1  0.871919  0.871955  0.750000  1
  Al  Al6  1  0.001226  0.335456  0.074609  1
  Al  Al7  1  0.999412  0.664704  0.923735  1
  Al  Al8  1  0.999412  0.664704  0.576265  1
  Al  Al9  1  0.335811  0.001301  0.425825  1
  Al  Al10  1  0.001226  0.335456  0.425391  1
  Al  Al11  1  0.663591  0.999064  0.575611  1
  Al  Al12  1  0.663591  0.999064  0.924389  1
  Al  Al13  1  0.335811  0.001301  0.074175  1
  Al  Al14  1  0.333017  0.332504  0.551296  1
  Al  Al15  1  0.666823  0.666949  0.451244  1
  Al  Al16  1  0.666823  0.666949  0.048756  1
  Al  Al17  1  0.333017  0.332504  0.948704  1
  Al  Al18  1  0.339965  0.550042  0.250000  1
  Al  Al19  1  0.659764  0.449394  0.750000  1
  Al  Al20  1  0.549623  0.338821  0.250000  1
  Al  Al21  1  0.450143  0.661167  0.750000  1
  Rh  Rh22  1  0.671885  0.327848  0.999456  1
  Rh  Rh23  1  0.327685  0.672083  0.999482  1
  Rh  Rh24  1  0.327685  0.672083  0.500518  1
  Rh  Rh25  1  0.671885  0.327848  0.500544  1
  Rh  Rh26  1  0.000656  0.000242  0.999224  1
  Rh  Rh27  1  0.000656  0.000242  0.500776  1
