# generated using pymatgen
data_LaPr4AsPb3
_symmetry_space_group_name_H-M   'P 1'
_cell_length_a   9.65100611
_cell_length_b   9.65100556
_cell_length_c   7.14798900
_cell_angle_alpha   90.00000000
_cell_angle_beta   90.00000000
_cell_angle_gamma   119.98284147
_symmetry_Int_Tables_number   1
_chemical_formula_structural   LaPr4AsPb3
_chemical_formula_sum   'La2 Pr8 As2 Pb6'
_cell_volume   576.67978432
_cell_formula_units_Z   2
loop_
 _symmetry_equiv_pos_site_id
 _symmetry_equiv_pos_as_xyz
  1  'x, y, z'
loop_
 _atom_site_type_symbol
 _atom_site_label
 _atom_site_symmetry_multiplicity
 _atom_site_fract_x
 _atom_site_fract_y
 _atom_site_fract_z
 _atom_site_occupancy
  La  La0  1  0.755709  0.000113  0.250000  1
  La  La1  1  0.000113  0.755709  0.250000  1
  Pr  Pr2  1  0.756099  0.756099  0.750000  1
  Pr  Pr3  1  0.244553  0.000469  0.750000  1
  Pr  Pr4  1  0.000469  0.244553  0.750000  1
  Pr  Pr5  1  0.243907  0.243907  0.250000  1
  Pr  Pr6  1  0.666176  0.333282  0.999223  1
  Pr  Pr7  1  0.333282  0.666176  0.999223  1
  Pr  Pr8  1  0.333282  0.666176  0.500777  1
  Pr  Pr9  1  0.666176  0.333282  0.500777  1
  As  As10  1  0.000318  0.000318  0.999078  1
  As  As11  1  0.000318  0.000318  0.500922  1
  Pb  Pb12  1  0.398778  0.398778  0.750000  1
  Pb  Pb13  1  0.601342  0.000122  0.750000  1
  Pb  Pb14  1  0.000122  0.601342  0.750000  1
  Pb  Pb15  1  0.599055  0.599055  0.250000  1
  Pb  Pb16  1  0.399256  0.001045  0.250000  1
  Pb  Pb17  1  0.001045  0.399256  0.250000  1
