# generated using pymatgen
data_Dy5Er11(In3Rh)2
_symmetry_space_group_name_H-M   'P 1'
_cell_length_a   10.37967308
_cell_length_b   10.37981338
_cell_length_c   7.00405801
_cell_angle_alpha   89.99830908
_cell_angle_beta   90.00640574
_cell_angle_gamma   119.98683503
_symmetry_Int_Tables_number   1
_chemical_formula_structural   Dy5Er11(In3Rh)2
_chemical_formula_sum   'Dy5 Er11 In6 Rh2'
_cell_volume   653.59870294
_cell_formula_units_Z   1
loop_
 _symmetry_equiv_pos_site_id
 _symmetry_equiv_pos_as_xyz
  1  'x, y, z'
loop_
 _atom_site_type_symbol
 _atom_site_label
 _atom_site_symmetry_multiplicity
 _atom_site_fract_x
 _atom_site_fract_y
 _atom_site_fract_z
 _atom_site_occupancy
  Dy  Dy0  1  0.532316  0.064661  0.793784  1
  Dy  Dy1  1  0.935305  0.467661  0.793783  1
  Dy  Dy2  1  0.532187  0.467796  0.793879  1
  Dy  Dy3  1  0.467623  0.935202  0.293787  1
  Dy  Dy4  1  0.064793  0.532362  0.293789  1
  Er  Er5  1  0.467334  0.532584  0.293893  1
  Er  Er6  1  0.823473  0.647449  0.499271  1
  Er  Er7  1  0.352582  0.176570  0.499288  1
  Er  Er8  1  0.823842  0.176157  0.499538  1
  Er  Er9  1  0.176473  0.352610  0.999863  1
  Er  Er10  1  0.647400  0.823534  0.999871  1
  Er  Er11  1  0.176145  0.823821  0.999616  1
  Er  Er12  1  0.666558  0.333492  0.174203  1
  Er  Er13  1  0.333514  0.666513  0.673886  1
  Er  Er14  1  0.000045  0.000021  0.778947  1
  Er  Er15  1  0.999993  0.999978  0.279161  1
  In  In16  1  0.837238  0.674610  0.039584  1
  In  In17  1  0.325363  0.162756  0.039589  1
  In  In18  1  0.837330  0.162660  0.039394  1
  In  In19  1  0.163020  0.325569  0.539266  1
  In  In20  1  0.674411  0.836992  0.539267  1
  In  In21  1  0.162625  0.837362  0.539421  1
  Rh  Rh22  1  0.666685  0.333345  0.566211  1
  Rh  Rh23  1  0.333746  0.666294  0.066614  1
