# generated using pymatgen
data_Er10AlZn2Os
_symmetry_space_group_name_H-M   'P 1'
_cell_length_a   9.35773000
_cell_length_b   9.34832158
_cell_length_c   9.58631900
_cell_angle_alpha   90.00000000
_cell_angle_beta   90.00000000
_cell_angle_gamma   119.96675153
_symmetry_Int_Tables_number   1
_chemical_formula_structural   Er10AlZn2Os
_chemical_formula_sum   'Er20 Al2 Zn4 Os2'
_cell_volume   726.49406047
_cell_formula_units_Z   2
loop_
 _symmetry_equiv_pos_site_id
 _symmetry_equiv_pos_as_xyz
  1  'x, y, z'
loop_
 _atom_site_type_symbol
 _atom_site_label
 _atom_site_symmetry_multiplicity
 _atom_site_fract_x
 _atom_site_fract_y
 _atom_site_fract_z
 _atom_site_occupancy
  Er  Er0  1  0.008356  0.004178  0.513355  1
  Er  Er1  1  0.008356  0.004178  0.986645  1
  Er  Er2  1  0.204899  0.790461  0.442022  1
  Er  Er3  1  0.204899  0.414439  0.442022  1
  Er  Er4  1  0.587801  0.793901  0.440969  1
  Er  Er5  1  0.791538  0.205361  0.554947  1
  Er  Er6  1  0.791538  0.586177  0.554947  1
  Er  Er7  1  0.418394  0.209197  0.558927  1
  Er  Er8  1  0.791538  0.205361  0.945053  1
  Er  Er9  1  0.791538  0.586177  0.945053  1
  Er  Er10  1  0.418394  0.209197  0.941073  1
  Er  Er11  1  0.204899  0.790461  0.057978  1
  Er  Er12  1  0.204899  0.414439  0.057978  1
  Er  Er13  1  0.587801  0.793901  0.059031  1
  Er  Er14  1  0.530313  0.456008  0.250000  1
  Er  Er15  1  0.530313  0.074305  0.250000  1
  Er  Er16  1  0.916642  0.458320  0.250000  1
  Er  Er17  1  0.459712  0.540401  0.750000  1
  Er  Er18  1  0.459712  0.919311  0.750000  1
  Er  Er19  1  0.073268  0.536634  0.750000  1
  Al  Al20  1  0.891758  0.106059  0.250000  1
  Al  Al21  1  0.891758  0.785701  0.250000  1
  Zn  Zn22  1  0.215759  0.107881  0.250000  1
  Zn  Zn23  1  0.118492  0.884501  0.750000  1
  Zn  Zn24  1  0.118492  0.233989  0.750000  1
  Zn  Zn25  1  0.772843  0.886421  0.750000  1
  Os  Os26  1  0.334660  0.667330  0.250000  1
  Os  Os27  1  0.671426  0.335712  0.750000  1
