# generated using pymatgen
data_KSm6RhI12
_symmetry_space_group_name_H-M   'P 1'
_cell_length_a   9.98023675
_cell_length_b   9.98023550
_cell_length_c   9.98023675
_cell_angle_alpha   105.67465881
_cell_angle_beta   105.67465624
_cell_angle_gamma   105.67465719
_symmetry_Int_Tables_number   1
_chemical_formula_structural   KSm6RhI12
_chemical_formula_sum   'K1 Sm6 Rh1 I12'
_cell_volume   856.05152436
_cell_formula_units_Z   1
loop_
 _symmetry_equiv_pos_site_id
 _symmetry_equiv_pos_as_xyz
  1  'x, y, z'
loop_
 _atom_site_type_symbol
 _atom_site_label
 _atom_site_symmetry_multiplicity
 _atom_site_fract_x
 _atom_site_fract_y
 _atom_site_fract_z
 _atom_site_occupancy
  K  K0  1  0.500000  0.500000  0.500000  1
  Sm  Sm1  1  0.907067  0.982441  0.701482  1
  Sm  Sm2  1  0.982441  0.701482  0.907067  1
  Sm  Sm3  1  0.701482  0.907067  0.982441  1
  Sm  Sm4  1  0.092933  0.017559  0.298518  1
  Sm  Sm5  1  0.017559  0.298518  0.092933  1
  Sm  Sm6  1  0.298518  0.092933  0.017559  1
  Rh  Rh7  1  0.000000  0.000000  0.000000  1
  I  I8  1  0.566299  0.880354  0.647614  1
  I  I9  1  0.880354  0.647614  0.566299  1
  I  I10  1  0.647614  0.566299  0.880354  1
  I  I11  1  0.433701  0.119646  0.352386  1
  I  I12  1  0.119646  0.352386  0.433701  1
  I  I13  1  0.352386  0.433701  0.119646  1
  I  I14  1  0.676808  0.224796  0.076614  1
  I  I15  1  0.224796  0.076614  0.676808  1
  I  I16  1  0.076614  0.676808  0.224796  1
  I  I17  1  0.323192  0.775204  0.923386  1
  I  I18  1  0.775204  0.923386  0.323192  1
  I  I19  1  0.923386  0.323192  0.775204  1
