# generated using pymatgen
data_NaTb6PtI12
_symmetry_space_group_name_H-M   'P 1'
_cell_length_a   9.85638171
_cell_length_b   9.85638209
_cell_length_c   9.85638259
_cell_angle_alpha   107.22691444
_cell_angle_beta   107.22691076
_cell_angle_gamma   107.22691381
_symmetry_Int_Tables_number   1
_chemical_formula_structural   NaTb6PtI12
_chemical_formula_sum   'Na1 Tb6 Pt1 I12'
_cell_volume   792.45261513
_cell_formula_units_Z   1
loop_
 _symmetry_equiv_pos_site_id
 _symmetry_equiv_pos_as_xyz
  1  'x, y, z'
loop_
 _atom_site_type_symbol
 _atom_site_label
 _atom_site_symmetry_multiplicity
 _atom_site_fract_x
 _atom_site_fract_y
 _atom_site_fract_z
 _atom_site_occupancy
  Na  Na0  1  0.500000  0.500000  0.500000  1
  Tb  Tb1  1  0.099923  0.027493  0.306529  1
  Tb  Tb2  1  0.306529  0.099923  0.027493  1
  Tb  Tb3  1  0.027493  0.306529  0.099923  1
  Tb  Tb4  1  0.900077  0.972507  0.693471  1
  Tb  Tb5  1  0.693471  0.900077  0.972507  1
  Tb  Tb6  1  0.972507  0.693471  0.900077  1
  Pt  Pt7  1  0.000000  0.000000  0.000000  1
  I  I8  1  0.075756  0.680038  0.224269  1
  I  I9  1  0.224269  0.075756  0.680038  1
  I  I10  1  0.680038  0.224269  0.075756  1
  I  I11  1  0.924244  0.319962  0.775731  1
  I  I12  1  0.775731  0.924244  0.319962  1
  I  I13  1  0.319962  0.775731  0.924244  1
  I  I14  1  0.450679  0.142969  0.372402  1
  I  I15  1  0.372402  0.450679  0.142969  1
  I  I16  1  0.142969  0.372402  0.450679  1
  I  I17  1  0.549321  0.857031  0.627598  1
  I  I18  1  0.627598  0.549321  0.857031  1
  I  I19  1  0.857031  0.627598  0.549321  1
