# generated using pymatgen
data_K2MnAs2O7
_symmetry_space_group_name_H-M   'P 1'
_cell_length_a   5.83395700
_cell_length_b   8.56355800
_cell_length_c   8.56355800
_cell_angle_alpha   90.00000000
_cell_angle_beta   90.00000000
_cell_angle_gamma   90.00000000
_symmetry_Int_Tables_number   1
_chemical_formula_structural   K2MnAs2O7
_chemical_formula_sum   'K4 Mn2 As4 O14'
_cell_volume   427.83046908
_cell_formula_units_Z   2
loop_
 _symmetry_equiv_pos_site_id
 _symmetry_equiv_pos_as_xyz
  1  'x, y, z'
loop_
 _atom_site_type_symbol
 _atom_site_label
 _atom_site_symmetry_multiplicity
 _atom_site_fract_x
 _atom_site_fract_y
 _atom_site_fract_z
 _atom_site_occupancy
  K  K0  1  0.510801  0.836834  0.336834  1
  K  K1  1  0.489199  0.663166  0.836834  1
  K  K2  1  0.489199  0.336834  0.163166  1
  K  K3  1  0.510801  0.163166  0.663166  1
  Mn  Mn4  1  0.000000  0.500000  0.500000  1
  Mn  Mn5  1  0.000000  0.000000  0.000000  1
  As  As6  1  0.952520  0.361020  0.861020  1
  As  As7  1  0.047480  0.861020  0.638980  1
  As  As8  1  0.047480  0.138980  0.361020  1
  As  As9  1  0.952520  0.638980  0.138980  1
  O  O10  1  0.835007  0.500000  0.000000  1
  O  O11  1  0.164993  0.000000  0.500000  1
  O  O12  1  0.759531  0.860253  0.639747  1
  O  O13  1  0.240469  0.639747  0.139747  1
  O  O14  1  0.240469  0.360253  0.860253  1
  O  O15  1  0.759531  0.139747  0.360253  1
  O  O16  1  0.182004  0.692765  0.579203  1
  O  O17  1  0.182004  0.307235  0.420797  1
  O  O18  1  0.817996  0.420797  0.692765  1
  O  O19  1  0.817996  0.579203  0.307235  1
  O  O20  1  0.182004  0.079203  0.192765  1
  O  O21  1  0.817996  0.192765  0.920797  1
  O  O22  1  0.817996  0.807235  0.079203  1
  O  O23  1  0.182004  0.920797  0.807235  1
