# generated using pymatgen
data_LuTa5(B2Ru5)2
_symmetry_space_group_name_H-M   'P 1'
_cell_length_a   9.47891459
_cell_length_b   9.47891459
_cell_length_c   3.05114300
_cell_angle_alpha   90.00000000
_cell_angle_beta   90.00000000
_cell_angle_gamma   90.21441243
_symmetry_Int_Tables_number   1
_chemical_formula_structural   LuTa5(B2Ru5)2
_chemical_formula_sum   'Lu1 Ta5 B4 Ru10'
_cell_volume   274.14273545
_cell_formula_units_Z   1
loop_
 _symmetry_equiv_pos_site_id
 _symmetry_equiv_pos_as_xyz
  1  'x, y, z'
loop_
 _atom_site_type_symbol
 _atom_site_label
 _atom_site_symmetry_multiplicity
 _atom_site_fract_x
 _atom_site_fract_y
 _atom_site_fract_z
 _atom_site_occupancy
  Lu  Lu0  1  0.824394  0.675606  0.000000  1
  Ta  Ta1  1  0.177811  0.322189  0.000000  1
  Ta  Ta2  1  0.324050  0.823104  0.000000  1
  Ta  Ta3  1  0.676896  0.175950  0.000000  1
  Ta  Ta4  1  0.501630  0.501063  0.000000  1
  Ta  Ta5  1  0.998937  0.998370  0.000000  1
  B  B6  1  0.619644  0.880356  0.000000  1
  B  B7  1  0.377423  0.122577  0.000000  1
  B  B8  1  0.122328  0.620041  0.000000  1
  B  B9  1  0.879959  0.377672  0.000000  1
  Ru  Ru10  1  0.560885  0.723188  0.500000  1
  Ru  Ru11  1  0.427160  0.283141  0.500000  1
  Ru  Ru12  1  0.079712  0.782732  0.500000  1
  Ru  Ru13  1  0.930221  0.216258  0.500000  1
  Ru  Ru14  1  0.283742  0.569779  0.500000  1
  Ru  Ru15  1  0.717268  0.420288  0.500000  1
  Ru  Ru16  1  0.216859  0.072840  0.500000  1
  Ru  Ru17  1  0.776812  0.939115  0.500000  1
  Ru  Ru18  1  0.496846  0.003154  0.500000  1
  Ru  Ru19  1  0.007425  0.492575  0.500000  1
