# generated using pymatgen
data_CaDy(Re2Si)4
_symmetry_space_group_name_H-M   'P 1'
_cell_length_a   7.39467063
_cell_length_b   7.39467042
_cell_length_c   4.16471100
_cell_angle_alpha   90.00000000
_cell_angle_beta   90.00000000
_cell_angle_gamma   89.90296853
_symmetry_Int_Tables_number   1
_chemical_formula_structural   CaDy(Re2Si)4
_chemical_formula_sum   'Ca1 Dy1 Re8 Si4'
_cell_volume   227.73086930
_cell_formula_units_Z   1
loop_
 _symmetry_equiv_pos_site_id
 _symmetry_equiv_pos_as_xyz
  1  'x, y, z'
loop_
 _atom_site_type_symbol
 _atom_site_label
 _atom_site_symmetry_multiplicity
 _atom_site_fract_x
 _atom_site_fract_y
 _atom_site_fract_z
 _atom_site_occupancy
  Ca  Ca0  1  0.500000  0.500000  0.000000  1
  Dy  Dy1  1  0.000000  0.000000  0.500000  1
  Re  Re2  1  0.658546  0.906927  0.000000  1
  Re  Re3  1  0.156854  0.596876  0.500000  1
  Re  Re4  1  0.093073  0.341454  0.000000  1
  Re  Re5  1  0.906927  0.658546  0.000000  1
  Re  Re6  1  0.403124  0.843146  0.500000  1
  Re  Re7  1  0.596876  0.156854  0.500000  1
  Re  Re8  1  0.341454  0.093073  0.000000  1
  Re  Re9  1  0.843146  0.403124  0.500000  1
  Si  Si10  1  0.209621  0.790379  0.000000  1
  Si  Si11  1  0.790379  0.209621  0.000000  1
  Si  Si12  1  0.707334  0.707334  0.500000  1
  Si  Si13  1  0.292666  0.292666  0.500000  1
