# generated using pymatgen
data_SrAc2PrB24
_symmetry_space_group_name_H-M   'P 1'
_cell_length_a   7.23868000
_cell_length_b   7.23868006
_cell_length_c   5.96066900
_cell_angle_alpha   90.00000000
_cell_angle_beta   90.00000000
_cell_angle_gamma   109.16344059
_symmetry_Int_Tables_number   1
_chemical_formula_structural   SrAc2PrB24
_chemical_formula_sum   'Sr1 Ac2 Pr1 B24'
_cell_volume   295.02259608
_cell_formula_units_Z   1
loop_
 _symmetry_equiv_pos_site_id
 _symmetry_equiv_pos_as_xyz
  1  'x, y, z'
loop_
 _atom_site_type_symbol
 _atom_site_label
 _atom_site_symmetry_multiplicity
 _atom_site_fract_x
 _atom_site_fract_y
 _atom_site_fract_z
 _atom_site_occupancy
  Sr  Sr0  1  0.000000  0.000000  0.000000  1
  Ac  Ac1  1  0.749879  0.250121  0.500000  1
  Ac  Ac2  1  0.250121  0.749879  0.500000  1
  Pr  Pr3  1  0.500000  0.500000  0.000000  1
  B  B4  1  0.175921  0.325721  0.649259  1
  B  B5  1  0.924332  0.574620  0.148878  1
  B  B6  1  0.674279  0.824079  0.649259  1
  B  B7  1  0.425380  0.075668  0.148878  1
  B  B8  1  0.175921  0.325721  0.350741  1
  B  B9  1  0.924332  0.574620  0.851122  1
  B  B10  1  0.674279  0.824079  0.350741  1
  B  B11  1  0.425380  0.075668  0.851122  1
  B  B12  1  0.399939  0.399939  0.500000  1
  B  B13  1  0.148991  0.649740  0.000000  1
  B  B14  1  0.898824  0.898824  0.500000  1
  B  B15  1  0.649740  0.148991  0.000000  1
  B  B16  1  0.325721  0.175921  0.649259  1
  B  B17  1  0.075668  0.425380  0.148878  1
  B  B18  1  0.824079  0.674279  0.649259  1
  B  B19  1  0.574620  0.924332  0.148878  1
  B  B20  1  0.101176  0.101176  0.500000  1
  B  B21  1  0.851009  0.350260  0.000000  1
  B  B22  1  0.600061  0.600061  0.500000  1
  B  B23  1  0.350260  0.851009  0.000000  1
  B  B24  1  0.325721  0.175921  0.350741  1
  B  B25  1  0.075668  0.425380  0.851122  1
  B  B26  1  0.824079  0.674279  0.350741  1
  B  B27  1  0.574620  0.924332  0.851122  1
