# generated using pymatgen
data_Hf18Re7SiAsW
_symmetry_space_group_name_H-M   'P 1'
_cell_length_a   8.62211200
_cell_length_b   8.62211431
_cell_length_c   8.62494300
_cell_angle_alpha   89.99998517
_cell_angle_beta   89.99998671
_cell_angle_gamma   119.99992723
_symmetry_Int_Tables_number   1
_chemical_formula_structural   Hf18Re7SiAsW
_chemical_formula_sum   'Hf18 Re7 Si1 As1 W1'
_cell_volume   555.28330969
_cell_formula_units_Z   1
loop_
 _symmetry_equiv_pos_site_id
 _symmetry_equiv_pos_as_xyz
  1  'x, y, z'
loop_
 _atom_site_type_symbol
 _atom_site_label
 _atom_site_symmetry_multiplicity
 _atom_site_fract_x
 _atom_site_fract_y
 _atom_site_fract_z
 _atom_site_occupancy
  Hf  Hf0  1  0.194867  0.805134  0.453777  1
  Hf  Hf1  1  0.194868  0.389734  0.453776  1
  Hf  Hf2  1  0.610266  0.805134  0.453778  1
  Hf  Hf3  1  0.804033  0.195967  0.547738  1
  Hf  Hf4  1  0.804034  0.608066  0.547737  1
  Hf  Hf5  1  0.391934  0.195967  0.547737  1
  Hf  Hf6  1  0.805648  0.194352  0.952094  1
  Hf  Hf7  1  0.805647  0.611296  0.952094  1
  Hf  Hf8  1  0.388703  0.194352  0.952093  1
  Hf  Hf9  1  0.193122  0.806877  0.046492  1
  Hf  Hf10  1  0.193123  0.386245  0.046493  1
  Hf  Hf11  1  0.613754  0.806877  0.046491  1
  Hf  Hf12  1  0.541322  0.458678  0.249390  1
  Hf  Hf13  1  0.541321  0.082642  0.249391  1
  Hf  Hf14  1  0.917358  0.458678  0.249391  1
  Hf  Hf15  1  0.461155  0.538846  0.750724  1
  Hf  Hf16  1  0.461155  0.922310  0.750724  1
  Hf  Hf17  1  0.077689  0.538845  0.750724  1
  Re  Re18  1  0.890351  0.109649  0.250672  1
  Re  Re19  1  0.890350  0.780699  0.250672  1
  Re  Re20  1  0.219300  0.109651  0.250671  1
  Re  Re21  1  0.109517  0.890480  0.749212  1
  Re  Re22  1  0.109519  0.219039  0.749213  1
  Re  Re23  1  0.780962  0.890482  0.749211  1
  Re  Re24  1  0.000000  0.000000  0.000067  1
  Si  Si25  1  0.666667  0.333334  0.751559  1
  As  As26  1  0.333333  0.666666  0.248332  1
  W  W27  1  0.000001  0.999999  0.499746  1
