# generated using pymatgen
data_Ho2Er6Tc3B24Os
_symmetry_space_group_name_H-M   'P 1'
_cell_length_a   3.65387700
_cell_length_b   9.11928940
_cell_length_c   11.49903301
_cell_angle_alpha   89.95281791
_cell_angle_beta   90.00000000
_cell_angle_gamma   90.00000000
_symmetry_Int_Tables_number   1
_chemical_formula_structural   Ho2Er6Tc3B24Os
_chemical_formula_sum   'Ho2 Er6 Tc3 B24 Os1'
_cell_volume   383.15640976
_cell_formula_units_Z   1
loop_
 _symmetry_equiv_pos_site_id
 _symmetry_equiv_pos_as_xyz
  1  'x, y, z'
loop_
 _atom_site_type_symbol
 _atom_site_label
 _atom_site_symmetry_multiplicity
 _atom_site_fract_x
 _atom_site_fract_y
 _atom_site_fract_z
 _atom_site_occupancy
  Ho  Ho0  1  0.000000  0.323697  0.413712  1
  Ho  Ho1  1  0.000000  0.675494  0.584347  1
  Er  Er2  1  0.000000  0.822911  0.087395  1
  Er  Er3  1  0.000000  0.178009  0.914501  1
  Er  Er4  1  0.000000  0.942747  0.370113  1
  Er  Er5  1  0.000000  0.058030  0.629974  1
  Er  Er6  1  0.000000  0.443074  0.130035  1
  Er  Er7  1  0.000000  0.556769  0.869622  1
  Tc  Tc8  1  0.000000  0.638595  0.320445  1
  Tc  Tc9  1  0.000000  0.361414  0.680087  1
  Tc  Tc10  1  0.000000  0.137913  0.178236  1
  B  B11  1  0.500000  0.553154  0.433005  1
  B  B12  1  0.500000  0.446797  0.566772  1
  B  B13  1  0.500000  0.053004  0.066665  1
  B  B14  1  0.500000  0.946316  0.933164  1
  B  B15  1  0.500000  0.749049  0.418949  1
  B  B16  1  0.500000  0.250709  0.581092  1
  B  B17  1  0.500000  0.249516  0.080964  1
  B  B18  1  0.500000  0.750919  0.918788  1
  B  B19  1  0.500000  0.792152  0.265393  1
  B  B20  1  0.500000  0.208021  0.735135  1
  B  B21  1  0.500000  0.292003  0.234695  1
  B  B22  1  0.500000  0.708708  0.765299  1
  B  B23  1  0.500000  0.631044  0.185301  1
  B  B24  1  0.500000  0.368895  0.815171  1
  B  B25  1  0.500000  0.130461  0.314296  1
  B  B26  1  0.500000  0.869087  0.685559  1
  B  B27  1  0.500000  0.981498  0.211850  1
  B  B28  1  0.500000  0.017340  0.788168  1
  B  B29  1  0.500000  0.481951  0.287885  1
  B  B30  1  0.500000  0.517860  0.711918  1
  B  B31  1  0.500000  0.601741  0.028048  1
  B  B32  1  0.500000  0.399305  0.971778  1
  B  B33  1  0.500000  0.101299  0.471922  1
  B  B34  1  0.500000  0.898727  0.528549  1
  Os  Os35  1  0.000000  0.861791  0.821165  1
