# generated using pymatgen
data_Y6Lu4Sn5Bi
_symmetry_space_group_name_H-M   'P 1'
_cell_length_a   8.94001802
_cell_length_b   8.94001954
_cell_length_c   6.44164100
_cell_angle_alpha   90.00000000
_cell_angle_beta   90.00000000
_cell_angle_gamma   119.99146345
_symmetry_Int_Tables_number   1
_chemical_formula_structural   Y6Lu4Sn5Bi
_chemical_formula_sum   'Y6 Lu4 Sn5 Bi1'
_cell_volume   445.90399470
_cell_formula_units_Z   1
loop_
 _symmetry_equiv_pos_site_id
 _symmetry_equiv_pos_as_xyz
  1  'x, y, z'
loop_
 _atom_site_type_symbol
 _atom_site_label
 _atom_site_symmetry_multiplicity
 _atom_site_fract_x
 _atom_site_fract_y
 _atom_site_fract_z
 _atom_site_occupancy
  Y  Y0  1  0.762647  0.762647  0.750000  1
  Y  Y1  1  0.238772  0.994846  0.750000  1
  Y  Y2  1  0.994846  0.238772  0.750000  1
  Y  Y3  1  0.239487  0.239487  0.250000  1
  Y  Y4  1  0.759426  0.000471  0.250000  1
  Y  Y5  1  0.000471  0.759426  0.250000  1
  Lu  Lu6  1  0.669854  0.332603  0.000677  1
  Lu  Lu7  1  0.332603  0.669854  0.000677  1
  Lu  Lu8  1  0.332603  0.669854  0.499323  1
  Lu  Lu9  1  0.669854  0.332603  0.499323  1
  Sn  Sn10  1  0.602634  0.999648  0.750000  1
  Sn  Sn11  1  0.999648  0.602634  0.750000  1
  Sn  Sn12  1  0.604173  0.604173  0.250000  1
  Sn  Sn13  1  0.396607  0.000948  0.250000  1
  Sn  Sn14  1  0.000948  0.396607  0.250000  1
  Bi  Bi15  1  0.395426  0.395426  0.750000  1
