# generated using pymatgen
data_Dy16In4CuRu3
_symmetry_space_group_name_H-M   'P 1'
_cell_length_a   9.64253474
_cell_length_b   9.64253472
_cell_length_c   9.64253472
_cell_angle_alpha   60.08548746
_cell_angle_beta   60.08548332
_cell_angle_gamma   60.08549122
_symmetry_Int_Tables_number   1
_chemical_formula_structural   Dy16In4CuRu3
_chemical_formula_sum   'Dy16 In4 Cu1 Ru3'
_cell_volume   635.18337594
_cell_formula_units_Z   1
loop_
 _symmetry_equiv_pos_site_id
 _symmetry_equiv_pos_as_xyz
  1  'x, y, z'
loop_
 _atom_site_type_symbol
 _atom_site_label
 _atom_site_symmetry_multiplicity
 _atom_site_fract_x
 _atom_site_fract_y
 _atom_site_fract_z
 _atom_site_occupancy
  Dy  Dy0  1  0.597305  0.597305  0.597305  1
  Dy  Dy1  1  0.603948  0.603948  0.196957  1
  Dy  Dy2  1  0.603948  0.196957  0.603948  1
  Dy  Dy3  1  0.196957  0.603948  0.603948  1
  Dy  Dy4  1  0.052065  0.440655  0.440655  1
  Dy  Dy5  1  0.441414  0.058766  0.058766  1
  Dy  Dy6  1  0.440655  0.052065  0.440655  1
  Dy  Dy7  1  0.058766  0.441414  0.058766  1
  Dy  Dy8  1  0.440655  0.440655  0.052065  1
  Dy  Dy9  1  0.058766  0.058766  0.441414  1
  Dy  Dy10  1  0.191492  0.810202  0.810202  1
  Dy  Dy11  1  0.814364  0.191007  0.191007  1
  Dy  Dy12  1  0.810202  0.191492  0.810202  1
  Dy  Dy13  1  0.191007  0.814364  0.191007  1
  Dy  Dy14  1  0.810202  0.810202  0.191492  1
  Dy  Dy15  1  0.191007  0.191007  0.814364  1
  In  In16  1  0.833246  0.833246  0.833246  1
  In  In17  1  0.832124  0.832124  0.502287  1
  In  In18  1  0.832124  0.502287  0.832124  1
  In  In19  1  0.502287  0.832124  0.832124  1
  Cu  Cu20  1  0.392436  0.392436  0.392436  1
  Ru  Ru21  1  0.389355  0.389355  0.826324  1
  Ru  Ru22  1  0.389355  0.826324  0.389355  1
  Ru  Ru23  1  0.826324  0.389355  0.389355  1
