# generated using pymatgen
data_Sr4Mg2Si8Ir3Pt5
_symmetry_space_group_name_H-M   'P 1'
_cell_length_a   6.48554679
_cell_length_b   6.49043328
_cell_length_c   11.29918233
_cell_angle_alpha   89.96786701
_cell_angle_beta   89.92629358
_cell_angle_gamma   113.73822813
_symmetry_Int_Tables_number   1
_chemical_formula_structural   Sr4Mg2Si8Ir3Pt5
_chemical_formula_sum   'Sr4 Mg2 Si8 Ir3 Pt5'
_cell_volume   435.38634276
_cell_formula_units_Z   1
loop_
 _symmetry_equiv_pos_site_id
 _symmetry_equiv_pos_as_xyz
  1  'x, y, z'
loop_
 _atom_site_type_symbol
 _atom_site_label
 _atom_site_symmetry_multiplicity
 _atom_site_fract_x
 _atom_site_fract_y
 _atom_site_fract_z
 _atom_site_occupancy
  Sr  Sr0  1  0.202664  0.794663  0.501486  1
  Sr  Sr1  1  0.205148  0.799208  0.999481  1
  Sr  Sr2  1  0.793264  0.203875  0.501453  1
  Sr  Sr3  1  0.798115  0.206683  0.999072  1
  Mg  Mg4  1  0.025267  0.031466  0.249743  1
  Mg  Mg5  1  0.969841  0.975567  0.754542  1
  Si  Si6  1  0.511801  0.878282  0.249470  1
  Si  Si7  1  0.119864  0.482929  0.753471  1
  Si  Si8  1  0.474091  0.105684  0.753666  1
  Si  Si9  1  0.891344  0.518871  0.249607  1
  Si  Si10  1  0.342799  0.347628  0.418769  1
  Si  Si11  1  0.651543  0.656270  0.579906  1
  Si  Si12  1  0.340970  0.346807  0.076125  1
  Si  Si13  1  0.649310  0.653124  0.921292  1
  Ir  Ir14  1  0.502782  0.766328  0.749194  1
  Ir  Ir15  1  0.232213  0.494566  0.248521  1
  Ir  Ir16  1  0.315445  0.312654  0.873419  1
  Pt  Pt17  1  0.494042  0.222830  0.248502  1
  Pt  Pt18  1  0.775755  0.503523  0.749782  1
  Pt  Pt19  1  0.698953  0.697301  0.376701  1
  Pt  Pt20  1  0.301294  0.300351  0.621626  1
  Pt  Pt21  1  0.703494  0.701390  0.124172  1
