# generated using pymatgen
data_Tb16Ga5HgIr2
_symmetry_space_group_name_H-M   'P 1'
_cell_length_a   10.12303300
_cell_length_b   10.13580822
_cell_length_c   7.10029639
_cell_angle_alpha   90.03280207
_cell_angle_beta   90.00000000
_cell_angle_gamma   119.95831165
_symmetry_Int_Tables_number   1
_chemical_formula_structural   Tb16Ga5HgIr2
_chemical_formula_sum   'Tb16 Ga5 Hg1 Ir2'
_cell_volume   631.18742318
_cell_formula_units_Z   1
loop_
 _symmetry_equiv_pos_site_id
 _symmetry_equiv_pos_as_xyz
  1  'x, y, z'
loop_
 _atom_site_type_symbol
 _atom_site_label
 _atom_site_symmetry_multiplicity
 _atom_site_fract_x
 _atom_site_fract_y
 _atom_site_fract_z
 _atom_site_occupancy
  Tb  Tb0  1  0.829143  0.658288  0.488150  1
  Tb  Tb1  1  0.340964  0.169813  0.489207  1
  Tb  Tb2  1  0.828847  0.169813  0.489207  1
  Tb  Tb3  1  0.170602  0.341201  0.988256  1
  Tb  Tb4  1  0.658106  0.831931  0.987889  1
  Tb  Tb5  1  0.173827  0.831931  0.987889  1
  Tb  Tb6  1  0.664992  0.329982  0.163109  1
  Tb  Tb7  1  0.333551  0.667104  0.661654  1
  Tb  Tb8  1  0.535341  0.070679  0.793004  1
  Tb  Tb9  1  0.929953  0.463451  0.792198  1
  Tb  Tb10  1  0.533500  0.463451  0.792198  1
  Tb  Tb11  1  0.464621  0.929244  0.294483  1
  Tb  Tb12  1  0.071893  0.535163  0.293777  1
  Tb  Tb13  1  0.463268  0.535163  0.293777  1
  Tb  Tb14  1  0.001186  0.002372  0.764854  1
  Tb  Tb15  1  0.002823  0.005645  0.267615  1
  Ga  Ga16  1  0.328098  0.164529  0.044340  1
  Ga  Ga17  1  0.836428  0.164529  0.044340  1
  Ga  Ga18  1  0.163873  0.327743  0.545433  1
  Ga  Ga19  1  0.671805  0.836110  0.544230  1
  Ga  Ga20  1  0.164307  0.836110  0.544230  1
  Hg  Hg21  1  0.833764  0.667530  0.048074  1
  Ir  Ir22  1  0.665807  0.331613  0.554150  1
  Ir  Ir23  1  0.333302  0.666606  0.054001  1
