# generated using pymatgen
data_BeCu16Si3
_symmetry_space_group_name_H-M   'P 1'
_cell_length_a   6.16464708
_cell_length_b   6.16464774
_cell_length_c   6.16464737
_cell_angle_alpha   89.81754329
_cell_angle_beta   89.81754110
_cell_angle_gamma   89.81754692
_symmetry_Int_Tables_number   1
_chemical_formula_structural   BeCu16Si3
_chemical_formula_sum   'Be1 Cu16 Si3'
_cell_volume   234.27078365
_cell_formula_units_Z   1
loop_
 _symmetry_equiv_pos_site_id
 _symmetry_equiv_pos_as_xyz
  1  'x, y, z'
loop_
 _atom_site_type_symbol
 _atom_site_label
 _atom_site_symmetry_multiplicity
 _atom_site_fract_x
 _atom_site_fract_y
 _atom_site_fract_z
 _atom_site_occupancy
  Be  Be0  1  0.060701  0.060701  0.060701  1
  Cu  Cu1  1  0.818745  0.307595  0.184472  1
  Cu  Cu2  1  0.307595  0.184472  0.818745  1
  Cu  Cu3  1  0.184472  0.818745  0.307595  1
  Cu  Cu4  1  0.686539  0.686539  0.686539  1
  Cu  Cu5  1  0.048803  0.881299  0.711215  1
  Cu  Cu6  1  0.293563  0.548492  0.622300  1
  Cu  Cu7  1  0.375400  0.796628  0.951488  1
  Cu  Cu8  1  0.548492  0.622300  0.293563  1
  Cu  Cu9  1  0.796628  0.951488  0.375400  1
  Cu  Cu10  1  0.881299  0.711215  0.048803  1
  Cu  Cu11  1  0.951488  0.375400  0.796628  1
  Cu  Cu12  1  0.711215  0.048803  0.881299  1
  Cu  Cu13  1  0.622300  0.293563  0.548492  1
  Cu  Cu14  1  0.448986  0.120004  0.204179  1
  Cu  Cu15  1  0.204179  0.448986  0.120004  1
  Cu  Cu16  1  0.120004  0.204179  0.448986  1
  Si  Si17  1  0.437560  0.942401  0.559627  1
  Si  Si18  1  0.942401  0.559627  0.437560  1
  Si  Si19  1  0.559627  0.437560  0.942401  1
