# generated using pymatgen
data_TbGdEr4(SbO7)2
_symmetry_space_group_name_H-M   'P 1'
_cell_length_a   6.45077835
_cell_length_b   6.45077894
_cell_length_c   7.51351002
_cell_angle_alpha   90.01672322
_cell_angle_beta   89.98327774
_cell_angle_gamma   109.17688690
_symmetry_Int_Tables_number   1
_chemical_formula_structural   TbGdEr4(SbO7)2
_chemical_formula_sum   'Tb1 Gd1 Er4 Sb2 O14'
_cell_volume   295.30663294
_cell_formula_units_Z   1
loop_
 _symmetry_equiv_pos_site_id
 _symmetry_equiv_pos_as_xyz
  1  'x, y, z'
loop_
 _atom_site_type_symbol
 _atom_site_label
 _atom_site_symmetry_multiplicity
 _atom_site_fract_x
 _atom_site_fract_y
 _atom_site_fract_z
 _atom_site_occupancy
  Tb  Tb0  1  0.500000  0.500000  0.000000  1
  Gd  Gd1  1  0.500000  0.500000  0.500000  1
  Er  Er2  1  0.531502  0.000856  0.750332  1
  Er  Er3  1  0.000856  0.531502  0.249668  1
  Er  Er4  1  0.468498  0.999144  0.249668  1
  Er  Er5  1  0.999144  0.468498  0.750332  1
  Sb  Sb6  1  0.000000  0.000000  0.500000  1
  Sb  Sb7  1  0.000000  0.000000  0.000000  1
  O  O8  1  0.677160  0.929903  0.469509  1
  O  O9  1  0.929903  0.677160  0.530491  1
  O  O10  1  0.676843  0.928046  0.030344  1
  O  O11  1  0.928046  0.676843  0.969656  1
  O  O12  1  0.322840  0.070097  0.530491  1
  O  O13  1  0.070097  0.322840  0.469509  1
  O  O14  1  0.323157  0.071954  0.969656  1
  O  O15  1  0.071954  0.323157  0.030344  1
  O  O16  1  0.928319  0.071681  0.750028  1
  O  O17  1  0.071681  0.928319  0.249972  1
  O  O18  1  0.366629  0.633371  0.752161  1
  O  O19  1  0.633371  0.366629  0.247839  1
  O  O20  1  0.639727  0.360273  0.751789  1
  O  O21  1  0.360273  0.639727  0.248211  1
