# generated using pymatgen
data_DyY3Er4(B6Os)4
_symmetry_space_group_name_H-M   'P 1'
_cell_length_a   3.64376700
_cell_length_b   9.12656901
_cell_length_c   11.51678201
_cell_angle_alpha   89.99515391
_cell_angle_beta   90.00000000
_cell_angle_gamma   90.00000000
_symmetry_Int_Tables_number   1
_chemical_formula_structural   DyY3Er4(B6Os)4
_chemical_formula_sum   'Dy1 Y3 Er4 B24 Os4'
_cell_volume   382.99163212
_cell_formula_units_Z   1
loop_
 _symmetry_equiv_pos_site_id
 _symmetry_equiv_pos_as_xyz
  1  'x, y, z'
loop_
 _atom_site_type_symbol
 _atom_site_label
 _atom_site_symmetry_multiplicity
 _atom_site_fract_x
 _atom_site_fract_y
 _atom_site_fract_z
 _atom_site_occupancy
  Dy  Dy0  1  0.000000  0.178030  0.913989  1
  Y  Y1  1  0.000000  0.321758  0.414018  1
  Y  Y2  1  0.000000  0.678255  0.586006  1
  Y  Y3  1  0.000000  0.821740  0.085982  1
  Er  Er4  1  0.000000  0.944001  0.372895  1
  Er  Er5  1  0.000000  0.056018  0.627104  1
  Er  Er6  1  0.000000  0.443963  0.127035  1
  Er  Er7  1  0.000000  0.555975  0.872934  1
  B  B8  1  0.500000  0.554046  0.432860  1
  B  B9  1  0.500000  0.445913  0.567213  1
  B  B10  1  0.500000  0.054200  0.066994  1
  B  B11  1  0.500000  0.946134  0.932813  1
  B  B12  1  0.500000  0.748666  0.419477  1
  B  B13  1  0.500000  0.251339  0.580602  1
  B  B14  1  0.500000  0.248629  0.080309  1
  B  B15  1  0.500000  0.751416  0.919492  1
  B  B16  1  0.500000  0.791186  0.266402  1
  B  B17  1  0.500000  0.208777  0.733754  1
  B  B18  1  0.500000  0.291151  0.233475  1
  B  B19  1  0.500000  0.708862  0.766476  1
  B  B20  1  0.500000  0.631193  0.185085  1
  B  B21  1  0.500000  0.368620  0.815041  1
  B  B22  1  0.500000  0.131211  0.314847  1
  B  B23  1  0.500000  0.868869  0.685155  1
  B  B24  1  0.500000  0.983155  0.213258  1
  B  B25  1  0.500000  0.017018  0.786782  1
  B  B26  1  0.500000  0.483093  0.286639  1
  B  B27  1  0.500000  0.516817  0.713400  1
  B  B28  1  0.500000  0.606041  0.029288  1
  B  B29  1  0.500000  0.393824  0.970668  1
  B  B30  1  0.500000  0.105973  0.470716  1
  B  B31  1  0.500000  0.894067  0.529281  1
  Os  Os32  1  0.000000  0.637770  0.320926  1
  Os  Os33  1  0.000000  0.362153  0.679168  1
  Os  Os34  1  0.000000  0.137779  0.178949  1
  Os  Os35  1  0.000000  0.862362  0.820964  1
