# generated using pymatgen
data_Nd5Y3(Ho3Sn4)4
_symmetry_space_group_name_H-M   'P 1'
_cell_length_a   8.12479692
_cell_length_b   8.25728970
_cell_length_c   15.56319000
_cell_angle_alpha   90.05209661
_cell_angle_beta   89.95145427
_cell_angle_gamma   89.98483427
_symmetry_Int_Tables_number   1
_chemical_formula_structural   Nd5Y3(Ho3Sn4)4
_chemical_formula_sum   'Nd5 Y3 Ho12 Sn16'
_cell_volume   1044.11492808
_cell_formula_units_Z   1
loop_
 _symmetry_equiv_pos_site_id
 _symmetry_equiv_pos_as_xyz
  1  'x, y, z'
loop_
 _atom_site_type_symbol
 _atom_site_label
 _atom_site_symmetry_multiplicity
 _atom_site_fract_x
 _atom_site_fract_y
 _atom_site_fract_z
 _atom_site_occupancy
  Nd  Nd0  1  0.514771  0.320708  0.903536  1
  Nd  Nd1  1  0.015503  0.178580  0.596095  1
  Nd  Nd2  1  0.484134  0.679059  0.403747  1
  Nd  Nd3  1  0.984836  0.822129  0.095938  1
  Nd  Nd4  1  0.485097  0.678446  0.097043  1
  Y  Y5  1  0.982843  0.821517  0.402700  1
  Y  Y6  1  0.517196  0.321419  0.598097  1
  Y  Y7  1  0.016845  0.178866  0.901903  1
  Ho  Ho8  1  0.361232  0.836378  0.876603  1
  Ho  Ho9  1  0.862140  0.663595  0.623266  1
  Ho  Ho10  1  0.637837  0.163939  0.377632  1
  Ho  Ho11  1  0.138405  0.335789  0.123602  1
  Ho  Ho12  1  0.638872  0.162880  0.122941  1
  Ho  Ho13  1  0.138304  0.336925  0.377391  1
  Ho  Ho14  1  0.361541  0.837239  0.622970  1
  Ho  Ho15  1  0.860537  0.663229  0.876448  1
  Ho  Ho16  1  0.193971  0.502457  0.749802  1
  Ho  Ho17  1  0.694099  0.997696  0.749777  1
  Ho  Ho18  1  0.806087  0.497044  0.250521  1
  Ho  Ho19  1  0.305520  0.002762  0.250418  1
  Sn  Sn20  1  0.299653  0.041864  0.040619  1
  Sn  Sn21  1  0.800076  0.460843  0.458944  1
  Sn  Sn22  1  0.699955  0.960209  0.541450  1
  Sn  Sn23  1  0.195919  0.537758  0.957423  1
  Sn  Sn24  1  0.701248  0.962185  0.956693  1
  Sn  Sn25  1  0.200723  0.538747  0.542892  1
  Sn  Sn26  1  0.298964  0.038561  0.457421  1
  Sn  Sn27  1  0.803598  0.458073  0.041652  1
  Sn  Sn28  1  0.559121  0.621814  0.749146  1
  Sn  Sn29  1  0.059378  0.878593  0.750515  1
  Sn  Sn30  1  0.440584  0.376738  0.249955  1
  Sn  Sn31  1  0.940303  0.122020  0.250763  1
  Sn  Sn32  1  0.324994  0.145354  0.749220  1
  Sn  Sn33  1  0.824820  0.354543  0.750657  1
  Sn  Sn34  1  0.677205  0.856456  0.250784  1
  Sn  Sn35  1  0.173691  0.645581  0.251434  1
