# generated using pymatgen
data_Li2Tb16In2RuRh3
_symmetry_space_group_name_H-M   'P 1'
_cell_length_a   9.66784093
_cell_length_b   9.68838617
_cell_length_c   9.68747800
_cell_angle_alpha   60.00310077
_cell_angle_beta   59.93278652
_cell_angle_gamma   60.11325703
_symmetry_Int_Tables_number   1
_chemical_formula_structural   Li2Tb16In2RuRh3
_chemical_formula_sum   'Li2 Tb16 In2 Ru1 Rh3'
_cell_volume   641.85323311
_cell_formula_units_Z   1
loop_
 _symmetry_equiv_pos_site_id
 _symmetry_equiv_pos_as_xyz
  1  'x, y, z'
loop_
 _atom_site_type_symbol
 _atom_site_label
 _atom_site_symmetry_multiplicity
 _atom_site_fract_x
 _atom_site_fract_y
 _atom_site_fract_z
 _atom_site_occupancy
  Li  Li0  1  0.427888  0.427718  0.424228  1
  Li  Li1  1  0.427888  0.427718  0.720166  1
  Tb  Tb2  1  0.807779  0.807175  0.192523  1
  Tb  Tb3  1  0.811988  0.189659  0.811161  1
  Tb  Tb4  1  0.180947  0.184329  0.817362  1
  Tb  Tb5  1  0.653303  0.042003  0.652348  1
  Tb  Tb6  1  0.064012  0.064096  0.435946  1
  Tb  Tb7  1  0.441307  0.437308  0.060692  1
  Tb  Tb8  1  0.651887  0.650381  0.650959  1
  Tb  Tb9  1  0.811988  0.189659  0.187193  1
  Tb  Tb10  1  0.188197  0.811578  0.810775  1
  Tb  Tb11  1  0.040892  0.652820  0.653145  1
  Tb  Tb12  1  0.436974  0.062796  0.063379  1
  Tb  Tb13  1  0.436974  0.062796  0.436852  1
  Tb  Tb14  1  0.062800  0.436130  0.061847  1
  Tb  Tb15  1  0.651887  0.650381  0.046772  1
  Tb  Tb16  1  0.188197  0.811578  0.189451  1
  Tb  Tb17  1  0.062800  0.436130  0.439224  1
  In  In18  1  0.415707  0.743694  0.420300  1
  In  In19  1  0.743770  0.415407  0.420411  1
  Ru  Ru20  1  0.855582  0.423950  0.860234  1
  Rh  Rh21  1  0.856087  0.857754  0.860957  1
  Rh  Rh22  1  0.856087  0.857754  0.425204  1
  Rh  Rh23  1  0.425059  0.857191  0.858875  1
