# generated using pymatgen
data_Ca3Lu(PaN3)2
_symmetry_space_group_name_H-M   'P 1'
_cell_length_a   6.03338357
_cell_length_b   6.03338330
_cell_length_c   6.04667900
_cell_angle_alpha   99.52988369
_cell_angle_beta   99.52989288
_cell_angle_gamma   119.97559867
_symmetry_Int_Tables_number   1
_chemical_formula_structural   Ca3Lu(PaN3)2
_chemical_formula_sum   'Ca3 Lu1 Pa2 N6'
_cell_volume   179.91935383
_cell_formula_units_Z   1
loop_
 _symmetry_equiv_pos_site_id
 _symmetry_equiv_pos_as_xyz
  1  'x, y, z'
loop_
 _atom_site_type_symbol
 _atom_site_label
 _atom_site_symmetry_multiplicity
 _atom_site_fract_x
 _atom_site_fract_y
 _atom_site_fract_z
 _atom_site_occupancy
  Ca  Ca0  1  0.835706  0.164294  0.500000  1
  Ca  Ca1  1  0.164294  0.835706  0.500000  1
  Ca  Ca2  1  0.500000  0.500000  0.500000  1
  Lu  Lu3  1  0.000000  0.000000  0.000000  1
  Pa  Pa4  1  0.332994  0.667006  0.000000  1
  Pa  Pa5  1  0.667006  0.332994  0.000000  1
  N  N6  1  0.413019  0.071844  0.215511  1
  N  N7  1  0.928156  0.586981  0.784489  1
  N  N8  1  0.586981  0.928156  0.784489  1
  N  N9  1  0.071844  0.413019  0.215511  1
  N  N10  1  0.732222  0.732222  0.218273  1
  N  N11  1  0.267778  0.267778  0.781727  1
