# generated using pymatgen
data_TbYNi2(BC)2
_symmetry_space_group_name_H-M   'P 1'
_cell_length_a   3.60004900
_cell_length_b   3.60004900
_cell_length_c   7.56314300
_cell_angle_alpha   90.00000000
_cell_angle_beta   90.00000000
_cell_angle_gamma   90.00000000
_symmetry_Int_Tables_number   1
_chemical_formula_structural   TbYNi2(BC)2
_chemical_formula_sum   'Tb1 Y1 Ni2 B2 C2'
_cell_volume   98.02100158
_cell_formula_units_Z   1
loop_
 _symmetry_equiv_pos_site_id
 _symmetry_equiv_pos_as_xyz
  1  'x, y, z'
loop_
 _atom_site_type_symbol
 _atom_site_label
 _atom_site_symmetry_multiplicity
 _atom_site_fract_x
 _atom_site_fract_y
 _atom_site_fract_z
 _atom_site_occupancy
  Tb  Tb0  1  0.000000  0.500000  0.166678  1
  Y  Y1  1  0.500000  0.000000  0.833971  1
  Ni  Ni2  1  0.500000  0.500000  0.499928  1
  Ni  Ni3  1  0.000000  0.000000  0.499928  1
  B  B4  1  0.000000  0.500000  0.645228  1
  B  B5  1  0.500000  0.000000  0.354467  1
  C  C6  1  0.500000  0.000000  0.156938  1
  C  C7  1  0.000000  0.500000  0.842862  1
