# generated using pymatgen
data_Li8Nd8Bi7Sb
_symmetry_space_group_name_H-M   'P 1'
_cell_length_a   9.79167700
_cell_length_b   9.79314365
_cell_length_c   7.43045296
_cell_angle_alpha   89.83253915
_cell_angle_beta   90.00000000
_cell_angle_gamma   119.99504940
_symmetry_Int_Tables_number   1
_chemical_formula_structural   Li8Nd8Bi7Sb
_chemical_formula_sum   'Li8 Nd8 Bi7 Sb1'
_cell_volume   617.08404069
_cell_formula_units_Z   1
loop_
 _symmetry_equiv_pos_site_id
 _symmetry_equiv_pos_as_xyz
  1  'x, y, z'
loop_
 _atom_site_type_symbol
 _atom_site_label
 _atom_site_symmetry_multiplicity
 _atom_site_fract_x
 _atom_site_fract_y
 _atom_site_fract_z
 _atom_site_occupancy
  Li  Li0  1  0.166996  0.333991  0.274026  1
  Li  Li1  1  0.164292  0.831922  0.275322  1
  Li  Li2  1  0.667630  0.831922  0.275322  1
  Li  Li3  1  0.832998  0.665996  0.778402  1
  Li  Li4  1  0.835761  0.168326  0.771821  1
  Li  Li5  1  0.332565  0.168326  0.771821  1
  Li  Li6  1  0.331998  0.663995  0.690354  1
  Li  Li7  1  0.667942  0.335884  0.186291  1
  Nd  Nd8  1  0.508784  0.017569  0.493697  1
  Nd  Nd9  1  0.502864  0.488123  0.496096  1
  Nd  Nd10  1  0.985258  0.488123  0.496096  1
  Nd  Nd11  1  0.491214  0.982428  0.994509  1
  Nd  Nd12  1  0.482978  0.505602  0.992003  1
  Nd  Nd13  1  0.022625  0.505602  0.992003  1
  Nd  Nd14  1  0.003038  0.006078  0.503708  1
  Nd  Nd15  1  0.003017  0.006034  0.999573  1
  Bi  Bi16  1  0.167211  0.833222  0.737938  1
  Bi  Bi17  1  0.666010  0.833222  0.737938  1
  Bi  Bi18  1  0.832889  0.665778  0.237093  1
  Bi  Bi19  1  0.833228  0.166959  0.238556  1
  Bi  Bi20  1  0.333732  0.166959  0.238556  1
  Bi  Bi21  1  0.333599  0.667199  0.261701  1
  Bi  Bi22  1  0.666600  0.333199  0.761214  1
  Sb  Sb23  1  0.166770  0.333541  0.737939  1
