# generated using pymatgen
data_DyHo15(InRu)4
_symmetry_space_group_name_H-M   'P 1'
_cell_length_a   9.60270326
_cell_length_b   9.60270388
_cell_length_c   9.63141700
_cell_angle_alpha   59.90104209
_cell_angle_beta   59.90103993
_cell_angle_gamma   59.80140502
_symmetry_Int_Tables_number   1
_chemical_formula_structural   DyHo15(InRu)4
_chemical_formula_sum   'Dy1 Ho15 In4 Ru4'
_cell_volume   626.11901433
_cell_formula_units_Z   1
loop_
 _symmetry_equiv_pos_site_id
 _symmetry_equiv_pos_as_xyz
  1  'x, y, z'
loop_
 _atom_site_type_symbol
 _atom_site_label
 _atom_site_symmetry_multiplicity
 _atom_site_fract_x
 _atom_site_fract_y
 _atom_site_fract_z
 _atom_site_occupancy
  Dy  Dy0  1  0.440780  0.440780  0.059220  1
  Ho  Ho1  1  0.651640  0.651640  0.044846  1
  Ho  Ho2  1  0.191217  0.810062  0.190848  1
  Ho  Ho3  1  0.058907  0.441237  0.058027  1
  Ho  Ho4  1  0.191217  0.810062  0.807873  1
  Ho  Ho5  1  0.058907  0.441237  0.441830  1
  Ho  Ho6  1  0.810062  0.191217  0.190848  1
  Ho  Ho7  1  0.651640  0.651640  0.651873  1
  Ho  Ho8  1  0.810062  0.191217  0.807873  1
  Ho  Ho9  1  0.191213  0.191213  0.808787  1
  Ho  Ho10  1  0.044633  0.651382  0.651993  1
  Ho  Ho11  1  0.441237  0.058907  0.058027  1
  Ho  Ho12  1  0.058135  0.058135  0.441865  1
  Ho  Ho13  1  0.651382  0.044633  0.651993  1
  Ho  Ho14  1  0.809094  0.809094  0.190906  1
  Ho  Ho15  1  0.441237  0.058907  0.441830  1
  In  In16  1  0.417385  0.417385  0.417990  1
  In  In17  1  0.417385  0.417385  0.747241  1
  In  In18  1  0.417356  0.747980  0.417332  1
  In  In19  1  0.747980  0.417356  0.417332  1
  Ru  Ru20  1  0.419463  0.859198  0.860668  1
  Ru  Ru21  1  0.859934  0.859934  0.861608  1
  Ru  Ru22  1  0.859198  0.419463  0.860668  1
  Ru  Ru23  1  0.859934  0.859934  0.418523  1
