# generated using pymatgen
data_MnCdP2O7
_symmetry_space_group_name_H-M   'P 1'
_cell_length_a   6.61541959
_cell_length_b   6.68435802
_cell_length_c   6.85115501
_cell_angle_alpha   83.77341386
_cell_angle_beta   65.69429138
_cell_angle_gamma   81.25531383
_symmetry_Int_Tables_number   1
_chemical_formula_structural   MnCdP2O7
_chemical_formula_sum   'Mn2 Cd2 P4 O14'
_cell_volume   272.53971200
_cell_formula_units_Z   2
loop_
 _symmetry_equiv_pos_site_id
 _symmetry_equiv_pos_as_xyz
  1  'x, y, z'
loop_
 _atom_site_type_symbol
 _atom_site_label
 _atom_site_symmetry_multiplicity
 _atom_site_fract_x
 _atom_site_fract_y
 _atom_site_fract_z
 _atom_site_occupancy
  Mn  Mn0  1  0.106837  0.160141  0.264388  1
  Mn  Mn1  1  0.893163  0.839859  0.735612  1
  Cd  Cd2  1  0.283128  0.343842  0.654601  1
  Cd  Cd3  1  0.716872  0.656158  0.345399  1
  P  P4  1  0.228104  0.655528  0.254178  1
  P  P5  1  0.771896  0.344472  0.745822  1
  P  P6  1  0.357640  0.870306  0.822433  1
  P  P7  1  0.642360  0.129694  0.177567  1
  O  O8  1  0.204641  0.768163  0.761210  1
  O  O9  1  0.795359  0.231837  0.238790  1
  O  O10  1  0.090005  0.497794  0.234562  1
  O  O11  1  0.909995  0.502206  0.765438  1
  O  O12  1  0.259406  0.085338  0.908257  1
  O  O13  1  0.740594  0.914662  0.091743  1
  O  O14  1  0.389152  0.566428  0.358477  1
  O  O15  1  0.610848  0.433572  0.641523  1
  O  O16  1  0.607335  0.266267  0.978649  1
  O  O17  1  0.392665  0.733733  0.021351  1
  O  O18  1  0.934874  0.161341  0.633681  1
  O  O19  1  0.065126  0.838659  0.366319  1
  O  O20  1  0.401056  0.133148  0.347340  1
  O  O21  1  0.598944  0.866852  0.652660  1
