# generated using pymatgen
data_Zr4Mn3CoOs4
_symmetry_space_group_name_H-M   'P 1'
_cell_length_a   5.17080083
_cell_length_b   5.02016501
_cell_length_c   8.48882100
_cell_angle_alpha   90.00000000
_cell_angle_beta   90.00000000
_cell_angle_gamma   119.94292709
_symmetry_Int_Tables_number   1
_chemical_formula_structural   Zr4Mn3CoOs4
_chemical_formula_sum   'Zr4 Mn3 Co1 Os4'
_cell_volume   190.94280034
_cell_formula_units_Z   1
loop_
 _symmetry_equiv_pos_site_id
 _symmetry_equiv_pos_as_xyz
  1  'x, y, z'
loop_
 _atom_site_type_symbol
 _atom_site_label
 _atom_site_symmetry_multiplicity
 _atom_site_fract_x
 _atom_site_fract_y
 _atom_site_fract_z
 _atom_site_occupancy
  Zr  Zr0  1  0.332181  0.665336  0.434513  1
  Zr  Zr1  1  0.669813  0.334807  0.564013  1
  Zr  Zr2  1  0.669813  0.334807  0.935987  1
  Zr  Zr3  1  0.332181  0.665336  0.065487  1
  Mn  Mn4  1  0.827602  0.662604  0.250000  1
  Mn  Mn5  1  0.170534  0.831324  0.750000  1
  Mn  Mn6  1  0.169338  0.337132  0.750000  1
  Co  Co7  1  0.828608  0.169930  0.250000  1
  Os  Os8  1  0.002603  0.000454  0.500144  1
  Os  Os9  1  0.002603  0.000454  0.999856  1
  Os  Os10  1  0.347110  0.175492  0.250000  1
  Os  Os11  1  0.647613  0.822325  0.750000  1
