# generated using pymatgen
data_TbHo3(Sc3Si4)2
_symmetry_space_group_name_H-M   'P 1'
_cell_length_a   7.09379135
_cell_length_b   7.38238170
_cell_length_c   13.99334599
_cell_angle_alpha   90.03903118
_cell_angle_beta   90.01841498
_cell_angle_gamma   90.03115350
_symmetry_Int_Tables_number   1
_chemical_formula_structural   TbHo3(Sc3Si4)2
_chemical_formula_sum   'Tb2 Ho6 Sc12 Si16'
_cell_volume   732.81827624
_cell_formula_units_Z   2
loop_
 _symmetry_equiv_pos_site_id
 _symmetry_equiv_pos_as_xyz
  1  'x, y, z'
loop_
 _atom_site_type_symbol
 _atom_site_label
 _atom_site_symmetry_multiplicity
 _atom_site_fract_x
 _atom_site_fract_y
 _atom_site_fract_z
 _atom_site_occupancy
  Tb  Tb0  1  0.012053  0.175066  0.096857  1
  Tb  Tb1  1  0.987947  0.824934  0.903143  1
  Ho  Ho2  1  0.488133  0.675268  0.902977  1
  Ho  Ho3  1  0.987931  0.824606  0.597047  1
  Ho  Ho4  1  0.511867  0.324732  0.097023  1
  Ho  Ho5  1  0.012069  0.175394  0.402953  1
  Ho  Ho6  1  0.512099  0.324599  0.403180  1
  Ho  Ho7  1  0.487901  0.675401  0.596820  1
  Sc  Sc8  1  0.160740  0.502643  0.749849  1
  Sc  Sc9  1  0.839260  0.497357  0.250151  1
  Sc  Sc10  1  0.339406  0.002706  0.250075  1
  Sc  Sc11  1  0.660594  0.997294  0.749925  1
  Sc  Sc12  1  0.330740  0.176766  0.625053  1
  Sc  Sc13  1  0.669260  0.823234  0.374947  1
  Sc  Sc14  1  0.169330  0.676795  0.374954  1
  Sc  Sc15  1  0.669013  0.822996  0.125250  1
  Sc  Sc16  1  0.830670  0.323205  0.625046  1
  Sc  Sc17  1  0.330987  0.177004  0.874750  1
  Sc  Sc18  1  0.830353  0.323592  0.874805  1
  Sc  Sc19  1  0.169647  0.676408  0.125195  1
  Si  Si20  1  0.033263  0.117463  0.749792  1
  Si  Si21  1  0.966737  0.882537  0.250208  1
  Si  Si22  1  0.466820  0.616971  0.250066  1
  Si  Si23  1  0.533180  0.383029  0.749934  1
  Si  Si24  1  0.285794  0.873447  0.749677  1
  Si  Si25  1  0.714206  0.126553  0.250323  1
  Si  Si26  1  0.215106  0.373626  0.250283  1
  Si  Si27  1  0.784894  0.626374  0.749717  1
  Si  Si28  1  0.157985  0.464830  0.539439  1
  Si  Si29  1  0.842015  0.535170  0.460561  1
  Si  Si30  1  0.341862  0.964907  0.460553  1
  Si  Si31  1  0.841488  0.535205  0.039447  1
  Si  Si32  1  0.658138  0.035093  0.539447  1
  Si  Si33  1  0.158512  0.464795  0.960553  1
  Si  Si34  1  0.656939  0.035443  0.960610  1
  Si  Si35  1  0.343061  0.964557  0.039390  1
