# generated using pymatgen
data_Ba5Si2Sn
_symmetry_space_group_name_H-M   'P 1'
_cell_length_a   8.56018800
_cell_length_b   8.56018800
_cell_length_c   17.47901200
_cell_angle_alpha   90.00000000
_cell_angle_beta   90.00000000
_cell_angle_gamma   90.00000000
_symmetry_Int_Tables_number   1
_chemical_formula_structural   Ba5Si2Sn
_chemical_formula_sum   'Ba20 Si8 Sn4'
_cell_volume   1280.80639155
_cell_formula_units_Z   4
loop_
 _symmetry_equiv_pos_site_id
 _symmetry_equiv_pos_as_xyz
  1  'x, y, z'
loop_
 _atom_site_type_symbol
 _atom_site_label
 _atom_site_symmetry_multiplicity
 _atom_site_fract_x
 _atom_site_fract_y
 _atom_site_fract_z
 _atom_site_occupancy
  Ba  Ba0  1  0.310787  0.670197  0.111449  1
  Ba  Ba1  1  0.170197  0.189213  0.111449  1
  Ba  Ba2  1  0.500000  0.000000  0.732663  1
  Ba  Ba3  1  0.329803  0.689213  0.388551  1
  Ba  Ba4  1  0.670197  0.689213  0.888551  1
  Ba  Ba5  1  0.189213  0.170197  0.388551  1
  Ba  Ba6  1  0.670197  0.310787  0.388551  1
  Ba  Ba7  1  0.170197  0.810787  0.611449  1
  Ba  Ba8  1  0.329803  0.310787  0.888551  1
  Ba  Ba9  1  0.189213  0.829803  0.888551  1
  Ba  Ba10  1  0.500000  0.000000  0.232663  1
  Ba  Ba11  1  0.829803  0.189213  0.611449  1
  Ba  Ba12  1  0.310787  0.329803  0.611449  1
  Ba  Ba13  1  0.810787  0.829803  0.388551  1
  Ba  Ba14  1  0.810787  0.170197  0.888551  1
  Ba  Ba15  1  0.829803  0.810787  0.111449  1
  Ba  Ba16  1  0.000000  0.500000  0.267337  1
  Ba  Ba17  1  0.000000  0.500000  0.767337  1
  Ba  Ba18  1  0.689213  0.329803  0.111449  1
  Ba  Ba19  1  0.689213  0.670197  0.611449  1
  Si  Si20  1  0.100411  0.100411  0.750000  1
  Si  Si21  1  0.399589  0.600411  0.750000  1
  Si  Si22  1  0.600411  0.600411  0.250000  1
  Si  Si23  1  0.100411  0.899589  0.250000  1
  Si  Si24  1  0.600411  0.399589  0.750000  1
  Si  Si25  1  0.899589  0.899589  0.750000  1
  Si  Si26  1  0.399589  0.399589  0.250000  1
  Si  Si27  1  0.899589  0.100411  0.250000  1
  Sn  Sn28  1  0.000000  0.500000  0.987077  1
  Sn  Sn29  1  0.500000  0.000000  0.012923  1
  Sn  Sn30  1  0.500000  0.000000  0.512923  1
  Sn  Sn31  1  0.000000  0.500000  0.487077  1
