# generated using pymatgen
data_NaNd4Co4Hg
_symmetry_space_group_name_H-M   'P 1'
_cell_length_a   3.97405800
_cell_length_b   3.97405784
_cell_length_c   18.55061600
_cell_angle_alpha   90.00000000
_cell_angle_beta   90.00000000
_cell_angle_gamma   120.00000133
_symmetry_Int_Tables_number   1
_chemical_formula_structural   NaNd4Co4Hg
_chemical_formula_sum   'Na1 Nd4 Co4 Hg1'
_cell_volume   253.72154448
_cell_formula_units_Z   1
loop_
 _symmetry_equiv_pos_site_id
 _symmetry_equiv_pos_as_xyz
  1  'x, y, z'
loop_
 _atom_site_type_symbol
 _atom_site_label
 _atom_site_symmetry_multiplicity
 _atom_site_fract_x
 _atom_site_fract_y
 _atom_site_fract_z
 _atom_site_occupancy
  Na  Na0  1  0.333333  0.666667  0.250000  1
  Nd  Nd1  1  0.000000  0.000000  0.079315  1
  Nd  Nd2  1  0.000000  0.000000  0.877568  1
  Nd  Nd3  1  0.000000  0.000000  0.622432  1
  Nd  Nd4  1  0.000000  0.000000  0.420685  1
  Co  Co5  1  0.333333  0.666667  0.519133  1
  Co  Co6  1  0.666667  0.333333  0.518016  1
  Co  Co7  1  0.666667  0.333333  0.981984  1
  Co  Co8  1  0.333333  0.666667  0.980867  1
  Hg  Hg9  1  0.666667  0.333333  0.750000  1
