# generated using pymatgen
data_Dy16Hg4PtRh3
_symmetry_space_group_name_H-M   'P 1'
_cell_length_a   9.59940890
_cell_length_b   9.59940977
_cell_length_c   9.59940901
_cell_angle_alpha   59.99552190
_cell_angle_beta   59.99551798
_cell_angle_gamma   59.99552372
_symmetry_Int_Tables_number   1
_chemical_formula_structural   Dy16Hg4PtRh3
_chemical_formula_sum   'Dy16 Hg4 Pt1 Rh3'
_cell_volume   625.42381819
_cell_formula_units_Z   1
loop_
 _symmetry_equiv_pos_site_id
 _symmetry_equiv_pos_as_xyz
  1  'x, y, z'
loop_
 _atom_site_type_symbol
 _atom_site_label
 _atom_site_symmetry_multiplicity
 _atom_site_fract_x
 _atom_site_fract_y
 _atom_site_fract_z
 _atom_site_occupancy
  Dy  Dy0  1  0.693802  0.309410  0.309410  1
  Dy  Dy1  1  0.689725  0.689725  0.312438  1
  Dy  Dy2  1  0.309410  0.693802  0.309410  1
  Dy  Dy3  1  0.936356  0.936356  0.562437  1
  Dy  Dy4  1  0.145424  0.145424  0.557511  1
  Dy  Dy5  1  0.562802  0.937337  0.562802  1
  Dy  Dy6  1  0.149888  0.149888  0.149888  1
  Dy  Dy7  1  0.309410  0.309410  0.693802  1
  Dy  Dy8  1  0.937337  0.562802  0.562802  1
  Dy  Dy9  1  0.562802  0.562802  0.937337  1
  Dy  Dy10  1  0.562437  0.936356  0.936356  1
  Dy  Dy11  1  0.936356  0.562437  0.936356  1
  Dy  Dy12  1  0.145424  0.557511  0.145424  1
  Dy  Dy13  1  0.312438  0.689725  0.689725  1
  Dy  Dy14  1  0.689725  0.312438  0.689725  1
  Dy  Dy15  1  0.557511  0.145424  0.145424  1
  Hg  Hg16  1  0.914607  0.914607  0.256269  1
  Hg  Hg17  1  0.256269  0.914607  0.914607  1
  Hg  Hg18  1  0.914607  0.256269  0.914607  1
  Hg  Hg19  1  0.914840  0.914840  0.914840  1
  Pt  Pt20  1  0.356353  0.356353  0.356353  1
  Rh  Rh21  1  0.927988  0.357244  0.357244  1
  Rh  Rh22  1  0.357244  0.357244  0.927988  1
  Rh  Rh23  1  0.357244  0.927988  0.357244  1
