# generated using pymatgen
data_Y3Be(PPd4)5
_symmetry_space_group_name_H-M   'P 1'
_cell_length_a   8.66630801
_cell_length_b   8.63114374
_cell_length_c   8.63114238
_cell_angle_alpha   60.26972916
_cell_angle_beta   59.86512930
_cell_angle_gamma   59.86512249
_symmetry_Int_Tables_number   1
_chemical_formula_structural   Y3Be(PPd4)5
_chemical_formula_sum   'Y3 Be1 P5 Pd20'
_cell_volume   456.50045257
_cell_formula_units_Z   1
loop_
 _symmetry_equiv_pos_site_id
 _symmetry_equiv_pos_as_xyz
  1  'x, y, z'
loop_
 _atom_site_type_symbol
 _atom_site_label
 _atom_site_symmetry_multiplicity
 _atom_site_fract_x
 _atom_site_fract_y
 _atom_site_fract_z
 _atom_site_occupancy
  Y  Y0  1  0.249670  0.250330  0.250330  1
  Y  Y1  1  0.749670  0.750330  0.750330  1
  Y  Y2  1  0.996587  0.003413  0.003413  1
  Be  Be3  1  0.732953  0.267047  0.267047  1
  P  P4  1  0.263063  0.736937  0.736937  1
  P  P5  1  0.265405  0.734595  0.264150  1
  P  P6  1  0.735850  0.264150  0.734595  1
  P  P7  1  0.265405  0.264150  0.734595  1
  P  P8  1  0.735850  0.734595  0.264150  1
  Pd  Pd9  1  0.386707  0.383036  0.383036  1
  Pd  Pd10  1  0.616006  0.615221  0.615221  1
  Pd  Pd11  1  0.384779  0.383994  0.846449  1
  Pd  Pd12  1  0.384779  0.846449  0.383994  1
  Pd  Pd13  1  0.616964  0.613293  0.152778  1
  Pd  Pd14  1  0.616964  0.152778  0.613293  1
  Pd  Pd15  1  0.847222  0.383036  0.383036  1
  Pd  Pd16  1  0.153551  0.615221  0.615221  1
  Pd  Pd17  1  0.343963  0.000963  0.000963  1
  Pd  Pd18  1  0.654112  0.000963  0.000963  1
  Pd  Pd19  1  0.999037  0.345888  0.656037  1
  Pd  Pd20  1  0.999037  0.656037  0.345888  1
  Pd  Pd21  1  0.996982  0.342910  0.003018  1
  Pd  Pd22  1  0.657090  0.003018  0.342910  1
  Pd  Pd23  1  0.000266  0.653124  0.999734  1
  Pd  Pd24  1  0.346876  0.999734  0.653124  1
  Pd  Pd25  1  0.996982  0.003018  0.342910  1
  Pd  Pd26  1  0.000266  0.999734  0.653124  1
  Pd  Pd27  1  0.657090  0.342910  0.003018  1
  Pd  Pd28  1  0.346876  0.653124  0.999734  1
