# generated using pymatgen
data_Dy3ErLu4(B6Os)4
_symmetry_space_group_name_H-M   'P 1'
_cell_length_a   3.61825200
_cell_length_b   9.07009618
_cell_length_c   11.45621752
_cell_angle_alpha   90.00025697
_cell_angle_beta   90.00000000
_cell_angle_gamma   90.00000000
_symmetry_Int_Tables_number   1
_chemical_formula_structural   Dy3ErLu4(B6Os)4
_chemical_formula_sum   'Dy3 Er1 Lu4 B24 Os4'
_cell_volume   375.96892842
_cell_formula_units_Z   1
loop_
 _symmetry_equiv_pos_site_id
 _symmetry_equiv_pos_as_xyz
  1  'x, y, z'
loop_
 _atom_site_type_symbol
 _atom_site_label
 _atom_site_symmetry_multiplicity
 _atom_site_fract_x
 _atom_site_fract_y
 _atom_site_fract_z
 _atom_site_occupancy
  Dy  Dy0  1  0.000000  0.678848  0.585717  1
  Dy  Dy1  1  0.000000  0.820789  0.085820  1
  Dy  Dy2  1  0.000000  0.179114  0.914159  1
  Er  Er3  1  0.000000  0.320876  0.414187  1
  Lu  Lu4  1  0.000000  0.944320  0.373037  1
  Lu  Lu5  1  0.000000  0.056148  0.626716  1
  Lu  Lu6  1  0.000000  0.444049  0.127183  1
  Lu  Lu7  1  0.000000  0.555852  0.873362  1
  B  B8  1  0.500000  0.553955  0.432959  1
  B  B9  1  0.500000  0.445631  0.566787  1
  B  B10  1  0.500000  0.054230  0.066982  1
  B  B11  1  0.500000  0.945583  0.932617  1
  B  B12  1  0.500000  0.749995  0.419301  1
  B  B13  1  0.500000  0.250257  0.580180  1
  B  B14  1  0.500000  0.249649  0.080672  1
  B  B15  1  0.500000  0.750141  0.919447  1
  B  B16  1  0.500000  0.791853  0.266045  1
  B  B17  1  0.500000  0.208451  0.733945  1
  B  B18  1  0.500000  0.291812  0.234300  1
  B  B19  1  0.500000  0.708170  0.765967  1
  B  B20  1  0.500000  0.630442  0.184682  1
  B  B21  1  0.500000  0.369603  0.815786  1
  B  B22  1  0.500000  0.130566  0.315756  1
  B  B23  1  0.500000  0.869650  0.684178  1
  B  B24  1  0.500000  0.982442  0.213410  1
  B  B25  1  0.500000  0.017656  0.786222  1
  B  B26  1  0.500000  0.481935  0.286685  1
  B  B27  1  0.500000  0.517578  0.713688  1
  B  B28  1  0.500000  0.604017  0.028916  1
  B  B29  1  0.500000  0.395948  0.971687  1
  B  B30  1  0.500000  0.104194  0.471273  1
  B  B31  1  0.500000  0.896385  0.528380  1
  Os  Os32  1  0.000000  0.637760  0.320627  1
  Os  Os33  1  0.000000  0.362042  0.679335  1
  Os  Os34  1  0.000000  0.138324  0.179959  1
  Os  Os35  1  0.000000  0.861735  0.820036  1
