# generated using pymatgen
data_YbHo(NiH4)2
_symmetry_space_group_name_H-M   'P 1'
_cell_length_a   3.57665200
_cell_length_b   4.71317500
_cell_length_c   6.01806004
_cell_angle_alpha   90.00000000
_cell_angle_beta   107.08660303
_cell_angle_gamma   90.00000000
_symmetry_Int_Tables_number   1
_chemical_formula_structural   YbHo(NiH4)2
_chemical_formula_sum   'Yb1 Ho1 Ni2 H8'
_cell_volume   96.97099388
_cell_formula_units_Z   1
loop_
 _symmetry_equiv_pos_site_id
 _symmetry_equiv_pos_as_xyz
  1  'x, y, z'
loop_
 _atom_site_type_symbol
 _atom_site_label
 _atom_site_symmetry_multiplicity
 _atom_site_fract_x
 _atom_site_fract_y
 _atom_site_fract_z
 _atom_site_occupancy
  Yb  Yb0  1  0.869163  0.750000  0.238220  1
  Ho  Ho1  1  0.132194  0.250000  0.764680  1
  Ni  Ni2  1  0.403278  0.250000  0.306320  1
  Ni  Ni3  1  0.597975  0.750000  0.695416  1
  H  H4  1  0.305414  0.489139  0.109972  1
  H  H5  1  0.305414  0.010861  0.109972  1
  H  H6  1  0.917579  0.250000  0.334430  1
  H  H7  1  0.499323  0.000116  0.498846  1
  H  H8  1  0.499323  0.499884  0.498846  1
  H  H9  1  0.090314  0.750000  0.681539  1
  H  H10  1  0.690011  0.007782  0.880878  1
  H  H11  1  0.690011  0.492218  0.880878  1
