# generated using pymatgen
data_PrCo3As3Ru2
_symmetry_space_group_name_H-M   'P 1'
_cell_length_a   3.91153700
_cell_length_b   11.01303000
_cell_length_c   12.42230900
_cell_angle_alpha   90.00000000
_cell_angle_beta   90.00000000
_cell_angle_gamma   90.00000000
_symmetry_Int_Tables_number   1
_chemical_formula_structural   PrCo3As3Ru2
_chemical_formula_sum   'Pr4 Co12 As12 Ru8'
_cell_volume   535.12666595
_cell_formula_units_Z   4
loop_
 _symmetry_equiv_pos_site_id
 _symmetry_equiv_pos_as_xyz
  1  'x, y, z'
loop_
 _atom_site_type_symbol
 _atom_site_label
 _atom_site_symmetry_multiplicity
 _atom_site_fract_x
 _atom_site_fract_y
 _atom_site_fract_z
 _atom_site_occupancy
  Pr  Pr0  1  0.250000  0.586004  0.705459  1
  Pr  Pr1  1  0.250000  0.913996  0.205459  1
  Pr  Pr2  1  0.750000  0.413996  0.294541  1
  Pr  Pr3  1  0.750000  0.086004  0.794541  1
  Co  Co4  1  0.250000  0.220087  0.177648  1
  Co  Co5  1  0.250000  0.279913  0.677648  1
  Co  Co6  1  0.750000  0.779913  0.822352  1
  Co  Co7  1  0.750000  0.720087  0.322352  1
  Co  Co8  1  0.250000  0.885006  0.696443  1
  Co  Co9  1  0.250000  0.614994  0.196443  1
  Co  Co10  1  0.750000  0.114994  0.303557  1
  Co  Co11  1  0.750000  0.385006  0.803557  1
  Co  Co12  1  0.250000  0.467103  0.933331  1
  Co  Co13  1  0.250000  0.032897  0.433331  1
  Co  Co14  1  0.750000  0.532897  0.066669  1
  Co  Co15  1  0.750000  0.967103  0.566669  1
  As  As16  1  0.250000  0.418877  0.111665  1
  As  As17  1  0.250000  0.081123  0.611665  1
  As  As18  1  0.750000  0.581123  0.888335  1
  As  As19  1  0.750000  0.918877  0.388335  1
  As  As20  1  0.250000  0.276304  0.867339  1
  As  As21  1  0.250000  0.223696  0.367339  1
  As  As22  1  0.750000  0.723696  0.132661  1
  As  As23  1  0.750000  0.776304  0.632661  1
  As  As24  1  0.250000  0.602400  0.386120  1
  As  As25  1  0.250000  0.897600  0.886120  1
  As  As26  1  0.750000  0.397600  0.613880  1
  As  As27  1  0.750000  0.102400  0.113880  1
  Ru  Ru28  1  0.250000  0.705943  0.985957  1
  Ru  Ru29  1  0.250000  0.794057  0.485957  1
  Ru  Ru30  1  0.750000  0.294057  0.014043  1
  Ru  Ru31  1  0.750000  0.205943  0.514043  1
  Ru  Ru32  1  0.250000  0.402766  0.488894  1
  Ru  Ru33  1  0.250000  0.097234  0.988894  1
  Ru  Ru34  1  0.750000  0.597234  0.511106  1
  Ru  Ru35  1  0.750000  0.902766  0.011106  1
