# generated using pymatgen
data_Er19ThSi15As
_symmetry_space_group_name_H-M   'P 1'
_cell_length_a   7.44643819
_cell_length_b   7.60687115
_cell_length_c   14.51567400
_cell_angle_alpha   90.12643408
_cell_angle_beta   93.85257365
_cell_angle_gamma   89.92195281
_symmetry_Int_Tables_number   1
_chemical_formula_structural   Er19ThSi15As
_chemical_formula_sum   'Er19 Th1 Si15 As1'
_cell_volume   820.36658556
_cell_formula_units_Z   1
loop_
 _symmetry_equiv_pos_site_id
 _symmetry_equiv_pos_as_xyz
  1  'x, y, z'
loop_
 _atom_site_type_symbol
 _atom_site_label
 _atom_site_symmetry_multiplicity
 _atom_site_fract_x
 _atom_site_fract_y
 _atom_site_fract_z
 _atom_site_occupancy
  Er  Er0  1  0.489149  0.673845  0.601443  1
  Er  Er1  1  0.324609  0.823809  0.123037  1
  Er  Er2  1  0.825697  0.677147  0.122931  1
  Er  Er3  1  0.829648  0.504485  0.747111  1
  Er  Er4  1  0.474589  0.315995  0.101609  1
  Er  Er5  1  0.025340  0.813949  0.897886  1
  Er  Er6  1  0.504169  0.322044  0.399486  1
  Er  Er7  1  0.669387  0.006454  0.250961  1
  Er  Er8  1  0.526536  0.684718  0.900159  1
  Er  Er9  1  0.673505  0.176738  0.878477  1
  Er  Er10  1  0.143708  0.334893  0.620494  1
  Er  Er11  1  0.173865  0.322039  0.878717  1
  Er  Er12  1  0.855897  0.663894  0.378592  1
  Er  Er13  1  0.355366  0.834233  0.379891  1
  Er  Er14  1  0.330517  0.993459  0.746450  1
  Er  Er15  1  0.643727  0.165527  0.619710  1
  Er  Er16  1  0.170689  0.495048  0.253195  1
  Er  Er17  1  0.975398  0.185194  0.100982  1
  Er  Er18  1  0.009854  0.182829  0.398860  1
  Th  Th19  1  0.999929  0.813257  0.599051  1
  Si  Si20  1  0.216300  0.627165  0.753811  1
  Si  Si21  1  0.295251  0.039197  0.541584  1
  Si  Si22  1  0.042517  0.891924  0.248897  1
  Si  Si23  1  0.711497  0.869656  0.752078  1
  Si  Si24  1  0.287677  0.131319  0.248494  1
  Si  Si25  1  0.790783  0.466179  0.541980  1
  Si  Si26  1  0.456263  0.389956  0.753220  1
  Si  Si27  1  0.204271  0.535199  0.457531  1
  Si  Si28  1  0.145495  0.528738  0.042792  1
  Si  Si29  1  0.955058  0.109339  0.750968  1
  Si  Si30  1  0.788545  0.368832  0.248267  1
  Si  Si31  1  0.353859  0.028573  0.958787  1
  Si  Si32  1  0.854456  0.471653  0.957943  1
  Si  Si33  1  0.645942  0.971795  0.042388  1
  Si  Si34  1  0.542641  0.609313  0.248651  1
  As  As35  1  0.707865  0.971603  0.453566  1
