# generated using pymatgen
data_Nb3Ga2Re3B
_symmetry_space_group_name_H-M   'P 1'
_cell_length_a   6.90799200
_cell_length_b   6.90799188
_cell_length_c   3.20551900
_cell_angle_alpha   90.00000000
_cell_angle_beta   90.00000000
_cell_angle_gamma   119.99999100
_symmetry_Int_Tables_number   1
_chemical_formula_structural   Nb3Ga2Re3B
_chemical_formula_sum   'Nb3 Ga2 Re3 B1'
_cell_volume   132.47461647
_cell_formula_units_Z   1
loop_
 _symmetry_equiv_pos_site_id
 _symmetry_equiv_pos_as_xyz
  1  'x, y, z'
loop_
 _atom_site_type_symbol
 _atom_site_label
 _atom_site_symmetry_multiplicity
 _atom_site_fract_x
 _atom_site_fract_y
 _atom_site_fract_z
 _atom_site_occupancy
  Nb  Nb0  1  0.388446  0.000000  0.500000  1
  Nb  Nb1  1  0.000000  0.388446  0.500000  1
  Nb  Nb2  1  0.611554  0.611554  0.500000  1
  Ga  Ga3  1  0.333333  0.666667  0.000000  1
  Ga  Ga4  1  0.666667  0.333333  0.000000  1
  Re  Re5  1  0.762228  0.000000  0.000000  1
  Re  Re6  1  0.000000  0.762228  0.000000  1
  Re  Re7  1  0.237772  0.237772  0.000000  1
  B  B8  1  0.000000  0.000000  0.500000  1
