# generated using pymatgen
data_Tb3Bi(SO6)2
_symmetry_space_group_name_H-M   'P 1'
_cell_length_a   4.19790109
_cell_length_b   7.24283054
_cell_length_c   8.13127025
_cell_angle_alpha   106.23217332
_cell_angle_beta   90.69144483
_cell_angle_gamma   107.13396672
_symmetry_Int_Tables_number   1
_chemical_formula_structural   Tb3Bi(SO6)2
_chemical_formula_sum   'Tb3 Bi1 S2 O12'
_cell_volume   225.63415192
_cell_formula_units_Z   1
loop_
 _symmetry_equiv_pos_site_id
 _symmetry_equiv_pos_as_xyz
  1  'x, y, z'
loop_
 _atom_site_type_symbol
 _atom_site_label
 _atom_site_symmetry_multiplicity
 _atom_site_fract_x
 _atom_site_fract_y
 _atom_site_fract_z
 _atom_site_occupancy
  Tb  Tb0  1  0.329063  0.663888  0.409781  1
  Tb  Tb1  1  0.341251  0.668908  0.922591  1
  Tb  Tb2  1  0.660786  0.338715  0.083070  1
  Bi  Bi3  1  0.681880  0.356254  0.590664  1
  S  S4  1  0.938986  0.993483  0.752917  1
  S  S5  1  0.053060  0.995521  0.244539  1
  O  O6  1  0.770597  0.514621  0.882071  1
  O  O7  1  0.227936  0.490947  0.121930  1
  O  O8  1  0.281257  0.510777  0.627661  1
  O  O9  1  0.747939  0.515470  0.375386  1
  O  O10  1  0.726305  0.974946  0.597888  1
  O  O11  1  0.247993  0.979126  0.390931  1
  O  O12  1  0.727632  0.999811  0.901212  1
  O  O13  1  0.267814  0.994953  0.098118  1
  O  O14  1  0.220611  0.185054  0.798284  1
  O  O15  1  0.747684  0.816015  0.192271  1
  O  O16  1  0.059496  0.815004  0.718927  1
  O  O17  1  0.969710  0.186505  0.291760  1
