# generated using pymatgen
data_La2Yb(SmSn2)2
_symmetry_space_group_name_H-M   'P 1'
_cell_length_a   8.06144400
_cell_length_b   8.37866200
_cell_length_c   15.88129100
_cell_angle_alpha   90.00000000
_cell_angle_beta   90.00000000
_cell_angle_gamma   90.00000000
_symmetry_Int_Tables_number   1
_chemical_formula_structural   La2Yb(SmSn2)2
_chemical_formula_sum   'La8 Yb4 Sm8 Sn16'
_cell_volume   1072.68773784
_cell_formula_units_Z   4
loop_
 _symmetry_equiv_pos_site_id
 _symmetry_equiv_pos_as_xyz
  1  'x, y, z'
loop_
 _atom_site_type_symbol
 _atom_site_label
 _atom_site_symmetry_multiplicity
 _atom_site_fract_x
 _atom_site_fract_y
 _atom_site_fract_z
 _atom_site_occupancy
  La  La0  1  0.500080  0.680851  0.595814  1
  La  La1  1  0.000080  0.819149  0.904186  1
  La  La2  1  0.499920  0.319149  0.095814  1
  La  La3  1  0.999920  0.180851  0.404186  1
  La  La4  1  0.499920  0.319149  0.404186  1
  La  La5  1  0.999920  0.180851  0.095814  1
  La  La6  1  0.500080  0.680851  0.904186  1
  La  La7  1  0.000080  0.819149  0.595814  1
  Yb  Yb8  1  0.824708  0.501988  0.750000  1
  Yb  Yb9  1  0.324708  0.998012  0.750000  1
  Yb  Yb10  1  0.175292  0.498012  0.250000  1
  Yb  Yb11  1  0.675292  0.001988  0.250000  1
  Sm  Sm12  1  0.655672  0.171671  0.624253  1
  Sm  Sm13  1  0.155672  0.328329  0.875747  1
  Sm  Sm14  1  0.344328  0.828329  0.124253  1
  Sm  Sm15  1  0.844328  0.671671  0.375747  1
  Sm  Sm16  1  0.344328  0.828329  0.375747  1
  Sm  Sm17  1  0.844328  0.671671  0.124253  1
  Sm  Sm18  1  0.655672  0.171671  0.875747  1
  Sm  Sm19  1  0.155672  0.328329  0.624253  1
  Sn  Sn20  1  0.680293  0.960854  0.462513  1
  Sn  Sn21  1  0.180293  0.539146  0.037487  1
  Sn  Sn22  1  0.319707  0.039146  0.962513  1
  Sn  Sn23  1  0.819707  0.460854  0.537487  1
  Sn  Sn24  1  0.319707  0.039146  0.537487  1
  Sn  Sn25  1  0.819707  0.460854  0.962513  1
  Sn  Sn26  1  0.680293  0.960854  0.037487  1
  Sn  Sn27  1  0.180293  0.539146  0.462513  1
  Sn  Sn28  1  0.456602  0.388911  0.750000  1
  Sn  Sn29  1  0.956602  0.111089  0.750000  1
  Sn  Sn30  1  0.543398  0.611089  0.250000  1
  Sn  Sn31  1  0.043398  0.888911  0.250000  1
  Sn  Sn32  1  0.696396  0.863407  0.750000  1
  Sn  Sn33  1  0.196396  0.636593  0.750000  1
  Sn  Sn34  1  0.303604  0.136593  0.250000  1
  Sn  Sn35  1  0.803604  0.363407  0.250000  1
