# generated using pymatgen
data_Pa3(Al3Os)4
_symmetry_space_group_name_H-M   'P 1'
_cell_length_a   8.86780300
_cell_length_b   8.86780267
_cell_length_c   9.42748800
_cell_angle_alpha   90.00000000
_cell_angle_beta   90.00000000
_cell_angle_gamma   120.00000497
_symmetry_Int_Tables_number   1
_chemical_formula_structural   Pa3(Al3Os)4
_chemical_formula_sum   'Pa6 Al24 Os8'
_cell_volume   642.03492783
_cell_formula_units_Z   2
loop_
 _symmetry_equiv_pos_site_id
 _symmetry_equiv_pos_as_xyz
  1  'x, y, z'
loop_
 _atom_site_type_symbol
 _atom_site_label
 _atom_site_symmetry_multiplicity
 _atom_site_fract_x
 _atom_site_fract_y
 _atom_site_fract_z
 _atom_site_occupancy
  Pa  Pa0  1  0.198557  0.397114  0.250000  1
  Pa  Pa1  1  0.801443  0.602886  0.750000  1
  Pa  Pa2  1  0.602886  0.801443  0.250000  1
  Pa  Pa3  1  0.397114  0.198557  0.750000  1
  Pa  Pa4  1  0.198557  0.801443  0.250000  1
  Pa  Pa5  1  0.801443  0.198557  0.750000  1
  Al  Al6  1  0.333333  0.666667  0.018139  1
  Al  Al7  1  0.666667  0.333333  0.981861  1
  Al  Al8  1  0.666667  0.333333  0.518139  1
  Al  Al9  1  0.333333  0.666667  0.481861  1
  Al  Al10  1  0.162017  0.324033  0.577823  1
  Al  Al11  1  0.837983  0.675967  0.422177  1
  Al  Al12  1  0.675967  0.837983  0.577823  1
  Al  Al13  1  0.837983  0.675967  0.077823  1
  Al  Al14  1  0.324033  0.162017  0.422177  1
  Al  Al15  1  0.162017  0.324033  0.922177  1
  Al  Al16  1  0.162017  0.837983  0.577823  1
  Al  Al17  1  0.324033  0.162017  0.077823  1
  Al  Al18  1  0.837983  0.162017  0.422177  1
  Al  Al19  1  0.675967  0.837983  0.922177  1
  Al  Al20  1  0.837983  0.162017  0.077823  1
  Al  Al21  1  0.162017  0.837983  0.922177  1
  Al  Al22  1  0.562713  0.125426  0.250000  1
  Al  Al23  1  0.437287  0.874574  0.750000  1
  Al  Al24  1  0.874574  0.437287  0.250000  1
  Al  Al25  1  0.125426  0.562713  0.750000  1
  Al  Al26  1  0.562713  0.437287  0.250000  1
  Al  Al27  1  0.437287  0.562713  0.750000  1
  Al  Al28  1  0.000000  0.000000  0.250000  1
  Al  Al29  1  0.000000  0.000000  0.750000  1
  Os  Os30  1  0.500000  0.000000  0.000000  1
  Os  Os31  1  0.000000  0.500000  0.000000  1
  Os  Os32  1  0.500000  0.000000  0.500000  1
  Os  Os33  1  0.500000  0.500000  0.000000  1
  Os  Os34  1  0.000000  0.500000  0.500000  1
  Os  Os35  1  0.500000  0.500000  0.500000  1
  Os  Os36  1  0.000000  0.000000  0.000000  1
  Os  Os37  1  0.000000  0.000000  0.500000  1
