# generated using pymatgen
data_SrHgPb(ClO)2
_symmetry_space_group_name_H-M   'P 1'
_cell_length_a   6.34237735
_cell_length_b   6.34237613
_cell_length_c   7.88118270
_cell_angle_alpha   60.13559722
_cell_angle_beta   119.86439534
_cell_angle_gamma   143.29734185
_symmetry_Int_Tables_number   1
_chemical_formula_structural   SrHgPb(ClO)2
_chemical_formula_sum   'Sr1 Hg1 Pb1 Cl2 O2'
_cell_volume   161.30565091
_cell_formula_units_Z   1
loop_
 _symmetry_equiv_pos_site_id
 _symmetry_equiv_pos_as_xyz
  1  'x, y, z'
loop_
 _atom_site_type_symbol
 _atom_site_label
 _atom_site_symmetry_multiplicity
 _atom_site_fract_x
 _atom_site_fract_y
 _atom_site_fract_z
 _atom_site_occupancy
  Sr  Sr0  1  0.178148  0.821853  0.732334  1
  Hg  Hg1  1  0.995816  0.004184  0.998663  1
  Pb  Pb2  1  0.803554  0.196447  0.224186  1
  Cl  Cl3  1  0.442812  0.557189  0.666190  1
  Cl  Cl4  1  0.588012  0.411989  0.383964  1
  O  O5  1  0.185131  0.814871  0.066090  1
  O  O6  1  0.806531  0.193470  0.928577  1
