# generated using pymatgen
data_NdTm2Cd3Ga2Hg
_symmetry_space_group_name_H-M   'P 1'
_cell_length_a   7.37435645
_cell_length_b   7.33701939
_cell_length_c   4.48436500
_cell_angle_alpha   90.00000000
_cell_angle_beta   90.00000000
_cell_angle_gamma   119.83266094
_symmetry_Int_Tables_number   1
_chemical_formula_structural   NdTm2Cd3Ga2Hg
_chemical_formula_sum   'Nd1 Tm2 Cd3 Ga2 Hg1'
_cell_volume   210.47728237
_cell_formula_units_Z   1
loop_
 _symmetry_equiv_pos_site_id
 _symmetry_equiv_pos_as_xyz
  1  'x, y, z'
loop_
 _atom_site_type_symbol
 _atom_site_label
 _atom_site_symmetry_multiplicity
 _atom_site_fract_x
 _atom_site_fract_y
 _atom_site_fract_z
 _atom_site_occupancy
  Nd  Nd0  1  0.000000  0.575119  0.500000  1
  Tm  Tm1  1  0.424586  0.423740  0.500000  1
  Tm  Tm2  1  0.575414  0.999153  0.500000  1
  Cd  Cd3  1  0.742506  0.744196  0.000000  1
  Cd  Cd4  1  0.257494  0.001690  0.000000  1
  Cd  Cd5  1  0.000000  0.254020  0.000000  1
  Ga  Ga6  1  0.662131  0.329824  0.000000  1
  Ga  Ga7  1  0.337869  0.667694  0.000000  1
  Hg  Hg8  1  0.000000  0.004564  0.500000  1
