# generated using pymatgen
data_TbY5PdRh
_symmetry_space_group_name_H-M   'P 1'
_cell_length_a   6.45383503
_cell_length_b   7.14367667
_cell_length_c   9.60250000
_cell_angle_alpha   89.85248461
_cell_angle_beta   89.94725098
_cell_angle_gamma   90.32691421
_symmetry_Int_Tables_number   1
_chemical_formula_structural   TbY5PdRh
_chemical_formula_sum   'Tb2 Y10 Pd2 Rh2'
_cell_volume   442.70585639
_cell_formula_units_Z   2
loop_
 _symmetry_equiv_pos_site_id
 _symmetry_equiv_pos_as_xyz
  1  'x, y, z'
loop_
 _atom_site_type_symbol
 _atom_site_label
 _atom_site_symmetry_multiplicity
 _atom_site_fract_x
 _atom_site_fract_y
 _atom_site_fract_z
 _atom_site_occupancy
  Tb  Tb0  1  0.172583  0.179169  0.062130  1
  Tb  Tb1  1  0.827417  0.820831  0.937870  1
  Y  Y2  1  0.638213  0.024016  0.249978  1
  Y  Y3  1  0.361787  0.975984  0.750022  1
  Y  Y4  1  0.127248  0.463502  0.750030  1
  Y  Y5  1  0.872752  0.536498  0.249970  1
  Y  Y6  1  0.675685  0.316198  0.937999  1
  Y  Y7  1  0.827524  0.820289  0.561139  1
  Y  Y8  1  0.324315  0.683802  0.062001  1
  Y  Y9  1  0.172476  0.179711  0.438861  1
  Y  Y10  1  0.324043  0.683604  0.438312  1
  Y  Y11  1  0.675957  0.316396  0.561688  1
  Pd  Pd12  1  0.449220  0.387866  0.249516  1
  Pd  Pd13  1  0.550780  0.612134  0.750484  1
  Rh  Rh14  1  0.942613  0.111259  0.750656  1
  Rh  Rh15  1  0.057387  0.888741  0.249344  1
