# generated using pymatgen
data_LiTb2Yb(Al3Pd)6
_symmetry_space_group_name_H-M   'P 1'
_cell_length_a   7.66350674
_cell_length_b   7.62089618
_cell_length_c   9.41116300
_cell_angle_alpha   90.00000000
_cell_angle_beta   90.00000000
_cell_angle_gamma   119.59366745
_symmetry_Int_Tables_number   1
_chemical_formula_structural   LiTb2Yb(Al3Pd)6
_chemical_formula_sum   'Li1 Tb2 Yb1 Al18 Pd6'
_cell_volume   477.93760435
_cell_formula_units_Z   1
loop_
 _symmetry_equiv_pos_site_id
 _symmetry_equiv_pos_as_xyz
  1  'x, y, z'
loop_
 _atom_site_type_symbol
 _atom_site_label
 _atom_site_symmetry_multiplicity
 _atom_site_fract_x
 _atom_site_fract_y
 _atom_site_fract_z
 _atom_site_occupancy
  Li  Li0  1  0.983423  0.677863  0.250000  1
  Tb  Tb1  1  0.672999  0.998770  0.250000  1
  Tb  Tb2  1  0.325887  0.998700  0.750000  1
  Yb  Yb3  1  0.009060  0.333377  0.750000  1
  Al  Al4  1  0.126011  0.132080  0.250000  1
  Al  Al5  1  0.872056  0.864205  0.750000  1
  Al  Al6  1  0.000541  0.345278  0.085384  1
  Al  Al7  1  0.997787  0.663930  0.934436  1
  Al  Al8  1  0.997787  0.663930  0.565564  1
  Al  Al9  1  0.326232  0.989335  0.412404  1
  Al  Al10  1  0.000541  0.345278  0.414616  1
  Al  Al11  1  0.667014  0.999463  0.576911  1
  Al  Al12  1  0.667014  0.999463  0.923089  1
  Al  Al13  1  0.326232  0.989335  0.087596  1
  Al  Al14  1  0.334341  0.332808  0.547658  1
  Al  Al15  1  0.672636  0.668348  0.434340  1
  Al  Al16  1  0.672636  0.668348  0.065660  1
  Al  Al17  1  0.334341  0.332808  0.952342  1
  Al  Al18  1  0.345553  0.554450  0.250000  1
  Al  Al19  1  0.660449  0.450002  0.750000  1
  Al  Al20  1  0.547277  0.336292  0.250000  1
  Al  Al21  1  0.459884  0.658685  0.750000  1
  Pd  Pd22  1  0.668928  0.323711  0.000408  1
  Pd  Pd23  1  0.330942  0.672448  0.997830  1
  Pd  Pd24  1  0.330942  0.672448  0.502170  1
  Pd  Pd25  1  0.668928  0.323711  0.499592  1
  Pd  Pd26  1  0.000279  0.002468  0.000183  1
  Pd  Pd27  1  0.000279  0.002468  0.499817  1
