# generated using pymatgen
data_Mn3V2Si2Os
_symmetry_space_group_name_H-M   'P 1'
_cell_length_a   4.06467300
_cell_length_b   4.06467167
_cell_length_c   7.05703995
_cell_angle_alpha   73.26250580
_cell_angle_beta   90.00000000
_cell_angle_gamma   119.99998642
_symmetry_Int_Tables_number   1
_chemical_formula_structural   Mn3V2Si2Os
_chemical_formula_sum   'Mn3 V2 Si2 Os1'
_cell_volume   95.22637739
_cell_formula_units_Z   1
loop_
 _symmetry_equiv_pos_site_id
 _symmetry_equiv_pos_as_xyz
  1  'x, y, z'
loop_
 _atom_site_type_symbol
 _atom_site_label
 _atom_site_symmetry_multiplicity
 _atom_site_fract_x
 _atom_site_fract_y
 _atom_site_fract_z
 _atom_site_occupancy
  Mn  Mn0  1  0.499520  0.999040  0.501441  1
  Mn  Mn1  1  0.248775  0.497550  0.253674  1
  Mn  Mn2  1  0.750964  0.501928  0.747108  1
  V  V3  1  0.871713  0.743426  0.384861  1
  V  V4  1  0.379721  0.759440  0.860840  1
  Si  Si5  1  0.621683  0.243366  0.134951  1
  Si  Si6  1  0.127586  0.255170  0.617244  1
  Os  Os7  1  0.000040  0.000080  0.999880  1
