# generated using pymatgen
data_Nd3Sc4Pa(ReB6)4
_symmetry_space_group_name_H-M   'P 1'
_cell_length_a   3.64653800
_cell_length_b   9.06893297
_cell_length_c   11.50070756
_cell_angle_alpha   90.06325249
_cell_angle_beta   90.00000000
_cell_angle_gamma   90.00000000
_symmetry_Int_Tables_number   1
_chemical_formula_structural   Nd3Sc4Pa(ReB6)4
_chemical_formula_sum   'Nd3 Sc4 Pa1 Re4 B24'
_cell_volume   380.33056749
_cell_formula_units_Z   1
loop_
 _symmetry_equiv_pos_site_id
 _symmetry_equiv_pos_as_xyz
  1  'x, y, z'
loop_
 _atom_site_type_symbol
 _atom_site_label
 _atom_site_symmetry_multiplicity
 _atom_site_fract_x
 _atom_site_fract_y
 _atom_site_fract_z
 _atom_site_occupancy
  Nd  Nd0  1  0.000000  0.680460  0.585304  1
  Nd  Nd1  1  0.000000  0.821550  0.085575  1
  Nd  Nd2  1  0.000000  0.178318  0.914111  1
  Sc  Sc3  1  0.000000  0.944289  0.372166  1
  Sc  Sc4  1  0.000000  0.055102  0.628227  1
  Sc  Sc5  1  0.000000  0.444114  0.128342  1
  Sc  Sc6  1  0.000000  0.556334  0.870025  1
  Pa  Pa7  1  0.000000  0.321804  0.414668  1
  Re  Re8  1  0.000000  0.636418  0.318797  1
  Re  Re9  1  0.000000  0.359011  0.678370  1
  Re  Re10  1  0.000000  0.144820  0.186693  1
  Re  Re11  1  0.000000  0.858981  0.817284  1
  B  B12  1  0.500000  0.552851  0.429955  1
  B  B13  1  0.500000  0.442442  0.567511  1
  B  B14  1  0.500000  0.056916  0.070997  1
  B  B15  1  0.500000  0.944666  0.930759  1
  B  B16  1  0.500000  0.753745  0.415772  1
  B  B17  1  0.500000  0.245950  0.581230  1
  B  B18  1  0.500000  0.254348  0.084577  1
  B  B19  1  0.500000  0.745509  0.916319  1
  B  B20  1  0.500000  0.793517  0.266307  1
  B  B21  1  0.500000  0.206050  0.733055  1
  B  B22  1  0.500000  0.294474  0.236477  1
  B  B23  1  0.500000  0.705782  0.765439  1
  B  B24  1  0.500000  0.627405  0.183944  1
  B  B25  1  0.500000  0.372092  0.815274  1
  B  B26  1  0.500000  0.130412  0.318247  1
  B  B27  1  0.500000  0.872128  0.683768  1
  B  B28  1  0.500000  0.983672  0.216121  1
  B  B29  1  0.500000  0.017674  0.784792  1
  B  B30  1  0.500000  0.481099  0.286234  1
  B  B31  1  0.500000  0.517095  0.714740  1
  B  B32  1  0.500000  0.594033  0.025371  1
  B  B33  1  0.500000  0.405303  0.974073  1
  B  B34  1  0.500000  0.098155  0.473530  1
  B  B35  1  0.500000  0.903482  0.525948  1
