# generated using pymatgen
data_LaPr3(RuO6)2
_symmetry_space_group_name_H-M   'P 1'
_cell_length_a   10.26190214
_cell_length_b   10.26190280
_cell_length_c   5.65672128
_cell_angle_alpha   75.14332707
_cell_angle_beta   75.14332306
_cell_angle_gamma   69.42417520
_symmetry_Int_Tables_number   1
_chemical_formula_structural   LaPr3(RuO6)2
_chemical_formula_sum   'La2 Pr6 Ru4 O24'
_cell_volume   529.86675850
_cell_formula_units_Z   2
loop_
 _symmetry_equiv_pos_site_id
 _symmetry_equiv_pos_as_xyz
  1  'x, y, z'
loop_
 _atom_site_type_symbol
 _atom_site_label
 _atom_site_symmetry_multiplicity
 _atom_site_fract_x
 _atom_site_fract_y
 _atom_site_fract_z
 _atom_site_occupancy
  La  La0  1  0.633846  0.366154  0.750000  1
  La  La1  1  0.366154  0.633846  0.250000  1
  Pr  Pr2  1  0.108537  0.891463  0.750000  1
  Pr  Pr3  1  0.891463  0.108537  0.250000  1
  Pr  Pr4  1  0.711868  0.933995  0.877140  1
  Pr  Pr5  1  0.288132  0.066005  0.122860  1
  Pr  Pr6  1  0.066005  0.288132  0.622860  1
  Pr  Pr7  1  0.933995  0.711868  0.377140  1
  Ru  Ru8  1  0.501634  0.799884  0.550346  1
  Ru  Ru9  1  0.498366  0.200116  0.449654  1
  Ru  Ru10  1  0.200116  0.498366  0.949654  1
  Ru  Ru11  1  0.799884  0.501634  0.050346  1
  O  O12  1  0.687447  0.163714  0.586837  1
  O  O13  1  0.312553  0.836286  0.413163  1
  O  O14  1  0.836286  0.312553  0.913163  1
  O  O15  1  0.163714  0.687447  0.086837  1
  O  O16  1  0.386272  0.832197  0.847930  1
  O  O17  1  0.613728  0.167803  0.152070  1
  O  O18  1  0.167803  0.613728  0.652070  1
  O  O19  1  0.832197  0.386272  0.347930  1
  O  O20  1  0.673308  0.787202  0.630046  1
  O  O21  1  0.326692  0.212798  0.369954  1
  O  O22  1  0.212798  0.326692  0.869954  1
  O  O23  1  0.787202  0.673308  0.130046  1
  O  O24  1  0.472737  0.072451  0.735356  1
  O  O25  1  0.527263  0.927549  0.264644  1
  O  O26  1  0.927549  0.527263  0.764644  1
  O  O27  1  0.072451  0.472737  0.235356  1
  O  O28  1  0.542783  0.618016  0.520682  1
  O  O29  1  0.457217  0.381984  0.479318  1
  O  O30  1  0.381984  0.457217  0.979318  1
  O  O31  1  0.618016  0.542783  0.020682  1
  O  O32  1  0.890314  0.923111  0.073345  1
  O  O33  1  0.109686  0.076889  0.926655  1
  O  O34  1  0.076889  0.109686  0.426655  1
  O  O35  1  0.923111  0.890314  0.573345  1
