# generated using pymatgen
data_AcCoSb12Os2Ru
_symmetry_space_group_name_H-M   'P 1'
_cell_length_a   8.11303880
_cell_length_b   8.10547582
_cell_length_c   8.16417214
_cell_angle_alpha   109.59673984
_cell_angle_beta   109.62431346
_cell_angle_gamma   109.34978195
_symmetry_Int_Tables_number   1
_chemical_formula_structural   AcCoSb12Os2Ru
_chemical_formula_sum   'Ac1 Co1 Sb12 Os2 Ru1'
_cell_volume   412.48179245
_cell_formula_units_Z   1
loop_
 _symmetry_equiv_pos_site_id
 _symmetry_equiv_pos_as_xyz
  1  'x, y, z'
loop_
 _atom_site_type_symbol
 _atom_site_label
 _atom_site_symmetry_multiplicity
 _atom_site_fract_x
 _atom_site_fract_y
 _atom_site_fract_z
 _atom_site_occupancy
  Ac  Ac0  1  0.000000  0.000000  0.000000  1
  Co  Co1  1  0.000000  0.000000  0.500000  1
  Sb  Sb2  1  0.333820  0.178121  0.836067  1
  Sb  Sb3  1  0.666179  0.821879  0.163933  1
  Sb  Sb4  1  0.657870  0.500672  0.841607  1
  Sb  Sb5  1  0.342130  0.499328  0.158393  1
  Sb  Sb6  1  0.178992  0.845157  0.343124  1
  Sb  Sb7  1  0.821008  0.154843  0.656877  1
  Sb  Sb8  1  0.501117  0.843246  0.660504  1
  Sb  Sb9  1  0.498883  0.156754  0.339497  1
  Sb  Sb10  1  0.841647  0.340730  0.182556  1
  Sb  Sb11  1  0.158353  0.659269  0.817444  1
  Sb  Sb12  1  0.845080  0.666044  0.501956  1
  Sb  Sb13  1  0.154920  0.333956  0.498044  1
  Os  Os14  1  0.000000  0.500000  0.000000  1
  Os  Os15  1  0.500000  0.500000  0.500000  1
  Ru  Ru16  1  0.500000  0.000000  0.000000  1
