# generated using pymatgen
data_YTh3Al16(GaIr3)2
_symmetry_space_group_name_H-M   'P 1'
_cell_length_a   7.62946528
_cell_length_b   7.62643017
_cell_length_c   9.53207900
_cell_angle_alpha   90.00000000
_cell_angle_beta   90.00000000
_cell_angle_gamma   119.34994701
_symmetry_Int_Tables_number   1
_chemical_formula_structural   YTh3Al16(GaIr3)2
_chemical_formula_sum   'Y1 Th3 Al16 Ga2 Ir6'
_cell_volume   483.43862174
_cell_formula_units_Z   1
loop_
 _symmetry_equiv_pos_site_id
 _symmetry_equiv_pos_as_xyz
  1  'x, y, z'
loop_
 _atom_site_type_symbol
 _atom_site_label
 _atom_site_symmetry_multiplicity
 _atom_site_fract_x
 _atom_site_fract_y
 _atom_site_fract_z
 _atom_site_occupancy
  Y  Y0  1  0.993930  0.674161  0.250000  1
  Th  Th1  1  0.005363  0.325952  0.750000  1
  Th  Th2  1  0.675001  0.995897  0.250000  1
  Th  Th3  1  0.324971  0.005149  0.750000  1
  Al  Al4  1  0.004925  0.341323  0.076721  1
  Al  Al5  1  0.995369  0.663614  0.931418  1
  Al  Al6  1  0.995369  0.663614  0.568582  1
  Al  Al7  1  0.332218  0.000550  0.422971  1
  Al  Al8  1  0.004925  0.341323  0.423279  1
  Al  Al9  1  0.662539  0.993690  0.574033  1
  Al  Al10  1  0.662539  0.993690  0.925967  1
  Al  Al11  1  0.332218  0.000550  0.077029  1
  Al  Al12  1  0.337499  0.337430  0.547457  1
  Al  Al13  1  0.666770  0.663268  0.445977  1
  Al  Al14  1  0.666770  0.663268  0.054023  1
  Al  Al15  1  0.337499  0.337430  0.952543  1
  Al  Al16  1  0.336936  0.548526  0.250000  1
  Al  Al17  1  0.662355  0.454107  0.750000  1
  Al  Al18  1  0.551527  0.341891  0.250000  1
  Al  Al19  1  0.453621  0.659902  0.750000  1
  Ga  Ga20  1  0.137490  0.135402  0.250000  1
  Ga  Ga21  1  0.860960  0.858684  0.750000  1
  Ir  Ir22  1  0.670932  0.326159  0.999685  1
  Ir  Ir23  1  0.328914  0.672252  0.999771  1
  Ir  Ir24  1  0.328914  0.672252  0.500229  1
  Ir  Ir25  1  0.670932  0.326159  0.500315  1
  Ir  Ir26  1  0.999757  0.001876  0.999191  1
  Ir  Ir27  1  0.999757  0.001876  0.500809  1
