# generated using pymatgen
data_Tb7Ho2TmPb6
_symmetry_space_group_name_H-M   'P 1'
_cell_length_a   9.08093800
_cell_length_b   9.08093800
_cell_length_c   6.65666700
_cell_angle_alpha   90.00000000
_cell_angle_beta   90.00000000
_cell_angle_gamma   119.99999999
_symmetry_Int_Tables_number   1
_chemical_formula_structural   Tb7Ho2TmPb6
_chemical_formula_sum   'Tb7 Ho2 Tm1 Pb6'
_cell_volume   475.38873334
_cell_formula_units_Z   1
loop_
 _symmetry_equiv_pos_site_id
 _symmetry_equiv_pos_as_xyz
  1  'x, y, z'
loop_
 _atom_site_type_symbol
 _atom_site_label
 _atom_site_symmetry_multiplicity
 _atom_site_fract_x
 _atom_site_fract_y
 _atom_site_fract_z
 _atom_site_occupancy
  Tb  Tb0  1  0.333333  0.666667  0.000000  1
  Tb  Tb1  1  0.237949  0.000140  0.250252  1
  Tb  Tb2  1  0.237949  0.237809  0.749748  1
  Tb  Tb3  1  0.999860  0.762051  0.749748  1
  Tb  Tb4  1  0.999860  0.237809  0.250252  1
  Tb  Tb5  1  0.762191  0.762051  0.250252  1
  Tb  Tb6  1  0.762191  0.000140  0.749748  1
  Ho  Ho7  1  0.666667  0.333333  0.000000  1
  Ho  Ho8  1  0.333333  0.666667  0.500000  1
  Tm  Tm9  1  0.666667  0.333333  0.500000  1
  Pb  Pb10  1  0.604946  0.000830  0.250769  1
  Pb  Pb11  1  0.604946  0.604115  0.749231  1
  Pb  Pb12  1  0.999170  0.395054  0.749231  1
  Pb  Pb13  1  0.999170  0.604115  0.250769  1
  Pb  Pb14  1  0.395885  0.395054  0.250769  1
  Pb  Pb15  1  0.395885  0.000830  0.749231  1
