# generated using pymatgen
data_Pr4Hf3ZrF28
_symmetry_space_group_name_H-M   'P 1'
_cell_length_a   5.85489905
_cell_length_b   9.37762817
_cell_length_c   12.58157719
_cell_angle_alpha   61.96657319
_cell_angle_beta   89.97681603
_cell_angle_gamma   90.00337110
_symmetry_Int_Tables_number   1
_chemical_formula_structural   Pr4Hf3ZrF28
_chemical_formula_sum   'Pr4 Hf3 Zr1 F28'
_cell_volume   609.74404316
_cell_formula_units_Z   1
loop_
 _symmetry_equiv_pos_site_id
 _symmetry_equiv_pos_as_xyz
  1  'x, y, z'
loop_
 _atom_site_type_symbol
 _atom_site_label
 _atom_site_symmetry_multiplicity
 _atom_site_fract_x
 _atom_site_fract_y
 _atom_site_fract_z
 _atom_site_occupancy
  Pr  Pr0  1  0.757399  0.811418  0.765312  1
  Pr  Pr1  1  0.256875  0.187551  0.735377  1
  Pr  Pr2  1  0.242973  0.187652  0.234711  1
  Pr  Pr3  1  0.743032  0.813455  0.264945  1
  Hf  Hf4  1  0.754935  0.274478  0.956924  1
  Hf  Hf5  1  0.255767  0.725341  0.543374  1
  Hf  Hf6  1  0.245247  0.725837  0.043272  1
  Zr  Zr7  1  0.744899  0.273785  0.457288  1
  F  F8  1  0.454625  0.712422  0.921954  1
  F  F9  1  0.948591  0.288540  0.583036  1
  F  F10  1  0.543009  0.288036  0.076954  1
  F  F11  1  0.046755  0.712378  0.421792  1
  F  F12  1  0.451882  0.280888  0.544493  1
  F  F13  1  0.963602  0.718862  0.953102  1
  F  F14  1  0.538008  0.717507  0.453867  1
  F  F15  1  0.035250  0.282091  0.047521  1
  F  F16  1  0.767718  0.516272  0.862486  1
  F  F17  1  0.268729  0.483133  0.637868  1
  F  F18  1  0.230832  0.484047  0.137573  1
  F  F19  1  0.732031  0.519686  0.360635  1
  F  F20  1  0.760559  0.033218  0.055843  1
  F  F21  1  0.263377  0.966660  0.445139  1
  F  F22  1  0.239918  0.967230  0.943955  1
  F  F23  1  0.737405  0.028550  0.555724  1
  F  F24  1  0.986581  0.731011  0.640531  1
  F  F25  1  0.487813  0.267232  0.859508  1
  F  F26  1  0.023664  0.267876  0.361752  1
  F  F27  1  0.514091  0.733566  0.139510  1
  F  F28  1  0.043789  0.745713  0.166051  1
  F  F29  1  0.548577  0.255958  0.328766  1
  F  F30  1  0.958827  0.255491  0.834810  1
  F  F31  1  0.456608  0.742579  0.667516  1
  F  F32  1  0.414593  0.968253  0.232147  1
  F  F33  1  0.914274  0.031865  0.269661  1
  F  F34  1  0.584080  0.031865  0.766032  1
  F  F35  1  0.083686  0.969555  0.730574  1
