# generated using pymatgen
data_Rb2CeS4
_symmetry_space_group_name_H-M   'P 1'
_cell_length_a   10.10564300
_cell_length_b   6.95470600
_cell_length_c   24.93546300
_cell_angle_alpha   90.00000000
_cell_angle_beta   90.00000000
_cell_angle_gamma   90.00000000
_symmetry_Int_Tables_number   1
_chemical_formula_structural   Rb2CeS4
_chemical_formula_sum   'Rb16 Ce8 S32'
_cell_volume   1752.50862517
_cell_formula_units_Z   8
loop_
 _symmetry_equiv_pos_site_id
 _symmetry_equiv_pos_as_xyz
  1  'x, y, z'
loop_
 _atom_site_type_symbol
 _atom_site_label
 _atom_site_symmetry_multiplicity
 _atom_site_fract_x
 _atom_site_fract_y
 _atom_site_fract_z
 _atom_site_occupancy
  Rb  Rb0  1  0.857873  0.198235  0.033619  1
  Rb  Rb1  1  0.642127  0.698237  0.033619  1
  Rb  Rb2  1  0.570630  0.445382  0.200324  1
  Rb  Rb3  1  0.929371  0.945382  0.200324  1
  Rb  Rb4  1  0.070629  0.445382  0.299676  1
  Rb  Rb5  1  0.429370  0.945382  0.299676  1
  Rb  Rb6  1  0.357872  0.198235  0.466381  1
  Rb  Rb7  1  0.142127  0.698237  0.466381  1
  Rb  Rb8  1  0.857873  0.301763  0.533619  1
  Rb  Rb9  1  0.642127  0.801765  0.533619  1
  Rb  Rb10  1  0.570630  0.054618  0.700324  1
  Rb  Rb11  1  0.929371  0.554620  0.700324  1
  Rb  Rb12  1  0.070629  0.054618  0.799676  1
  Rb  Rb13  1  0.429370  0.554620  0.799676  1
  Rb  Rb14  1  0.357872  0.301763  0.966381  1
  Rb  Rb15  1  0.142127  0.801765  0.966381  1
  Ce  Ce16  1  0.164290  0.455044  0.129795  1
  Ce  Ce17  1  0.335711  0.955045  0.129795  1
  Ce  Ce18  1  0.664289  0.455044  0.370205  1
  Ce  Ce19  1  0.835710  0.955045  0.370205  1
  Ce  Ce20  1  0.164290  0.044955  0.629795  1
  Ce  Ce21  1  0.335711  0.544956  0.629795  1
  Ce  Ce22  1  0.664289  0.044955  0.870205  1
  Ce  Ce23  1  0.835710  0.544956  0.870205  1
  S  S24  1  0.167845  0.143990  0.064587  1
  S  S25  1  0.332155  0.643991  0.064587  1
  S  S26  1  0.560419  0.132798  0.091268  1
  S  S27  1  0.939580  0.632796  0.091268  1
  S  S28  1  0.899096  0.452710  0.156721  1
  S  S29  1  0.600903  0.952709  0.156721  1
  S  S30  1  0.262729  0.214678  0.203207  1
  S  S31  1  0.237270  0.714678  0.203207  1
  S  S32  1  0.762729  0.214678  0.296794  1
  S  S33  1  0.737271  0.714678  0.296794  1
  S  S34  1  0.399097  0.452710  0.343279  1
  S  S35  1  0.100902  0.952709  0.343279  1
  S  S36  1  0.060419  0.132798  0.408732  1
  S  S37  1  0.439582  0.632796  0.408732  1
  S  S38  1  0.667845  0.143990  0.435413  1
  S  S39  1  0.832155  0.643991  0.435413  1
  S  S40  1  0.167845  0.356009  0.564587  1
  S  S41  1  0.332155  0.856009  0.564587  1
  S  S42  1  0.560419  0.367204  0.591268  1
  S  S43  1  0.939580  0.867204  0.591268  1
  S  S44  1  0.899096  0.047291  0.656721  1
  S  S45  1  0.600903  0.547290  0.656721  1
  S  S46  1  0.262729  0.285322  0.703207  1
  S  S47  1  0.237270  0.785323  0.703207  1
  S  S48  1  0.762729  0.285322  0.796794  1
  S  S49  1  0.737271  0.785323  0.796794  1
  S  S50  1  0.399097  0.047291  0.843279  1
  S  S51  1  0.100902  0.547290  0.843279  1
  S  S52  1  0.060419  0.367204  0.908732  1
  S  S53  1  0.439582  0.867204  0.908732  1
  S  S54  1  0.667845  0.356009  0.935413  1
  S  S55  1  0.832155  0.856009  0.935413  1
