# generated using pymatgen
data_Hf6ZnGa4Sn
_symmetry_space_group_name_H-M   'P 1'
_cell_length_a   5.71296900
_cell_length_b   8.64652414
_cell_length_c   9.25976460
_cell_angle_alpha   90.05803096
_cell_angle_beta   90.00000000
_cell_angle_gamma   90.00000000
_symmetry_Int_Tables_number   1
_chemical_formula_structural   Hf6ZnGa4Sn
_chemical_formula_sum   'Hf12 Zn2 Ga8 Sn2'
_cell_volume   457.40736095
_cell_formula_units_Z   2
loop_
 _symmetry_equiv_pos_site_id
 _symmetry_equiv_pos_as_xyz
  1  'x, y, z'
loop_
 _atom_site_type_symbol
 _atom_site_label
 _atom_site_symmetry_multiplicity
 _atom_site_fract_x
 _atom_site_fract_y
 _atom_site_fract_z
 _atom_site_occupancy
  Hf  Hf0  1  0.999285  0.734901  0.116158  1
  Hf  Hf1  1  0.499285  0.265099  0.883842  1
  Hf  Hf2  1  0.000654  0.265378  0.884585  1
  Hf  Hf3  1  0.500654  0.734622  0.115415  1
  Hf  Hf4  1  0.750340  0.474310  0.617243  1
  Hf  Hf5  1  0.250340  0.525690  0.382757  1
  Hf  Hf6  1  0.749965  0.970886  0.392783  1
  Hf  Hf7  1  0.249965  0.029114  0.607217  1
  Hf  Hf8  1  0.749281  0.374846  0.193651  1
  Hf  Hf9  1  0.249281  0.625154  0.806349  1
  Hf  Hf10  1  0.750685  0.863286  0.800382  1
  Hf  Hf11  1  0.250685  0.136714  0.199618  1
  Zn  Zn12  1  0.005947  0.748171  0.565555  1
  Zn  Zn13  1  0.505947  0.251829  0.434445  1
  Ga  Ga14  1  0.994035  0.251930  0.432908  1
  Ga  Ga15  1  0.494035  0.748070  0.567092  1
  Ga  Ga16  1  0.749962  0.554166  0.909278  1
  Ga  Ga17  1  0.249962  0.445834  0.090722  1
  Ga  Ga18  1  0.749252  0.136216  0.652032  1
  Ga  Ga19  1  0.249252  0.863784  0.347968  1
  Ga  Ga20  1  0.750602  0.635589  0.356281  1
  Ga  Ga21  1  0.250602  0.364411  0.643719  1
  Sn  Sn22  1  0.749991  0.048479  0.086797  1
  Sn  Sn23  1  0.249991  0.951521  0.913203  1
