# generated using pymatgen
data_Lu12GaCo4Sn
_symmetry_space_group_name_H-M   'P 1'
_cell_length_a   8.12233220
_cell_length_b   8.12233336
_cell_length_c   8.12233327
_cell_angle_alpha   112.10613666
_cell_angle_beta   109.54463711
_cell_angle_gamma   106.80619974
_symmetry_Int_Tables_number   1
_chemical_formula_structural   Lu12GaCo4Sn
_chemical_formula_sum   'Lu12 Ga1 Co4 Sn1'
_cell_volume   411.61491964
_cell_formula_units_Z   1
loop_
 _symmetry_equiv_pos_site_id
 _symmetry_equiv_pos_as_xyz
  1  'x, y, z'
loop_
 _atom_site_type_symbol
 _atom_site_label
 _atom_site_symmetry_multiplicity
 _atom_site_fract_x
 _atom_site_fract_y
 _atom_site_fract_z
 _atom_site_occupancy
  Lu  Lu0  1  0.436360  0.233474  0.202886  1
  Lu  Lu1  1  0.563640  0.766526  0.797114  1
  Lu  Lu2  1  0.030587  0.233474  0.797114  1
  Lu  Lu3  1  0.969413  0.766526  0.202886  1
  Lu  Lu4  1  0.181202  0.279963  0.461166  1
  Lu  Lu5  1  0.818798  0.720037  0.538834  1
  Lu  Lu6  1  0.181202  0.720037  0.901239  1
  Lu  Lu7  1  0.818798  0.279963  0.098761  1
  Lu  Lu8  1  0.324645  0.636409  0.311765  1
  Lu  Lu9  1  0.675355  0.363591  0.688235  1
  Lu  Lu10  1  0.324645  0.012880  0.688235  1
  Lu  Lu11  1  0.675355  0.987120  0.311765  1
  Ga  Ga12  1  0.000000  0.000000  0.000000  1
  Co  Co13  1  0.343843  0.000000  0.343843  1
  Co  Co14  1  0.656157  0.000000  0.656157  1
  Co  Co15  1  0.116028  0.616028  0.500000  1
  Co  Co16  1  0.883972  0.383972  0.500000  1
  Sn  Sn17  1  0.500000  0.500000  0.000000  1
