# generated using pymatgen
data_Ho2Al9NiOsPd
_symmetry_space_group_name_H-M   'P 1'
_cell_length_a   7.50868072
_cell_length_b   7.50864362
_cell_length_c   9.41251285
_cell_angle_alpha   89.91555581
_cell_angle_beta   89.91603835
_cell_angle_gamma   118.85122323
_symmetry_Int_Tables_number   1
_chemical_formula_structural   Ho2Al9NiOsPd
_chemical_formula_sum   'Ho4 Al18 Ni2 Os2 Pd2'
_cell_volume   464.80559306
_cell_formula_units_Z   2
loop_
 _symmetry_equiv_pos_site_id
 _symmetry_equiv_pos_as_xyz
  1  'x, y, z'
loop_
 _atom_site_type_symbol
 _atom_site_label
 _atom_site_symmetry_multiplicity
 _atom_site_fract_x
 _atom_site_fract_y
 _atom_site_fract_z
 _atom_site_occupancy
  Ho  Ho0  1  0.993051  0.676658  0.248336  1
  Ho  Ho1  1  0.006990  0.323335  0.751739  1
  Ho  Ho2  1  0.676685  0.993036  0.248266  1
  Ho  Ho3  1  0.323342  0.006947  0.751687  1
  Al  Al4  1  0.132388  0.132449  0.248274  1
  Al  Al5  1  0.867519  0.867591  0.751711  1
  Al  Al6  1  0.996893  0.337589  0.073202  1
  Al  Al7  1  0.003061  0.662390  0.926770  1
  Al  Al8  1  0.997926  0.665901  0.576702  1
  Al  Al9  1  0.334092  0.002122  0.423274  1
  Al  Al10  1  0.002040  0.334180  0.423281  1
  Al  Al11  1  0.665860  0.997979  0.576726  1
  Al  Al12  1  0.662396  0.003091  0.926778  1
  Al  Al13  1  0.337596  0.996921  0.073205  1
  Al  Al14  1  0.330793  0.330872  0.555103  1
  Al  Al15  1  0.669126  0.669155  0.444881  1
  Al  Al16  1  0.666712  0.666753  0.046693  1
  Al  Al17  1  0.333226  0.333270  0.953278  1
  Al  Al18  1  0.343247  0.554536  0.242500  1
  Al  Al19  1  0.656694  0.445438  0.757560  1
  Al  Al20  1  0.554568  0.343281  0.242492  1
  Al  Al21  1  0.445454  0.656733  0.757506  1
  Ni  Ni22  1  0.671029  0.328793  0.999947  1
  Ni  Ni23  1  0.329066  0.670758  0.999984  1
  Os  Os24  1  0.000050  0.999966  0.000021  1
  Os  Os25  1  0.000074  0.000007  0.499985  1
  Pd  Pd26  1  0.328426  0.671926  0.499950  1
  Pd  Pd27  1  0.671697  0.328325  0.500148  1
