# generated using pymatgen
data_SmGaPt3Au
_symmetry_space_group_name_H-M   'P 1'
_cell_length_a   5.51676532
_cell_length_b   5.51676648
_cell_length_c   5.22617401
_cell_angle_alpha   58.14296338
_cell_angle_beta   58.14296225
_cell_angle_gamma   59.99999075
_symmetry_Int_Tables_number   1
_chemical_formula_structural   SmGaPt3Au
_chemical_formula_sum   'Sm1 Ga1 Pt3 Au1'
_cell_volume   109.20926263
_cell_formula_units_Z   1
loop_
 _symmetry_equiv_pos_site_id
 _symmetry_equiv_pos_as_xyz
  1  'x, y, z'
loop_
 _atom_site_type_symbol
 _atom_site_label
 _atom_site_symmetry_multiplicity
 _atom_site_fract_x
 _atom_site_fract_y
 _atom_site_fract_z
 _atom_site_occupancy
  Sm  Sm0  1  0.003943  0.003943  0.988173  1
  Ga  Ga1  1  0.622532  0.622532  0.132402  1
  Pt  Pt2  1  0.622512  0.125776  0.629201  1
  Pt  Pt3  1  0.125776  0.622512  0.629201  1
  Pt  Pt4  1  0.622512  0.622512  0.629201  1
  Au  Au5  1  0.252726  0.252726  0.241822  1
