# generated using pymatgen
data_TbDy(Sb5O13)2
_symmetry_space_group_name_H-M   'P 1'
_cell_length_a   7.42565326
_cell_length_b   7.35268398
_cell_length_c   10.30408828
_cell_angle_alpha   88.85341075
_cell_angle_beta   90.01238743
_cell_angle_gamma   90.02773501
_symmetry_Int_Tables_number   1
_chemical_formula_structural   TbDy(Sb5O13)2
_chemical_formula_sum   'Tb1 Dy1 Sb10 O26'
_cell_volume   562.47485227
_cell_formula_units_Z   1
loop_
 _symmetry_equiv_pos_site_id
 _symmetry_equiv_pos_as_xyz
  1  'x, y, z'
loop_
 _atom_site_type_symbol
 _atom_site_label
 _atom_site_symmetry_multiplicity
 _atom_site_fract_x
 _atom_site_fract_y
 _atom_site_fract_z
 _atom_site_occupancy
  Tb  Tb0  1  0.500000  0.500000  0.000000  1
  Dy  Dy1  1  0.000000  0.500000  0.000000  1
  Sb  Sb2  1  0.249721  0.729481  0.730288  1
  Sb  Sb3  1  0.750279  0.270519  0.269712  1
  Sb  Sb4  1  0.500000  0.000000  0.000000  1
  Sb  Sb5  1  0.750079  0.757514  0.748863  1
  Sb  Sb6  1  0.249868  0.748240  0.252200  1
  Sb  Sb7  1  0.500000  0.500000  0.500000  1
  Sb  Sb8  1  0.000000  0.500000  0.500000  1
  Sb  Sb9  1  0.750132  0.251760  0.747800  1
  Sb  Sb10  1  0.249921  0.242486  0.251137  1
  Sb  Sb11  1  0.000000  0.000000  0.000000  1
  O  O12  1  0.448258  0.690769  0.372205  1
  O  O13  1  0.751060  0.455875  0.128379  1
  O  O14  1  0.249563  0.493783  0.160846  1
  O  O15  1  0.454368  0.308918  0.365979  1
  O  O16  1  0.557258  0.215320  0.884716  1
  O  O17  1  0.942875  0.215813  0.884961  1
  O  O18  1  0.448387  0.207382  0.120776  1
  O  O19  1  0.750013  0.999715  0.072892  1
  O  O20  1  0.249987  0.000285  0.927108  1
  O  O21  1  0.750067  0.003917  0.683889  1
  O  O22  1  0.551613  0.792618  0.879224  1
  O  O23  1  0.948392  0.792330  0.879424  1
  O  O24  1  0.442742  0.784680  0.115284  1
  O  O25  1  0.051687  0.690807  0.372268  1
  O  O26  1  0.545632  0.691082  0.634021  1
  O  O27  1  0.954483  0.691160  0.633966  1
  O  O28  1  0.250006  0.518303  0.581004  1
  O  O29  1  0.750437  0.506217  0.839154  1
  O  O30  1  0.749994  0.481697  0.418996  1
  O  O31  1  0.045517  0.308840  0.366034  1
  O  O32  1  0.551742  0.309231  0.627795  1
  O  O33  1  0.948313  0.309193  0.627732  1
  O  O34  1  0.051608  0.207670  0.120576  1
  O  O35  1  0.249933  0.996083  0.316111  1
  O  O36  1  0.057125  0.784187  0.115039  1
  O  O37  1  0.248940  0.544125  0.871621  1
