# generated using pymatgen
data_Er2Tm2Cd2CoCu3
_symmetry_space_group_name_H-M   'P 1'
_cell_length_a   3.66406800
_cell_length_b   7.44059296
_cell_length_c   7.44059407
_cell_angle_alpha   90.08122419
_cell_angle_beta   90.00000000
_cell_angle_gamma   90.00000000
_symmetry_Int_Tables_number   1
_chemical_formula_structural   Er2Tm2Cd2CoCu3
_chemical_formula_sum   'Er2 Tm2 Cd2 Co1 Cu3'
_cell_volume   202.85151114
_cell_formula_units_Z   1
loop_
 _symmetry_equiv_pos_site_id
 _symmetry_equiv_pos_as_xyz
  1  'x, y, z'
loop_
 _atom_site_type_symbol
 _atom_site_label
 _atom_site_symmetry_multiplicity
 _atom_site_fract_x
 _atom_site_fract_y
 _atom_site_fract_z
 _atom_site_occupancy
  Er  Er0  1  0.500000  0.170918  0.670918  1
  Er  Er1  1  0.500000  0.811785  0.311785  1
  Tm  Tm2  1  0.500000  0.344788  0.180132  1
  Tm  Tm3  1  0.500000  0.680132  0.844788  1
  Cd  Cd4  1  0.000000  0.004779  0.001076  1
  Cd  Cd5  1  0.000000  0.501076  0.504779  1
  Co  Co6  1  0.000000  0.616998  0.116998  1
  Cu  Cu7  1  0.000000  0.379021  0.879021  1
  Cu  Cu8  1  0.000000  0.874657  0.615844  1
  Cu  Cu9  1  0.000000  0.115844  0.374657  1
