# generated using pymatgen
data_Hf3Pa(NbTc3)2
_symmetry_space_group_name_H-M   'P 1'
_cell_length_a   4.59626600
_cell_length_b   6.54652400
_cell_length_c   13.93626000
_cell_angle_alpha   90.00000000
_cell_angle_beta   90.00025224
_cell_angle_gamma   90.00000000
_symmetry_Int_Tables_number   1
_chemical_formula_structural   Hf3Pa(NbTc3)2
_chemical_formula_sum   'Hf6 Pa2 Nb4 Tc12'
_cell_volume   419.33601059
_cell_formula_units_Z   2
loop_
 _symmetry_equiv_pos_site_id
 _symmetry_equiv_pos_as_xyz
  1  'x, y, z'
loop_
 _atom_site_type_symbol
 _atom_site_label
 _atom_site_symmetry_multiplicity
 _atom_site_fract_x
 _atom_site_fract_y
 _atom_site_fract_z
 _atom_site_occupancy
  Hf  Hf0  1  0.000004  0.000000  0.989725  1
  Hf  Hf1  1  0.499993  0.500000  0.176635  1
  Hf  Hf2  1  0.999982  0.000000  0.342603  1
  Hf  Hf3  1  0.499993  0.500000  0.501630  1
  Hf  Hf4  1  0.000011  0.000000  0.665335  1
  Hf  Hf5  1  0.500013  0.500000  0.824111  1
  Pa  Pa6  1  0.999998  0.500000  0.997055  1
  Pa  Pa7  1  0.499985  0.000000  0.169246  1
  Nb  Nb8  1  0.999992  0.500000  0.341516  1
  Nb  Nb9  1  0.499997  0.000000  0.503711  1
  Nb  Nb10  1  0.000019  0.500000  0.663270  1
  Nb  Nb11  1  0.500015  0.000000  0.825197  1
  Tc  Tc12  1  0.500005  0.252041  0.997829  1
  Tc  Tc13  1  0.500005  0.747960  0.997829  1
  Tc  Tc14  1  0.999983  0.248044  0.168493  1
  Tc  Tc15  1  0.999983  0.751956  0.168493  1
  Tc  Tc16  1  0.499986  0.250464  0.336741  1
  Tc  Tc17  1  0.499986  0.749535  0.336741  1
  Tc  Tc18  1  0.999998  0.251388  0.501295  1
  Tc  Tc19  1  0.999998  0.748613  0.501295  1
  Tc  Tc20  1  0.500012  0.248605  0.665670  1
  Tc  Tc21  1  0.500012  0.751394  0.665670  1
  Tc  Tc22  1  0.000014  0.249639  0.829953  1
  Tc  Tc23  1  0.000014  0.750361  0.829953  1
