# generated using pymatgen
data_Pr2Tm3Sn4
_symmetry_space_group_name_H-M   'P 1'
_cell_length_a   8.05730700
_cell_length_b   8.26792100
_cell_length_c   15.53090800
_cell_angle_alpha   90.00000000
_cell_angle_beta   90.00000000
_cell_angle_gamma   90.00000000
_symmetry_Int_Tables_number   1
_chemical_formula_structural   Pr2Tm3Sn4
_chemical_formula_sum   'Pr8 Tm12 Sn16'
_cell_volume   1034.62525884
_cell_formula_units_Z   4
loop_
 _symmetry_equiv_pos_site_id
 _symmetry_equiv_pos_as_xyz
  1  'x, y, z'
loop_
 _atom_site_type_symbol
 _atom_site_label
 _atom_site_symmetry_multiplicity
 _atom_site_fract_x
 _atom_site_fract_y
 _atom_site_fract_z
 _atom_site_occupancy
  Pr  Pr0  1  0.509634  0.324376  0.903854  1
  Pr  Pr1  1  0.009634  0.175624  0.596146  1
  Pr  Pr2  1  0.490366  0.675624  0.403854  1
  Pr  Pr3  1  0.990366  0.824376  0.096146  1
  Pr  Pr4  1  0.490366  0.675624  0.096146  1
  Pr  Pr5  1  0.990366  0.824376  0.403854  1
  Pr  Pr6  1  0.509634  0.324376  0.596146  1
  Pr  Pr7  1  0.009634  0.175624  0.903854  1
  Tm  Tm8  1  0.349125  0.835805  0.875067  1
  Tm  Tm9  1  0.849125  0.664195  0.624933  1
  Tm  Tm10  1  0.650875  0.164195  0.375067  1
  Tm  Tm11  1  0.150875  0.335805  0.124933  1
  Tm  Tm12  1  0.650875  0.164195  0.124933  1
  Tm  Tm13  1  0.150875  0.335805  0.375067  1
  Tm  Tm14  1  0.349125  0.835805  0.624933  1
  Tm  Tm15  1  0.849125  0.664195  0.875067  1
  Tm  Tm16  1  0.181860  0.502810  0.750000  1
  Tm  Tm17  1  0.681860  0.997190  0.750000  1
  Tm  Tm18  1  0.818140  0.497190  0.250000  1
  Tm  Tm19  1  0.318140  0.002810  0.250000  1
  Sn  Sn20  1  0.314451  0.041993  0.041981  1
  Sn  Sn21  1  0.814451  0.458007  0.458019  1
  Sn  Sn22  1  0.685549  0.958007  0.541981  1
  Sn  Sn23  1  0.185549  0.541993  0.958019  1
  Sn  Sn24  1  0.685549  0.958007  0.958019  1
  Sn  Sn25  1  0.185549  0.541993  0.541981  1
  Sn  Sn26  1  0.314451  0.041993  0.458019  1
  Sn  Sn27  1  0.814451  0.458007  0.041981  1
  Sn  Sn28  1  0.546169  0.625972  0.750000  1
  Sn  Sn29  1  0.046169  0.874028  0.750000  1
  Sn  Sn30  1  0.453831  0.374028  0.250000  1
  Sn  Sn31  1  0.953831  0.125972  0.250000  1
  Sn  Sn32  1  0.316999  0.143920  0.750000  1
  Sn  Sn33  1  0.816999  0.356080  0.750000  1
  Sn  Sn34  1  0.683001  0.856080  0.250000  1
  Sn  Sn35  1  0.183001  0.643920  0.250000  1
