# generated using pymatgen
data_Sc12Ni2PbI16
_symmetry_space_group_name_H-M   'P 1'
_cell_length_a   9.30100969
_cell_length_b   12.02913557
_cell_length_c   12.64337700
_cell_angle_alpha   117.18126912
_cell_angle_beta   101.33595392
_cell_angle_gamma   100.80801291
_symmetry_Int_Tables_number   1
_chemical_formula_structural   Sc12Ni2PbI16
_chemical_formula_sum   'Sc12 Ni2 Pb1 I16'
_cell_volume   1169.79265975
_cell_formula_units_Z   1
loop_
 _symmetry_equiv_pos_site_id
 _symmetry_equiv_pos_as_xyz
  1  'x, y, z'
loop_
 _atom_site_type_symbol
 _atom_site_label
 _atom_site_symmetry_multiplicity
 _atom_site_fract_x
 _atom_site_fract_y
 _atom_site_fract_z
 _atom_site_occupancy
  Sc  Sc0  1  0.101334  0.266208  0.356090  1
  Sc  Sc1  1  0.898666  0.733792  0.643910  1
  Sc  Sc2  1  0.765343  0.535897  0.326464  1
  Sc  Sc3  1  0.234657  0.464103  0.673536  1
  Sc  Sc4  1  0.291625  0.733827  0.643245  1
  Sc  Sc5  1  0.708375  0.266173  0.356755  1
  Sc  Sc6  1  0.158517  0.535708  0.326111  1
  Sc  Sc7  1  0.841483  0.464292  0.673889  1
  Sc  Sc8  1  0.411996  0.368326  0.289068  1
  Sc  Sc9  1  0.588004  0.631674  0.710932  1
  Sc  Sc10  1  0.461770  0.321565  0.519866  1
  Sc  Sc11  1  0.538230  0.678435  0.480134  1
  Ni  Ni12  1  0.338976  0.500505  0.499666  1
  Ni  Ni13  1  0.661025  0.499495  0.500334  1
  Pb  Pb14  1  0.000000  0.500000  0.500000  1
  I  I15  1  0.398650  0.738389  0.881452  1
  I  I16  1  0.601350  0.261611  0.118548  1
  I  I17  1  0.184812  0.955101  0.778362  1
  I  I18  1  0.815188  0.044899  0.221638  1
  I  I19  1  0.337386  0.098562  0.253183  1
  I  I20  1  0.662614  0.901438  0.746817  1
  I  I21  1  0.561579  0.438756  0.798362  1
  I  I22  1  0.438421  0.561244  0.201638  1
  I  I23  1  0.309846  0.823563  0.462660  1
  I  I24  1  0.690154  0.176437  0.537340  1
  I  I25  1  0.171297  0.175771  0.535503  1
  I  I26  1  0.828703  0.824229  0.464497  1
  I  I27  1  0.926449  0.571789  0.163879  1
  I  I28  1  0.073551  0.428211  0.836121  1
  I  I29  1  0.919493  0.737621  0.882008  1
  I  I30  1  0.080507  0.262379  0.117992  1
