# generated using pymatgen
data_Tm8AlGaPd23
_symmetry_space_group_name_H-M   'P 1'
_cell_length_a   8.20272000
_cell_length_b   8.34011400
_cell_length_c   8.48497900
_cell_angle_alpha   90.00000000
_cell_angle_beta   90.00000000
_cell_angle_gamma   90.00000000
_symmetry_Int_Tables_number   1
_chemical_formula_structural   Tm8AlGaPd23
_chemical_formula_sum   'Tm8 Al1 Ga1 Pd23'
_cell_volume   580.47115829
_cell_formula_units_Z   1
loop_
 _symmetry_equiv_pos_site_id
 _symmetry_equiv_pos_as_xyz
  1  'x, y, z'
loop_
 _atom_site_type_symbol
 _atom_site_label
 _atom_site_symmetry_multiplicity
 _atom_site_fract_x
 _atom_site_fract_y
 _atom_site_fract_z
 _atom_site_occupancy
  Tm  Tm0  1  0.251163  0.244287  0.265046  1
  Tm  Tm1  1  0.747442  0.746533  0.747660  1
  Tm  Tm2  1  0.747442  0.746533  0.252340  1
  Tm  Tm3  1  0.747442  0.253467  0.747660  1
  Tm  Tm4  1  0.251163  0.244287  0.734954  1
  Tm  Tm5  1  0.251163  0.755713  0.265046  1
  Tm  Tm6  1  0.251163  0.755713  0.734954  1
  Tm  Tm7  1  0.747442  0.253467  0.252340  1
  Al  Al8  1  0.995468  0.000000  0.000000  1
  Ga  Ga9  1  0.276539  0.500000  0.000000  1
  Pd  Pd10  1  0.744596  0.500000  0.000000  1
  Pd  Pd11  1  0.996305  0.257051  0.500000  1
  Pd  Pd12  1  0.489745  0.263116  0.000000  1
  Pd  Pd13  1  0.996305  0.742949  0.500000  1
  Pd  Pd14  1  0.489745  0.736884  0.000000  1
  Pd  Pd15  1  0.500929  0.000000  0.259543  1
  Pd  Pd16  1  0.256783  0.000000  0.500000  1
  Pd  Pd17  1  0.500929  0.000000  0.740457  1
  Pd  Pd18  1  0.740864  0.000000  0.500000  1
  Pd  Pd19  1  0.004336  0.500000  0.260669  1
  Pd  Pd20  1  0.004336  0.500000  0.739331  1
  Pd  Pd21  1  0.252118  0.500000  0.500000  1
  Pd  Pd22  1  0.746578  0.500000  0.500000  1
  Pd  Pd23  1  0.502310  0.253119  0.500000  1
  Pd  Pd24  1  0.502310  0.746881  0.500000  1
  Pd  Pd25  1  0.492424  0.500000  0.252470  1
  Pd  Pd26  1  0.492424  0.500000  0.747530  1
  Pd  Pd27  1  0.286303  0.000000  0.000000  1
  Pd  Pd28  1  0.704562  0.000000  0.000000  1
  Pd  Pd29  1  0.018849  0.293518  0.000000  1
  Pd  Pd30  1  0.018849  0.706482  0.000000  1
  Pd  Pd31  1  0.995983  0.000000  0.283643  1
  Pd  Pd32  1  0.995983  0.000000  0.716357  1
