# generated using pymatgen
data_Ho4Lu3Mg(B6Os)4
_symmetry_space_group_name_H-M   'P 1'
_cell_length_a   3.60000500
_cell_length_b   9.03091438
_cell_length_c   11.41506549
_cell_angle_alpha   89.96654044
_cell_angle_beta   90.00000000
_cell_angle_gamma   90.00000000
_symmetry_Int_Tables_number   1
_chemical_formula_structural   Ho4Lu3Mg(B6Os)4
_chemical_formula_sum   'Ho4 Lu3 Mg1 B24 Os4'
_cell_volume   371.11897695
_cell_formula_units_Z   1
loop_
 _symmetry_equiv_pos_site_id
 _symmetry_equiv_pos_as_xyz
  1  'x, y, z'
loop_
 _atom_site_type_symbol
 _atom_site_label
 _atom_site_symmetry_multiplicity
 _atom_site_fract_x
 _atom_site_fract_y
 _atom_site_fract_z
 _atom_site_occupancy
  Ho  Ho0  1  0.000000  0.320903  0.412481  1
  Ho  Ho1  1  0.000000  0.679612  0.583159  1
  Ho  Ho2  1  0.000000  0.822398  0.088628  1
  Ho  Ho3  1  0.000000  0.178004  0.915806  1
  Lu  Lu4  1  0.000000  0.054992  0.624402  1
  Lu  Lu5  1  0.000000  0.443702  0.128339  1
  Lu  Lu6  1  0.000000  0.556253  0.872829  1
  Mg  Mg7  1  0.000000  0.945983  0.376137  1
  B  B8  1  0.500000  0.555547  0.432688  1
  B  B9  1  0.500000  0.445634  0.566357  1
  B  B10  1  0.500000  0.053350  0.068136  1
  B  B11  1  0.500000  0.946055  0.933025  1
  B  B12  1  0.500000  0.752445  0.418940  1
  B  B13  1  0.500000  0.249193  0.579396  1
  B  B14  1  0.500000  0.249088  0.081173  1
  B  B15  1  0.500000  0.750304  0.919525  1
  B  B16  1  0.500000  0.794505  0.266328  1
  B  B17  1  0.500000  0.207347  0.733475  1
  B  B18  1  0.500000  0.290240  0.234791  1
  B  B19  1  0.500000  0.708245  0.765256  1
  B  B20  1  0.500000  0.631555  0.185545  1
  B  B21  1  0.500000  0.369022  0.815390  1
  B  B22  1  0.500000  0.127502  0.316431  1
  B  B23  1  0.500000  0.869426  0.683036  1
  B  B24  1  0.500000  0.980631  0.214521  1
  B  B25  1  0.500000  0.017819  0.785938  1
  B  B26  1  0.500000  0.482762  0.287344  1
  B  B27  1  0.500000  0.517657  0.713060  1
  B  B28  1  0.500000  0.604531  0.028956  1
  B  B29  1  0.500000  0.395621  0.971706  1
  B  B30  1  0.500000  0.099976  0.469978  1
  B  B31  1  0.500000  0.897768  0.525809  1
  Os  Os32  1  0.000000  0.641496  0.320344  1
  Os  Os33  1  0.000000  0.361245  0.679663  1
  Os  Os34  1  0.000000  0.136869  0.181095  1
  Os  Os35  1  0.000000  0.862322  0.820313  1
