# generated using pymatgen
data_La2Co3B8Os5
_symmetry_space_group_name_H-M   'P 1'
_cell_length_a   7.42565251
_cell_length_b   7.46954775
_cell_length_c   3.95711120
_cell_angle_alpha   89.72638326
_cell_angle_beta   90.08984023
_cell_angle_gamma   89.27010967
_symmetry_Int_Tables_number   1
_chemical_formula_structural   La2Co3B8Os5
_chemical_formula_sum   'La2 Co3 B8 Os5'
_cell_volume   219.46557995
_cell_formula_units_Z   1
loop_
 _symmetry_equiv_pos_site_id
 _symmetry_equiv_pos_as_xyz
  1  'x, y, z'
loop_
 _atom_site_type_symbol
 _atom_site_label
 _atom_site_symmetry_multiplicity
 _atom_site_fract_x
 _atom_site_fract_y
 _atom_site_fract_z
 _atom_site_occupancy
  La  La0  1  0.000895  0.999890  0.061380  1
  La  La1  1  0.499365  0.505654  0.579143  1
  Co  Co2  1  0.370306  0.881649  0.380221  1
  Co  Co3  1  0.608543  0.864171  0.879383  1
  Co  Co4  1  0.377018  0.118060  0.883953  1
  B  B5  1  0.338522  0.812674  0.883195  1
  B  B6  1  0.665077  0.199029  0.882752  1
  B  B7  1  0.313841  0.158055  0.383776  1
  B  B8  1  0.689774  0.839026  0.381410  1
  B  B9  1  0.171403  0.728667  0.599088  1
  B  B10  1  0.833976  0.275609  0.600930  1
  B  B11  1  0.226522  0.325403  0.099553  1
  B  B12  1  0.770696  0.671272  0.099321  1
  Os  Os13  1  0.849551  0.396420  0.100769  1
  Os  Os14  1  0.157393  0.608459  0.101774  1
  Os  Os15  1  0.893507  0.656434  0.601366  1
  Os  Os16  1  0.112767  0.345742  0.601030  1
  Os  Os17  1  0.620845  0.113785  0.380956  1
