# generated using pymatgen
data_Cs6Tm(InBr6)3
_symmetry_space_group_name_H-M   'P 1'
_cell_length_a   7.96209100
_cell_length_b   7.96209105
_cell_length_c   20.29912200
_cell_angle_alpha   90.00000000
_cell_angle_beta   90.00000000
_cell_angle_gamma   119.99998732
_symmetry_Int_Tables_number   1
_chemical_formula_structural   Cs6Tm(InBr6)3
_chemical_formula_sum   'Cs6 Tm1 In3 Br18'
_cell_volume   1114.45418032
_cell_formula_units_Z   1
loop_
 _symmetry_equiv_pos_site_id
 _symmetry_equiv_pos_as_xyz
  1  'x, y, z'
loop_
 _atom_site_type_symbol
 _atom_site_label
 _atom_site_symmetry_multiplicity
 _atom_site_fract_x
 _atom_site_fract_y
 _atom_site_fract_z
 _atom_site_occupancy
  Cs  Cs0  1  0.333333  0.666667  0.071282  1
  Cs  Cs1  1  0.666667  0.333333  0.929007  1
  Cs  Cs2  1  0.666667  0.333333  0.571417  1
  Cs  Cs3  1  0.333333  0.666667  0.428729  1
  Cs  Cs4  1  0.000000  0.000000  0.249964  1
  Cs  Cs5  1  0.000000  0.000000  0.750075  1
  Tm  Tm6  1  0.333333  0.666667  0.842065  1
  In  In7  1  0.333333  0.666667  0.656263  1
  In  In8  1  0.666667  0.333333  0.343543  1
  In  In9  1  0.666667  0.333333  0.156176  1
  Br  Br10  1  0.169095  0.338191  0.591253  1
  Br  Br11  1  0.830883  0.661766  0.409254  1
  Br  Br12  1  0.661809  0.830905  0.591253  1
  Br  Br13  1  0.830884  0.661766  0.090787  1
  Br  Br14  1  0.338234  0.169117  0.409254  1
  Br  Br15  1  0.167408  0.334817  0.910354  1
  Br  Br16  1  0.169095  0.830905  0.591253  1
  Br  Br17  1  0.338234  0.169116  0.090787  1
  Br  Br18  1  0.830883  0.169117  0.409254  1
  Br  Br19  1  0.665183  0.832592  0.910354  1
  Br  Br20  1  0.830884  0.169116  0.090787  1
  Br  Br21  1  0.167408  0.832592  0.910354  1
  Br  Br22  1  0.512558  0.025116  0.250076  1
  Br  Br23  1  0.490166  0.980332  0.748768  1
  Br  Br24  1  0.974884  0.487442  0.250076  1
  Br  Br25  1  0.019668  0.509834  0.748768  1
  Br  Br26  1  0.512558  0.487442  0.250076  1
  Br  Br27  1  0.490166  0.509834  0.748768  1
