# generated using pymatgen
data_YbAg3IrRu3O14
_symmetry_space_group_name_H-M   'P 1'
_cell_length_a   7.23784155
_cell_length_b   7.14450868
_cell_length_c   7.14450885
_cell_angle_alpha   60.32426757
_cell_angle_beta   60.67492401
_cell_angle_gamma   60.67492522
_symmetry_Int_Tables_number   1
_chemical_formula_structural   YbAg3IrRu3O14
_chemical_formula_sum   'Yb1 Ag3 Ir1 Ru3 O14'
_cell_volume   264.52640659
_cell_formula_units_Z   1
loop_
 _symmetry_equiv_pos_site_id
 _symmetry_equiv_pos_as_xyz
  1  'x, y, z'
loop_
 _atom_site_type_symbol
 _atom_site_label
 _atom_site_symmetry_multiplicity
 _atom_site_fract_x
 _atom_site_fract_y
 _atom_site_fract_z
 _atom_site_occupancy
  Yb  Yb0  1  0.625000  0.125000  0.125000  1
  Ag  Ag1  1  0.125000  0.125000  0.125000  1
  Ag  Ag2  1  0.125000  0.125000  0.625000  1
  Ag  Ag3  1  0.125000  0.625000  0.125000  1
  Ir  Ir4  1  0.625000  0.625000  0.625000  1
  Ru  Ru5  1  0.125000  0.625000  0.625000  1
  Ru  Ru6  1  0.625000  0.625000  0.125000  1
  Ru  Ru7  1  0.625000  0.125000  0.625000  1
  O  O8  1  0.020532  0.992774  0.992774  1
  O  O9  1  0.229468  0.257226  0.257226  1
  O  O10  1  0.310486  0.308279  0.690872  1
  O  O11  1  0.553797  0.545244  0.950669  1
  O  O12  1  0.696203  0.299331  0.704756  1
  O  O13  1  0.694016  0.304832  0.304832  1
  O  O14  1  0.306542  0.695047  0.695047  1
  O  O15  1  0.310486  0.690872  0.308279  1
  O  O16  1  0.696203  0.704756  0.299331  1
  O  O17  1  0.943458  0.554953  0.554953  1
  O  O18  1  0.555984  0.945168  0.945168  1
  O  O19  1  0.939514  0.941721  0.559128  1
  O  O20  1  0.939514  0.559128  0.941721  1
  O  O21  1  0.553797  0.950669  0.545244  1
