# generated using pymatgen
data_HoEr3ReOs7
_symmetry_space_group_name_H-M   'P 1'
_cell_length_a   5.45890000
_cell_length_b   5.26533136
_cell_length_c   8.84341100
_cell_angle_alpha   90.00886859
_cell_angle_beta   90.00102859
_cell_angle_gamma   121.14256774
_symmetry_Int_Tables_number   1
_chemical_formula_structural   HoEr3ReOs7
_chemical_formula_sum   'Ho1 Er3 Re1 Os7'
_cell_volume   217.55300901
_cell_formula_units_Z   1
loop_
 _symmetry_equiv_pos_site_id
 _symmetry_equiv_pos_as_xyz
  1  'x, y, z'
loop_
 _atom_site_type_symbol
 _atom_site_label
 _atom_site_symmetry_multiplicity
 _atom_site_fract_x
 _atom_site_fract_y
 _atom_site_fract_z
 _atom_site_occupancy
  Ho  Ho0  1  0.670842  0.341439  0.564104  1
  Er  Er1  1  0.333771  0.667630  0.434330  1
  Er  Er2  1  0.333777  0.667652  0.065561  1
  Er  Er3  1  0.671018  0.341824  0.935888  1
  Re  Re4  1  0.164862  0.328602  0.750242  1
  Os  Os5  1  0.006370  0.013669  0.498725  1
  Os  Os6  1  0.006239  0.013418  0.001194  1
  Os  Os7  1  0.173360  0.823077  0.750403  1
  Os  Os8  1  0.648496  0.822479  0.750401  1
  Os  Os9  1  0.823105  0.646090  0.249626  1
  Os  Os10  1  0.828779  0.166673  0.249765  1
  Os  Os11  1  0.339379  0.167448  0.249761  1
