# generated using pymatgen
data_Sc7(PaRu2)3
_symmetry_space_group_name_H-M   'P 1'
_cell_length_a   5.92237200
_cell_length_b   7.75008189
_cell_length_c   7.87600719
_cell_angle_alpha   118.12372513
_cell_angle_beta   90.00000000
_cell_angle_gamma   90.00000000
_symmetry_Int_Tables_number   1
_chemical_formula_structural   Sc7(PaRu2)3
_chemical_formula_sum   'Sc7 Pa3 Ru6'
_cell_volume   318.81816493
_cell_formula_units_Z   1
loop_
 _symmetry_equiv_pos_site_id
 _symmetry_equiv_pos_as_xyz
  1  'x, y, z'
loop_
 _atom_site_type_symbol
 _atom_site_label
 _atom_site_symmetry_multiplicity
 _atom_site_fract_x
 _atom_site_fract_y
 _atom_site_fract_z
 _atom_site_occupancy
  Sc  Sc0  1  0.001997  0.665965  0.332192  1
  Sc  Sc1  1  0.002322  0.333625  0.676496  1
  Sc  Sc2  1  0.497678  0.333625  0.676496  1
  Sc  Sc3  1  0.498003  0.665965  0.332192  1
  Sc  Sc4  1  0.250000  0.998704  0.750362  1
  Sc  Sc5  1  0.750000  0.251765  0.997371  1
  Sc  Sc6  1  0.250000  0.749518  0.995967  1
  Pa  Pa7  1  0.750000  0.758589  0.751004  1
  Pa  Pa8  1  0.250000  0.246638  0.240823  1
  Pa  Pa9  1  0.750000  0.003070  0.248101  1
  Ru  Ru10  1  0.750000  0.376031  0.394876  1
  Ru  Ru11  1  0.250000  0.592370  0.594359  1
  Ru  Ru12  1  0.750000  0.983372  0.603162  1
  Ru  Ru13  1  0.250000  0.011866  0.387627  1
  Ru  Ru14  1  0.750000  0.632145  0.001674  1
  Ru  Ru15  1  0.250000  0.396751  0.017297  1
