# generated using pymatgen
data_CaTb3Tl4
_symmetry_space_group_name_H-M   'P 1'
_cell_length_a   6.62587102
_cell_length_b   6.62587121
_cell_length_c   6.62587098
_cell_angle_alpha   109.52806275
_cell_angle_beta   109.52805323
_cell_angle_gamma   109.35759629
_symmetry_Int_Tables_number   1
_chemical_formula_structural   CaTb3Tl4
_chemical_formula_sum   'Ca1 Tb3 Tl4'
_cell_volume   223.92666978
_cell_formula_units_Z   1
loop_
 _symmetry_equiv_pos_site_id
 _symmetry_equiv_pos_as_xyz
  1  'x, y, z'
loop_
 _atom_site_type_symbol
 _atom_site_label
 _atom_site_symmetry_multiplicity
 _atom_site_fract_x
 _atom_site_fract_y
 _atom_site_fract_z
 _atom_site_occupancy
  Ca  Ca0  1  0.249926  0.249926  0.000000  1
  Tb  Tb1  1  0.750251  0.250251  0.500000  1
  Tb  Tb2  1  0.250251  0.750251  0.500000  1
  Tb  Tb3  1  0.749143  0.749143  0.000000  1
  Tl  Tl4  1  0.750407  0.750407  0.500599  1
  Tl  Tl5  1  0.750407  0.249808  0.000000  1
  Tl  Tl6  1  0.249808  0.750407  0.000000  1
  Tl  Tl7  1  0.249808  0.249808  0.499401  1
