# generated using pymatgen
data_Eu2ClO2
_symmetry_space_group_name_H-M   'P 1'
_cell_length_a   3.97037200
_cell_length_b   3.97036469
_cell_length_c   7.18138000
_cell_angle_alpha   90.00000128
_cell_angle_beta   90.00042425
_cell_angle_gamma   119.99993306
_symmetry_Int_Tables_number   1
_chemical_formula_structural   Eu2ClO2
_chemical_formula_sum   'Eu2 Cl1 O2'
_cell_volume   98.03935190
_cell_formula_units_Z   1
loop_
 _symmetry_equiv_pos_site_id
 _symmetry_equiv_pos_as_xyz
  1  'x, y, z'
loop_
 _atom_site_type_symbol
 _atom_site_label
 _atom_site_symmetry_multiplicity
 _atom_site_fract_x
 _atom_site_fract_y
 _atom_site_fract_z
 _atom_site_occupancy
  Eu  Eu0  1  0.666665  0.333332  0.696427  1
  Eu  Eu1  1  0.333335  0.666668  0.303573  1
  Cl  Cl2  1  0.000000  0.000000  0.000000  1
  O  O3  1  0.666664  0.333332  0.368043  1
  O  O4  1  0.333336  0.666668  0.631957  1
