# generated using pymatgen
data_NdTh2In3PtRh2
_symmetry_space_group_name_H-M   'P 1'
_cell_length_a   7.71816590
_cell_length_b   7.73893951
_cell_length_c   4.01283400
_cell_angle_alpha   90.00000000
_cell_angle_beta   90.00000000
_cell_angle_gamma   119.81425648
_symmetry_Int_Tables_number   1
_chemical_formula_structural   NdTh2In3PtRh2
_chemical_formula_sum   'Nd1 Th2 In3 Pt1 Rh2'
_cell_volume   207.96354256
_cell_formula_units_Z   1
loop_
 _symmetry_equiv_pos_site_id
 _symmetry_equiv_pos_as_xyz
  1  'x, y, z'
loop_
 _atom_site_type_symbol
 _atom_site_label
 _atom_site_symmetry_multiplicity
 _atom_site_fract_x
 _atom_site_fract_y
 _atom_site_fract_z
 _atom_site_occupancy
  Nd  Nd0  1  0.998257  0.589366  0.500000  1
  Th  Th1  1  0.591627  0.003982  0.500000  1
  Th  Th2  1  0.414463  0.404229  0.500000  1
  In  In3  1  0.239513  0.990880  0.000000  1
  In  In4  1  0.762544  0.749144  0.000000  1
  In  In5  1  0.998447  0.260340  0.000000  1
  Pt  Pt6  1  0.352716  0.670125  0.000000  1
  Rh  Rh7  1  0.999675  0.018370  0.500000  1
  Rh  Rh8  1  0.642757  0.313563  0.000000  1
