# generated using pymatgen
data_Tb8CuSiPd23
_symmetry_space_group_name_H-M   'P 1'
_cell_length_a   8.29018400
_cell_length_b   8.34508800
_cell_length_c   8.37747200
_cell_angle_alpha   90.00000000
_cell_angle_beta   90.00000000
_cell_angle_gamma   90.00000000
_symmetry_Int_Tables_number   1
_chemical_formula_structural   Tb8CuSiPd23
_chemical_formula_sum   'Tb8 Cu1 Si1 Pd23'
_cell_volume   579.57290694
_cell_formula_units_Z   1
loop_
 _symmetry_equiv_pos_site_id
 _symmetry_equiv_pos_as_xyz
  1  'x, y, z'
loop_
 _atom_site_type_symbol
 _atom_site_label
 _atom_site_symmetry_multiplicity
 _atom_site_fract_x
 _atom_site_fract_y
 _atom_site_fract_z
 _atom_site_occupancy
  Tb  Tb0  1  0.253639  0.251395  0.257087  1
  Tb  Tb1  1  0.746111  0.745858  0.746550  1
  Tb  Tb2  1  0.746111  0.745858  0.253450  1
  Tb  Tb3  1  0.746111  0.254142  0.746550  1
  Tb  Tb4  1  0.253639  0.251395  0.742913  1
  Tb  Tb5  1  0.253639  0.748605  0.257087  1
  Tb  Tb6  1  0.253639  0.748605  0.742913  1
  Tb  Tb7  1  0.746111  0.254142  0.253450  1
  Cu  Cu8  1  0.261011  0.500000  0.000000  1
  Si  Si9  1  0.998819  0.000000  0.000000  1
  Pd  Pd10  1  0.744101  0.500000  0.000000  1
  Pd  Pd11  1  0.999268  0.256904  0.500000  1
  Pd  Pd12  1  0.494586  0.260765  0.000000  1
  Pd  Pd13  1  0.999268  0.743096  0.500000  1
  Pd  Pd14  1  0.494586  0.739235  0.000000  1
  Pd  Pd15  1  0.500271  0.000000  0.256917  1
  Pd  Pd16  1  0.256488  0.000000  0.500000  1
  Pd  Pd17  1  0.500271  0.000000  0.743083  1
  Pd  Pd18  1  0.742986  0.000000  0.500000  1
  Pd  Pd19  1  0.002952  0.500000  0.256249  1
  Pd  Pd20  1  0.002952  0.500000  0.743751  1
  Pd  Pd21  1  0.252132  0.500000  0.500000  1
  Pd  Pd22  1  0.747582  0.500000  0.500000  1
  Pd  Pd23  1  0.500635  0.252678  0.500000  1
  Pd  Pd24  1  0.500635  0.747322  0.500000  1
  Pd  Pd25  1  0.495904  0.500000  0.249736  1
  Pd  Pd26  1  0.495904  0.500000  0.750264  1
  Pd  Pd27  1  0.279888  0.000000  0.000000  1
  Pd  Pd28  1  0.717339  0.000000  0.000000  1
  Pd  Pd29  1  0.007650  0.282687  0.000000  1
  Pd  Pd30  1  0.007650  0.717313  0.000000  1
  Pd  Pd31  1  0.999058  0.000000  0.278878  1
  Pd  Pd32  1  0.999058  0.000000  0.721122  1
