# generated using pymatgen
data_AcPr(Si2Ir3)2
_symmetry_space_group_name_H-M   'P 1'
_cell_length_a   6.77759960
_cell_length_b   6.77760005
_cell_length_c   6.77760003
_cell_angle_alpha   130.28929803
_cell_angle_beta   115.04893159
_cell_angle_gamma   85.98374225
_symmetry_Int_Tables_number   1
_chemical_formula_structural   AcPr(Si2Ir3)2
_chemical_formula_sum   'Ac1 Pr1 Si4 Ir6'
_cell_volume   205.58299084
_cell_formula_units_Z   1
loop_
 _symmetry_equiv_pos_site_id
 _symmetry_equiv_pos_as_xyz
  1  'x, y, z'
loop_
 _atom_site_type_symbol
 _atom_site_label
 _atom_site_symmetry_multiplicity
 _atom_site_fract_x
 _atom_site_fract_y
 _atom_site_fract_z
 _atom_site_occupancy
  Ac  Ac0  1  0.250000  0.974913  0.724913  1
  Pr  Pr1  1  0.750000  0.029727  0.279727  1
  Si  Si2  1  0.077401  0.281271  0.203871  1
  Si  Si3  1  0.919555  0.717580  0.798025  1
  Si  Si4  1  0.422599  0.626470  0.203871  1
  Si  Si5  1  0.580445  0.378470  0.798025  1
  Ir  Ir6  1  0.502268  0.499832  0.502100  1
  Ir  Ir7  1  0.997732  0.499832  0.997564  1
  Ir  Ir8  1  0.281826  0.999986  0.277792  1
  Ir  Ir9  1  0.722194  0.999986  0.718161  1
  Ir  Ir10  1  0.218174  0.495967  0.718161  1
  Ir  Ir11  1  0.777806  0.495967  0.277792  1
