# generated using pymatgen
data_Y2MgCdPt2
_symmetry_space_group_name_H-M   'P 1'
_cell_length_a   4.13725000
_cell_length_b   7.19796400
_cell_length_c   8.76960300
_cell_angle_alpha   90.00000000
_cell_angle_beta   90.00000000
_cell_angle_gamma   90.00000000
_symmetry_Int_Tables_number   1
_chemical_formula_structural   Y2MgCdPt2
_chemical_formula_sum   'Y4 Mg2 Cd2 Pt4'
_cell_volume   261.15681785
_cell_formula_units_Z   2
loop_
 _symmetry_equiv_pos_site_id
 _symmetry_equiv_pos_as_xyz
  1  'x, y, z'
loop_
 _atom_site_type_symbol
 _atom_site_label
 _atom_site_symmetry_multiplicity
 _atom_site_fract_x
 _atom_site_fract_y
 _atom_site_fract_z
 _atom_site_occupancy
  Y  Y0  1  0.250000  0.044409  0.322811  1
  Y  Y1  1  0.250000  0.544409  0.177189  1
  Y  Y2  1  0.750000  0.957569  0.676317  1
  Y  Y3  1  0.750000  0.457569  0.823683  1
  Mg  Mg4  1  0.250000  0.132118  0.942274  1
  Mg  Mg5  1  0.250000  0.632118  0.557726  1
  Cd  Cd6  1  0.750000  0.861749  0.062629  1
  Cd  Cd7  1  0.750000  0.361749  0.437371  1
  Pt  Pt8  1  0.250000  0.243884  0.640038  1
  Pt  Pt9  1  0.250000  0.743884  0.859962  1
  Pt  Pt10  1  0.750000  0.760270  0.379625  1
  Pt  Pt11  1  0.750000  0.260270  0.120375  1
