# generated using pymatgen
data_As2N8Cl
_symmetry_space_group_name_H-M   'P 1'
_cell_length_a   5.65183267
_cell_length_b   7.71512795
_cell_length_c   9.12769266
_cell_angle_alpha   79.83390359
_cell_angle_beta   87.18799103
_cell_angle_gamma   87.75993347
_symmetry_Int_Tables_number   1
_chemical_formula_structural   As2N8Cl
_chemical_formula_sum   'As2 N8 Cl1'
_cell_volume   391.10165422
_cell_formula_units_Z   1
loop_
 _symmetry_equiv_pos_site_id
 _symmetry_equiv_pos_as_xyz
  1  'x, y, z'
loop_
 _atom_site_type_symbol
 _atom_site_label
 _atom_site_symmetry_multiplicity
 _atom_site_fract_x
 _atom_site_fract_y
 _atom_site_fract_z
 _atom_site_occupancy
  As  As0  1  0.100177  0.894129  0.835647  1
  As  As1  1  0.299260  0.001977  0.621756  1
  N  N2  1  0.092789  0.494373  0.271693  1
  N  N3  1  0.058078  0.381900  0.363856  1
  N  N4  1  0.592745  0.201795  0.999338  1
  N  N5  1  0.455089  0.174102  0.091172  1
  N  N6  1  0.555975  0.547491  0.525297  1
  N  N7  1  0.556194  0.431963  0.617644  1
  N  N8  1  0.584221  0.742130  0.087181  1
  N  N9  1  0.597873  0.596603  0.122750  1
  Cl  Cl10  1  0.030358  0.618546  0.806946  1
