# generated using pymatgen
data_Rb8La3CeBr20
_symmetry_space_group_name_H-M   'P 1'
_cell_length_a   8.84715656
_cell_length_b   9.49972300
_cell_length_c   14.17805191
_cell_angle_alpha   90.00000000
_cell_angle_beta   89.95917129
_cell_angle_gamma   90.00000000
_symmetry_Int_Tables_number   1
_chemical_formula_structural   Rb8La3CeBr20
_chemical_formula_sum   'Rb8 La3 Ce1 Br20'
_cell_volume   1191.60167836
_cell_formula_units_Z   1
loop_
 _symmetry_equiv_pos_site_id
 _symmetry_equiv_pos_as_xyz
  1  'x, y, z'
loop_
 _atom_site_type_symbol
 _atom_site_label
 _atom_site_symmetry_multiplicity
 _atom_site_fract_x
 _atom_site_fract_y
 _atom_site_fract_z
 _atom_site_occupancy
  Rb  Rb0  1  0.946905  0.004852  0.828018  1
  Rb  Rb1  1  0.052993  0.995146  0.171976  1
  Rb  Rb2  1  0.446948  0.995130  0.672076  1
  Rb  Rb3  1  0.052993  0.504854  0.171976  1
  Rb  Rb4  1  0.553086  0.004875  0.327923  1
  Rb  Rb5  1  0.946905  0.495148  0.828018  1
  Rb  Rb6  1  0.553086  0.495125  0.327923  1
  Rb  Rb7  1  0.446948  0.504870  0.672076  1
  La  La8  1  0.926417  0.750000  0.504355  1
  La  La9  1  0.073626  0.250000  0.495603  1
  La  La10  1  0.426522  0.250000  0.995586  1
  Ce  Ce11  1  0.573465  0.750000  0.004372  1
  Br  Br12  1  0.121452  0.750000  0.675834  1
  Br  Br13  1  0.878517  0.250000  0.324154  1
  Br  Br14  1  0.621493  0.250000  0.824070  1
  Br  Br15  1  0.380265  0.750000  0.174561  1
  Br  Br16  1  0.837365  0.042860  0.574648  1
  Br  Br17  1  0.162650  0.957109  0.425329  1
  Br  Br18  1  0.338381  0.956195  0.925690  1
  Br  Br19  1  0.162650  0.542891  0.425329  1
  Br  Br20  1  0.662068  0.041559  0.074199  1
  Br  Br21  1  0.837365  0.457140  0.574648  1
  Br  Br22  1  0.662068  0.458441  0.074199  1
  Br  Br23  1  0.338381  0.543805  0.925690  1
  Br  Br24  1  0.585156  0.750000  0.509788  1
  Br  Br25  1  0.414826  0.250000  0.490245  1
  Br  Br26  1  0.085251  0.250000  0.990221  1
  Br  Br27  1  0.912814  0.750000  0.009889  1
  Br  Br28  1  0.659105  0.750000  0.802020  1
  Br  Br29  1  0.340280  0.250000  0.199557  1
  Br  Br30  1  0.159684  0.250000  0.699490  1
  Br  Br31  1  0.840337  0.750000  0.300535  1
