# generated using pymatgen
data_Pr8Ho12Si15Pd
_symmetry_space_group_name_H-M   'P 1'
_cell_length_a   7.54970129
_cell_length_b   7.78734790
_cell_length_c   14.80932288
_cell_angle_alpha   89.83763969
_cell_angle_beta   89.70299409
_cell_angle_gamma   90.30105393
_symmetry_Int_Tables_number   1
_chemical_formula_structural   Pr8Ho12Si15Pd
_chemical_formula_sum   'Pr8 Ho12 Si15 Pd1'
_cell_volume   870.64465952
_cell_formula_units_Z   1
loop_
 _symmetry_equiv_pos_site_id
 _symmetry_equiv_pos_as_xyz
  1  'x, y, z'
loop_
 _atom_site_type_symbol
 _atom_site_label
 _atom_site_symmetry_multiplicity
 _atom_site_fract_x
 _atom_site_fract_y
 _atom_site_fract_z
 _atom_site_occupancy
  Pr  Pr0  1  0.978506  0.821303  0.098769  1
  Pr  Pr1  1  0.475709  0.677753  0.402092  1
  Pr  Pr2  1  0.520990  0.322263  0.899600  1
  Pr  Pr3  1  0.024696  0.179034  0.598687  1
  Pr  Pr4  1  0.023234  0.175340  0.901419  1
  Pr  Pr5  1  0.525344  0.321467  0.598660  1
  Pr  Pr6  1  0.476038  0.680257  0.101043  1
  Pr  Pr7  1  0.974896  0.821047  0.400305  1
  Ho  Ho8  1  0.652146  0.994593  0.250433  1
  Ho  Ho9  1  0.151855  0.508635  0.247943  1
  Ho  Ho10  1  0.845324  0.491979  0.753680  1
  Ho  Ho11  1  0.346107  0.008910  0.750259  1
  Ho  Ho12  1  0.675647  0.818696  0.878997  1
  Ho  Ho13  1  0.177439  0.680530  0.622014  1
  Ho  Ho14  1  0.822604  0.330667  0.121037  1
  Ho  Ho15  1  0.317875  0.176318  0.376486  1
  Ho  Ho16  1  0.324296  0.177880  0.124150  1
  Ho  Ho17  1  0.821483  0.320812  0.377251  1
  Ho  Ho18  1  0.177802  0.674362  0.878136  1
  Ho  Ho19  1  0.680887  0.821659  0.622822  1
  Si  Si20  1  0.769500  0.622442  0.251151  1
  Si  Si21  1  0.271382  0.878682  0.251171  1
  Si  Si22  1  0.728754  0.118075  0.749860  1
  Si  Si23  1  0.228393  0.380239  0.747357  1
  Si  Si24  1  0.024512  0.116475  0.248634  1
  Si  Si25  1  0.527785  0.386595  0.251878  1
  Si  Si26  1  0.469382  0.614595  0.747324  1
  Si  Si27  1  0.972288  0.884030  0.749341  1
  Si  Si28  1  0.356051  0.969461  0.539926  1
  Si  Si29  1  0.646218  0.033005  0.040005  1
  Si  Si30  1  0.145356  0.467574  0.460439  1
  Si  Si31  1  0.156145  0.465578  0.041768  1
  Si  Si32  1  0.643911  0.031354  0.459950  1
  Si  Si33  1  0.353891  0.967935  0.961119  1
  Si  Si34  1  0.856029  0.531519  0.538848  1
  Pd  Pd35  1  0.857523  0.528936  0.957445  1
