# generated using pymatgen
data_Au2(IBr)3
_symmetry_space_group_name_H-M   'P 1'
_cell_length_a   21.60160700
_cell_length_b   6.98872883
_cell_length_c   9.69242381
_cell_angle_alpha   64.26260667
_cell_angle_beta   90.00000000
_cell_angle_gamma   90.00000000
_symmetry_Int_Tables_number   1
_chemical_formula_structural   Au2(IBr)3
_chemical_formula_sum   'Au8 I12 Br12'
_cell_volume   1318.08081394
_cell_formula_units_Z   4
loop_
 _symmetry_equiv_pos_site_id
 _symmetry_equiv_pos_as_xyz
  1  'x, y, z'
loop_
 _atom_site_type_symbol
 _atom_site_label
 _atom_site_symmetry_multiplicity
 _atom_site_fract_x
 _atom_site_fract_y
 _atom_site_fract_z
 _atom_site_occupancy
  Au  Au0  1  0.710308  0.625844  0.215623  1
  Au  Au1  1  0.210308  0.374156  0.284377  1
  Au  Au2  1  0.289692  0.374156  0.784377  1
  Au  Au3  1  0.789692  0.625844  0.715623  1
  Au  Au4  1  0.536528  0.739422  0.239743  1
  Au  Au5  1  0.036528  0.260578  0.260257  1
  Au  Au6  1  0.463472  0.260578  0.760257  1
  Au  Au7  1  0.963472  0.739422  0.739743  1
  I  I8  1  0.766331  0.289388  0.209828  1
  I  I9  1  0.266331  0.710612  0.290172  1
  I  I10  1  0.233669  0.710612  0.790172  1
  I  I11  1  0.733669  0.289388  0.709828  1
  I  I12  1  0.815781  0.825579  0.208483  1
  I  I13  1  0.315781  0.174421  0.291517  1
  I  I14  1  0.184219  0.174421  0.791517  1
  I  I15  1  0.684219  0.825579  0.708483  1
  I  I16  1  0.897011  0.422423  0.736067  1
  I  I17  1  0.397011  0.577577  0.763933  1
  I  I18  1  0.102989  0.577577  0.263933  1
  I  I19  1  0.602989  0.422423  0.236067  1
  Br  Br20  1  0.059259  0.533185  0.770095  1
  Br  Br21  1  0.559259  0.466815  0.729905  1
  Br  Br22  1  0.940741  0.466815  0.229905  1
  Br  Br23  1  0.440741  0.533185  0.270095  1
  Br  Br24  1  0.021202  0.044141  0.741486  1
  Br  Br25  1  0.521202  0.955859  0.758514  1
  Br  Br26  1  0.978798  0.955859  0.258514  1
  Br  Br27  1  0.478798  0.044141  0.241486  1
  Br  Br28  1  0.860786  0.929963  0.710686  1
  Br  Br29  1  0.360786  0.070037  0.789314  1
  Br  Br30  1  0.139214  0.070037  0.289314  1
  Br  Br31  1  0.639214  0.929963  0.210686  1
