# generated using pymatgen
data_SiPPd6
_symmetry_space_group_name_H-M   'P 1'
_cell_length_a   5.24325600
_cell_length_b   6.03708500
_cell_length_c   7.59666000
_cell_angle_alpha   90.00000000
_cell_angle_beta   90.00000000
_cell_angle_gamma   90.00000000
_symmetry_Int_Tables_number   1
_chemical_formula_structural   SiPPd6
_chemical_formula_sum   'Si2 P2 Pd12'
_cell_volume   240.46454003
_cell_formula_units_Z   2
loop_
 _symmetry_equiv_pos_site_id
 _symmetry_equiv_pos_as_xyz
  1  'x, y, z'
loop_
 _atom_site_type_symbol
 _atom_site_label
 _atom_site_symmetry_multiplicity
 _atom_site_fract_x
 _atom_site_fract_y
 _atom_site_fract_z
 _atom_site_occupancy
  Si  Si0  1  0.454848  0.886308  0.250000  1
  Si  Si1  1  0.954848  0.613692  0.750000  1
  P  P2  1  0.041673  0.382323  0.250000  1
  P  P3  1  0.541673  0.117677  0.750000  1
  Pd  Pd4  1  0.886479  0.017627  0.250000  1
  Pd  Pd5  1  0.386479  0.482373  0.750000  1
  Pd  Pd6  1  0.626249  0.520830  0.250000  1
  Pd  Pd7  1  0.126249  0.979170  0.750000  1
  Pd  Pd8  1  0.333236  0.181902  0.059480  1
  Pd  Pd9  1  0.833236  0.318098  0.940520  1
  Pd  Pd10  1  0.162139  0.671527  0.440592  1
  Pd  Pd11  1  0.662139  0.828473  0.559408  1
  Pd  Pd12  1  0.662139  0.828473  0.940592  1
  Pd  Pd13  1  0.162139  0.671527  0.059408  1
  Pd  Pd14  1  0.833236  0.318098  0.559480  1
  Pd  Pd15  1  0.333236  0.181902  0.440520  1
