# generated using pymatgen
data_Ho6Er14Ir11Ru
_symmetry_space_group_name_H-M   'P 1'
_cell_length_a   10.78558202
_cell_length_b   10.78508001
_cell_length_c   6.35807402
_cell_angle_alpha   90.00497344
_cell_angle_beta   89.99248643
_cell_angle_gamma   90.00045703
_symmetry_Int_Tables_number   1
_chemical_formula_structural   Ho6Er14Ir11Ru
_chemical_formula_sum   'Ho6 Er14 Ir11 Ru1'
_cell_volume   739.59255621
_cell_formula_units_Z   1
loop_
 _symmetry_equiv_pos_site_id
 _symmetry_equiv_pos_as_xyz
  1  'x, y, z'
loop_
 _atom_site_type_symbol
 _atom_site_label
 _atom_site_symmetry_multiplicity
 _atom_site_fract_x
 _atom_site_fract_y
 _atom_site_fract_z
 _atom_site_occupancy
  Ho  Ho0  1  0.292041  0.086985  0.376090  1
  Ho  Ho1  1  0.292389  0.912890  0.879099  1
  Ho  Ho2  1  0.707577  0.087188  0.879068  1
  Ho  Ho3  1  0.707939  0.912919  0.376070  1
  Ho  Ho4  1  0.587066  0.792306  0.879098  1
  Ho  Ho5  1  0.586946  0.208047  0.376067  1
  Er  Er6  1  0.413005  0.792133  0.376153  1
  Er  Er7  1  0.412915  0.207519  0.879146  1
  Er  Er8  1  0.209053  0.412018  0.622459  1
  Er  Er9  1  0.209032  0.587821  0.122150  1
  Er  Er10  1  0.791030  0.412261  0.122008  1
  Er  Er11  1  0.791006  0.587914  0.622414  1
  Er  Er12  1  0.912260  0.708961  0.122040  1
  Er  Er13  1  0.912077  0.291014  0.622391  1
  Er  Er14  1  0.087961  0.709021  0.622397  1
  Er  Er15  1  0.087763  0.291004  0.122012  1
  Er  Er16  1  0.000012  0.999981  0.499372  1
  Er  Er17  1  0.999995  0.000024  0.999397  1
  Er  Er18  1  0.499938  0.499888  0.999358  1
  Er  Er19  1  0.499943  0.500101  0.499358  1
  Ir  Ir20  1  0.847511  0.153929  0.250151  1
  Ir  Ir21  1  0.847509  0.846481  0.749896  1
  Ir  Ir22  1  0.152723  0.153563  0.749986  1
  Ir  Ir23  1  0.152728  0.846041  0.250244  1
  Ir  Ir24  1  0.653348  0.347420  0.749984  1
  Ir  Ir25  1  0.653761  0.652567  0.250224  1
  Ir  Ir26  1  0.346176  0.347383  0.249718  1
  Ir  Ir27  1  0.346573  0.652615  0.749483  1
  Ir  Ir28  1  0.499838  0.999969  0.623230  1
  Ir  Ir29  1  0.000007  0.500008  0.878364  1
  Ir  Ir30  1  0.000008  0.499988  0.378449  1
  Ru  Ru31  1  0.499871  0.000041  0.124121  1
