# generated using pymatgen
data_Sm12Si(BBr4)3
_symmetry_space_group_name_H-M   'P 1'
_cell_length_a   10.10070968
_cell_length_b   10.10071018
_cell_length_c   10.10071006
_cell_angle_alpha   109.82439446
_cell_angle_beta   109.82439280
_cell_angle_gamma   109.82438733
_symmetry_Int_Tables_number   1
_chemical_formula_structural   Sm12Si(BBr4)3
_chemical_formula_sum   'Sm12 Si1 B3 Br12'
_cell_volume   782.74864006
_cell_formula_units_Z   1
loop_
 _symmetry_equiv_pos_site_id
 _symmetry_equiv_pos_as_xyz
  1  'x, y, z'
loop_
 _atom_site_type_symbol
 _atom_site_label
 _atom_site_symmetry_multiplicity
 _atom_site_fract_x
 _atom_site_fract_y
 _atom_site_fract_z
 _atom_site_occupancy
  Sm  Sm0  1  0.471454  0.495837  0.227199  1
  Sm  Sm1  1  0.750000  0.229689  0.270311  1
  Sm  Sm2  1  0.750000  0.018193  0.481807  1
  Sm  Sm3  1  0.227199  0.471454  0.495837  1
  Sm  Sm4  1  0.270311  0.750000  0.229689  1
  Sm  Sm5  1  0.028546  0.272801  0.004163  1
  Sm  Sm6  1  0.004163  0.028546  0.272801  1
  Sm  Sm7  1  0.481807  0.750000  0.018193  1
  Sm  Sm8  1  0.495837  0.227199  0.471454  1
  Sm  Sm9  1  0.018193  0.481807  0.750000  1
  Sm  Sm10  1  0.272801  0.004163  0.028546  1
  Sm  Sm11  1  0.229689  0.270311  0.750000  1
  Si  Si12  1  0.250000  0.250000  0.250000  1
  B  B13  1  0.500521  0.999479  0.250000  1
  B  B14  1  0.999479  0.250000  0.500521  1
  B  B15  1  0.250000  0.500521  0.999479  1
  Br  Br16  1  0.250000  0.757692  0.742308  1
  Br  Br17  1  0.512744  0.506819  0.757867  1
  Br  Br18  1  0.987256  0.742133  0.993181  1
  Br  Br19  1  0.742308  0.250000  0.757692  1
  Br  Br20  1  0.993181  0.987256  0.742133  1
  Br  Br21  1  0.250000  0.993713  0.506287  1
  Br  Br22  1  0.757867  0.512744  0.506819  1
  Br  Br23  1  0.506287  0.250000  0.993713  1
  Br  Br24  1  0.757692  0.742308  0.250000  1
  Br  Br25  1  0.742133  0.993181  0.987256  1
  Br  Br26  1  0.993713  0.506287  0.250000  1
  Br  Br27  1  0.506819  0.757867  0.512744  1
