# generated using pymatgen
data_Dy6Zr4Sn5Sb
_symmetry_space_group_name_H-M   'P 1'
_cell_length_a   8.82471743
_cell_length_b   8.83340650
_cell_length_c   6.09315400
_cell_angle_alpha   90.00000000
_cell_angle_beta   90.00000000
_cell_angle_gamma   120.03258572
_symmetry_Int_Tables_number   1
_chemical_formula_structural   Dy6Zr4Sn5Sb
_chemical_formula_sum   'Dy6 Zr4 Sn5 Sb1'
_cell_volume   411.20568886
_cell_formula_units_Z   1
loop_
 _symmetry_equiv_pos_site_id
 _symmetry_equiv_pos_as_xyz
  1  'x, y, z'
loop_
 _atom_site_type_symbol
 _atom_site_label
 _atom_site_symmetry_multiplicity
 _atom_site_fract_x
 _atom_site_fract_y
 _atom_site_fract_z
 _atom_site_occupancy
  Dy  Dy0  1  0.758417  0.759966  0.750000  1
  Dy  Dy1  1  0.241583  0.001550  0.750000  1
  Dy  Dy2  1  0.000000  0.242653  0.750000  1
  Dy  Dy3  1  0.242256  0.240107  0.250000  1
  Dy  Dy4  1  0.757744  0.997851  0.250000  1
  Dy  Dy5  1  0.000000  0.757753  0.250000  1
  Zr  Zr6  1  0.667430  0.333892  0.999563  1
  Zr  Zr7  1  0.332570  0.666463  0.999563  1
  Zr  Zr8  1  0.332570  0.666463  0.500437  1
  Zr  Zr9  1  0.667430  0.333892  0.500437  1
  Sn  Sn10  1  0.400373  0.401074  0.750000  1
  Sn  Sn11  1  0.599627  0.000701  0.750000  1
  Sn  Sn12  1  0.000000  0.601039  0.750000  1
  Sn  Sn13  1  0.599126  0.598853  0.250000  1
  Sn  Sn14  1  0.400874  0.999727  0.250000  1
  Sb  Sb15  1  0.000000  0.398015  0.250000  1
