# generated using pymatgen
data_Pr20Ga4Sn5Ru3
_symmetry_space_group_name_H-M   'P 1'
_cell_length_a   8.22293690
_cell_length_b   8.34010016
_cell_length_c   13.90267535
_cell_angle_alpha   90.02757080
_cell_angle_beta   89.96040125
_cell_angle_gamma   90.11842298
_symmetry_Int_Tables_number   1
_chemical_formula_structural   Pr20Ga4Sn5Ru3
_chemical_formula_sum   'Pr20 Ga4 Sn5 Ru3'
_cell_volume   953.44473385
_cell_formula_units_Z   1
loop_
 _symmetry_equiv_pos_site_id
 _symmetry_equiv_pos_as_xyz
  1  'x, y, z'
loop_
 _atom_site_type_symbol
 _atom_site_label
 _atom_site_symmetry_multiplicity
 _atom_site_fract_x
 _atom_site_fract_y
 _atom_site_fract_z
 _atom_site_occupancy
  Pr  Pr0  1  0.851223  0.830461  0.614841  1
  Pr  Pr1  1  0.150380  0.835594  0.110792  1
  Pr  Pr2  1  0.148172  0.834682  0.388957  1
  Pr  Pr3  1  0.028396  0.486063  0.749812  1
  Pr  Pr4  1  0.840777  0.150974  0.396950  1
  Pr  Pr5  1  0.686977  0.690242  0.389446  1
  Pr  Pr6  1  0.645139  0.341964  0.610629  1
  Pr  Pr7  1  0.326591  0.669436  0.607980  1
  Pr  Pr8  1  0.005328  0.491493  0.247757  1
  Pr  Pr9  1  0.687387  0.690586  0.110609  1
  Pr  Pr10  1  0.646493  0.341679  0.889954  1
  Pr  Pr11  1  0.851509  0.830894  0.885626  1
  Pr  Pr12  1  0.325892  0.330220  0.404870  1
  Pr  Pr13  1  0.165712  0.150688  0.610922  1
  Pr  Pr14  1  0.841022  0.149226  0.102923  1
  Pr  Pr15  1  0.327996  0.667885  0.892439  1
  Pr  Pr16  1  0.327138  0.328684  0.095052  1
  Pr  Pr17  1  0.495715  0.989980  0.251859  1
  Pr  Pr18  1  0.166944  0.151377  0.888398  1
  Pr  Pr19  1  0.488196  0.999636  0.749875  1
  Ga  Ga20  1  0.372638  0.624387  0.250048  1
  Ga  Ga21  1  0.625983  0.630409  0.750430  1
  Ga  Ga22  1  0.863862  0.129781  0.750266  1
  Ga  Ga23  1  0.132029  0.133093  0.250127  1
  Sn  Sn24  1  0.620404  0.372131  0.249855  1
  Sn  Sn25  1  0.990949  0.493809  0.500541  1
  Sn  Sn26  1  0.501931  0.997745  0.500350  1
  Sn  Sn27  1  0.502178  0.997518  0.000336  1
  Sn  Sn28  1  0.992288  0.493743  0.998209  1
  Ru  Ru29  1  0.124676  0.886551  0.750182  1
  Ru  Ru30  1  0.378066  0.389619  0.750064  1
  Ru  Ru31  1  0.888012  0.889448  0.249901  1
