# generated using pymatgen
data_Y2UGa3Ir2Pt
_symmetry_space_group_name_H-M   'P 1'
_cell_length_a   7.23622223
_cell_length_b   7.23622360
_cell_length_c   3.81358000
_cell_angle_alpha   90.00000000
_cell_angle_beta   90.00000000
_cell_angle_gamma   118.74752205
_symmetry_Int_Tables_number   1
_chemical_formula_structural   Y2UGa3Ir2Pt
_chemical_formula_sum   'Y2 U1 Ga3 Ir2 Pt1'
_cell_volume   175.07788838
_cell_formula_units_Z   1
loop_
 _symmetry_equiv_pos_site_id
 _symmetry_equiv_pos_as_xyz
  1  'x, y, z'
loop_
 _atom_site_type_symbol
 _atom_site_label
 _atom_site_symmetry_multiplicity
 _atom_site_fract_x
 _atom_site_fract_y
 _atom_site_fract_z
 _atom_site_occupancy
  Y  Y0  1  0.409495  0.003211  0.500000  1
  Y  Y1  1  0.003211  0.409495  0.500000  1
  U  U2  1  0.582066  0.582066  0.500000  1
  Ga  Ga3  1  0.743775  0.011054  0.000000  1
  Ga  Ga4  1  0.011054  0.743775  0.000000  1
  Ga  Ga5  1  0.239280  0.239280  0.000000  1
  Ir  Ir6  1  0.365017  0.661053  0.000000  1
  Ir  Ir7  1  0.661053  0.365017  0.000000  1
  Pt  Pt8  1  0.985048  0.985048  0.500000  1
