# generated using pymatgen
data_DyY8LuIr4
_symmetry_space_group_name_H-M   'P 1'
_cell_length_a   8.52561070
_cell_length_b   8.52560986
_cell_length_c   7.22482019
_cell_angle_alpha   83.47662344
_cell_angle_beta   83.47662558
_cell_angle_gamma   44.96654756
_symmetry_Int_Tables_number   1
_chemical_formula_structural   DyY8LuIr4
_chemical_formula_sum   'Dy1 Y8 Lu1 Ir4'
_cell_volume   368.29976812
_cell_formula_units_Z   1
loop_
 _symmetry_equiv_pos_site_id
 _symmetry_equiv_pos_as_xyz
  1  'x, y, z'
loop_
 _atom_site_type_symbol
 _atom_site_label
 _atom_site_symmetry_multiplicity
 _atom_site_fract_x
 _atom_site_fract_y
 _atom_site_fract_z
 _atom_site_occupancy
  Dy  Dy0  1  0.428204  0.571796  0.750000  1
  Y  Y1  1  0.347510  0.212436  0.317385  1
  Y  Y2  1  0.210503  0.970728  0.082475  1
  Y  Y3  1  0.788333  0.030108  0.919047  1
  Y  Y4  1  0.969892  0.211667  0.580953  1
  Y  Y5  1  0.654074  0.787661  0.681682  1
  Y  Y6  1  0.212339  0.345926  0.818318  1
  Y  Y7  1  0.787564  0.652490  0.182615  1
  Y  Y8  1  0.029272  0.789497  0.417525  1
  Lu  Lu9  1  0.569554  0.430446  0.250000  1
  Ir  Ir10  1  0.394394  0.822215  0.425942  1
  Ir  Ir11  1  0.177785  0.605606  0.074058  1
  Ir  Ir12  1  0.823541  0.392967  0.928958  1
  Ir  Ir13  1  0.607033  0.176459  0.571042  1
