# generated using pymatgen
data_Tb6Al25Ru7
_symmetry_space_group_name_H-M   'P 1'
_cell_length_a   8.87707471
_cell_length_b   8.87707554
_cell_length_c   9.58288614
_cell_angle_alpha   90.25767938
_cell_angle_beta   89.74231877
_cell_angle_gamma   119.95946459
_symmetry_Int_Tables_number   1
_chemical_formula_structural   Tb6Al25Ru7
_chemical_formula_sum   'Tb6 Al25 Ru7'
_cell_volume   654.24157575
_cell_formula_units_Z   1
loop_
 _symmetry_equiv_pos_site_id
 _symmetry_equiv_pos_as_xyz
  1  'x, y, z'
loop_
 _atom_site_type_symbol
 _atom_site_label
 _atom_site_symmetry_multiplicity
 _atom_site_fract_x
 _atom_site_fract_y
 _atom_site_fract_z
 _atom_site_occupancy
  Tb  Tb0  1  0.193858  0.384424  0.245116  1
  Tb  Tb1  1  0.806142  0.615576  0.754884  1
  Tb  Tb2  1  0.615576  0.806142  0.245116  1
  Tb  Tb3  1  0.384424  0.193858  0.754884  1
  Tb  Tb4  1  0.193034  0.806966  0.255701  1
  Tb  Tb5  1  0.806966  0.193034  0.744299  1
  Al  Al6  1  0.325939  0.674061  0.019938  1
  Al  Al7  1  0.674061  0.325939  0.980062  1
  Al  Al8  1  0.666294  0.333706  0.515535  1
  Al  Al9  1  0.333706  0.666294  0.484465  1
  Al  Al10  1  0.161744  0.324406  0.573722  1
  Al  Al11  1  0.838256  0.675594  0.426278  1
  Al  Al12  1  0.675594  0.838256  0.573722  1
  Al  Al13  1  0.852975  0.678805  0.082402  1
  Al  Al14  1  0.324406  0.161744  0.426278  1
  Al  Al15  1  0.147025  0.321195  0.917598  1
  Al  Al16  1  0.162355  0.837645  0.578451  1
  Al  Al17  1  0.321195  0.147025  0.082402  1
  Al  Al18  1  0.837645  0.162355  0.421549  1
  Al  Al19  1  0.678805  0.852975  0.917598  1
  Al  Al20  1  0.837599  0.162401  0.078298  1
  Al  Al21  1  0.162401  0.837599  0.921702  1
  Al  Al22  1  0.562023  0.120819  0.248934  1
  Al  Al23  1  0.437977  0.879181  0.751066  1
  Al  Al24  1  0.879181  0.437977  0.248934  1
  Al  Al25  1  0.120819  0.562023  0.751066  1
  Al  Al26  1  0.565800  0.434200  0.259625  1
  Al  Al27  1  0.434200  0.565800  0.740375  1
  Al  Al28  1  0.998995  0.001005  0.250699  1
  Al  Al29  1  0.001005  0.998995  0.749301  1
  Al  Al30  1  0.500000  0.500000  0.000000  1
  Ru  Ru31  1  0.500000  0.000000  0.000000  1
  Ru  Ru32  1  0.000000  0.500000  0.000000  1
  Ru  Ru33  1  0.500000  0.000000  0.500000  1
  Ru  Ru34  1  0.000000  0.500000  0.500000  1
  Ru  Ru35  1  0.500000  0.500000  0.500000  1
  Ru  Ru36  1  0.000000  0.000000  0.000000  1
  Ru  Ru37  1  0.000000  0.000000  0.500000  1
