# generated using pymatgen
data_Y2TaB2Ir2Ru3
_symmetry_space_group_name_H-M   'P 1'
_cell_length_a   9.74800200
_cell_length_b   9.74431900
_cell_length_c   3.12306600
_cell_angle_alpha   90.00000000
_cell_angle_beta   90.00000000
_cell_angle_gamma   90.00000000
_symmetry_Int_Tables_number   1
_chemical_formula_structural   Y2TaB2Ir2Ru3
_chemical_formula_sum   'Y4 Ta2 B4 Ir4 Ru6'
_cell_volume   296.65267234
_cell_formula_units_Z   2
loop_
 _symmetry_equiv_pos_site_id
 _symmetry_equiv_pos_as_xyz
  1  'x, y, z'
loop_
 _atom_site_type_symbol
 _atom_site_label
 _atom_site_symmetry_multiplicity
 _atom_site_fract_x
 _atom_site_fract_y
 _atom_site_fract_z
 _atom_site_occupancy
  Y  Y0  1  0.824832  0.674792  0.000000  1
  Y  Y1  1  0.175168  0.325208  0.000000  1
  Y  Y2  1  0.324832  0.825208  0.000000  1
  Y  Y3  1  0.675168  0.174792  0.000000  1
  Ta  Ta4  1  0.500000  0.500000  0.000000  1
  Ta  Ta5  1  0.000000  0.000000  0.000000  1
  B  B6  1  0.623223  0.885674  0.000000  1
  B  B7  1  0.376777  0.114326  0.000000  1
  B  B8  1  0.123223  0.614326  0.000000  1
  B  B9  1  0.876777  0.385674  0.000000  1
  Ir  Ir10  1  0.570654  0.720671  0.500000  1
  Ir  Ir11  1  0.429346  0.279329  0.500000  1
  Ir  Ir12  1  0.070654  0.779329  0.500000  1
  Ir  Ir13  1  0.929346  0.220671  0.500000  1
  Ru  Ru14  1  0.282186  0.569739  0.500000  1
  Ru  Ru15  1  0.717814  0.430261  0.500000  1
  Ru  Ru16  1  0.217814  0.069739  0.500000  1
  Ru  Ru17  1  0.782186  0.930261  0.500000  1
  Ru  Ru18  1  0.500000  0.000000  0.500000  1
  Ru  Ru19  1  0.000000  0.500000  0.500000  1
