# generated using pymatgen
data_TbY2(AlNi3)2
_symmetry_space_group_name_H-M   'P 1'
_cell_length_a   7.73633090
_cell_length_b   7.73385660
_cell_length_c   7.73385704
_cell_angle_alpha   109.41307307
_cell_angle_beta   109.48286616
_cell_angle_gamma   109.48285484
_symmetry_Int_Tables_number   1
_chemical_formula_structural   TbY2(AlNi3)2
_chemical_formula_sum   'Tb2 Y4 Al4 Ni12'
_cell_volume   356.36248893
_cell_formula_units_Z   2
loop_
 _symmetry_equiv_pos_site_id
 _symmetry_equiv_pos_as_xyz
  1  'x, y, z'
loop_
 _atom_site_type_symbol
 _atom_site_label
 _atom_site_symmetry_multiplicity
 _atom_site_fract_x
 _atom_site_fract_y
 _atom_site_fract_z
 _atom_site_occupancy
  Tb  Tb0  1  0.706715  0.706763  0.000150  1
  Tb  Tb1  1  0.706715  0.000150  0.706763  1
  Y  Y2  1  0.292901  0.292470  0.000153  1
  Y  Y3  1  0.000369  0.707596  0.707596  1
  Y  Y4  1  0.292901  0.000153  0.292470  1
  Y  Y5  1  0.000124  0.292607  0.292607  1
  Al  Al6  1  0.499991  0.499665  0.499665  1
  Al  Al7  1  0.000819  0.500380  0.000422  1
  Al  Al8  1  0.500103  0.000375  0.000375  1
  Al  Al9  1  0.000819  0.000422  0.500380  1
  Ni  Ni10  1  0.665995  0.666053  0.331659  1
  Ni  Ni11  1  0.665995  0.331659  0.666053  1
  Ni  Ni12  1  0.334061  0.667810  0.334077  1
  Ni  Ni13  1  0.333769  0.999860  0.666236  1
  Ni  Ni14  1  0.666313  0.333217  0.333217  1
  Ni  Ni15  1  0.333769  0.666236  0.999860  1
  Ni  Ni16  1  0.999893  0.333523  0.666390  1
  Ni  Ni17  1  0.666182  0.000005  0.334426  1
  Ni  Ni18  1  0.332431  0.666163  0.666163  1
  Ni  Ni19  1  0.334061  0.334077  0.667810  1
  Ni  Ni20  1  0.999893  0.666390  0.333523  1
  Ni  Ni21  1  0.666182  0.334426  0.000005  1
