# generated using pymatgen
data_ScUTc5B4
_symmetry_space_group_name_H-M   'P 1'
_cell_length_a   3.10239500
_cell_length_b   8.64815910
_cell_length_c   10.17845833
_cell_angle_alpha   89.86598853
_cell_angle_beta   90.00000000
_cell_angle_gamma   90.00000000
_symmetry_Int_Tables_number   1
_chemical_formula_structural   ScUTc5B4
_chemical_formula_sum   'Sc2 U2 Tc10 B8'
_cell_volume   273.08734657
_cell_formula_units_Z   2
loop_
 _symmetry_equiv_pos_site_id
 _symmetry_equiv_pos_as_xyz
  1  'x, y, z'
loop_
 _atom_site_type_symbol
 _atom_site_label
 _atom_site_symmetry_multiplicity
 _atom_site_fract_x
 _atom_site_fract_y
 _atom_site_fract_z
 _atom_site_occupancy
  Sc  Sc0  1  0.500000  0.660535  0.678694  1
  Sc  Sc1  1  0.500000  0.339465  0.321306  1
  U  U2  1  0.500000  0.840102  0.183869  1
  U  U3  1  0.500000  0.159898  0.816131  1
  Tc  Tc4  1  0.000000  0.657836  0.952447  1
  Tc  Tc5  1  0.000000  0.342164  0.047553  1
  Tc  Tc6  1  0.000000  0.840689  0.455669  1
  Tc  Tc7  1  0.000000  0.159311  0.544331  1
  Tc  Tc8  1  0.000000  0.000000  0.000000  1
  Tc  Tc9  1  0.000000  0.402609  0.759017  1
  Tc  Tc10  1  0.000000  0.597391  0.240983  1
  Tc  Tc11  1  0.000000  0.500000  0.500000  1
  Tc  Tc12  1  0.000000  0.908919  0.738860  1
  Tc  Tc13  1  0.000000  0.091081  0.261140  1
  B  B14  1  0.500000  0.966773  0.584924  1
  B  B15  1  0.500000  0.033227  0.415076  1
  B  B16  1  0.500000  0.842874  0.896148  1
  B  B17  1  0.500000  0.157126  0.103852  1
  B  B18  1  0.500000  0.651326  0.407756  1
  B  B19  1  0.500000  0.348674  0.592244  1
  B  B20  1  0.500000  0.468053  0.912779  1
  B  B21  1  0.500000  0.531947  0.087221  1
