# generated using pymatgen
data_Tb9Dy3Cu2(Si4Ni)2
_symmetry_space_group_name_H-M   'P 1'
_cell_length_a   4.16754300
_cell_length_b   11.34376427
_cell_length_c   11.32829328
_cell_angle_alpha   89.97478882
_cell_angle_beta   90.00000000
_cell_angle_gamma   90.00000000
_symmetry_Int_Tables_number   1
_chemical_formula_structural   Tb9Dy3Cu2(Si4Ni)2
_chemical_formula_sum   'Tb9 Dy3 Cu2 Si8 Ni2'
_cell_volume   535.55209737
_cell_formula_units_Z   1
loop_
 _symmetry_equiv_pos_site_id
 _symmetry_equiv_pos_as_xyz
  1  'x, y, z'
loop_
 _atom_site_type_symbol
 _atom_site_label
 _atom_site_symmetry_multiplicity
 _atom_site_fract_x
 _atom_site_fract_y
 _atom_site_fract_z
 _atom_site_occupancy
  Tb  Tb0  1  0.250000  0.059261  0.878045  1
  Tb  Tb1  1  0.250000  0.440948  0.378588  1
  Tb  Tb2  1  0.750000  0.936559  0.116151  1
  Tb  Tb3  1  0.750000  0.563474  0.616435  1
  Tb  Tb4  1  0.250000  0.118060  0.558979  1
  Tb  Tb5  1  0.250000  0.382044  0.058838  1
  Tb  Tb6  1  0.750000  0.873833  0.439529  1
  Tb  Tb7  1  0.750000  0.626038  0.939624  1
  Tb  Tb8  1  0.750000  0.195166  0.291339  1
  Dy  Dy9  1  0.250000  0.804616  0.713884  1
  Dy  Dy10  1  0.250000  0.695481  0.214057  1
  Dy  Dy11  1  0.750000  0.305321  0.791292  1
  Cu  Cu12  1  0.250000  0.363018  0.631403  1
  Cu  Cu13  1  0.250000  0.136736  0.130411  1
  Si  Si14  1  0.250000  0.815028  0.974462  1
  Si  Si15  1  0.250000  0.685044  0.474577  1
  Si  Si16  1  0.750000  0.189624  0.025154  1
  Si  Si17  1  0.750000  0.310659  0.526198  1
  Si  Si18  1  0.250000  0.495502  0.804821  1
  Si  Si19  1  0.250000  0.003935  0.304413  1
  Si  Si20  1  0.750000  0.509155  0.196023  1
  Si  Si21  1  0.750000  0.990778  0.695791  1
  Ni  Ni22  1  0.750000  0.634212  0.370103  1
  Ni  Ni23  1  0.750000  0.865508  0.869879  1
