# generated using pymatgen
data_Rb16TiSnAs8
_symmetry_space_group_name_H-M   'P 1'
_cell_length_a   11.47346238
_cell_length_b   11.47346154
_cell_length_c   11.47346300
_cell_angle_alpha   59.99999868
_cell_angle_beta   60.00000110
_cell_angle_gamma   59.99999998
_symmetry_Int_Tables_number   1
_chemical_formula_structural   Rb16TiSnAs8
_chemical_formula_sum   'Rb16 Ti1 Sn1 As8'
_cell_volume   1067.99318417
_cell_formula_units_Z   1
loop_
 _symmetry_equiv_pos_site_id
 _symmetry_equiv_pos_as_xyz
  1  'x, y, z'
loop_
 _atom_site_type_symbol
 _atom_site_label
 _atom_site_symmetry_multiplicity
 _atom_site_fract_x
 _atom_site_fract_y
 _atom_site_fract_z
 _atom_site_occupancy
  Rb  Rb0  1  0.624835  0.125493  0.624835  1
  Rb  Rb1  1  0.624835  0.624835  0.125493  1
  Rb  Rb2  1  0.125493  0.624835  0.624835  1
  Rb  Rb3  1  0.624835  0.624835  0.624835  1
  Rb  Rb4  1  0.023519  0.023519  0.476481  1
  Rb  Rb5  1  0.777106  0.222894  0.222894  1
  Rb  Rb6  1  0.222894  0.777106  0.777106  1
  Rb  Rb7  1  0.777106  0.777106  0.222894  1
  Rb  Rb8  1  0.777106  0.222894  0.777106  1
  Rb  Rb9  1  0.222894  0.777106  0.222894  1
  Rb  Rb10  1  0.476481  0.023519  0.476481  1
  Rb  Rb11  1  0.476481  0.023519  0.023519  1
  Rb  Rb12  1  0.023519  0.476481  0.476481  1
  Rb  Rb13  1  0.023519  0.476481  0.023519  1
  Rb  Rb14  1  0.222894  0.222894  0.777106  1
  Rb  Rb15  1  0.476481  0.476481  0.023519  1
  Ti  Ti16  1  0.750000  0.750000  0.750000  1
  Sn  Sn17  1  0.500000  0.500000  0.500000  1
  As  As18  1  0.400993  0.797020  0.400993  1
  As  As19  1  0.842572  0.842572  0.472283  1
  As  As20  1  0.472283  0.842572  0.842572  1
  As  As21  1  0.842572  0.842572  0.842572  1
  As  As22  1  0.797020  0.400993  0.400993  1
  As  As23  1  0.400993  0.400993  0.400993  1
  As  As24  1  0.400993  0.400993  0.797020  1
  As  As25  1  0.842572  0.472283  0.842572  1
