# generated using pymatgen
data_Tm2ZrNb2Co16(P4Ru)3
_symmetry_space_group_name_H-M   'P 1'
_cell_length_a   11.84204900
_cell_length_b   11.84204852
_cell_length_c   3.64197800
_cell_angle_alpha   90.00000000
_cell_angle_beta   90.00000000
_cell_angle_gamma   119.99999855
_symmetry_Int_Tables_number   1
_chemical_formula_structural   Tm2ZrNb2Co16(P4Ru)3
_chemical_formula_sum   'Tm2 Zr1 Nb2 Co16 P12 Ru3'
_cell_volume   442.30479339
_cell_formula_units_Z   1
loop_
 _symmetry_equiv_pos_site_id
 _symmetry_equiv_pos_as_xyz
  1  'x, y, z'
loop_
 _atom_site_type_symbol
 _atom_site_label
 _atom_site_symmetry_multiplicity
 _atom_site_fract_x
 _atom_site_fract_y
 _atom_site_fract_z
 _atom_site_occupancy
  Tm  Tm0  1  0.333297  0.666953  0.000000  1
  Tm  Tm1  1  0.666345  0.333047  0.000000  1
  Zr  Zr2  1  0.821974  0.000000  0.500000  1
  Nb  Nb3  1  0.000511  0.820724  0.500000  1
  Nb  Nb4  1  0.179787  0.179276  0.500000  1
  Co  Co5  1  0.277388  0.000000  0.500000  1
  Co  Co6  1  0.000908  0.279199  0.500000  1
  Co  Co7  1  0.721709  0.720801  0.500000  1
  Co  Co8  1  0.629730  0.807315  0.000000  1
  Co  Co9  1  0.190149  0.821535  0.000000  1
  Co  Co10  1  0.178587  0.368832  0.000000  1
  Co  Co11  1  0.368615  0.178465  0.000000  1
  Co  Co12  1  0.809757  0.631168  0.000000  1
  Co  Co13  1  0.822416  0.192685  0.000000  1
  Co  Co14  1  0.518591  0.873607  0.500000  1
  Co  Co15  1  0.125784  0.646012  0.500000  1
  Co  Co16  1  0.353926  0.480374  0.500000  1
  Co  Co17  1  0.479770  0.353988  0.500000  1
  Co  Co18  1  0.873551  0.519626  0.500000  1
  Co  Co19  1  0.644982  0.126393  0.500000  1
  Co  Co20  1  0.001509  0.000000  0.000000  1
  P  P21  1  0.175287  0.000000  0.000000  1
  P  P22  1  0.001780  0.175551  0.000000  1
  P  P23  1  0.826229  0.824449  0.000000  1
  P  P24  1  0.521215  0.685315  0.500000  1
  P  P25  1  0.313997  0.835732  0.500000  1
  P  P26  1  0.164450  0.479386  0.500000  1
  P  P27  1  0.478264  0.164268  0.500000  1
  P  P28  1  0.685063  0.520614  0.500000  1
  P  P29  1  0.835899  0.314685  0.500000  1
  P  P30  1  0.642175  0.000000  0.000000  1
  P  P31  1  0.999955  0.643439  0.000000  1
  P  P32  1  0.356516  0.356561  0.000000  1
  Ru  Ru33  1  0.447935  0.000000  0.000000  1
  Ru  Ru34  1  0.000655  0.449358  0.000000  1
  Ru  Ru35  1  0.551297  0.550642  0.000000  1
