# generated using pymatgen
data_Sc2Fe
_symmetry_space_group_name_H-M   'P 1'
_cell_length_a   3.13742962
_cell_length_b   7.57330234
_cell_length_c   7.57240307
_cell_angle_alpha   23.92933410
_cell_angle_beta   51.44553311
_cell_angle_gamma   51.54783363
_symmetry_Int_Tables_number   1
_chemical_formula_structural   Sc2Fe
_chemical_formula_sum   'Sc2 Fe1'
_cell_volume   56.29383806
_cell_formula_units_Z   1
loop_
 _symmetry_equiv_pos_site_id
 _symmetry_equiv_pos_as_xyz
  1  'x, y, z'
loop_
 _atom_site_type_symbol
 _atom_site_label
 _atom_site_symmetry_multiplicity
 _atom_site_fract_x
 _atom_site_fract_y
 _atom_site_fract_z
 _atom_site_occupancy
  Sc  Sc0  1  0.907308  0.894740  0.105728  1
  Sc  Sc1  1  0.119243  0.157648  0.363361  1
  Fe  Fe2  1  0.010430  0.525569  0.735185  1
