# generated using pymatgen
data_TmTh7(Si3Os)4
_symmetry_space_group_name_H-M   'P 1'
_cell_length_a   8.28327500
_cell_length_b   8.28327475
_cell_length_c   8.26016600
_cell_angle_alpha   90.00000000
_cell_angle_beta   90.00000000
_cell_angle_gamma   120.00000499
_symmetry_Int_Tables_number   1
_chemical_formula_structural   TmTh7(Si3Os)4
_chemical_formula_sum   'Tm1 Th7 Si12 Os4'
_cell_volume   490.82144742
_cell_formula_units_Z   1
loop_
 _symmetry_equiv_pos_site_id
 _symmetry_equiv_pos_as_xyz
  1  'x, y, z'
loop_
 _atom_site_type_symbol
 _atom_site_label
 _atom_site_symmetry_multiplicity
 _atom_site_fract_x
 _atom_site_fract_y
 _atom_site_fract_z
 _atom_site_occupancy
  Tm  Tm0  1  0.000000  0.000000  0.750000  1
  Th  Th1  1  0.500610  0.001218  0.250000  1
  Th  Th2  1  0.499392  0.998784  0.750000  1
  Th  Th3  1  0.998782  0.499390  0.250000  1
  Th  Th4  1  0.001216  0.500608  0.750000  1
  Th  Th5  1  0.500610  0.499390  0.250000  1
  Th  Th6  1  0.499392  0.500608  0.750000  1
  Th  Th7  1  0.000000  0.000000  0.250000  1
  Si  Si8  1  0.165368  0.330737  0.998986  1
  Si  Si9  1  0.834639  0.669277  0.997867  1
  Si  Si10  1  0.669263  0.834632  0.998986  1
  Si  Si11  1  0.834639  0.669277  0.502133  1
  Si  Si12  1  0.330723  0.165361  0.997867  1
  Si  Si13  1  0.165368  0.330737  0.501014  1
  Si  Si14  1  0.165368  0.834632  0.998986  1
  Si  Si15  1  0.330723  0.165361  0.502133  1
  Si  Si16  1  0.834639  0.165361  0.997867  1
  Si  Si17  1  0.669263  0.834632  0.501014  1
  Si  Si18  1  0.834639  0.165361  0.502133  1
  Si  Si19  1  0.165368  0.834632  0.501014  1
  Os  Os20  1  0.333333  0.666667  0.997310  1
  Os  Os21  1  0.666667  0.333333  0.995581  1
  Os  Os22  1  0.666667  0.333333  0.504419  1
  Os  Os23  1  0.333333  0.666667  0.502690  1
