# generated using pymatgen
data_La9Pr7Mg3CdIr4
_symmetry_space_group_name_H-M   'P 1'
_cell_length_a   10.12069209
_cell_length_b   10.13152471
_cell_length_c   10.13734100
_cell_angle_alpha   59.98101107
_cell_angle_beta   59.94557095
_cell_angle_gamma   60.35688080
_symmetry_Int_Tables_number   1
_chemical_formula_structural   La9Pr7Mg3CdIr4
_chemical_formula_sum   'La9 Pr7 Mg3 Cd1 Ir4'
_cell_volume   736.56174967
_cell_formula_units_Z   1
loop_
 _symmetry_equiv_pos_site_id
 _symmetry_equiv_pos_as_xyz
  1  'x, y, z'
loop_
 _atom_site_type_symbol
 _atom_site_label
 _atom_site_symmetry_multiplicity
 _atom_site_fract_x
 _atom_site_fract_y
 _atom_site_fract_z
 _atom_site_occupancy
  La  La0  1  0.345782  0.346160  0.346395  1
  La  La1  1  0.345782  0.346160  0.961661  1
  La  La2  1  0.347037  0.961584  0.345688  1
  La  La3  1  0.962575  0.347142  0.345140  1
  La  La4  1  0.810622  0.187396  0.189568  1
  La  La5  1  0.189198  0.809008  0.810853  1
  La  La6  1  0.189198  0.809008  0.190942  1
  La  La7  1  0.810622  0.187396  0.812413  1
  La  La8  1  0.190004  0.189951  0.810023  1
  Pr  Pr9  1  0.809234  0.808880  0.190942  1
  Pr  Pr10  1  0.938498  0.562920  0.562656  1
  Pr  Pr11  1  0.563722  0.936546  0.936527  1
  Pr  Pr12  1  0.563722  0.936546  0.563206  1
  Pr  Pr13  1  0.938498  0.562920  0.935924  1
  Pr  Pr14  1  0.563559  0.563147  0.936647  1
  Pr  Pr15  1  0.939015  0.936737  0.562123  1
  Mg  Mg16  1  0.577235  0.579291  0.577992  1
  Mg  Mg17  1  0.577235  0.579291  0.265480  1
  Mg  Mg18  1  0.576717  0.265189  0.579046  1
  Cd  Cd19  1  0.258481  0.580660  0.580428  1
  Ir  Ir20  1  0.140686  0.141054  0.140710  1
  Ir  Ir21  1  0.140686  0.141054  0.577551  1
  Ir  Ir22  1  0.145373  0.576336  0.139145  1
  Ir  Ir23  1  0.576516  0.145617  0.138934  1
