# generated using pymatgen
data_TbHo2Mg3Si2Au
_symmetry_space_group_name_H-M   'P 1'
_cell_length_a   7.22159560
_cell_length_b   7.22159530
_cell_length_c   4.30843700
_cell_angle_alpha   90.00000000
_cell_angle_beta   90.00000000
_cell_angle_gamma   120.04669867
_symmetry_Int_Tables_number   1
_chemical_formula_structural   TbHo2Mg3Si2Au
_chemical_formula_sum   'Tb1 Ho2 Mg3 Si2 Au1'
_cell_volume   194.49665343
_cell_formula_units_Z   1
loop_
 _symmetry_equiv_pos_site_id
 _symmetry_equiv_pos_as_xyz
  1  'x, y, z'
loop_
 _atom_site_type_symbol
 _atom_site_label
 _atom_site_symmetry_multiplicity
 _atom_site_fract_x
 _atom_site_fract_y
 _atom_site_fract_z
 _atom_site_occupancy
  Tb  Tb0  1  0.418930  0.418930  0.000000  1
  Ho  Ho1  1  0.581508  0.000250  0.000000  1
  Ho  Ho2  1  0.000250  0.581508  0.000000  1
  Mg  Mg3  1  0.245975  0.999822  0.500000  1
  Mg  Mg4  1  0.999822  0.245975  0.500000  1
  Mg  Mg5  1  0.754189  0.754189  0.500000  1
  Si  Si6  1  0.332835  0.667338  0.500000  1
  Si  Si7  1  0.667338  0.332835  0.500000  1
  Au  Au8  1  0.999155  0.999155  0.000000  1
