# generated using pymatgen
data_Zr2Pa(AlNi)3
_symmetry_space_group_name_H-M   'P 1'
_cell_length_a   6.56297064
_cell_length_b   6.76212472
_cell_length_c   3.93220400
_cell_angle_alpha   90.00000000
_cell_angle_beta   90.00000000
_cell_angle_gamma   121.00899314
_symmetry_Int_Tables_number   1
_chemical_formula_structural   Zr2Pa(AlNi)3
_chemical_formula_sum   'Zr2 Pa1 Al3 Ni3'
_cell_volume   149.56993596
_cell_formula_units_Z   1
loop_
 _symmetry_equiv_pos_site_id
 _symmetry_equiv_pos_as_xyz
  1  'x, y, z'
loop_
 _atom_site_type_symbol
 _atom_site_label
 _atom_site_symmetry_multiplicity
 _atom_site_fract_x
 _atom_site_fract_y
 _atom_site_fract_z
 _atom_site_occupancy
  Zr  Zr0  1  0.580680  0.586587  0.500000  1
  Zr  Zr1  1  0.419320  0.005907  0.500000  1
  Pa  Pa2  1  0.000000  0.424191  0.500000  1
  Al  Al3  1  0.000000  0.770419  0.000000  1
  Al  Al4  1  0.254883  0.239982  0.000000  1
  Al  Al5  1  0.745117  0.985100  0.000000  1
  Ni  Ni6  1  0.000000  0.005963  0.500000  1
  Ni  Ni7  1  0.318191  0.650022  0.000000  1
  Ni  Ni8  1  0.681809  0.331830  0.000000  1
