# generated using pymatgen
data_Ag3Au7
_symmetry_space_group_name_H-M   'P 1'
_cell_length_a   7.78199143
_cell_length_b   7.78199174
_cell_length_c   5.87619864
_cell_angle_alpha   101.65223449
_cell_angle_beta   101.65223433
_cell_angle_gamma   31.24276470
_symmetry_Int_Tables_number   1
_chemical_formula_structural   Ag3Au7
_chemical_formula_sum   'Ag3 Au7'
_cell_volume   180.46722788
_cell_formula_units_Z   1
loop_
 _symmetry_equiv_pos_site_id
 _symmetry_equiv_pos_as_xyz
  1  'x, y, z'
loop_
 _atom_site_type_symbol
 _atom_site_label
 _atom_site_symmetry_multiplicity
 _atom_site_fract_x
 _atom_site_fract_y
 _atom_site_fract_z
 _atom_site_occupancy
  Ag  Ag0  1  0.000000  0.000000  0.000000  1
  Ag  Ag1  1  0.799867  0.799867  0.398871  1
  Ag  Ag2  1  0.200134  0.200134  0.601130  1
  Au  Au3  1  0.200026  0.200026  0.103182  1
  Au  Au4  1  0.399541  0.399541  0.198249  1
  Au  Au5  1  0.599894  0.599894  0.300912  1
  Au  Au6  1  0.000000  0.000000  0.499999  1
  Au  Au7  1  0.400106  0.400106  0.699086  1
  Au  Au8  1  0.600460  0.600460  0.801751  1
  Au  Au9  1  0.799973  0.799973  0.896816  1
