# generated using pymatgen
data_HoEr7Ti9Si16Mo3
_symmetry_space_group_name_H-M   'P 1'
_cell_length_a   6.98037700
_cell_length_b   6.98035113
_cell_length_c   12.82906206
_cell_angle_alpha   90.00198052
_cell_angle_beta   90.00519367
_cell_angle_gamma   89.98834444
_symmetry_Int_Tables_number   1
_chemical_formula_structural   HoEr7Ti9Si16Mo3
_chemical_formula_sum   'Ho1 Er7 Ti9 Si16 Mo3'
_cell_volume   625.10222323
_cell_formula_units_Z   1
loop_
 _symmetry_equiv_pos_site_id
 _symmetry_equiv_pos_as_xyz
  1  'x, y, z'
loop_
 _atom_site_type_symbol
 _atom_site_label
 _atom_site_symmetry_multiplicity
 _atom_site_fract_x
 _atom_site_fract_y
 _atom_site_fract_z
 _atom_site_occupancy
  Ho  Ho0  1  0.999360  0.659044  0.033121  1
  Er  Er1  1  0.340669  0.002121  0.466395  1
  Er  Er2  1  0.498826  0.842355  0.717951  1
  Er  Er3  1  0.500257  0.158289  0.216634  1
  Er  Er4  1  0.842295  0.498748  0.282054  1
  Er  Er5  1  0.158307  0.500198  0.783397  1
  Er  Er6  1  0.658871  0.999619  0.966892  1
  Er  Er7  1  0.002115  0.340610  0.533473  1
  Ti  Ti8  1  0.672769  0.672820  0.499953  1
  Ti  Ti9  1  0.152014  0.008285  0.875902  1
  Ti  Ti10  1  0.491781  0.652220  0.125112  1
  Ti  Ti11  1  0.507292  0.347187  0.626799  1
  Ti  Ti12  1  0.652190  0.491733  0.874900  1
  Ti  Ti13  1  0.347216  0.507291  0.373166  1
  Ti  Ti14  1  0.848774  0.992226  0.374749  1
  Ti  Ti15  1  0.008280  0.152083  0.124097  1
  Ti  Ti16  1  0.992222  0.848820  0.625221  1
  Si  Si17  1  0.202507  0.130730  0.683896  1
  Si  Si18  1  0.369046  0.701670  0.933901  1
  Si  Si19  1  0.631223  0.297315  0.433930  1
  Si  Si20  1  0.701499  0.368649  0.066145  1
  Si  Si21  1  0.297352  0.631205  0.565979  1
  Si  Si22  1  0.797941  0.869335  0.184412  1
  Si  Si23  1  0.130666  0.202468  0.316099  1
  Si  Si24  1  0.869067  0.798141  0.815682  1
  Si  Si25  1  0.292008  0.952907  0.065086  1
  Si  Si26  1  0.546632  0.791208  0.315112  1
  Si  Si27  1  0.452411  0.208313  0.815241  1
  Si  Si28  1  0.791226  0.546609  0.684883  1
  Si  Si29  1  0.208473  0.452231  0.184874  1
  Si  Si30  1  0.707633  0.048201  0.565752  1
  Si  Si31  1  0.952695  0.291657  0.934938  1
  Si  Si32  1  0.048209  0.707702  0.434146  1
  Mo  Mo33  1  0.327206  0.327034  0.000023  1
  Mo  Mo34  1  0.173717  0.827307  0.249457  1
  Mo  Mo35  1  0.827253  0.173669  0.750629  1
