# generated using pymatgen
data_Dy2InNi7B2
_symmetry_space_group_name_H-M   'P 1'
_cell_length_a   5.01813329
_cell_length_b   5.02065438
_cell_length_c   14.31100200
_cell_angle_alpha   90.00000000
_cell_angle_beta   90.00000000
_cell_angle_gamma   119.99272117
_symmetry_Int_Tables_number   1
_chemical_formula_structural   Dy2InNi7B2
_chemical_formula_sum   'Dy4 In2 Ni14 B4'
_cell_volume   312.27343550
_cell_formula_units_Z   2
loop_
 _symmetry_equiv_pos_site_id
 _symmetry_equiv_pos_as_xyz
  1  'x, y, z'
loop_
 _atom_site_type_symbol
 _atom_site_label
 _atom_site_symmetry_multiplicity
 _atom_site_fract_x
 _atom_site_fract_y
 _atom_site_fract_z
 _atom_site_occupancy
  Dy  Dy0  1  0.666667  0.333325  0.531143  1
  Dy  Dy1  1  0.333333  0.666675  0.031143  1
  Dy  Dy2  1  0.666666  0.333335  0.755815  1
  Dy  Dy3  1  0.333334  0.666665  0.255815  1
  In  In4  1  0.333452  0.666787  0.469066  1
  In  In5  1  0.666548  0.333213  0.969066  1
  Ni  Ni6  1  0.834325  0.668625  0.351757  1
  Ni  Ni7  1  0.331410  0.165719  0.351765  1
  Ni  Ni8  1  0.000014  0.999991  0.999237  1
  Ni  Ni9  1  0.999986  0.000009  0.499237  1
  Ni  Ni10  1  0.834039  0.165952  0.147581  1
  Ni  Ni11  1  0.668030  0.834017  0.647549  1
  Ni  Ni12  1  0.165970  0.331913  0.647635  1
  Ni  Ni13  1  0.834030  0.668087  0.147635  1
  Ni  Ni14  1  0.331970  0.165983  0.147549  1
  Ni  Ni15  1  0.668590  0.834281  0.851765  1
  Ni  Ni16  1  0.165675  0.331375  0.851757  1
  Ni  Ni17  1  0.165961  0.834048  0.647581  1
  Ni  Ni18  1  0.165685  0.834269  0.851786  1
  Ni  Ni19  1  0.834315  0.165731  0.351786  1
  B  B20  1  0.666686  0.333325  0.249533  1
  B  B21  1  0.333314  0.666675  0.749533  1
  B  B22  1  0.000001  0.999975  0.747132  1
  B  B23  1  0.999999  0.000025  0.247132  1
