# generated using pymatgen
data_Y2Hf5Mg(Si4Ru3)4
_symmetry_space_group_name_H-M   'P 1'
_cell_length_a   10.00682307
_cell_length_b   9.98551153
_cell_length_c   13.48505741
_cell_angle_alpha   53.55298125
_cell_angle_beta   53.39999952
_cell_angle_gamma   31.09426357
_symmetry_Int_Tables_number   1
_chemical_formula_structural   Y2Hf5Mg(Si4Ru3)4
_chemical_formula_sum   'Y2 Hf5 Mg1 Si16 Ru12'
_cell_volume   547.22637628
_cell_formula_units_Z   1
loop_
 _symmetry_equiv_pos_site_id
 _symmetry_equiv_pos_as_xyz
  1  'x, y, z'
loop_
 _atom_site_type_symbol
 _atom_site_label
 _atom_site_symmetry_multiplicity
 _atom_site_fract_x
 _atom_site_fract_y
 _atom_site_fract_z
 _atom_site_occupancy
  Y  Y0  1  0.440382  0.703316  0.854617  1
  Y  Y1  1  0.693802  0.444139  0.359626  1
  Hf  Hf2  1  0.562163  0.285515  0.149494  1
  Hf  Hf3  1  0.040009  0.296527  0.634900  1
  Hf  Hf4  1  0.705782  0.961273  0.863827  1
  Hf  Hf5  1  0.961601  0.702729  0.366469  1
  Hf  Hf6  1  0.292789  0.043272  0.133731  1
  Mg  Mg7  1  0.297966  0.561297  0.643780  1
  Si  Si8  1  0.875654  0.122400  0.249334  1
  Si  Si9  1  0.123568  0.873082  0.750456  1
  Si  Si10  1  0.380979  0.619501  0.246533  1
  Si  Si11  1  0.623966  0.374303  0.747515  1
  Si  Si12  1  0.974389  0.256366  0.892332  1
  Si  Si13  1  0.750600  0.021126  0.609527  1
  Si  Si14  1  0.024877  0.745988  0.109859  1
  Si  Si15  1  0.245561  0.986447  0.387564  1
  Si  Si16  1  0.572074  0.082857  0.066509  1
  Si  Si17  1  0.916251  0.426575  0.436737  1
  Si  Si18  1  0.424076  0.923480  0.933590  1
  Si  Si19  1  0.087673  0.572380  0.567590  1
  Si  Si20  1  0.384662  0.142981  0.398316  1
  Si  Si21  1  0.857373  0.612398  0.102744  1
  Si  Si22  1  0.615911  0.856831  0.601384  1
  Si  Si23  1  0.146299  0.391607  0.891330  1
  Ru  Ru24  1  0.647302  0.834155  0.282909  1
  Ru  Ru25  1  0.169752  0.353792  0.217971  1
  Ru  Ru26  1  0.760373  0.481641  0.069407  1
  Ru  Ru27  1  0.830928  0.651426  0.782996  1
  Ru  Ru28  1  0.911814  0.127087  0.587265  1
  Ru  Ru29  1  0.850966  0.104770  0.917928  1
  Ru  Ru30  1  0.100601  0.856683  0.411606  1
  Ru  Ru31  1  0.140069  0.898136  0.086922  1
  Ru  Ru32  1  0.239423  0.513643  0.932198  1
  Ru  Ru33  1  0.487633  0.756298  0.571010  1
  Ru  Ru34  1  0.510631  0.243204  0.426385  1
  Ru  Ru35  1  0.352103  0.172776  0.715643  1
