# generated using pymatgen
data_Tb8Hf11Si16Mo
_symmetry_space_group_name_H-M   'P 1'
_cell_length_a   7.26689288
_cell_length_b   7.26689288
_cell_length_c   13.33817528
_cell_angle_alpha   89.94319475
_cell_angle_beta   90.05680525
_cell_angle_gamma   90.05984161
_symmetry_Int_Tables_number   1
_chemical_formula_structural   Tb8Hf11Si16Mo
_chemical_formula_sum   'Tb8 Hf11 Si16 Mo1'
_cell_volume   704.35771182
_cell_formula_units_Z   1
loop_
 _symmetry_equiv_pos_site_id
 _symmetry_equiv_pos_as_xyz
  1  'x, y, z'
loop_
 _atom_site_type_symbol
 _atom_site_label
 _atom_site_symmetry_multiplicity
 _atom_site_fract_x
 _atom_site_fract_y
 _atom_site_fract_z
 _atom_site_occupancy
  Tb  Tb0  1  0.998586  0.342800  0.212654  1
  Tb  Tb1  1  0.004064  0.656760  0.716314  1
  Tb  Tb2  1  0.156769  0.495521  0.465525  1
  Tb  Tb3  1  0.501154  0.845543  0.034250  1
  Tb  Tb4  1  0.845543  0.501154  0.965750  1
  Tb  Tb5  1  0.495521  0.156769  0.534475  1
  Tb  Tb6  1  0.342800  0.998586  0.787346  1
  Tb  Tb7  1  0.656760  0.004064  0.283686  1
  Hf  Hf8  1  0.825659  0.825659  0.500000  1
  Hf  Hf9  1  0.324456  0.674246  0.249087  1
  Hf  Hf10  1  0.674246  0.324456  0.750913  1
  Hf  Hf11  1  0.148771  0.996924  0.373798  1
  Hf  Hf12  1  0.853167  0.005211  0.877333  1
  Hf  Hf13  1  0.504056  0.648789  0.624624  1
  Hf  Hf14  1  0.348849  0.493004  0.877221  1
  Hf  Hf15  1  0.493004  0.348849  0.122779  1
  Hf  Hf16  1  0.648789  0.504056  0.375376  1
  Hf  Hf17  1  0.996924  0.148771  0.626202  1
  Hf  Hf18  1  0.005211  0.853167  0.122667  1
  Si  Si19  1  0.362914  0.295058  0.316442  1
  Si  Si20  1  0.636229  0.704974  0.817389  1
  Si  Si21  1  0.205041  0.863205  0.567177  1
  Si  Si22  1  0.137237  0.796598  0.933206  1
  Si  Si23  1  0.796598  0.137237  0.066794  1
  Si  Si24  1  0.863205  0.205041  0.432823  1
  Si  Si25  1  0.295058  0.362914  0.683558  1
  Si  Si26  1  0.704974  0.636229  0.182611  1
  Si  Si27  1  0.294124  0.051124  0.183015  1
  Si  Si28  1  0.704330  0.952019  0.685803  1
  Si  Si29  1  0.450913  0.795521  0.435187  1
  Si  Si30  1  0.204283  0.546963  0.064224  1
  Si  Si31  1  0.546963  0.204283  0.935776  1
  Si  Si32  1  0.795521  0.450913  0.564813  1
  Si  Si33  1  0.051124  0.294124  0.816985  1
  Si  Si34  1  0.952019  0.704330  0.314197  1
  Mo  Mo35  1  0.175138  0.175138  0.000000  1
