# generated using pymatgen
data_Y2HoErCdPt
_symmetry_space_group_name_H-M   'P 1'
_cell_length_a   9.67346044
_cell_length_b   9.67346095
_cell_length_c   9.68579500
_cell_angle_alpha   59.95781645
_cell_angle_beta   59.95781472
_cell_angle_gamma   60.08438661
_symmetry_Int_Tables_number   1
_chemical_formula_structural   Y2HoErCdPt
_chemical_formula_sum   'Y8 Ho4 Er4 Cd4 Pt4'
_cell_volume   640.88877044
_cell_formula_units_Z   4
loop_
 _symmetry_equiv_pos_site_id
 _symmetry_equiv_pos_as_xyz
  1  'x, y, z'
loop_
 _atom_site_type_symbol
 _atom_site_label
 _atom_site_symmetry_multiplicity
 _atom_site_fract_x
 _atom_site_fract_y
 _atom_site_fract_z
 _atom_site_occupancy
  Y  Y0  1  0.189406  0.189406  0.810594  1
  Y  Y1  1  0.810594  0.810594  0.189406  1
  Y  Y2  1  0.935919  0.564081  0.564081  1
  Y  Y3  1  0.564081  0.935919  0.935919  1
  Y  Y4  1  0.564081  0.935919  0.564081  1
  Y  Y5  1  0.935919  0.564081  0.935919  1
  Y  Y6  1  0.563940  0.563940  0.936060  1
  Y  Y7  1  0.936060  0.936060  0.563940  1
  Ho  Ho8  1  0.352314  0.352314  0.351901  1
  Ho  Ho9  1  0.352314  0.352314  0.943473  1
  Ho  Ho10  1  0.351901  0.943473  0.352314  1
  Ho  Ho11  1  0.943473  0.351901  0.352314  1
  Er  Er12  1  0.810495  0.189505  0.189505  1
  Er  Er13  1  0.189505  0.810495  0.810495  1
  Er  Er14  1  0.189505  0.810495  0.189505  1
  Er  Er15  1  0.810495  0.189505  0.810495  1
  Cd  Cd16  1  0.581712  0.581712  0.581739  1
  Cd  Cd17  1  0.581712  0.581712  0.254838  1
  Cd  Cd18  1  0.581739  0.254838  0.581712  1
  Cd  Cd19  1  0.254838  0.581739  0.581712  1
  Pt  Pt20  1  0.142455  0.142455  0.145251  1
  Pt  Pt21  1  0.142455  0.142455  0.569840  1
  Pt  Pt22  1  0.145251  0.569840  0.142455  1
  Pt  Pt23  1  0.569840  0.145251  0.142455  1
