# generated using pymatgen
data_LiTb2B2(PPd5)4
_symmetry_space_group_name_H-M   'P 1'
_cell_length_a   8.59452102
_cell_length_b   8.50226587
_cell_length_c   8.50226583
_cell_angle_alpha   60.71918838
_cell_angle_beta   59.64041731
_cell_angle_gamma   59.64041433
_symmetry_Int_Tables_number   1
_chemical_formula_structural   LiTb2B2(PPd5)4
_chemical_formula_sum   'Li1 Tb2 B2 P4 Pd20'
_cell_volume   439.21049057
_cell_formula_units_Z   1
loop_
 _symmetry_equiv_pos_site_id
 _symmetry_equiv_pos_as_xyz
  1  'x, y, z'
loop_
 _atom_site_type_symbol
 _atom_site_label
 _atom_site_symmetry_multiplicity
 _atom_site_fract_x
 _atom_site_fract_y
 _atom_site_fract_z
 _atom_site_occupancy
  Li  Li0  1  0.000000  0.000000  0.000000  1
  Tb  Tb1  1  0.250000  0.250000  0.250000  1
  Tb  Tb2  1  0.750000  0.750000  0.750000  1
  B  B3  1  0.738632  0.261368  0.261368  1
  B  B4  1  0.261368  0.738632  0.738632  1
  P  P5  1  0.262515  0.737485  0.262515  1
  P  P6  1  0.737485  0.262515  0.737485  1
  P  P7  1  0.262515  0.262515  0.737485  1
  P  P8  1  0.737485  0.737485  0.262515  1
  Pd  Pd9  1  0.391737  0.381953  0.381953  1
  Pd  Pd10  1  0.608263  0.618047  0.618047  1
  Pd  Pd11  1  0.381953  0.391737  0.844357  1
  Pd  Pd12  1  0.381953  0.844357  0.391737  1
  Pd  Pd13  1  0.618047  0.608263  0.155643  1
  Pd  Pd14  1  0.618047  0.155643  0.608263  1
  Pd  Pd15  1  0.844357  0.381953  0.381953  1
  Pd  Pd16  1  0.155643  0.618047  0.618047  1
  Pd  Pd17  1  0.342962  0.000000  0.000000  1
  Pd  Pd18  1  0.657038  0.000000  0.000000  1
  Pd  Pd19  1  0.000000  0.342962  0.657038  1
  Pd  Pd20  1  0.000000  0.657038  0.342962  1
  Pd  Pd21  1  0.990031  0.340273  0.009969  1
  Pd  Pd22  1  0.659727  0.009969  0.340273  1
  Pd  Pd23  1  0.009969  0.659727  0.990031  1
  Pd  Pd24  1  0.340273  0.990031  0.659727  1
  Pd  Pd25  1  0.990031  0.009969  0.340273  1
  Pd  Pd26  1  0.009969  0.990031  0.659727  1
  Pd  Pd27  1  0.659727  0.340273  0.009969  1
  Pd  Pd28  1  0.340273  0.659727  0.990031  1
