# generated using pymatgen
data_Nb16Fe3SiTe16
_symmetry_space_group_name_H-M   'P 1'
_cell_length_a   4.86484200
_cell_length_b   10.87885683
_cell_length_c   18.92317312
_cell_angle_alpha   90.02893386
_cell_angle_beta   90.00000000
_cell_angle_gamma   90.00000000
_symmetry_Int_Tables_number   1
_chemical_formula_structural   Nb16Fe3SiTe16
_chemical_formula_sum   'Nb16 Fe3 Si1 Te16'
_cell_volume   1001.48836590
_cell_formula_units_Z   1
loop_
 _symmetry_equiv_pos_site_id
 _symmetry_equiv_pos_as_xyz
  1  'x, y, z'
loop_
 _atom_site_type_symbol
 _atom_site_label
 _atom_site_symmetry_multiplicity
 _atom_site_fract_x
 _atom_site_fract_y
 _atom_site_fract_z
 _atom_site_occupancy
  Nb  Nb0  1  0.500963  0.564569  0.382744  1
  Nb  Nb1  1  0.500963  0.435431  0.617256  1
  Nb  Nb2  1  0.500164  0.064460  0.117011  1
  Nb  Nb3  1  0.500164  0.935540  0.882989  1
  Nb  Nb4  1  0.500290  0.704889  0.536820  1
  Nb  Nb5  1  0.500290  0.295111  0.463180  1
  Nb  Nb6  1  0.500022  0.204595  0.963301  1
  Nb  Nb7  1  0.500022  0.795405  0.036699  1
  Nb  Nb8  1  0.001373  0.690480  0.442808  1
  Nb  Nb9  1  0.001373  0.309520  0.557192  1
  Nb  Nb10  1  0.000039  0.190306  0.057169  1
  Nb  Nb11  1  0.000039  0.809694  0.942831  1
  Nb  Nb12  1  0.000751  0.400786  0.390947  1
  Nb  Nb13  1  0.000751  0.599214  0.609053  1
  Nb  Nb14  1  0.999916  0.901119  0.108731  1
  Nb  Nb15  1  0.999916  0.098881  0.891269  1
  Fe  Fe16  1  0.750228  0.000000  0.000000  1
  Fe  Fe17  1  0.743105  0.500000  0.500000  1
  Fe  Fe18  1  0.249911  0.000000  0.000000  1
  Si  Si19  1  0.247775  0.500000  0.500000  1
  Te  Te20  1  0.994163  0.848387  0.563180  1
  Te  Te21  1  0.994163  0.151613  0.436820  1
  Te  Te22  1  0.000032  0.348844  0.936883  1
  Te  Te23  1  0.000032  0.651156  0.063117  1
  Te  Te24  1  0.505640  0.331560  0.314303  1
  Te  Te25  1  0.505640  0.668440  0.685697  1
  Te  Te26  1  0.499918  0.831527  0.185611  1
  Te  Te27  1  0.499918  0.168473  0.814389  1
  Te  Te28  1  0.506242  0.824635  0.402787  1
  Te  Te29  1  0.506242  0.175365  0.597213  1
  Te  Te30  1  0.500033  0.324970  0.097321  1
  Te  Te31  1  0.500033  0.675030  0.902679  1
  Te  Te32  1  0.994770  0.608796  0.299903  1
  Te  Te33  1  0.994770  0.391204  0.700097  1
  Te  Te34  1  0.000173  0.109078  0.200275  1
  Te  Te35  1  0.000173  0.890922  0.799725  1
