# generated using pymatgen
data_Er2Co5Si14Ir
_symmetry_space_group_name_H-M   'P 1'
_cell_length_a   7.71616812
_cell_length_b   7.70907565
_cell_length_c   7.70907584
_cell_angle_alpha   57.44906382
_cell_angle_beta   57.30607374
_cell_angle_gamma   57.30608361
_symmetry_Int_Tables_number   1
_chemical_formula_structural   Er2Co5Si14Ir
_chemical_formula_sum   'Er2 Co5 Si14 Ir1'
_cell_volume   304.50705064
_cell_formula_units_Z   1
loop_
 _symmetry_equiv_pos_site_id
 _symmetry_equiv_pos_as_xyz
  1  'x, y, z'
loop_
 _atom_site_type_symbol
 _atom_site_label
 _atom_site_symmetry_multiplicity
 _atom_site_fract_x
 _atom_site_fract_y
 _atom_site_fract_z
 _atom_site_occupancy
  Er  Er0  1  0.000510  0.998952  0.001785  1
  Er  Er1  1  0.499490  0.498215  0.501048  1
  Co  Co2  1  0.070070  0.428752  0.751688  1
  Co  Co3  1  0.250000  0.930149  0.569851  1
  Co  Co4  1  0.569875  0.250764  0.928234  1
  Co  Co5  1  0.930125  0.571766  0.249236  1
  Co  Co6  1  0.429930  0.748312  0.071248  1
  Si  Si7  1  0.750000  0.738785  0.761215  1
  Si  Si8  1  0.250000  0.250604  0.249396  1
  Si  Si9  1  0.856565  0.075035  0.671071  1
  Si  Si10  1  0.668072  0.849814  0.069924  1
  Si  Si11  1  0.073826  0.668069  0.848788  1
  Si  Si12  1  0.643435  0.828929  0.424965  1
  Si  Si13  1  0.426174  0.651212  0.831931  1
  Si  Si14  1  0.831928  0.430076  0.650186  1
  Si  Si15  1  0.165865  0.571275  0.351196  1
  Si  Si16  1  0.565506  0.358470  0.158138  1
  Si  Si17  1  0.339611  0.167468  0.577462  1
  Si  Si18  1  0.934494  0.341862  0.141530  1
  Si  Si19  1  0.334135  0.148804  0.928725  1
  Si  Si20  1  0.160389  0.922538  0.332532  1
  Ir  Ir21  1  0.750000  0.070151  0.429849  1
