# generated using pymatgen
data_TmAs4Ru5Rh
_symmetry_space_group_name_H-M   'P 1'
_cell_length_a   7.19698077
_cell_length_b   7.14829433
_cell_length_c   3.85483500
_cell_angle_alpha   90.00000000
_cell_angle_beta   90.00000000
_cell_angle_gamma   119.77647581
_symmetry_Int_Tables_number   1
_chemical_formula_structural   TmAs4Ru5Rh
_chemical_formula_sum   'Tm1 As4 Ru5 Rh1'
_cell_volume   172.13254468
_cell_formula_units_Z   1
loop_
 _symmetry_equiv_pos_site_id
 _symmetry_equiv_pos_as_xyz
  1  'x, y, z'
loop_
 _atom_site_type_symbol
 _atom_site_label
 _atom_site_symmetry_multiplicity
 _atom_site_fract_x
 _atom_site_fract_y
 _atom_site_fract_z
 _atom_site_occupancy
  Tm  Tm0  1  0.001733  0.000867  0.000000  1
  As  As1  1  0.811599  0.193534  0.500000  1
  As  As2  1  0.379577  0.189788  0.500000  1
  As  As3  1  0.327334  0.663668  0.000000  1
  As  As4  1  0.811599  0.618065  0.500000  1
  Ru  Ru5  1  0.198460  0.800796  0.500000  1
  Ru  Ru6  1  0.198460  0.397665  0.500000  1
  Ru  Ru7  1  0.535643  0.069257  0.000000  1
  Ru  Ru8  1  0.928628  0.464314  0.000000  1
  Ru  Ru9  1  0.535643  0.466386  0.000000  1
  Rh  Rh10  1  0.604656  0.802329  0.500000  1
