# generated using pymatgen
data_Pr5FeRhO12
_symmetry_space_group_name_H-M   'P 1'
_cell_length_a   7.07965740
_cell_length_b   7.07965796
_cell_length_c   7.66815703
_cell_angle_alpha   74.38473617
_cell_angle_beta   74.38473137
_cell_angle_gamma   51.10114301
_symmetry_Int_Tables_number   1
_chemical_formula_structural   Pr5FeRhO12
_chemical_formula_sum   'Pr5 Fe1 Rh1 O12'
_cell_volume   285.49164364
_cell_formula_units_Z   1
loop_
 _symmetry_equiv_pos_site_id
 _symmetry_equiv_pos_as_xyz
  1  'x, y, z'
loop_
 _atom_site_type_symbol
 _atom_site_label
 _atom_site_symmetry_multiplicity
 _atom_site_fract_x
 _atom_site_fract_y
 _atom_site_fract_z
 _atom_site_occupancy
  Pr  Pr0  1  0.309919  0.305388  0.356986  1
  Pr  Pr1  1  0.694612  0.690081  0.643014  1
  Pr  Pr2  1  0.690820  0.693198  0.166763  1
  Pr  Pr3  1  0.306802  0.309180  0.833237  1
  Pr  Pr4  1  0.004094  0.995906  0.500000  1
  Fe  Fe5  1  0.754331  0.245669  0.000000  1
  Rh  Rh6  1  0.239933  0.760067  0.000000  1
  O  O7  1  0.096549  0.593247  0.578565  1
  O  O8  1  0.002473  0.995603  0.175085  1
  O  O9  1  0.406753  0.903451  0.421435  1
  O  O10  1  0.492229  0.508947  0.175017  1
  O  O11  1  0.099606  0.580289  0.078537  1
  O  O12  1  0.906241  0.401957  0.421448  1
  O  O13  1  0.004397  0.997527  0.824915  1
  O  O14  1  0.598043  0.093758  0.578552  1
  O  O15  1  0.491053  0.507771  0.824983  1
  O  O16  1  0.586694  0.104261  0.075848  1
  O  O17  1  0.419711  0.900394  0.921463  1
  O  O18  1  0.895739  0.413306  0.924152  1
