# generated using pymatgen
data_LiV6RhS12
_symmetry_space_group_name_H-M   'P 1'
_cell_length_a   5.55084900
_cell_length_b   5.55085027
_cell_length_c   12.33220900
_cell_angle_alpha   90.00000000
_cell_angle_beta   90.00000000
_cell_angle_gamma   119.99998648
_symmetry_Int_Tables_number   1
_chemical_formula_structural   LiV6RhS12
_chemical_formula_sum   'Li1 V6 Rh1 S12'
_cell_volume   329.07166844
_cell_formula_units_Z   1
loop_
 _symmetry_equiv_pos_site_id
 _symmetry_equiv_pos_as_xyz
  1  'x, y, z'
loop_
 _atom_site_type_symbol
 _atom_site_label
 _atom_site_symmetry_multiplicity
 _atom_site_fract_x
 _atom_site_fract_y
 _atom_site_fract_z
 _atom_site_occupancy
  Li  Li0  1  0.333333  0.666667  0.250000  1
  V  V1  1  0.000000  0.000000  0.512995  1
  V  V2  1  0.000000  0.000000  0.987005  1
  V  V3  1  0.333333  0.666667  0.986680  1
  V  V4  1  0.666667  0.333333  0.988645  1
  V  V5  1  0.666667  0.333333  0.511355  1
  V  V6  1  0.333333  0.666667  0.513320  1
  Rh  Rh7  1  0.666667  0.333333  0.750000  1
  S  S8  1  0.331595  0.331526  0.392041  1
  S  S9  1  0.668474  0.000072  0.392041  1
  S  S10  1  0.999928  0.668405  0.392041  1
  S  S11  1  0.330512  0.333307  0.628899  1
  S  S12  1  0.002797  0.669488  0.628899  1
  S  S13  1  0.666693  0.997203  0.628899  1
  S  S14  1  0.666693  0.669488  0.871101  1
  S  S15  1  0.330512  0.997203  0.871101  1
  S  S16  1  0.002797  0.333307  0.871101  1
  S  S17  1  0.668474  0.668405  0.107959  1
  S  S18  1  0.999928  0.331526  0.107959  1
  S  S19  1  0.331595  0.000072  0.107959  1
