# generated using pymatgen
data_Ho3TmSi4TcRh3
_symmetry_space_group_name_H-M   'P 1'
_cell_length_a   4.30712500
_cell_length_b   6.92287560
_cell_length_c   7.23269454
_cell_angle_alpha   89.99822251
_cell_angle_beta   90.00000000
_cell_angle_gamma   90.00000000
_symmetry_Int_Tables_number   1
_chemical_formula_structural   Ho3TmSi4TcRh3
_chemical_formula_sum   'Ho3 Tm1 Si4 Tc1 Rh3'
_cell_volume   215.66224779
_cell_formula_units_Z   1
loop_
 _symmetry_equiv_pos_site_id
 _symmetry_equiv_pos_as_xyz
  1  'x, y, z'
loop_
 _atom_site_type_symbol
 _atom_site_label
 _atom_site_symmetry_multiplicity
 _atom_site_fract_x
 _atom_site_fract_y
 _atom_site_fract_z
 _atom_site_occupancy
  Ho  Ho0  1  0.750000  0.513473  0.310597  1
  Ho  Ho1  1  0.250000  0.995334  0.814237  1
  Ho  Ho2  1  0.750000  0.005663  0.185617  1
  Tm  Tm3  1  0.250000  0.491017  0.691322  1
  Si  Si4  1  0.250000  0.299357  0.109651  1
  Si  Si5  1  0.750000  0.700298  0.885524  1
  Si  Si6  1  0.250000  0.797827  0.401591  1
  Si  Si7  1  0.750000  0.200364  0.603193  1
  Tc  Tc8  1  0.750000  0.845330  0.568029  1
  Rh  Rh9  1  0.250000  0.155607  0.430946  1
  Rh  Rh10  1  0.750000  0.343644  0.932592  1
  Rh  Rh11  1  0.250000  0.652085  0.066699  1
