# generated using pymatgen
data_Ho9Er3Tc3Ir
_symmetry_space_group_name_H-M   'P 1'
_cell_length_a   6.26856843
_cell_length_b   7.37252530
_cell_length_c   9.08569141
_cell_angle_alpha   90.00251535
_cell_angle_beta   89.96574345
_cell_angle_gamma   89.97106493
_symmetry_Int_Tables_number   1
_chemical_formula_structural   Ho9Er3Tc3Ir
_chemical_formula_sum   'Ho9 Er3 Tc3 Ir1'
_cell_volume   419.89672905
_cell_formula_units_Z   1
loop_
 _symmetry_equiv_pos_site_id
 _symmetry_equiv_pos_as_xyz
  1  'x, y, z'
loop_
 _atom_site_type_symbol
 _atom_site_label
 _atom_site_symmetry_multiplicity
 _atom_site_fract_x
 _atom_site_fract_y
 _atom_site_fract_z
 _atom_site_occupancy
  Ho  Ho0  1  0.835374  0.825218  0.938088  1
  Ho  Ho1  1  0.664654  0.322897  0.938280  1
  Ho  Ho2  1  0.835432  0.825429  0.561950  1
  Ho  Ho3  1  0.333218  0.675932  0.435742  1
  Ho  Ho4  1  0.163290  0.175544  0.063353  1
  Ho  Ho5  1  0.873916  0.540703  0.250086  1
  Ho  Ho6  1  0.625406  0.038765  0.250149  1
  Ho  Ho7  1  0.131225  0.458047  0.749909  1
  Ho  Ho8  1  0.371207  0.959930  0.749893  1
  Er  Er9  1  0.333235  0.676010  0.064118  1
  Er  Er10  1  0.163228  0.175535  0.436940  1
  Er  Er11  1  0.664778  0.322880  0.561619  1
  Tc  Tc12  1  0.040217  0.883935  0.249880  1
  Tc  Tc13  1  0.462117  0.386422  0.250307  1
  Tc  Tc14  1  0.960126  0.116628  0.749610  1
  Ir  Ir15  1  0.542579  0.616123  0.750077  1
