# generated using pymatgen
data_Tb20Tc3Bi8As
_symmetry_space_group_name_H-M   'P 1'
_cell_length_a   8.03841283
_cell_length_b   9.16787300
_cell_length_c   12.31369046
_cell_angle_alpha   90.00000000
_cell_angle_beta   89.52749212
_cell_angle_gamma   90.00000000
_symmetry_Int_Tables_number   1
_chemical_formula_structural   Tb20Tc3Bi8As
_chemical_formula_sum   'Tb20 Tc3 Bi8 As1'
_cell_volume   907.42838227
_cell_formula_units_Z   1
loop_
 _symmetry_equiv_pos_site_id
 _symmetry_equiv_pos_as_xyz
  1  'x, y, z'
loop_
 _atom_site_type_symbol
 _atom_site_label
 _atom_site_symmetry_multiplicity
 _atom_site_fract_x
 _atom_site_fract_y
 _atom_site_fract_z
 _atom_site_occupancy
  Tb  Tb0  1  0.853555  0.750000  0.803768  1
  Tb  Tb1  1  0.157626  0.250000  0.209640  1
  Tb  Tb2  1  0.338727  0.250000  0.710903  1
  Tb  Tb3  1  0.676775  0.750000  0.275273  1
  Tb  Tb4  1  0.367782  0.750000  0.698723  1
  Tb  Tb5  1  0.621159  0.250000  0.303124  1
  Tb  Tb6  1  0.880879  0.250000  0.801892  1
  Tb  Tb7  1  0.128290  0.750000  0.202253  1
  Tb  Tb8  1  0.959720  0.750000  0.500911  1
  Tb  Tb9  1  0.043513  0.250000  0.500546  1
  Tb  Tb10  1  0.448146  0.250000  0.994593  1
  Tb  Tb11  1  0.546577  0.750000  0.001040  1
  Tb  Tb12  1  0.674878  0.053201  0.562400  1
  Tb  Tb13  1  0.317592  0.964692  0.434144  1
  Tb  Tb14  1  0.177998  0.960941  0.941660  1
  Tb  Tb15  1  0.317592  0.535308  0.434144  1
  Tb  Tb16  1  0.822715  0.038963  0.061799  1
  Tb  Tb17  1  0.674878  0.446799  0.562400  1
  Tb  Tb18  1  0.822715  0.461037  0.061799  1
  Tb  Tb19  1  0.177998  0.539059  0.941660  1
  Tc  Tc20  1  0.413759  0.250000  0.485230  1
  Tc  Tc21  1  0.080460  0.250000  0.985132  1
  Tc  Tc22  1  0.918608  0.750000  0.024808  1
  Bi  Bi23  1  0.571374  0.494771  0.821981  1
  Bi  Bi24  1  0.430144  0.508955  0.173794  1
  Bi  Bi25  1  0.073524  0.511575  0.670194  1
  Bi  Bi26  1  0.430144  0.991045  0.173794  1
  Bi  Bi27  1  0.924206  0.489481  0.331823  1
  Bi  Bi28  1  0.571374  0.005229  0.821981  1
  Bi  Bi29  1  0.924206  0.010519  0.331823  1
  Bi  Bi30  1  0.073524  0.988425  0.670194  1
  As  As31  1  0.579560  0.750000  0.506574  1
