# generated using pymatgen
data_TbDyY2(Al8Pt3)3
_symmetry_space_group_name_H-M   'P 1'
_cell_length_a   7.53353608
_cell_length_b   7.55481918
_cell_length_c   13.18783001
_cell_angle_alpha   84.57283509
_cell_angle_beta   79.12112029
_cell_angle_gamma   59.97260107
_symmetry_Int_Tables_number   1
_chemical_formula_structural   TbDyY2(Al8Pt3)3
_chemical_formula_sum   'Tb1 Dy1 Y2 Al24 Pt9'
_cell_volume   638.16204214
_cell_formula_units_Z   1
loop_
 _symmetry_equiv_pos_site_id
 _symmetry_equiv_pos_as_xyz
  1  'x, y, z'
loop_
 _atom_site_type_symbol
 _atom_site_label
 _atom_site_symmetry_multiplicity
 _atom_site_fract_x
 _atom_site_fract_y
 _atom_site_fract_z
 _atom_site_occupancy
  Tb  Tb0  1  0.734070  0.498494  0.807628  1
  Dy  Dy1  1  0.265883  0.501509  0.192442  1
  Y  Y2  1  0.393382  0.168416  0.808004  1
  Y  Y3  1  0.606626  0.831588  0.191995  1
  Al  Al4  1  0.684559  0.833664  0.944532  1
  Al  Al5  1  0.315429  0.166409  0.055491  1
  Al  Al6  1  0.146861  0.832370  0.561248  1
  Al  Al7  1  0.853139  0.167630  0.438753  1
  Al  Al8  1  0.479732  0.166835  0.558622  1
  Al  Al9  1  0.520264  0.833167  0.441380  1
  Al  Al10  1  0.217087  0.165273  0.330103  1
  Al  Al11  1  0.782929  0.834796  0.669868  1
  Al  Al12  1  0.437853  0.506191  0.669876  1
  Al  Al13  1  0.562078  0.493811  0.330098  1
  Al  Al14  1  0.109825  0.159943  0.669092  1
  Al  Al15  1  0.890265  0.839976  0.330874  1
  Al  Al16  1  0.353077  0.499166  0.944736  1
  Al  Al17  1  0.646839  0.500831  0.055321  1
  Al  Al18  1  0.014899  0.167762  0.953205  1
  Al  Al19  1  0.985156  0.832179  0.046820  1
  Al  Al20  1  0.186779  0.498930  0.441280  1
  Al  Al21  1  0.813231  0.501070  0.558694  1
  Al  Al22  1  0.734331  0.164032  0.183379  1
  Al  Al23  1  0.265587  0.836025  0.816623  1
  Al  Al24  1  0.061763  0.631659  0.815405  1
  Al  Al25  1  0.938305  0.368365  0.184596  1
  Al  Al26  1  0.855067  0.041575  0.815957  1
  Al  Al27  1  0.144957  0.958325  0.184046  1
  Pt  Pt28  1  0.120105  0.492247  0.638661  1
  Pt  Pt29  1  0.879980  0.507755  0.361300  1
  Pt  Pt30  1  0.657280  0.171203  0.999966  1
  Pt  Pt31  1  0.342685  0.828802  0.000067  1
  Pt  Pt32  1  0.538049  0.166787  0.361290  1
  Pt  Pt33  1  0.461893  0.833285  0.638669  1
  Pt  Pt34  1  0.779120  0.174858  0.637149  1
  Pt  Pt35  1  0.220900  0.825068  0.362811  1
  Pt  Pt36  1  0.000015  0.500005  0.000018  1
