# generated using pymatgen
data_SmP2IrPd
_symmetry_space_group_name_H-M   'P 1'
_cell_length_a   4.23820000
_cell_length_b   4.23820000
_cell_length_c   9.55575800
_cell_angle_alpha   90.00000000
_cell_angle_beta   90.00000000
_cell_angle_gamma   90.00000000
_symmetry_Int_Tables_number   1
_chemical_formula_structural   SmP2IrPd
_chemical_formula_sum   'Sm2 P4 Ir2 Pd2'
_cell_volume   171.64376689
_cell_formula_units_Z   2
loop_
 _symmetry_equiv_pos_site_id
 _symmetry_equiv_pos_as_xyz
  1  'x, y, z'
loop_
 _atom_site_type_symbol
 _atom_site_label
 _atom_site_symmetry_multiplicity
 _atom_site_fract_x
 _atom_site_fract_y
 _atom_site_fract_z
 _atom_site_occupancy
  Sm  Sm0  1  0.000000  0.500000  0.243729  1
  Sm  Sm1  1  0.500000  0.000000  0.756271  1
  P  P2  1  0.000000  0.000000  0.000000  1
  P  P3  1  0.500000  0.500000  0.000000  1
  P  P4  1  0.000000  0.500000  0.643858  1
  P  P5  1  0.500000  0.000000  0.356142  1
  Ir  Ir6  1  0.000000  0.500000  0.891263  1
  Ir  Ir7  1  0.500000  0.000000  0.108737  1
  Pd  Pd8  1  0.000000  0.000000  0.500000  1
  Pd  Pd9  1  0.500000  0.500000  0.500000  1
