# generated using pymatgen
data_Tb11Er5(CoAg)4
_symmetry_space_group_name_H-M   'P 1'
_cell_length_a   9.40491318
_cell_length_b   9.40491243
_cell_length_c   9.40575900
_cell_angle_alpha   59.99702584
_cell_angle_beta   59.99702850
_cell_angle_gamma   59.95535956
_symmetry_Int_Tables_number   1
_chemical_formula_structural   Tb11Er5(CoAg)4
_chemical_formula_sum   'Tb11 Er5 Co4 Ag4'
_cell_volume   588.06070577
_cell_formula_units_Z   1
loop_
 _symmetry_equiv_pos_site_id
 _symmetry_equiv_pos_as_xyz
  1  'x, y, z'
loop_
 _atom_site_type_symbol
 _atom_site_label
 _atom_site_symmetry_multiplicity
 _atom_site_fract_x
 _atom_site_fract_y
 _atom_site_fract_z
 _atom_site_occupancy
  Tb  Tb0  1  0.813222  0.813222  0.186778  1
  Tb  Tb1  1  0.938214  0.561630  0.562549  1
  Tb  Tb2  1  0.561630  0.938214  0.937607  1
  Tb  Tb3  1  0.561631  0.938214  0.562549  1
  Tb  Tb4  1  0.938214  0.561630  0.937607  1
  Tb  Tb5  1  0.561883  0.561882  0.938118  1
  Tb  Tb6  1  0.937975  0.937975  0.562025  1
  Tb  Tb7  1  0.349068  0.349068  0.348857  1
  Tb  Tb8  1  0.349068  0.349068  0.953006  1
  Tb  Tb9  1  0.348395  0.953155  0.349225  1
  Tb  Tb10  1  0.953155  0.348395  0.349225  1
  Er  Er11  1  0.813322  0.187433  0.186479  1
  Er  Er12  1  0.187433  0.813322  0.812766  1
  Er  Er13  1  0.187433  0.813322  0.186479  1
  Er  Er14  1  0.813322  0.187433  0.812766  1
  Er  Er15  1  0.186601  0.186601  0.813399  1
  Co  Co16  1  0.140877  0.140877  0.140950  1
  Co  Co17  1  0.140877  0.140877  0.577297  1
  Co  Co18  1  0.141009  0.577079  0.140956  1
  Co  Co19  1  0.577079  0.141009  0.140956  1
  Ag  Ag20  1  0.581431  0.581431  0.581887  1
  Ag  Ag21  1  0.581431  0.581431  0.255251  1
  Ag  Ag22  1  0.581612  0.255118  0.581635  1
  Ag  Ag23  1  0.255118  0.581612  0.581635  1
