# generated using pymatgen
data_Zr10SnBi4Au
_symmetry_space_group_name_H-M   'P 1'
_cell_length_a   5.68342251
_cell_length_b   8.55462000
_cell_length_c   8.55461922
_cell_angle_alpha   96.33528745
_cell_angle_beta   109.40140966
_cell_angle_gamma   70.59858027
_symmetry_Int_Tables_number   1
_chemical_formula_structural   Zr10SnBi4Au
_chemical_formula_sum   'Zr10 Sn1 Bi4 Au1'
_cell_volume   370.02600399
_cell_formula_units_Z   1
loop_
 _symmetry_equiv_pos_site_id
 _symmetry_equiv_pos_as_xyz
  1  'x, y, z'
loop_
 _atom_site_type_symbol
 _atom_site_label
 _atom_site_symmetry_multiplicity
 _atom_site_fract_x
 _atom_site_fract_y
 _atom_site_fract_z
 _atom_site_occupancy
  Zr  Zr0  1  0.424887  0.856975  0.706400  1
  Zr  Zr1  1  0.575463  0.143025  0.293600  1
  Zr  Zr2  1  0.924537  0.293600  0.143025  1
  Zr  Zr3  1  0.075113  0.706400  0.856975  1
  Zr  Zr4  1  0.718486  0.706400  0.143025  1
  Zr  Zr5  1  0.281862  0.293600  0.856975  1
  Zr  Zr6  1  0.781514  0.143025  0.706400  1
  Zr  Zr7  1  0.218138  0.856975  0.293600  1
  Zr  Zr8  1  0.250000  0.500000  0.500000  1
  Zr  Zr9  1  0.750000  0.500000  0.500000  1
  Sn  Sn10  1  0.250000  0.000000  0.000000  1
  Bi  Bi11  1  0.335017  0.500000  0.170036  1
  Bi  Bi12  1  0.664983  0.500000  0.829964  1
  Bi  Bi13  1  0.835017  0.829964  0.500000  1
  Bi  Bi14  1  0.164983  0.170036  0.500000  1
  Au  Au15  1  0.750000  0.000000  0.000000  1
