# generated using pymatgen
data_MnBe8V2Os
_symmetry_space_group_name_H-M   'P 1'
_cell_length_a   4.27137400
_cell_length_b   4.27137503
_cell_length_c   7.00908500
_cell_angle_alpha   90.00000000
_cell_angle_beta   90.00000000
_cell_angle_gamma   120.00000755
_symmetry_Int_Tables_number   1
_chemical_formula_structural   MnBe8V2Os
_chemical_formula_sum   'Mn1 Be8 V2 Os1'
_cell_volume   110.74579095
_cell_formula_units_Z   1
loop_
 _symmetry_equiv_pos_site_id
 _symmetry_equiv_pos_as_xyz
  1  'x, y, z'
loop_
 _atom_site_type_symbol
 _atom_site_label
 _atom_site_symmetry_multiplicity
 _atom_site_fract_x
 _atom_site_fract_y
 _atom_site_fract_z
 _atom_site_occupancy
  Mn  Mn0  1  0.666667  0.333333  0.564898  1
  Be  Be1  1  0.000000  0.000000  0.997731  1
  Be  Be2  1  0.000000  0.000000  0.500672  1
  Be  Be3  1  0.830223  0.660446  0.251963  1
  Be  Be4  1  0.169222  0.830778  0.747652  1
  Be  Be5  1  0.661555  0.830778  0.747652  1
  Be  Be6  1  0.339554  0.169777  0.251963  1
  Be  Be7  1  0.830223  0.169777  0.251963  1
  Be  Be8  1  0.169222  0.338445  0.747652  1
  V  V9  1  0.666667  0.333333  0.933208  1
  V  V10  1  0.333333  0.666667  0.441935  1
  Os  Os11  1  0.333333  0.666667  0.062707  1
