# generated using pymatgen
data_Sr2Cu3Au(SO4)8
_symmetry_space_group_name_H-M   'P 1'
_cell_length_a   9.19265687
_cell_length_b   9.22965143
_cell_length_c   10.65514189
_cell_angle_alpha   77.32406281
_cell_angle_beta   77.25709157
_cell_angle_gamma   116.12688271
_symmetry_Int_Tables_number   1
_chemical_formula_structural   Sr2Cu3Au(SO4)8
_chemical_formula_sum   'Sr2 Cu3 Au1 S8 O32'
_cell_volume   738.13119946
_cell_formula_units_Z   1
loop_
 _symmetry_equiv_pos_site_id
 _symmetry_equiv_pos_as_xyz
  1  'x, y, z'
loop_
 _atom_site_type_symbol
 _atom_site_label
 _atom_site_symmetry_multiplicity
 _atom_site_fract_x
 _atom_site_fract_y
 _atom_site_fract_z
 _atom_site_occupancy
  Sr  Sr0  1  0.127923  0.869953  0.248959  1
  Sr  Sr1  1  0.872077  0.130047  0.751041  1
  Cu  Cu2  1  0.500000  0.500000  0.000000  1
  Cu  Cu3  1  0.000000  0.500000  0.000000  1
  Cu  Cu4  1  0.500000  0.000000  0.500000  1
  Au  Au5  1  0.500000  0.500000  0.500000  1
  S  S6  1  0.848713  0.730443  0.999729  1
  S  S7  1  0.263176  0.143239  0.498698  1
  S  S8  1  0.151287  0.269557  0.000271  1
  S  S9  1  0.736824  0.856761  0.501302  1
  S  S10  1  0.630305  0.244258  0.036429  1
  S  S11  1  0.763280  0.366235  0.463772  1
  S  S12  1  0.369695  0.755742  0.963571  1
  S  S13  1  0.236720  0.633765  0.536228  1
  O  O14  1  0.660102  0.586852  0.086808  1
  O  O15  1  0.407625  0.330485  0.403365  1
  O  O16  1  0.339898  0.413148  0.913192  1
  O  O17  1  0.592375  0.669515  0.596635  1
  O  O18  1  0.943217  0.659825  0.917998  1
  O  O19  1  0.339341  0.056662  0.580755  1
  O  O20  1  0.056783  0.340175  0.082002  1
  O  O21  1  0.660659  0.943338  0.419245  1
  O  O22  1  0.849749  0.860910  0.893777  1
  O  O23  1  0.137731  0.149586  0.604024  1
  O  O24  1  0.150251  0.139090  0.106223  1
  O  O25  1  0.862269  0.850414  0.395976  1
  O  O26  1  0.926640  0.786193  0.097485  1
  O  O27  1  0.202379  0.058123  0.406614  1
  O  O28  1  0.073360  0.213807  0.902515  1
  O  O29  1  0.797621  0.941877  0.593386  1
  O  O30  1  0.762862  0.335099  0.099051  1
  O  O31  1  0.666157  0.236207  0.402030  1
  O  O32  1  0.237138  0.664901  0.900949  1
  O  O33  1  0.333843  0.763793  0.597970  1
  O  O34  1  0.599359  0.373169  0.945272  1
  O  O35  1  0.634092  0.391291  0.564101  1
  O  O36  1  0.400641  0.626831  0.054728  1
  O  O37  1  0.365908  0.608709  0.435899  1
  O  O38  1  0.473256  0.114859  0.154434  1
  O  O39  1  0.886075  0.525030  0.345919  1
  O  O40  1  0.526744  0.885141  0.845566  1
  O  O41  1  0.113925  0.474970  0.654081  1
  O  O42  1  0.701069  0.180182  0.940694  1
  O  O43  1  0.834784  0.296872  0.552214  1
  O  O44  1  0.298931  0.819818  0.059306  1
  O  O45  1  0.165216  0.703128  0.447786  1
