# generated using pymatgen
data_K2VFeSe4
_symmetry_space_group_name_H-M   'P 1'
_cell_length_a   13.90606847
_cell_length_b   12.42019297
_cell_length_c   7.41558575
_cell_angle_alpha   85.05659867
_cell_angle_beta   62.85148867
_cell_angle_gamma   32.09190718
_symmetry_Int_Tables_number   1
_chemical_formula_structural   K2VFeSe4
_chemical_formula_sum   'K4 V2 Fe2 Se8'
_cell_volume   467.52718123
_cell_formula_units_Z   2
loop_
 _symmetry_equiv_pos_site_id
 _symmetry_equiv_pos_as_xyz
  1  'x, y, z'
loop_
 _atom_site_type_symbol
 _atom_site_label
 _atom_site_symmetry_multiplicity
 _atom_site_fract_x
 _atom_site_fract_y
 _atom_site_fract_z
 _atom_site_occupancy
  K  K0  1  0.678821  0.678821  0.321179  1
  K  K1  1  0.928821  0.928821  0.571179  1
  K  K2  1  0.321179  0.321179  0.678821  1
  K  K3  1  0.571179  0.571179  0.928821  1
  V  V4  1  0.750000  0.750000  0.750000  1
  V  V5  1  0.500000  0.500000  0.500000  1
  Fe  Fe6  1  0.000000  0.000000  0.000000  1
  Fe  Fe7  1  0.250000  0.250000  0.250000  1
  Se  Se8  1  0.034515  0.354894  0.662845  1
  Se  Se9  1  0.215485  0.895106  0.587155  1
  Se  Se10  1  0.895106  0.215485  0.302255  1
  Se  Se11  1  0.587155  0.302255  0.215485  1
  Se  Se12  1  0.947745  0.662845  0.354894  1
  Se  Se13  1  0.662845  0.947745  0.034515  1
  Se  Se14  1  0.354894  0.034515  0.947745  1
  Se  Se15  1  0.302255  0.587155  0.895106  1
