# generated using pymatgen
data_Tb3Dy(AlTc3)2
_symmetry_space_group_name_H-M   'P 1'
_cell_length_a   9.37653279
_cell_length_b   9.37653308
_cell_length_c   9.33824234
_cell_angle_alpha   34.03883128
_cell_angle_beta   34.03883122
_cell_angle_gamma   32.95324974
_symmetry_Int_Tables_number   1
_chemical_formula_structural   Tb3Dy(AlTc3)2
_chemical_formula_sum   'Tb3 Dy1 Al2 Tc6'
_cell_volume   224.74571959
_cell_formula_units_Z   1
loop_
 _symmetry_equiv_pos_site_id
 _symmetry_equiv_pos_as_xyz
  1  'x, y, z'
loop_
 _atom_site_type_symbol
 _atom_site_label
 _atom_site_symmetry_multiplicity
 _atom_site_fract_x
 _atom_site_fract_y
 _atom_site_fract_z
 _atom_site_occupancy
  Tb  Tb0  1  0.182217  0.182217  0.195587  1
  Tb  Tb1  1  0.817735  0.817735  0.804497  1
  Tb  Tb2  1  0.317803  0.317803  0.304417  1
  Dy  Dy3  1  0.681974  0.681974  0.695939  1
  Al  Al4  1  0.249894  0.249894  0.749848  1
  Al  Al5  1  0.750095  0.750095  0.250156  1
  Tc  Tc6  1  0.000100  0.000100  0.999891  1
  Tc  Tc7  1  0.500016  0.500016  0.499909  1
  Tc  Tc8  1  0.749716  0.250020  0.249937  1
  Tc  Tc9  1  0.250365  0.750064  0.749940  1
  Tc  Tc10  1  0.250020  0.749716  0.249937  1
  Tc  Tc11  1  0.750064  0.250365  0.749940  1
