# generated using pymatgen
data_Ho7Tm13(GaBi2)4
_symmetry_space_group_name_H-M   'P 1'
_cell_length_a   8.02388512
_cell_length_b   9.25345103
_cell_length_c   11.90473915
_cell_angle_alpha   90.00251238
_cell_angle_beta   89.98215106
_cell_angle_gamma   90.00852933
_symmetry_Int_Tables_number   1
_chemical_formula_structural   Ho7Tm13(GaBi2)4
_chemical_formula_sum   'Ho7 Tm13 Ga4 Bi8'
_cell_volume   883.91049493
_cell_formula_units_Z   1
loop_
 _symmetry_equiv_pos_site_id
 _symmetry_equiv_pos_as_xyz
  1  'x, y, z'
loop_
 _atom_site_type_symbol
 _atom_site_label
 _atom_site_symmetry_multiplicity
 _atom_site_fract_x
 _atom_site_fract_y
 _atom_site_fract_z
 _atom_site_occupancy
  Ho  Ho0  1  0.319283  0.053989  0.437625  1
  Ho  Ho1  1  0.819373  0.946067  0.062318  1
  Ho  Ho2  1  0.680674  0.553972  0.562372  1
  Ho  Ho3  1  0.644529  0.750013  0.294258  1
  Ho  Ho4  1  0.855355  0.749977  0.794351  1
  Ho  Ho5  1  0.355181  0.250223  0.706027  1
  Ho  Ho6  1  0.144909  0.250330  0.205275  1
  Tm  Tm7  1  0.820109  0.554326  0.062246  1
  Tm  Tm8  1  0.680145  0.945589  0.562508  1
  Tm  Tm9  1  0.179972  0.054751  0.937750  1
  Tm  Tm10  1  0.320017  0.445470  0.437525  1
  Tm  Tm11  1  0.180154  0.445391  0.937737  1
  Tm  Tm12  1  0.174132  0.749724  0.216482  1
  Tm  Tm13  1  0.325740  0.750154  0.716617  1
  Tm  Tm14  1  0.826089  0.249974  0.783654  1
  Tm  Tm15  1  0.674185  0.250359  0.283519  1
  Tm  Tm16  1  0.462259  0.750033  0.003315  1
  Tm  Tm17  1  0.037232  0.749695  0.503543  1
  Tm  Tm18  1  0.536891  0.250344  0.996525  1
  Tm  Tm19  1  0.962913  0.249943  0.496560  1
  Ga  Ga20  1  0.404184  0.749383  0.475960  1
  Ga  Ga21  1  0.096150  0.749377  0.975555  1
  Ga  Ga22  1  0.595696  0.249265  0.524069  1
  Ga  Ga23  1  0.904691  0.251281  0.023800  1
  Bi  Bi24  1  0.938154  0.509898  0.324870  1
  Bi  Bi25  1  0.561945  0.990191  0.824942  1
  Bi  Bi26  1  0.061893  0.010066  0.675180  1
  Bi  Bi27  1  0.438245  0.490029  0.174957  1
  Bi  Bi28  1  0.062131  0.490096  0.675382  1
  Bi  Bi29  1  0.438093  0.010003  0.174862  1
  Bi  Bi30  1  0.938209  0.990205  0.324976  1
  Bi  Bi31  1  0.561467  0.509882  0.825243  1
