# generated using pymatgen
data_Li10(In3Pt)3
_symmetry_space_group_name_H-M   'P 1'
_cell_length_a   7.27000980
_cell_length_b   7.27001120
_cell_length_c   9.73614632
_cell_angle_alpha   62.88392498
_cell_angle_beta   62.88391733
_cell_angle_gamma   77.12483455
_symmetry_Int_Tables_number   1
_chemical_formula_structural   Li10(In3Pt)3
_chemical_formula_sum   'Li10 In9 Pt3'
_cell_volume   407.60677088
_cell_formula_units_Z   1
loop_
 _symmetry_equiv_pos_site_id
 _symmetry_equiv_pos_as_xyz
  1  'x, y, z'
loop_
 _atom_site_type_symbol
 _atom_site_label
 _atom_site_symmetry_multiplicity
 _atom_site_fract_x
 _atom_site_fract_y
 _atom_site_fract_z
 _atom_site_occupancy
  Li  Li0  1  0.543642  0.059095  0.158748  1
  Li  Li1  1  0.547023  0.547023  0.677514  1
  Li  Li2  1  0.059095  0.543642  0.158748  1
  Li  Li3  1  0.452977  0.452977  0.322486  1
  Li  Li4  1  0.275924  0.724076  0.500000  1
  Li  Li5  1  0.256835  0.256835  0.977425  1
  Li  Li6  1  0.940905  0.456358  0.841252  1
  Li  Li7  1  0.743165  0.743165  0.022575  1
  Li  Li8  1  0.456358  0.940905  0.841252  1
  Li  Li9  1  0.724076  0.275924  0.500000  1
  In  In10  1  0.225712  0.825692  0.201114  1
  In  In11  1  0.170088  0.170088  0.397637  1
  In  In12  1  0.260506  0.260506  0.666549  1
  In  In13  1  0.825692  0.225712  0.201114  1
  In  In14  1  0.739494  0.739494  0.333451  1
  In  In15  1  0.500000  0.500000  0.000000  1
  In  In16  1  0.774288  0.174308  0.798886  1
  In  In17  1  0.174308  0.774288  0.798886  1
  In  In18  1  0.829912  0.829912  0.602363  1
  Pt  Pt19  1  0.500000  0.000000  0.500000  1
  Pt  Pt20  1  0.000000  0.000000  0.000000  1
  Pt  Pt21  1  0.000000  0.500000  0.500000  1
