# generated using pymatgen
data_Er3Tm5(WO6)4
_symmetry_space_group_name_H-M   'P 1'
_cell_length_a   7.63381172
_cell_length_b   5.34286900
_cell_length_c   11.37969474
_cell_angle_alpha   90.00000000
_cell_angle_beta   104.58301310
_cell_angle_gamma   90.00000000
_symmetry_Int_Tables_number   1
_chemical_formula_structural   Er3Tm5(WO6)4
_chemical_formula_sum   'Er3 Tm5 W4 O24'
_cell_volume   449.18470264
_cell_formula_units_Z   1
loop_
 _symmetry_equiv_pos_site_id
 _symmetry_equiv_pos_as_xyz
  1  'x, y, z'
loop_
 _atom_site_type_symbol
 _atom_site_label
 _atom_site_symmetry_multiplicity
 _atom_site_fract_x
 _atom_site_fract_y
 _atom_site_fract_z
 _atom_site_occupancy
  Er  Er0  1  0.500000  0.684982  0.250000  1
  Er  Er1  1  0.000000  0.259982  0.750000  1
  Er  Er2  1  0.500000  0.315727  0.750000  1
  Tm  Tm3  1  0.204841  0.185031  0.079085  1
  Tm  Tm4  1  0.000000  0.739499  0.250000  1
  Tm  Tm5  1  0.795159  0.185031  0.420914  1
  Tm  Tm6  1  0.204730  0.814492  0.578577  1
  Tm  Tm7  1  0.795271  0.814492  0.921423  1
  W  W8  1  0.724108  0.254886  0.114424  1
  W  W9  1  0.275892  0.254886  0.385576  1
  W  W10  1  0.723256  0.745342  0.613838  1
  W  W11  1  0.276745  0.745342  0.886163  1
  O  O12  1  0.365379  0.853120  0.049908  1
  O  O13  1  0.847974  0.536142  0.068876  1
  O  O14  1  0.942040  0.041665  0.105310  1
  O  O15  1  0.488825  0.361857  0.114473  1
  O  O16  1  0.206702  0.458839  0.226126  1
  O  O17  1  0.710938  0.978418  0.229308  1
  O  O18  1  0.289062  0.978418  0.270692  1
  O  O19  1  0.793299  0.458839  0.273875  1
  O  O20  1  0.511175  0.361857  0.385527  1
  O  O21  1  0.057960  0.041665  0.394689  1
  O  O22  1  0.152026  0.536142  0.431124  1
  O  O23  1  0.634621  0.853120  0.450092  1
  O  O24  1  0.363907  0.147785  0.549539  1
  O  O25  1  0.846252  0.463731  0.568097  1
  O  O26  1  0.941611  0.956981  0.604124  1
  O  O27  1  0.487984  0.637675  0.613700  1
  O  O28  1  0.207728  0.542239  0.726301  1
  O  O29  1  0.710416  0.021700  0.728805  1
  O  O30  1  0.289584  0.021700  0.771195  1
  O  O31  1  0.792272  0.542239  0.773698  1
  O  O32  1  0.512015  0.637675  0.886300  1
  O  O33  1  0.058389  0.956981  0.895876  1
  O  O34  1  0.153749  0.463731  0.931903  1
  O  O35  1  0.636093  0.147785  0.950461  1
