# generated using pymatgen
data_TbPa2(ZnPt)3
_symmetry_space_group_name_H-M   'P 1'
_cell_length_a   7.39066800
_cell_length_b   7.35351583
_cell_length_c   3.83186500
_cell_angle_alpha   90.00000000
_cell_angle_beta   90.00000000
_cell_angle_gamma   120.16726096
_symmetry_Int_Tables_number   1
_chemical_formula_structural   TbPa2(ZnPt)3
_chemical_formula_sum   'Tb1 Pa2 Zn3 Pt3'
_cell_volume   180.04667797
_cell_formula_units_Z   1
loop_
 _symmetry_equiv_pos_site_id
 _symmetry_equiv_pos_as_xyz
  1  'x, y, z'
loop_
 _atom_site_type_symbol
 _atom_site_label
 _atom_site_symmetry_multiplicity
 _atom_site_fract_x
 _atom_site_fract_y
 _atom_site_fract_z
 _atom_site_occupancy
  Tb  Tb0  1  0.401752  0.000000  0.000000  1
  Pa  Pa1  1  0.002871  0.409446  0.000000  1
  Pa  Pa2  1  0.593425  0.590554  0.000000  1
  Zn  Zn3  1  0.011191  0.758994  0.500000  1
  Zn  Zn4  1  0.252196  0.241006  0.500000  1
  Zn  Zn5  1  0.737018  0.000000  0.500000  1
  Pt  Pt6  1  0.985950  0.000000  0.000000  1
  Pt  Pt7  1  0.332062  0.648529  0.500000  1
  Pt  Pt8  1  0.683534  0.351471  0.500000  1
