# generated using pymatgen
data_Ba3EuZrSe6
_symmetry_space_group_name_H-M   'P 1'
_cell_length_a   8.82265261
_cell_length_b   8.82265261
_cell_length_c   8.82265271
_cell_angle_alpha   91.60643272
_cell_angle_beta   91.60643873
_cell_angle_gamma   91.60643105
_symmetry_Int_Tables_number   1
_chemical_formula_structural   Ba3EuZrSe6
_chemical_formula_sum   'Ba6 Eu2 Zr2 Se12'
_cell_volume   685.92302199
_cell_formula_units_Z   2
loop_
 _symmetry_equiv_pos_site_id
 _symmetry_equiv_pos_as_xyz
  1  'x, y, z'
loop_
 _atom_site_type_symbol
 _atom_site_label
 _atom_site_symmetry_multiplicity
 _atom_site_fract_x
 _atom_site_fract_y
 _atom_site_fract_z
 _atom_site_occupancy
  Ba  Ba0  1  0.874049  0.625951  0.250000  1
  Ba  Ba1  1  0.250000  0.874049  0.625951  1
  Ba  Ba2  1  0.625951  0.250000  0.874049  1
  Ba  Ba3  1  0.750000  0.125951  0.374049  1
  Ba  Ba4  1  0.374049  0.750000  0.125951  1
  Ba  Ba5  1  0.125951  0.374049  0.750000  1
  Eu  Eu6  1  0.250000  0.250000  0.250000  1
  Eu  Eu7  1  0.750000  0.750000  0.750000  1
  Zr  Zr8  1  0.500000  0.500000  0.500000  1
  Zr  Zr9  1  0.000000  0.000000  0.000000  1
  Se  Se10  1  0.204976  0.549631  0.417490  1
  Se  Se11  1  0.417490  0.204976  0.549631  1
  Se  Se12  1  0.549631  0.417490  0.204976  1
  Se  Se13  1  0.917490  0.049631  0.704976  1
  Se  Se14  1  0.704976  0.917490  0.049631  1
  Se  Se15  1  0.049631  0.704976  0.917490  1
  Se  Se16  1  0.795024  0.450369  0.582510  1
  Se  Se17  1  0.582510  0.795024  0.450369  1
  Se  Se18  1  0.450369  0.582510  0.795024  1
  Se  Se19  1  0.082510  0.950369  0.295024  1
  Se  Se20  1  0.295024  0.082510  0.950369  1
  Se  Se21  1  0.950369  0.295024  0.082510  1
