# generated using pymatgen
data_Tb4YEr5Sb6
_symmetry_space_group_name_H-M   'P 1'
_cell_length_a   8.96378138
_cell_length_b   8.96505903
_cell_length_c   6.27534500
_cell_angle_alpha   90.00000000
_cell_angle_beta   90.00000000
_cell_angle_gamma   120.00471473
_symmetry_Int_Tables_number   1
_chemical_formula_structural   Tb4YEr5Sb6
_chemical_formula_sum   'Tb4 Y1 Er5 Sb6'
_cell_volume   436.70887031
_cell_formula_units_Z   1
loop_
 _symmetry_equiv_pos_site_id
 _symmetry_equiv_pos_as_xyz
  1  'x, y, z'
loop_
 _atom_site_type_symbol
 _atom_site_label
 _atom_site_symmetry_multiplicity
 _atom_site_fract_x
 _atom_site_fract_y
 _atom_site_fract_z
 _atom_site_occupancy
  Tb  Tb0  1  0.753673  0.752879  0.250000  1
  Tb  Tb1  1  0.753773  0.001116  0.750000  1
  Tb  Tb2  1  0.246227  0.247343  0.750000  1
  Tb  Tb3  1  0.246327  0.999206  0.250000  1
  Y  Y4  1  0.000000  0.752213  0.750000  1
  Er  Er5  1  0.000000  0.247662  0.250000  1
  Er  Er6  1  0.333961  0.666924  0.499996  1
  Er  Er7  1  0.666039  0.332962  0.000004  1
  Er  Er8  1  0.666039  0.332962  0.499996  1
  Er  Er9  1  0.333961  0.666924  0.000004  1
  Sb  Sb10  1  0.389181  0.999556  0.750000  1
  Sb  Sb11  1  0.388560  0.389487  0.250000  1
  Sb  Sb12  1  0.000000  0.608211  0.250000  1
  Sb  Sb13  1  0.000000  0.391252  0.750000  1
  Sb  Sb14  1  0.610819  0.610376  0.750000  1
  Sb  Sb15  1  0.611440  0.000928  0.250000  1
