# generated using pymatgen
data_Ho2TmLu2Co19P12
_symmetry_space_group_name_H-M   'P 1'
_cell_length_a   11.94839200
_cell_length_b   11.94841588
_cell_length_c   3.64817800
_cell_angle_alpha   90.00000000
_cell_angle_beta   90.00000000
_cell_angle_gamma   119.99993943
_symmetry_Int_Tables_number   1
_chemical_formula_structural   Ho2TmLu2Co19P12
_chemical_formula_sum   'Ho2 Tm1 Lu2 Co19 P12'
_cell_volume   451.05210034
_cell_formula_units_Z   1
loop_
 _symmetry_equiv_pos_site_id
 _symmetry_equiv_pos_as_xyz
  1  'x, y, z'
loop_
 _atom_site_type_symbol
 _atom_site_label
 _atom_site_symmetry_multiplicity
 _atom_site_fract_x
 _atom_site_fract_y
 _atom_site_fract_z
 _atom_site_occupancy
  Ho  Ho0  1  0.333348  0.666727  0.500000  1
  Ho  Ho1  1  0.666622  0.333273  0.500000  1
  Tm  Tm2  1  0.186230  0.000000  0.000000  1
  Lu  Lu3  1  0.000033  0.186201  0.000000  1
  Lu  Lu4  1  0.813832  0.813799  0.000000  1
  Co  Co5  1  0.198248  0.376222  0.500000  1
  Co  Co6  1  0.624128  0.822276  0.500000  1
  Co  Co7  1  0.177530  0.801050  0.500000  1
  Co  Co8  1  0.822025  0.623778  0.500000  1
  Co  Co9  1  0.801852  0.177724  0.500000  1
  Co  Co10  1  0.376481  0.198950  0.500000  1
  Co  Co11  1  0.552121  0.000000  0.500000  1
  Co  Co12  1  0.999644  0.551536  0.500000  1
  Co  Co13  1  0.448108  0.448464  0.500000  1
  Co  Co14  1  0.125226  0.482882  0.000000  1
  Co  Co15  1  0.517178  0.642533  0.000000  1
  Co  Co16  1  0.357683  0.874597  0.000000  1
  Co  Co17  1  0.642344  0.517118  0.000000  1
  Co  Co18  1  0.874644  0.357467  0.000000  1
  Co  Co19  1  0.483085  0.125403  0.000000  1
  Co  Co20  1  0.716174  0.000000  0.000000  1
  Co  Co21  1  0.999634  0.715683  0.000000  1
  Co  Co22  1  0.283952  0.284317  0.000000  1
  Co  Co23  1  0.999737  0.000000  0.500000  1
  P  P24  1  0.366723  0.000000  0.500000  1
  P  P25  1  0.999990  0.366105  0.500000  1
  P  P26  1  0.633886  0.633895  0.500000  1
  P  P27  1  0.314973  0.480147  0.000000  1
  P  P28  1  0.520219  0.834989  0.000000  1
  P  P29  1  0.164925  0.685000  0.000000  1
  P  P30  1  0.834826  0.519853  0.000000  1
  P  P31  1  0.685229  0.165011  0.000000  1
  P  P32  1  0.479925  0.315000  0.000000  1
  P  P33  1  0.821004  0.000000  0.500000  1
  P  P34  1  0.999485  0.820531  0.500000  1
  P  P35  1  0.178954  0.179469  0.500000  1
