# generated using pymatgen
data_YbDyY2(Mo2O7)2
_symmetry_space_group_name_H-M   'P 1'
_cell_length_a   7.30907222
_cell_length_b   7.31199894
_cell_length_c   7.42647473
_cell_angle_alpha   60.53342407
_cell_angle_beta   60.52158318
_cell_angle_gamma   60.01324041
_symmetry_Int_Tables_number   1
_chemical_formula_structural   YbDyY2(Mo2O7)2
_chemical_formula_sum   'Yb1 Dy1 Y2 Mo4 O14'
_cell_volume   282.89631126
_cell_formula_units_Z   1
loop_
 _symmetry_equiv_pos_site_id
 _symmetry_equiv_pos_as_xyz
  1  'x, y, z'
loop_
 _atom_site_type_symbol
 _atom_site_label
 _atom_site_symmetry_multiplicity
 _atom_site_fract_x
 _atom_site_fract_y
 _atom_site_fract_z
 _atom_site_occupancy
  Yb  Yb0  1  0.125000  0.125000  0.625000  1
  Dy  Dy1  1  0.125000  0.625000  0.125000  1
  Y  Y2  1  0.625000  0.125000  0.125000  1
  Y  Y3  1  0.125000  0.125000  0.125000  1
  Mo  Mo4  1  0.125000  0.625000  0.625000  1
  Mo  Mo5  1  0.625000  0.125000  0.625000  1
  Mo  Mo6  1  0.625000  0.625000  0.125000  1
  Mo  Mo7  1  0.625000  0.625000  0.625000  1
  O  O8  1  0.708906  0.708309  0.285764  1
  O  O9  1  0.288373  0.288376  0.724032  1
  O  O10  1  0.699217  0.288376  0.724032  1
  O  O11  1  0.297021  0.708309  0.285764  1
  O  O12  1  0.288161  0.699151  0.724527  1
  O  O13  1  0.708369  0.297343  0.285918  1
  O  O14  1  0.541094  0.541691  0.964236  1
  O  O15  1  0.961627  0.961624  0.525968  1
  O  O16  1  0.550783  0.961624  0.525968  1
  O  O17  1  0.952979  0.541691  0.964236  1
  O  O18  1  0.961839  0.550849  0.525473  1
  O  O19  1  0.541631  0.952657  0.964082  1
  O  O20  1  0.251885  0.252315  0.243914  1
  O  O21  1  0.998115  0.997685  0.006086  1
