# generated using pymatgen
data_Ho5Er3Sc12Si15Os
_symmetry_space_group_name_H-M   'P 1'
_cell_length_a   7.06862707
_cell_length_b   7.42262519
_cell_length_c   13.93158905
_cell_angle_alpha   89.99510513
_cell_angle_beta   89.99163462
_cell_angle_gamma   90.20588635
_symmetry_Int_Tables_number   1
_chemical_formula_structural   Ho5Er3Sc12Si15Os
_chemical_formula_sum   'Ho5 Er3 Sc12 Si15 Os1'
_cell_volume   730.95467159
_cell_formula_units_Z   1
loop_
 _symmetry_equiv_pos_site_id
 _symmetry_equiv_pos_as_xyz
  1  'x, y, z'
loop_
 _atom_site_type_symbol
 _atom_site_label
 _atom_site_symmetry_multiplicity
 _atom_site_fract_x
 _atom_site_fract_y
 _atom_site_fract_z
 _atom_site_occupancy
  Ho  Ho0  1  0.990872  0.827862  0.596207  1
  Ho  Ho1  1  0.511031  0.322895  0.096096  1
  Ho  Ho2  1  0.011306  0.179028  0.403878  1
  Ho  Ho3  1  0.510941  0.322903  0.403761  1
  Ho  Ho4  1  0.488522  0.676785  0.595723  1
  Er  Er5  1  0.011384  0.179120  0.096184  1
  Er  Er6  1  0.990890  0.827882  0.903688  1
  Er  Er7  1  0.488462  0.677194  0.904137  1
  Sc  Sc8  1  0.156248  0.497764  0.750096  1
  Sc  Sc9  1  0.838137  0.495194  0.249950  1
  Sc  Sc10  1  0.339211  0.005832  0.249954  1
  Sc  Sc11  1  0.668732  0.997396  0.750098  1
  Sc  Sc12  1  0.317953  0.171996  0.627392  1
  Sc  Sc13  1  0.671938  0.825525  0.373764  1
  Sc  Sc14  1  0.171184  0.678167  0.374025  1
  Sc  Sc15  1  0.671894  0.825519  0.126113  1
  Sc  Sc16  1  0.837434  0.318906  0.627541  1
  Sc  Sc17  1  0.317677  0.171890  0.872728  1
  Sc  Sc18  1  0.837558  0.318790  0.872558  1
  Sc  Sc19  1  0.171144  0.678236  0.125869  1
  Si  Si20  1  0.968815  0.886065  0.249906  1
  Si  Si21  1  0.469234  0.613688  0.249971  1
  Si  Si22  1  0.529330  0.389833  0.750144  1
  Si  Si23  1  0.286405  0.865750  0.750280  1
  Si  Si24  1  0.713636  0.131019  0.249858  1
  Si  Si25  1  0.213532  0.370062  0.249841  1
  Si  Si26  1  0.778652  0.627499  0.750272  1
  Si  Si27  1  0.160175  0.468947  0.536931  1
  Si  Si28  1  0.843903  0.535851  0.461532  1
  Si  Si29  1  0.344530  0.966008  0.459974  1
  Si  Si30  1  0.843982  0.535807  0.038443  1
  Si  Si31  1  0.655721  0.034073  0.538186  1
  Si  Si32  1  0.160397  0.469221  0.963007  1
  Si  Si33  1  0.656007  0.033596  0.961719  1
  Si  Si34  1  0.344133  0.965937  0.039994  1
  Os  Os35  1  0.029030  0.107762  0.750182  1
