# generated using pymatgen
data_Y3Hg3Pd2
_symmetry_space_group_name_H-M   'P 1'
_cell_length_a   7.62906800
_cell_length_b   7.62906740
_cell_length_c   3.72461400
_cell_angle_alpha   90.00000000
_cell_angle_beta   90.00000000
_cell_angle_gamma   120.00000261
_symmetry_Int_Tables_number   1
_chemical_formula_structural   Y3Hg3Pd2
_chemical_formula_sum   'Y3 Hg3 Pd2'
_cell_volume   187.73914218
_cell_formula_units_Z   1
loop_
 _symmetry_equiv_pos_site_id
 _symmetry_equiv_pos_as_xyz
  1  'x, y, z'
loop_
 _atom_site_type_symbol
 _atom_site_label
 _atom_site_symmetry_multiplicity
 _atom_site_fract_x
 _atom_site_fract_y
 _atom_site_fract_z
 _atom_site_occupancy
  Y  Y0  1  0.584511  0.000000  0.500000  1
  Y  Y1  1  0.415488  0.415488  0.500000  1
  Y  Y2  1  0.000000  0.584512  0.500000  1
  Hg  Hg3  1  0.235936  0.000000  0.000000  1
  Hg  Hg4  1  0.000000  0.235936  0.000000  1
  Hg  Hg5  1  0.764064  0.764064  0.000000  1
  Pd  Pd6  1  0.666666  0.333333  0.000000  1
  Pd  Pd7  1  0.333334  0.666667  0.000000  1
