# generated using pymatgen
data_Gd4ScRh3
_symmetry_space_group_name_H-M   'P 1'
_cell_length_a   10.83819900
_cell_length_b   10.83819900
_cell_length_c   6.27029300
_cell_angle_alpha   90.00000000
_cell_angle_beta   90.00000000
_cell_angle_gamma   90.00000000
_symmetry_Int_Tables_number   1
_chemical_formula_structural   Gd4ScRh3
_chemical_formula_sum   'Gd16 Sc4 Rh12'
_cell_volume   736.54973363
_cell_formula_units_Z   4
loop_
 _symmetry_equiv_pos_site_id
 _symmetry_equiv_pos_as_xyz
  1  'x, y, z'
loop_
 _atom_site_type_symbol
 _atom_site_label
 _atom_site_symmetry_multiplicity
 _atom_site_fract_x
 _atom_site_fract_y
 _atom_site_fract_z
 _atom_site_occupancy
  Gd  Gd0  1  0.286792  0.086804  0.378208  1
  Gd  Gd1  1  0.286792  0.913196  0.878208  1
  Gd  Gd2  1  0.713208  0.086804  0.878208  1
  Gd  Gd3  1  0.713208  0.913196  0.378208  1
  Gd  Gd4  1  0.586804  0.786792  0.878208  1
  Gd  Gd5  1  0.586804  0.213208  0.378208  1
  Gd  Gd6  1  0.413196  0.786792  0.378208  1
  Gd  Gd7  1  0.413196  0.213208  0.878208  1
  Gd  Gd8  1  0.213208  0.413196  0.621792  1
  Gd  Gd9  1  0.213208  0.586804  0.121792  1
  Gd  Gd10  1  0.786792  0.413196  0.121792  1
  Gd  Gd11  1  0.786792  0.586804  0.621792  1
  Gd  Gd12  1  0.913196  0.713208  0.121792  1
  Gd  Gd13  1  0.913196  0.286792  0.621792  1
  Gd  Gd14  1  0.086804  0.713208  0.621792  1
  Gd  Gd15  1  0.086804  0.286792  0.121792  1
  Sc  Sc16  1  0.000000  0.000000  0.500000  1
  Sc  Sc17  1  0.000000  0.000000  0.000000  1
  Sc  Sc18  1  0.500000  0.500000  0.000000  1
  Sc  Sc19  1  0.500000  0.500000  0.500000  1
  Rh  Rh20  1  0.853446  0.146554  0.250000  1
  Rh  Rh21  1  0.853446  0.853446  0.750000  1
  Rh  Rh22  1  0.146554  0.146554  0.750000  1
  Rh  Rh23  1  0.146554  0.853446  0.250000  1
  Rh  Rh24  1  0.646554  0.353446  0.750000  1
  Rh  Rh25  1  0.646554  0.646554  0.250000  1
  Rh  Rh26  1  0.353446  0.353446  0.250000  1
  Rh  Rh27  1  0.353446  0.646554  0.750000  1
  Rh  Rh28  1  0.500000  0.000000  0.124255  1
  Rh  Rh29  1  0.500000  0.000000  0.624255  1
  Rh  Rh30  1  0.000000  0.500000  0.875745  1
  Rh  Rh31  1  0.000000  0.500000  0.375745  1
