# generated using pymatgen
data_TbAl5Os
_symmetry_space_group_name_H-M   'P 1'
_cell_length_a   7.65759784
_cell_length_b   7.65759680
_cell_length_c   9.53596800
_cell_angle_alpha   90.00000000
_cell_angle_beta   90.00000000
_cell_angle_gamma   118.94685654
_symmetry_Int_Tables_number   1
_chemical_formula_structural   TbAl5Os
_chemical_formula_sum   'Tb4 Al20 Os4'
_cell_volume   489.31906465
_cell_formula_units_Z   4
loop_
 _symmetry_equiv_pos_site_id
 _symmetry_equiv_pos_as_xyz
  1  'x, y, z'
loop_
 _atom_site_type_symbol
 _atom_site_label
 _atom_site_symmetry_multiplicity
 _atom_site_fract_x
 _atom_site_fract_y
 _atom_site_fract_z
 _atom_site_occupancy
  Tb  Tb0  1  0.995498  0.685933  0.250000  1
  Tb  Tb1  1  0.004502  0.314067  0.750000  1
  Tb  Tb2  1  0.685933  0.995498  0.250000  1
  Tb  Tb3  1  0.314067  0.004502  0.750000  1
  Al  Al4  1  0.152452  0.152452  0.250000  1
  Al  Al5  1  0.847548  0.847548  0.750000  1
  Al  Al6  1  0.003537  0.353415  0.077554  1
  Al  Al7  1  0.996463  0.646585  0.922446  1
  Al  Al8  1  0.996463  0.646585  0.577554  1
  Al  Al9  1  0.353415  0.003537  0.422446  1
  Al  Al10  1  0.003537  0.353415  0.422446  1
  Al  Al11  1  0.646585  0.996463  0.577554  1
  Al  Al12  1  0.646585  0.996463  0.922446  1
  Al  Al13  1  0.353415  0.003537  0.077554  1
  Al  Al14  1  0.349011  0.349011  0.557841  1
  Al  Al15  1  0.650989  0.650989  0.442159  1
  Al  Al16  1  0.650989  0.650989  0.057841  1
  Al  Al17  1  0.349011  0.349011  0.942159  1
  Al  Al18  1  0.336679  0.559048  0.250000  1
  Al  Al19  1  0.663321  0.440952  0.750000  1
  Al  Al20  1  0.559048  0.336679  0.250000  1
  Al  Al21  1  0.440952  0.663321  0.750000  1
  Al  Al22  1  0.000000  0.000000  0.000000  1
  Al  Al23  1  0.000000  0.000000  0.500000  1
  Os  Os24  1  0.672253  0.327747  0.000000  1
  Os  Os25  1  0.327747  0.672253  0.000000  1
  Os  Os26  1  0.327747  0.672253  0.500000  1
  Os  Os27  1  0.672253  0.327747  0.500000  1
