# generated using pymatgen
data_Ca2Y2Ru3RhO14
_symmetry_space_group_name_H-M   'P 1'
_cell_length_a   7.24121209
_cell_length_b   7.24121203
_cell_length_c   7.22047229
_cell_angle_alpha   60.62792552
_cell_angle_beta   60.62792357
_cell_angle_gamma   60.54233260
_symmetry_Int_Tables_number   1
_chemical_formula_structural   Ca2Y2Ru3RhO14
_chemical_formula_sum   'Ca2 Y2 Ru3 Rh1 O14'
_cell_volume   271.33904400
_cell_formula_units_Z   1
loop_
 _symmetry_equiv_pos_site_id
 _symmetry_equiv_pos_as_xyz
  1  'x, y, z'
loop_
 _atom_site_type_symbol
 _atom_site_label
 _atom_site_symmetry_multiplicity
 _atom_site_fract_x
 _atom_site_fract_y
 _atom_site_fract_z
 _atom_site_occupancy
  Ca  Ca0  1  0.625000  0.625000  0.125000  1
  Ca  Ca1  1  0.625000  0.625000  0.625000  1
  Y  Y2  1  0.625000  0.125000  0.625000  1
  Y  Y3  1  0.125000  0.625000  0.625000  1
  Ru  Ru4  1  0.625000  0.125000  0.125000  1
  Ru  Ru5  1  0.125000  0.625000  0.125000  1
  Ru  Ru6  1  0.125000  0.125000  0.625000  1
  Rh  Rh7  1  0.125000  0.125000  0.125000  1
  O  O8  1  0.209346  0.209346  0.788170  1
  O  O9  1  0.199998  0.792661  0.209888  1
  O  O10  1  0.457339  0.050002  0.040112  1
  O  O11  1  0.198728  0.802533  0.801094  1
  O  O12  1  0.051272  0.447467  0.448906  1
  O  O13  1  0.807234  0.807234  0.196561  1
  O  O14  1  0.442766  0.442766  0.053439  1
  O  O15  1  0.494553  0.494553  0.506029  1
  O  O16  1  0.040654  0.040654  0.461830  1
  O  O17  1  0.447467  0.051272  0.448906  1
  O  O18  1  0.050002  0.457339  0.040112  1
  O  O19  1  0.755447  0.755447  0.743971  1
  O  O20  1  0.802533  0.198728  0.801094  1
  O  O21  1  0.792661  0.199998  0.209888  1
