# generated using pymatgen
data_V2Pt(O3F)2
_symmetry_space_group_name_H-M   'P 1'
_cell_length_a   5.15176500
_cell_length_b   5.15176443
_cell_length_c   6.82567700
_cell_angle_alpha   90.00000000
_cell_angle_beta   90.00000000
_cell_angle_gamma   119.99999721
_symmetry_Int_Tables_number   1
_chemical_formula_structural   V2Pt(O3F)2
_chemical_formula_sum   'V2 Pt1 O6 F2'
_cell_volume   156.88752718
_cell_formula_units_Z   1
loop_
 _symmetry_equiv_pos_site_id
 _symmetry_equiv_pos_as_xyz
  1  'x, y, z'
loop_
 _atom_site_type_symbol
 _atom_site_label
 _atom_site_symmetry_multiplicity
 _atom_site_fract_x
 _atom_site_fract_y
 _atom_site_fract_z
 _atom_site_occupancy
  V  V0  1  0.333333  0.666667  0.251968  1
  V  V1  1  0.666666  0.333333  0.748032  1
  Pt  Pt2  1  0.000000  0.000000  0.000000  1
  O  O3  1  0.290068  0.331914  0.169568  1
  O  O4  1  0.041845  0.709931  0.169568  1
  O  O5  1  0.668086  0.958153  0.169568  1
  O  O6  1  0.331914  0.041845  0.830433  1
  O  O7  1  0.958155  0.290069  0.830433  1
  O  O8  1  0.709931  0.668086  0.830433  1
  F  F9  1  0.666666  0.333333  0.487932  1
  F  F10  1  0.333333  0.666667  0.512068  1
