# generated using pymatgen
data_Rb3WF7
_symmetry_space_group_name_H-M   'P 1'
_cell_length_a   6.20112146
_cell_length_b   6.20115134
_cell_length_c   7.11899136
_cell_angle_alpha   113.32439326
_cell_angle_beta   113.32375082
_cell_angle_gamma   89.16913689
_symmetry_Int_Tables_number   1
_chemical_formula_structural   Rb3WF7
_chemical_formula_sum   'Rb3 W1 F7'
_cell_volume   227.53134024
_cell_formula_units_Z   1
loop_
 _symmetry_equiv_pos_site_id
 _symmetry_equiv_pos_as_xyz
  1  'x, y, z'
loop_
 _atom_site_type_symbol
 _atom_site_label
 _atom_site_symmetry_multiplicity
 _atom_site_fract_x
 _atom_site_fract_y
 _atom_site_fract_z
 _atom_site_occupancy
  Rb  Rb0  1  0.494116  0.494118  0.990949  1
  Rb  Rb1  1  0.766295  0.237931  0.506114  1
  Rb  Rb2  1  0.237930  0.766299  0.506117  1
  W  W3  1  0.956103  0.956101  0.970566  1
  F  F4  1  0.864114  0.864117  0.186650  1
  F  F5  1  0.976999  0.291804  0.208015  1
  F  F6  1  0.291804  0.976993  0.208007  1
  F  F7  1  0.669241  0.669257  0.756214  1
  F  F8  1  0.668303  0.084109  0.788557  1
  F  F9  1  0.084094  0.668287  0.788552  1
  F  F10  1  0.115993  0.115977  0.840280  1
