# generated using pymatgen
data_Nd9Y(LuIn10)2
_symmetry_space_group_name_H-M   'P 1'
_cell_length_a   6.67546464
_cell_length_b   10.54240800
_cell_length_c   12.45263211
_cell_angle_alpha   90.00000000
_cell_angle_beta   89.94151358
_cell_angle_gamma   90.00000000
_symmetry_Int_Tables_number   1
_chemical_formula_structural   Nd9Y(LuIn10)2
_chemical_formula_sum   'Nd9 Y1 Lu2 In20'
_cell_volume   876.35940396
_cell_formula_units_Z   1
loop_
 _symmetry_equiv_pos_site_id
 _symmetry_equiv_pos_as_xyz
  1  'x, y, z'
loop_
 _atom_site_type_symbol
 _atom_site_label
 _atom_site_symmetry_multiplicity
 _atom_site_fract_x
 _atom_site_fract_y
 _atom_site_fract_z
 _atom_site_occupancy
  Nd  Nd0  1  0.350096  0.750000  0.059630  1
  Nd  Nd1  1  0.887426  0.489992  0.143496  1
  Nd  Nd2  1  0.612796  0.011662  0.642907  1
  Nd  Nd3  1  0.109871  0.991157  0.855349  1
  Nd  Nd4  1  0.389771  0.509403  0.356077  1
  Nd  Nd5  1  0.109871  0.508843  0.855349  1
  Nd  Nd6  1  0.389771  0.990597  0.356077  1
  Nd  Nd7  1  0.887426  0.010008  0.143496  1
  Nd  Nd8  1  0.612796  0.488338  0.642907  1
  Y  Y9  1  0.150258  0.750000  0.558687  1
  Lu  Lu10  1  0.650474  0.250000  0.940226  1
  Lu  Lu11  1  0.849017  0.250000  0.440952  1
  In  In12  1  0.617459  0.750000  0.505554  1
  In  In13  1  0.876552  0.750000  0.002353  1
  In  In14  1  0.385618  0.250000  0.496398  1
  In  In15  1  0.112165  0.250000  0.996217  1
  In  In16  1  0.659802  0.750000  0.246212  1
  In  In17  1  0.846309  0.750000  0.743285  1
  In  In18  1  0.347778  0.250000  0.756048  1
  In  In19  1  0.152334  0.250000  0.256664  1
  In  In20  1  0.111881  0.750000  0.287649  1
  In  In21  1  0.389210  0.750000  0.782303  1
  In  In22  1  0.889551  0.250000  0.716322  1
  In  In23  1  0.612954  0.250000  0.217214  1
  In  In24  1  0.874514  0.543851  0.404707  1
  In  In25  1  0.624518  0.957154  0.902562  1
  In  In26  1  0.126623  0.045256  0.595853  1
  In  In27  1  0.373751  0.451203  0.096192  1
  In  In28  1  0.126623  0.454744  0.595853  1
  In  In29  1  0.373751  0.048797  0.096192  1
  In  In30  1  0.874514  0.956149  0.404707  1
  In  In31  1  0.624518  0.542846  0.902562  1
