# generated using pymatgen
data_Ta3Ti(AlRh5)2
_symmetry_space_group_name_H-M   'P 1'
_cell_length_a   4.03374700
_cell_length_b   5.46628520
_cell_length_c   10.72318529
_cell_angle_alpha   90.42321483
_cell_angle_beta   90.00000000
_cell_angle_gamma   90.00000000
_symmetry_Int_Tables_number   1
_chemical_formula_structural   Ta3Ti(AlRh5)2
_chemical_formula_sum   'Ta3 Ti1 Al2 Rh10'
_cell_volume   236.43561983
_cell_formula_units_Z   1
loop_
 _symmetry_equiv_pos_site_id
 _symmetry_equiv_pos_as_xyz
  1  'x, y, z'
loop_
 _atom_site_type_symbol
 _atom_site_label
 _atom_site_symmetry_multiplicity
 _atom_site_fract_x
 _atom_site_fract_y
 _atom_site_fract_z
 _atom_site_occupancy
  Ta  Ta0  1  0.500000  0.320073  0.139833  1
  Ta  Ta1  1  0.500000  0.679389  0.856512  1
  Ta  Ta2  1  0.500000  0.822887  0.362905  1
  Ti  Ti3  1  0.500000  0.179145  0.640692  1
  Al  Al4  1  0.000000  0.999121  0.999397  1
  Al  Al5  1  0.000000  0.497530  0.501644  1
  Rh  Rh6  1  0.000000  0.003199  0.501492  1
  Rh  Rh7  1  0.000000  0.499360  0.999540  1
  Rh  Rh8  1  0.000000  0.074055  0.243392  1
  Rh  Rh9  1  0.000000  0.924683  0.757346  1
  Rh  Rh10  1  0.000000  0.574223  0.256696  1
  Rh  Rh11  1  0.000000  0.422977  0.741807  1
  Rh  Rh12  1  0.500000  0.309832  0.391178  1
  Rh  Rh13  1  0.500000  0.693911  0.607702  1
  Rh  Rh14  1  0.500000  0.807258  0.108433  1
  Rh  Rh15  1  0.500000  0.192357  0.891431  1
