# generated using pymatgen
data_Tm4ZnIn2Cu3
_symmetry_space_group_name_H-M   'P 1'
_cell_length_a   7.58380337
_cell_length_b   7.58380242
_cell_length_c   3.62154600
_cell_angle_alpha   90.00000000
_cell_angle_beta   90.00000000
_cell_angle_gamma   90.24637234
_symmetry_Int_Tables_number   1
_chemical_formula_structural   Tm4ZnIn2Cu3
_chemical_formula_sum   'Tm4 Zn1 In2 Cu3'
_cell_volume   208.28791141
_cell_formula_units_Z   1
loop_
 _symmetry_equiv_pos_site_id
 _symmetry_equiv_pos_as_xyz
  1  'x, y, z'
loop_
 _atom_site_type_symbol
 _atom_site_label
 _atom_site_symmetry_multiplicity
 _atom_site_fract_x
 _atom_site_fract_y
 _atom_site_fract_z
 _atom_site_occupancy
  Tm  Tm0  1  0.162783  0.337217  0.000000  1
  Tm  Tm1  1  0.826240  0.673760  0.000000  1
  Tm  Tm2  1  0.683188  0.169292  0.000000  1
  Tm  Tm3  1  0.330708  0.816812  0.000000  1
  Zn  Zn4  1  0.379737  0.120263  0.500000  1
  In  In5  1  0.003211  0.998134  0.500000  1
  In  In6  1  0.501866  0.496789  0.500000  1
  Cu  Cu7  1  0.619521  0.880479  0.500000  1
  Cu  Cu8  1  0.876201  0.383453  0.500000  1
  Cu  Cu9  1  0.116547  0.623799  0.500000  1
