# generated using pymatgen
data_Ho15TmMgAg3Rh4
_symmetry_space_group_name_H-M   'P 1'
_cell_length_a   9.50660411
_cell_length_b   9.53516032
_cell_length_c   9.50824700
_cell_angle_alpha   60.09332137
_cell_angle_beta   59.99427967
_cell_angle_gamma   60.18410955
_symmetry_Int_Tables_number   1
_chemical_formula_structural   Ho15TmMgAg3Rh4
_chemical_formula_sum   'Ho15 Tm1 Mg1 Ag3 Rh4'
_cell_volume   610.69851819
_cell_formula_units_Z   1
loop_
 _symmetry_equiv_pos_site_id
 _symmetry_equiv_pos_as_xyz
  1  'x, y, z'
loop_
 _atom_site_type_symbol
 _atom_site_label
 _atom_site_symmetry_multiplicity
 _atom_site_fract_x
 _atom_site_fract_y
 _atom_site_fract_z
 _atom_site_occupancy
  Ho  Ho0  1  0.600978  0.598904  0.598987  1
  Ho  Ho1  1  0.600978  0.598904  0.201129  1
  Ho  Ho2  1  0.600053  0.202384  0.598781  1
  Ho  Ho3  1  0.187012  0.604162  0.604412  1
  Ho  Ho4  1  0.060001  0.438086  0.439913  1
  Ho  Ho5  1  0.435233  0.063058  0.063551  1
  Ho  Ho6  1  0.435233  0.063058  0.438159  1
  Ho  Ho7  1  0.060001  0.438086  0.062002  1
  Ho  Ho8  1  0.435423  0.436616  0.063981  1
  Ho  Ho9  1  0.059692  0.060752  0.439778  1
  Ho  Ho10  1  0.183664  0.815023  0.814958  1
  Ho  Ho11  1  0.814979  0.185582  0.184626  1
  Ho  Ho12  1  0.814979  0.185582  0.814812  1
  Ho  Ho13  1  0.183664  0.815023  0.186355  1
  Ho  Ho14  1  0.813332  0.815308  0.185680  1
  Tm  Tm15  1  0.183653  0.186742  0.814802  1
  Mg  Mg16  1  0.536244  0.821935  0.820911  1
  Ag  Ag17  1  0.833225  0.834953  0.833862  1
  Ag  Ag18  1  0.833225  0.834953  0.497962  1
  Ag  Ag19  1  0.834448  0.497434  0.834059  1
  Rh  Rh20  1  0.390181  0.394834  0.393458  1
  Rh  Rh21  1  0.390181  0.394834  0.821525  1
  Rh  Rh22  1  0.391542  0.820652  0.393902  1
  Rh  Rh23  1  0.822075  0.393136  0.392394  1
