# generated using pymatgen
data_Y3Er2Sn3S
_symmetry_space_group_name_H-M   'P 1'
_cell_length_a   9.02776500
_cell_length_b   9.02776540
_cell_length_c   6.59480000
_cell_angle_alpha   90.00000000
_cell_angle_beta   90.00000000
_cell_angle_gamma   120.00000221
_symmetry_Int_Tables_number   1
_chemical_formula_structural   Y3Er2Sn3S
_chemical_formula_sum   'Y6 Er4 Sn6 S2'
_cell_volume   465.47114248
_cell_formula_units_Z   2
loop_
 _symmetry_equiv_pos_site_id
 _symmetry_equiv_pos_as_xyz
  1  'x, y, z'
loop_
 _atom_site_type_symbol
 _atom_site_label
 _atom_site_symmetry_multiplicity
 _atom_site_fract_x
 _atom_site_fract_y
 _atom_site_fract_z
 _atom_site_occupancy
  Y  Y0  1  0.754071  0.754071  0.750000  1
  Y  Y1  1  0.245929  0.000000  0.750000  1
  Y  Y2  1  0.000000  0.245929  0.750000  1
  Y  Y3  1  0.245929  0.245929  0.250000  1
  Y  Y4  1  0.754071  0.000000  0.250000  1
  Y  Y5  1  0.000000  0.754071  0.250000  1
  Er  Er6  1  0.666667  0.333333  0.000000  1
  Er  Er7  1  0.333333  0.666667  0.000000  1
  Er  Er8  1  0.333333  0.666667  0.500000  1
  Er  Er9  1  0.666667  0.333333  0.500000  1
  Sn  Sn10  1  0.398453  0.398453  0.750000  1
  Sn  Sn11  1  0.601547  0.000000  0.750000  1
  Sn  Sn12  1  0.000000  0.601547  0.750000  1
  Sn  Sn13  1  0.601547  0.601547  0.250000  1
  Sn  Sn14  1  0.398453  0.000000  0.250000  1
  Sn  Sn15  1  0.000000  0.398453  0.250000  1
  S  S16  1  0.000000  0.000000  0.000000  1
  S  S17  1  0.000000  0.000000  0.500000  1
