# generated using pymatgen
data_Pa(SO4)3
_symmetry_space_group_name_H-M   'P 1'
_cell_length_a   9.61597500
_cell_length_b   9.61597493
_cell_length_c   5.55445800
_cell_angle_alpha   90.00000000
_cell_angle_beta   90.00000000
_cell_angle_gamma   119.99998898
_symmetry_Int_Tables_number   1
_chemical_formula_structural   Pa(SO4)3
_chemical_formula_sum   'Pa2 S6 O24'
_cell_volume   444.79409734
_cell_formula_units_Z   2
loop_
 _symmetry_equiv_pos_site_id
 _symmetry_equiv_pos_as_xyz
  1  'x, y, z'
loop_
 _atom_site_type_symbol
 _atom_site_label
 _atom_site_symmetry_multiplicity
 _atom_site_fract_x
 _atom_site_fract_y
 _atom_site_fract_z
 _atom_site_occupancy
  Pa  Pa0  1  0.666667  0.333333  0.750000  1
  Pa  Pa1  1  0.333333  0.666667  0.250000  1
  S  S2  1  0.610157  0.704322  0.750000  1
  S  S3  1  0.389843  0.295678  0.250000  1
  S  S4  1  0.094164  0.389843  0.750000  1
  S  S5  1  0.905836  0.610157  0.250000  1
  S  S6  1  0.295678  0.905836  0.750000  1
  S  S7  1  0.704322  0.094164  0.250000  1
  O  O8  1  0.956728  0.418443  0.750000  1
  O  O9  1  0.043272  0.581557  0.250000  1
  O  O10  1  0.461715  0.043272  0.750000  1
  O  O11  1  0.538285  0.956728  0.250000  1
  O  O12  1  0.581557  0.538285  0.750000  1
  O  O13  1  0.418443  0.461715  0.250000  1
  O  O14  1  0.776376  0.827259  0.750000  1
  O  O15  1  0.223624  0.172741  0.250000  1
  O  O16  1  0.050884  0.223624  0.750000  1
  O  O17  1  0.949116  0.776376  0.250000  1
  O  O18  1  0.172741  0.949116  0.750000  1
  O  O19  1  0.827259  0.050884  0.250000  1
  O  O20  1  0.523037  0.720409  0.966380  1
  O  O21  1  0.476963  0.279591  0.033620  1
  O  O22  1  0.197372  0.476963  0.966380  1
  O  O23  1  0.476963  0.279591  0.466380  1
  O  O24  1  0.802628  0.523037  0.033620  1
  O  O25  1  0.523037  0.720409  0.533620  1
  O  O26  1  0.279591  0.802628  0.966380  1
  O  O27  1  0.802628  0.523037  0.466380  1
  O  O28  1  0.720409  0.197372  0.033620  1
  O  O29  1  0.197372  0.476963  0.533620  1
  O  O30  1  0.720409  0.197372  0.466380  1
  O  O31  1  0.279591  0.802628  0.533620  1
