# generated using pymatgen
data_TmLu11(Si3Rh)4
_symmetry_space_group_name_H-M   'P 1'
_cell_length_a   4.20132200
_cell_length_b   10.61170100
_cell_length_c   12.23398300
_cell_angle_alpha   90.00136602
_cell_angle_beta   90.00000000
_cell_angle_gamma   90.00000000
_symmetry_Int_Tables_number   1
_chemical_formula_structural   TmLu11(Si3Rh)4
_chemical_formula_sum   'Tm1 Lu11 Si12 Rh4'
_cell_volume   545.42977896
_cell_formula_units_Z   1
loop_
 _symmetry_equiv_pos_site_id
 _symmetry_equiv_pos_as_xyz
  1  'x, y, z'
loop_
 _atom_site_type_symbol
 _atom_site_label
 _atom_site_symmetry_multiplicity
 _atom_site_fract_x
 _atom_site_fract_y
 _atom_site_fract_z
 _atom_site_occupancy
  Tm  Tm0  1  0.750000  0.160599  0.699572  1
  Lu  Lu1  1  0.250000  0.879218  0.020439  1
  Lu  Lu2  1  0.250000  0.620856  0.520363  1
  Lu  Lu3  1  0.750000  0.120949  0.979590  1
  Lu  Lu4  1  0.750000  0.378957  0.479732  1
  Lu  Lu5  1  0.250000  0.920175  0.603249  1
  Lu  Lu6  1  0.250000  0.579697  0.103419  1
  Lu  Lu7  1  0.750000  0.079680  0.396800  1
  Lu  Lu8  1  0.750000  0.420443  0.896526  1
  Lu  Lu9  1  0.250000  0.660874  0.800320  1
  Lu  Lu10  1  0.250000  0.839724  0.300353  1
  Lu  Lu11  1  0.750000  0.338961  0.199762  1
  Si  Si12  1  0.250000  0.014407  0.822743  1
  Si  Si13  1  0.250000  0.485129  0.322689  1
  Si  Si14  1  0.750000  0.985543  0.177386  1
  Si  Si15  1  0.750000  0.514616  0.677394  1
  Si  Si16  1  0.250000  0.248065  0.842159  1
  Si  Si17  1  0.250000  0.252044  0.341874  1
  Si  Si18  1  0.750000  0.752355  0.158333  1
  Si  Si19  1  0.750000  0.747842  0.658141  1
  Si  Si20  1  0.250000  0.198287  0.542295  1
  Si  Si21  1  0.250000  0.302011  0.042608  1
  Si  Si22  1  0.750000  0.801712  0.457228  1
  Si  Si23  1  0.750000  0.698250  0.957389  1
  Rh  Rh24  1  0.250000  0.391129  0.681913  1
  Rh  Rh25  1  0.250000  0.108722  0.181879  1
  Rh  Rh26  1  0.750000  0.608386  0.317886  1
  Rh  Rh27  1  0.750000  0.891364  0.817962  1
