# generated using pymatgen
data_Tb7Er5Th4(MgRh)4
_symmetry_space_group_name_H-M   'P 1'
_cell_length_a   9.78042681
_cell_length_b   9.78042723
_cell_length_c   9.79082200
_cell_angle_alpha   59.96483619
_cell_angle_beta   59.96483476
_cell_angle_gamma   59.99224312
_symmetry_Int_Tables_number   1
_chemical_formula_structural   Tb7Er5Th4(MgRh)4
_chemical_formula_sum   'Tb7 Er5 Th4 Mg4 Rh4'
_cell_volume   661.85570246
_cell_formula_units_Z   1
loop_
 _symmetry_equiv_pos_site_id
 _symmetry_equiv_pos_as_xyz
  1  'x, y, z'
loop_
 _atom_site_type_symbol
 _atom_site_label
 _atom_site_symmetry_multiplicity
 _atom_site_fract_x
 _atom_site_fract_y
 _atom_site_fract_z
 _atom_site_occupancy
  Tb  Tb0  1  0.814480  0.814480  0.185520  1
  Tb  Tb1  1  0.935699  0.564704  0.565903  1
  Tb  Tb2  1  0.564704  0.935699  0.933694  1
  Tb  Tb3  1  0.564704  0.935699  0.565903  1
  Tb  Tb4  1  0.935699  0.564704  0.933694  1
  Tb  Tb5  1  0.565697  0.565697  0.934303  1
  Tb  Tb6  1  0.934984  0.934984  0.565016  1
  Er  Er7  1  0.813691  0.186705  0.186166  1
  Er  Er8  1  0.186705  0.813691  0.813438  1
  Er  Er9  1  0.186705  0.813691  0.186166  1
  Er  Er10  1  0.813691  0.186705  0.813438  1
  Er  Er11  1  0.186549  0.186549  0.813451  1
  Th  Th12  1  0.348356  0.348356  0.347805  1
  Th  Th13  1  0.348356  0.348356  0.955483  1
  Th  Th14  1  0.348295  0.953999  0.348854  1
  Th  Th15  1  0.953999  0.348295  0.348854  1
  Mg  Mg16  1  0.579922  0.579922  0.581060  1
  Mg  Mg17  1  0.579922  0.579922  0.259097  1
  Mg  Mg18  1  0.579787  0.258912  0.580651  1
  Mg  Mg19  1  0.258912  0.579787  0.580651  1
  Rh  Rh20  1  0.143318  0.143318  0.144148  1
  Rh  Rh21  1  0.143318  0.143318  0.569215  1
  Rh  Rh22  1  0.144428  0.568081  0.143745  1
  Rh  Rh23  1  0.568081  0.144428  0.143745  1
