# generated using pymatgen
data_Pr17Lu3(Ga3Pb)3
_symmetry_space_group_name_H-M   'P 1'
_cell_length_a   8.01520200
_cell_length_b   8.01520200
_cell_length_c   14.82398000
_cell_angle_alpha   90.00000000
_cell_angle_beta   90.00000000
_cell_angle_gamma   90.00000000
_symmetry_Int_Tables_number   1
_chemical_formula_structural   Pr17Lu3(Ga3Pb)3
_chemical_formula_sum   'Pr17 Lu3 Ga9 Pb3'
_cell_volume   952.34381214
_cell_formula_units_Z   1
loop_
 _symmetry_equiv_pos_site_id
 _symmetry_equiv_pos_as_xyz
  1  'x, y, z'
loop_
 _atom_site_type_symbol
 _atom_site_label
 _atom_site_symmetry_multiplicity
 _atom_site_fract_x
 _atom_site_fract_y
 _atom_site_fract_z
 _atom_site_occupancy
  Pr  Pr0  1  0.821235  0.839557  0.609621  1
  Pr  Pr1  1  0.182172  0.842921  0.104813  1
  Pr  Pr2  1  0.160310  0.825549  0.390037  1
  Pr  Pr3  1  0.839690  0.174451  0.390037  1
  Pr  Pr4  1  0.674451  0.660310  0.390037  1
  Pr  Pr5  1  0.660443  0.321235  0.609621  1
  Pr  Pr6  1  0.339557  0.678765  0.609621  1
  Pr  Pr7  1  0.657079  0.682172  0.104813  1
  Pr  Pr8  1  0.675567  0.339706  0.893623  1
  Pr  Pr9  1  0.839706  0.824433  0.893623  1
  Pr  Pr10  1  0.325549  0.339690  0.390037  1
  Pr  Pr11  1  0.178765  0.160443  0.609621  1
  Pr  Pr12  1  0.817828  0.157079  0.104813  1
  Pr  Pr13  1  0.324433  0.660294  0.893623  1
  Pr  Pr14  1  0.342921  0.317828  0.104813  1
  Pr  Pr15  1  0.160294  0.175567  0.893623  1
  Pr  Pr16  1  0.500000  0.000000  0.788736  1
  Lu  Lu17  1  0.000000  0.500000  0.734805  1
  Lu  Lu18  1  0.000000  0.500000  0.230801  1
  Lu  Lu19  1  0.500000  0.000000  0.261006  1
  Ga  Ga20  1  0.626549  0.373896  0.248795  1
  Ga  Ga21  1  0.120527  0.870267  0.749010  1
  Ga  Ga22  1  0.370267  0.379473  0.749010  1
  Ga  Ga23  1  0.373451  0.626104  0.248795  1
  Ga  Ga24  1  0.873896  0.873451  0.248795  1
  Ga  Ga25  1  0.629733  0.620527  0.749010  1
  Ga  Ga26  1  0.879473  0.129733  0.749010  1
  Ga  Ga27  1  0.500000  0.000000  0.997944  1
  Ga  Ga28  1  0.126104  0.126549  0.248795  1
  Pb  Pb29  1  0.000000  0.500000  0.507854  1
  Pb  Pb30  1  0.500000  0.000000  0.486583  1
  Pb  Pb31  1  0.000000  0.500000  0.008672  1
