# generated using pymatgen
data_LiPr2Au3O8
_symmetry_space_group_name_H-M   'P 1'
_cell_length_a   6.71066662
_cell_length_b   6.77986002
_cell_length_c   6.54755400
_cell_angle_alpha   125.90054774
_cell_angle_beta   125.53610663
_cell_angle_gamma   81.02354324
_symmetry_Int_Tables_number   1
_chemical_formula_structural   LiPr2Au3O8
_chemical_formula_sum   'Li1 Pr2 Au3 O8'
_cell_volume   188.48987297
_cell_formula_units_Z   1
loop_
 _symmetry_equiv_pos_site_id
 _symmetry_equiv_pos_as_xyz
  1  'x, y, z'
loop_
 _atom_site_type_symbol
 _atom_site_label
 _atom_site_symmetry_multiplicity
 _atom_site_fract_x
 _atom_site_fract_y
 _atom_site_fract_z
 _atom_site_occupancy
  Li  Li0  1  0.875000  0.625000  0.250000  1
  Pr  Pr1  1  0.986520  0.015691  0.999323  1
  Pr  Pr2  1  0.763480  0.234309  0.500677  1
  Au  Au3  1  0.375000  0.125000  0.750000  1
  Au  Au4  1  0.375000  0.625000  0.250000  1
  Au  Au5  1  0.375000  0.625000  0.750000  1
  O  O6  1  0.148658  0.607434  0.854445  1
  O  O7  1  0.745865  0.285185  0.149087  1
  O  O8  1  0.601342  0.642566  0.645555  1
  O  O9  1  0.004135  0.964815  0.350913  1
  O  O10  1  0.333920  0.980847  0.927364  1
  O  O11  1  0.051902  0.399600  0.055152  1
  O  O12  1  0.698098  0.850400  0.444848  1
  O  O13  1  0.416080  0.269153  0.572636  1
