# generated using pymatgen
data_Ta6Al4BPt2C
_symmetry_space_group_name_H-M   'P 1'
_cell_length_a   8.37907771
_cell_length_b   8.35723013
_cell_length_c   8.37907827
_cell_angle_alpha   60.08622198
_cell_angle_beta   60.18947339
_cell_angle_gamma   60.08621615
_symmetry_Int_Tables_number   1
_chemical_formula_structural   Ta6Al4BPt2C
_chemical_formula_sum   'Ta12 Al8 B2 Pt4 C2'
_cell_volume   416.02959351
_cell_formula_units_Z   2
loop_
 _symmetry_equiv_pos_site_id
 _symmetry_equiv_pos_as_xyz
  1  'x, y, z'
loop_
 _atom_site_type_symbol
 _atom_site_label
 _atom_site_symmetry_multiplicity
 _atom_site_fract_x
 _atom_site_fract_y
 _atom_site_fract_z
 _atom_site_occupancy
  Ta  Ta0  1  0.568262  0.931738  0.568262  1
  Ta  Ta1  1  0.319977  0.683843  0.682900  1
  Ta  Ta2  1  0.682900  0.313279  0.319977  1
  Ta  Ta3  1  0.315249  0.684751  0.315249  1
  Ta  Ta4  1  0.682900  0.683843  0.319977  1
  Ta  Ta5  1  0.319977  0.313279  0.682900  1
  Ta  Ta6  1  0.567100  0.566157  0.930023  1
  Ta  Ta7  1  0.930023  0.566157  0.567100  1
  Ta  Ta8  1  0.567100  0.936721  0.930023  1
  Ta  Ta9  1  0.930023  0.936721  0.567100  1
  Ta  Ta10  1  0.681738  0.318262  0.681738  1
  Ta  Ta11  1  0.934751  0.565249  0.934751  1
  Al  Al12  1  0.915709  0.914850  0.915709  1
  Al  Al13  1  0.996859  0.334753  0.333632  1
  Al  Al14  1  0.334291  0.996268  0.334291  1
  Al  Al15  1  0.333632  0.334753  0.996859  1
  Al  Al16  1  0.915709  0.253732  0.915709  1
  Al  Al17  1  0.916368  0.915247  0.253141  1
  Al  Al18  1  0.253141  0.915247  0.916368  1
  Al  Al19  1  0.334291  0.335150  0.334291  1
  B  B20  1  0.125000  0.625000  0.625000  1
  B  B21  1  0.625000  0.625000  0.125000  1
  Pt  Pt22  1  0.125000  0.125000  0.125000  1
  Pt  Pt23  1  0.625000  0.125000  0.125000  1
  Pt  Pt24  1  0.125000  0.625000  0.125000  1
  Pt  Pt25  1  0.125000  0.125000  0.625000  1
  C  C26  1  0.625000  0.625000  0.625000  1
  C  C27  1  0.625000  0.125000  0.625000  1
