# generated using pymatgen
data_LaEu3(CdPt)4
_symmetry_space_group_name_H-M   'P 1'
_cell_length_a   4.28488300
_cell_length_b   7.48615040
_cell_length_c   8.89177598
_cell_angle_alpha   90.16200687
_cell_angle_beta   90.00000000
_cell_angle_gamma   90.00000000
_symmetry_Int_Tables_number   1
_chemical_formula_structural   LaEu3(CdPt)4
_chemical_formula_sum   'La1 Eu3 Cd4 Pt4'
_cell_volume   285.22283515
_cell_formula_units_Z   1
loop_
 _symmetry_equiv_pos_site_id
 _symmetry_equiv_pos_as_xyz
  1  'x, y, z'
loop_
 _atom_site_type_symbol
 _atom_site_label
 _atom_site_symmetry_multiplicity
 _atom_site_fract_x
 _atom_site_fract_y
 _atom_site_fract_z
 _atom_site_occupancy
  La  La0  1  0.250000  0.042525  0.319975  1
  Eu  Eu1  1  0.250000  0.541078  0.178798  1
  Eu  Eu2  1  0.750000  0.956931  0.683577  1
  Eu  Eu3  1  0.750000  0.458216  0.818786  1
  Cd  Cd4  1  0.250000  0.139899  0.936502  1
  Cd  Cd5  1  0.250000  0.638352  0.563318  1
  Cd  Cd6  1  0.750000  0.857241  0.059036  1
  Cd  Cd7  1  0.750000  0.367736  0.439808  1
  Pt  Pt8  1  0.250000  0.247663  0.625521  1
  Pt  Pt9  1  0.250000  0.750395  0.869808  1
  Pt  Pt10  1  0.750000  0.756556  0.370141  1
  Pt  Pt11  1  0.750000  0.243408  0.134729  1
