# generated using pymatgen
data_In13Bi5
_symmetry_space_group_name_H-M   'P 1'
_cell_length_a   17.97089682
_cell_length_b   17.97089674
_cell_length_c   7.62081200
_cell_angle_alpha   95.88449630
_cell_angle_beta   95.88449307
_cell_angle_gamma   11.47330266
_symmetry_Int_Tables_number   1
_chemical_formula_structural   In13Bi5
_chemical_formula_sum   'In13 Bi5'
_cell_volume   486.94781698
_cell_formula_units_Z   1
loop_
 _symmetry_equiv_pos_site_id
 _symmetry_equiv_pos_as_xyz
  1  'x, y, z'
loop_
 _atom_site_type_symbol
 _atom_site_label
 _atom_site_symmetry_multiplicity
 _atom_site_fract_x
 _atom_site_fract_y
 _atom_site_fract_z
 _atom_site_occupancy
  In  In0  1  0.107317  0.107317  0.048774  1
  In  In1  1  0.225034  0.225034  0.108595  1
  In  In2  1  0.331333  0.331333  0.145191  1
  In  In3  1  0.446302  0.446302  0.225182  1
  In  In4  1  0.556485  0.556485  0.284557  1
  In  In5  1  0.777676  0.777676  0.378346  1
  In  In6  1  0.000000  0.000000  0.500000  1
  In  In7  1  0.222324  0.222324  0.621655  1
  In  In8  1  0.443515  0.443515  0.715443  1
  In  In9  1  0.553698  0.553698  0.774817  1
  In  In10  1  0.668666  0.668666  0.854809  1
  In  In11  1  0.774965  0.774965  0.891404  1
  In  In12  1  0.892684  0.892684  0.951227  1
  Bi  Bi13  1  0.000000  0.000000  0.000000  1
  Bi  Bi14  1  0.669217  0.669217  0.320125  1
  Bi  Bi15  1  0.889004  0.889004  0.423335  1
  Bi  Bi16  1  0.110996  0.110996  0.576666  1
  Bi  Bi17  1  0.330783  0.330783  0.679875  1
