# generated using pymatgen
data_NdEr5(MoO7)2
_symmetry_space_group_name_H-M   'P 1'
_cell_length_a   6.42323996
_cell_length_b   6.42323967
_cell_length_c   7.50958755
_cell_angle_alpha   90.06816294
_cell_angle_beta   89.93182947
_cell_angle_gamma   109.17720099
_symmetry_Int_Tables_number   1
_chemical_formula_structural   NdEr5(MoO7)2
_chemical_formula_sum   'Nd1 Er5 Mo2 O14'
_cell_volume   292.63694136
_cell_formula_units_Z   1
loop_
 _symmetry_equiv_pos_site_id
 _symmetry_equiv_pos_as_xyz
  1  'x, y, z'
loop_
 _atom_site_type_symbol
 _atom_site_label
 _atom_site_symmetry_multiplicity
 _atom_site_fract_x
 _atom_site_fract_y
 _atom_site_fract_z
 _atom_site_occupancy
  Nd  Nd0  1  0.500000  0.500000  0.000000  1
  Er  Er1  1  0.500000  0.500000  0.500000  1
  Er  Er2  1  0.534761  0.001289  0.746581  1
  Er  Er3  1  0.001289  0.534761  0.253419  1
  Er  Er4  1  0.465239  0.998711  0.253419  1
  Er  Er5  1  0.998711  0.465239  0.746581  1
  Mo  Mo6  1  0.000000  0.000000  0.500000  1
  Mo  Mo7  1  0.000000  0.000000  0.000000  1
  O  O8  1  0.677249  0.925411  0.469619  1
  O  O9  1  0.925411  0.677249  0.530381  1
  O  O10  1  0.676417  0.927556  0.030950  1
  O  O11  1  0.927556  0.676417  0.969050  1
  O  O12  1  0.322751  0.074589  0.530381  1
  O  O13  1  0.074589  0.322751  0.469619  1
  O  O14  1  0.323583  0.072444  0.969050  1
  O  O15  1  0.072444  0.323583  0.030950  1
  O  O16  1  0.925628  0.074372  0.750347  1
  O  O17  1  0.074372  0.925628  0.249653  1
  O  O18  1  0.365258  0.634742  0.739238  1
  O  O19  1  0.634742  0.365258  0.260762  1
  O  O20  1  0.639311  0.360689  0.739869  1
  O  O21  1  0.360689  0.639311  0.260131  1
