# generated using pymatgen
data_Pr3NdZn(FeO4)3
_symmetry_space_group_name_H-M   'P 1'
_cell_length_a   5.50798987
_cell_length_b   5.71170006
_cell_length_c   7.87500903
_cell_angle_alpha   90.00759547
_cell_angle_beta   89.97875194
_cell_angle_gamma   90.20667757
_symmetry_Int_Tables_number   1
_chemical_formula_structural   Pr3NdZn(FeO4)3
_chemical_formula_sum   'Pr3 Nd1 Zn1 Fe3 O12'
_cell_volume   247.74604356
_cell_formula_units_Z   1
loop_
 _symmetry_equiv_pos_site_id
 _symmetry_equiv_pos_as_xyz
  1  'x, y, z'
loop_
 _atom_site_type_symbol
 _atom_site_label
 _atom_site_symmetry_multiplicity
 _atom_site_fract_x
 _atom_site_fract_y
 _atom_site_fract_z
 _atom_site_occupancy
  Pr  Pr0  1  0.014402  0.941959  0.747445  1
  Pr  Pr1  1  0.512805  0.554965  0.252473  1
  Pr  Pr2  1  0.486778  0.445022  0.747569  1
  Nd  Nd3  1  0.985287  0.060235  0.252574  1
  Zn  Zn4  1  0.000090  0.500077  0.499593  1
  Fe  Fe5  1  0.499978  0.000058  0.499393  1
  Fe  Fe6  1  0.499926  0.000062  0.000608  1
  Fe  Fe7  1  0.000140  0.499908  0.000446  1
  O  O8  1  0.699031  0.287190  0.453047  1
  O  O9  1  0.213942  0.196547  0.544386  1
  O  O10  1  0.794783  0.797510  0.051089  1
  O  O11  1  0.296001  0.705570  0.951768  1
  O  O12  1  0.302611  0.711543  0.546071  1
  O  O13  1  0.787460  0.805225  0.453127  1
  O  O14  1  0.206731  0.204286  0.951130  1
  O  O15  1  0.705332  0.293169  0.049150  1
  O  O16  1  0.087495  0.472692  0.242954  1
  O  O17  1  0.589587  0.024712  0.752566  1
  O  O18  1  0.405547  0.975092  0.247411  1
  O  O19  1  0.912075  0.524180  0.757202  1
