# generated using pymatgen
data_Al2SnBr8
_symmetry_space_group_name_H-M   'P 1'
_cell_length_a   8.01499100
_cell_length_b   7.86372700
_cell_length_c   14.55410666
_cell_angle_alpha   87.87009723
_cell_angle_beta   90.00000000
_cell_angle_gamma   90.00000000
_symmetry_Int_Tables_number   1
_chemical_formula_structural   Al2SnBr8
_chemical_formula_sum   'Al4 Sn2 Br16'
_cell_volume   916.67814424
_cell_formula_units_Z   2
loop_
 _symmetry_equiv_pos_site_id
 _symmetry_equiv_pos_as_xyz
  1  'x, y, z'
loop_
 _atom_site_type_symbol
 _atom_site_label
 _atom_site_symmetry_multiplicity
 _atom_site_fract_x
 _atom_site_fract_y
 _atom_site_fract_z
 _atom_site_occupancy
  Al  Al0  1  0.938512  0.212056  0.579500  1
  Al  Al1  1  0.061488  0.212056  0.079500  1
  Al  Al2  1  0.567190  0.647457  0.778243  1
  Al  Al3  1  0.432810  0.647457  0.278243  1
  Sn  Sn4  1  0.760107  0.079438  0.813887  1
  Sn  Sn5  1  0.239893  0.079438  0.313887  1
  Br  Br6  1  0.438504  0.614781  0.641551  1
  Br  Br7  1  0.561496  0.614781  0.141551  1
  Br  Br8  1  0.851555  0.731641  0.763545  1
  Br  Br9  1  0.148445  0.731641  0.263545  1
  Br  Br10  1  0.944575  0.461192  0.496182  1
  Br  Br11  1  0.055425  0.461192  0.996182  1
  Br  Br12  1  0.938446  0.986209  0.003627  1
  Br  Br13  1  0.061554  0.986209  0.503627  1
  Br  Br14  1  0.660856  0.131628  0.618897  1
  Br  Br15  1  0.339144  0.131628  0.118897  1
  Br  Br16  1  0.557664  0.402819  0.874645  1
  Br  Br17  1  0.442336  0.402819  0.374645  1
  Br  Br18  1  0.448234  0.875255  0.857498  1
  Br  Br19  1  0.551766  0.875255  0.357498  1
  Br  Br20  1  0.930198  0.224925  0.224627  1
  Br  Br21  1  0.069802  0.224925  0.724627  1
