# generated using pymatgen
data_HfZr3Pd7Pt5
_symmetry_space_group_name_H-M   'P 1'
_cell_length_a   5.70884622
_cell_length_b   5.70689178
_cell_length_c   9.33576501
_cell_angle_alpha   89.99999838
_cell_angle_beta   89.85766064
_cell_angle_gamma   119.98868446
_symmetry_Int_Tables_number   1
_chemical_formula_structural   HfZr3Pd7Pt5
_chemical_formula_sum   'Hf1 Zr3 Pd7 Pt5'
_cell_volume   263.43668102
_cell_formula_units_Z   1
loop_
 _symmetry_equiv_pos_site_id
 _symmetry_equiv_pos_as_xyz
  1  'x, y, z'
loop_
 _atom_site_type_symbol
 _atom_site_label
 _atom_site_symmetry_multiplicity
 _atom_site_fract_x
 _atom_site_fract_y
 _atom_site_fract_z
 _atom_site_occupancy
  Hf  Hf0  1  0.334642  0.667322  0.250286  1
  Zr  Zr1  1  0.665532  0.332765  0.749834  1
  Zr  Zr2  1  0.000001  0.000001  0.500355  1
  Zr  Zr3  1  0.000007  0.000004  0.999627  1
  Pd  Pd4  1  0.168639  0.338642  0.750416  1
  Pd  Pd5  1  0.831429  0.169973  0.249548  1
  Pd  Pd6  1  0.339872  0.169936  0.249197  1
  Pd  Pd7  1  0.660008  0.830004  0.750802  1
  Pd  Pd8  1  0.000635  0.500317  0.000661  1
  Pd  Pd9  1  0.831429  0.661455  0.249548  1
  Pd  Pd10  1  0.168639  0.829998  0.750416  1
  Pt  Pt11  1  0.499565  0.999178  0.000736  1
  Pt  Pt12  1  0.499637  0.500354  0.499284  1
  Pt  Pt13  1  0.000764  0.500382  0.499269  1
  Pt  Pt14  1  0.499565  0.500387  0.000736  1
  Pt  Pt15  1  0.499637  0.999283  0.499284  1
