# generated using pymatgen
data_Ba4NaPu3O12
_symmetry_space_group_name_H-M   'P 1'
_cell_length_a   7.53640111
_cell_length_b   7.53640163
_cell_length_c   7.53640100
_cell_angle_alpha   109.47122162
_cell_angle_beta   109.47122303
_cell_angle_gamma   109.47122063
_symmetry_Int_Tables_number   1
_chemical_formula_structural   Ba4NaPu3O12
_chemical_formula_sum   'Ba4 Na1 Pu3 O12'
_cell_volume   329.51116102
_cell_formula_units_Z   1
loop_
 _symmetry_equiv_pos_site_id
 _symmetry_equiv_pos_as_xyz
  1  'x, y, z'
loop_
 _atom_site_type_symbol
 _atom_site_label
 _atom_site_symmetry_multiplicity
 _atom_site_fract_x
 _atom_site_fract_y
 _atom_site_fract_z
 _atom_site_occupancy
  Ba  Ba0  1  0.000000  0.500000  0.000000  1
  Ba  Ba1  1  0.500000  0.500000  0.500000  1
  Ba  Ba2  1  0.000000  0.000000  0.500000  1
  Ba  Ba3  1  0.500000  0.000000  0.000000  1
  Na  Na4  1  0.000000  0.000000  0.000000  1
  Pu  Pu5  1  0.500000  0.500000  0.000000  1
  Pu  Pu6  1  0.500000  0.000000  0.500000  1
  Pu  Pu7  1  0.000000  0.500000  0.500000  1
  O  O8  1  0.250000  0.750000  0.500000  1
  O  O9  1  0.729931  0.729931  0.000000  1
  O  O10  1  0.270069  0.270069  0.000000  1
  O  O11  1  0.750000  0.250000  0.500000  1
  O  O12  1  0.270069  0.000000  0.270069  1
  O  O13  1  0.729931  0.000000  0.729931  1
  O  O14  1  0.250000  0.500000  0.750000  1
  O  O15  1  0.750000  0.500000  0.250000  1
  O  O16  1  0.500000  0.750000  0.250000  1
  O  O17  1  0.000000  0.729931  0.729931  1
  O  O18  1  0.500000  0.250000  0.750000  1
  O  O19  1  0.000000  0.270069  0.270069  1
