# generated using pymatgen
data_Er3MgZn2Si2Pd
_symmetry_space_group_name_H-M   'P 1'
_cell_length_a   6.93766036
_cell_length_b   6.93379782
_cell_length_c   4.25039500
_cell_angle_alpha   90.00000000
_cell_angle_beta   90.00000000
_cell_angle_gamma   119.98158407
_symmetry_Int_Tables_number   1
_chemical_formula_structural   Er3MgZn2Si2Pd
_chemical_formula_sum   'Er3 Mg1 Zn2 Si2 Pd1'
_cell_volume   177.10250121
_cell_formula_units_Z   1
loop_
 _symmetry_equiv_pos_site_id
 _symmetry_equiv_pos_as_xyz
  1  'x, y, z'
loop_
 _atom_site_type_symbol
 _atom_site_label
 _atom_site_symmetry_multiplicity
 _atom_site_fract_x
 _atom_site_fract_y
 _atom_site_fract_z
 _atom_site_occupancy
  Er  Er0  1  0.420770  0.421028  0.500000  1
  Er  Er1  1  0.579230  0.000258  0.500000  1
  Er  Er2  1  0.000000  0.590724  0.500000  1
  Mg  Mg3  1  0.000000  0.231553  0.000000  1
  Zn  Zn4  1  0.750042  0.751829  0.000000  1
  Zn  Zn5  1  0.249958  0.001787  0.000000  1
  Si  Si6  1  0.663693  0.336615  0.000000  1
  Si  Si7  1  0.336307  0.672923  0.000000  1
  Pd  Pd8  1  0.000000  0.993283  0.500000  1
