# generated using pymatgen
data_La3NdHf2(ThSb5)2
_symmetry_space_group_name_H-M   'P 1'
_cell_length_a   9.56941893
_cell_length_b   9.59272639
_cell_length_c   6.33047200
_cell_angle_alpha   90.00000000
_cell_angle_beta   90.00000000
_cell_angle_gamma   119.97029780
_symmetry_Int_Tables_number   1
_chemical_formula_structural   La3NdHf2(ThSb5)2
_chemical_formula_sum   'La3 Nd1 Hf2 Th2 Sb10'
_cell_volume   503.41280124
_cell_formula_units_Z   1
loop_
 _symmetry_equiv_pos_site_id
 _symmetry_equiv_pos_as_xyz
  1  'x, y, z'
loop_
 _atom_site_type_symbol
 _atom_site_label
 _atom_site_symmetry_multiplicity
 _atom_site_fract_x
 _atom_site_fract_y
 _atom_site_fract_z
 _atom_site_occupancy
  La  La0  1  0.999651  0.616212  0.250000  1
  La  La1  1  0.000308  0.383090  0.750000  1
  La  La2  1  0.383775  0.384306  0.250000  1
  Nd  Nd3  1  0.617738  0.617864  0.750000  1
  Hf  Hf4  1  0.999671  0.999641  0.000028  1
  Hf  Hf5  1  0.999671  0.999641  0.499972  1
  Th  Th6  1  0.618815  0.000588  0.250000  1
  Th  Th7  1  0.380483  0.999423  0.750000  1
  Sb  Sb8  1  0.265796  0.999831  0.250000  1
  Sb  Sb9  1  0.732746  0.997780  0.750000  1
  Sb  Sb10  1  0.997930  0.259644  0.250000  1
  Sb  Sb11  1  0.999609  0.738636  0.750000  1
  Sb  Sb12  1  0.737616  0.739654  0.250000  1
  Sb  Sb13  1  0.262367  0.260261  0.750000  1
  Sb  Sb14  1  0.338179  0.672317  0.998405  1
  Sb  Sb15  1  0.663733  0.329397  0.998005  1
  Sb  Sb16  1  0.663733  0.329397  0.501995  1
  Sb  Sb17  1  0.338179  0.672317  0.501595  1
