# generated using pymatgen
data_CaEu7(NiH4)4
_symmetry_space_group_name_H-M   'P 1'
_cell_length_a   5.18021300
_cell_length_b   7.28804818
_cell_length_c   9.18614693
_cell_angle_alpha   89.88710306
_cell_angle_beta   90.00000000
_cell_angle_gamma   90.00000000
_symmetry_Int_Tables_number   1
_chemical_formula_structural   CaEu7(NiH4)4
_chemical_formula_sum   'Ca1 Eu7 Ni4 H16'
_cell_volume   346.80982870
_cell_formula_units_Z   1
loop_
 _symmetry_equiv_pos_site_id
 _symmetry_equiv_pos_as_xyz
  1  'x, y, z'
loop_
 _atom_site_type_symbol
 _atom_site_label
 _atom_site_symmetry_multiplicity
 _atom_site_fract_x
 _atom_site_fract_y
 _atom_site_fract_z
 _atom_site_occupancy
  Ca  Ca0  1  0.250000  0.143105  0.592045  1
  Eu  Eu1  1  0.250000  0.645771  0.904132  1
  Eu  Eu2  1  0.750000  0.855908  0.406868  1
  Eu  Eu3  1  0.750000  0.353884  0.095500  1
  Eu  Eu4  1  0.250000  0.491080  0.335365  1
  Eu  Eu5  1  0.250000  0.990681  0.165218  1
  Eu  Eu6  1  0.750000  0.507840  0.665851  1
  Eu  Eu7  1  0.750000  0.009801  0.833741  1
  Ni  Ni8  1  0.250000  0.240673  0.913582  1
  Ni  Ni9  1  0.250000  0.745217  0.582244  1
  Ni  Ni10  1  0.750000  0.758129  0.082295  1
  Ni  Ni11  1  0.750000  0.256939  0.420897  1
  H  H12  1  0.512108  0.321849  0.844588  1
  H  H13  1  0.989707  0.822199  0.656417  1
  H  H14  1  0.009706  0.678135  0.156895  1
  H  H15  1  0.492334  0.179148  0.342987  1
  H  H16  1  0.490294  0.678135  0.156895  1
  H  H17  1  0.007666  0.179148  0.342987  1
  H  H18  1  0.987892  0.321849  0.844588  1
  H  H19  1  0.510293  0.822199  0.656417  1
  H  H20  1  0.250000  0.018405  0.892599  1
  H  H21  1  0.250000  0.522851  0.608312  1
  H  H22  1  0.750000  0.980458  0.108172  1
  H  H23  1  0.750000  0.479183  0.393436  1
  H  H24  1  0.250000  0.325025  0.080244  1
  H  H25  1  0.250000  0.825683  0.415692  1
  H  H26  1  0.750000  0.673964  0.917277  1
  H  H27  1  0.750000  0.172741  0.584755  1
