# generated using pymatgen
data_TbY3(B4Mo)4
_symmetry_space_group_name_H-M   'P 1'
_cell_length_a   3.63133400
_cell_length_b   6.04656303
_cell_length_c   11.67738906
_cell_angle_alpha   90.01123713
_cell_angle_beta   90.00000000
_cell_angle_gamma   90.00000000
_symmetry_Int_Tables_number   1
_chemical_formula_structural   TbY3(B4Mo)4
_chemical_formula_sum   'Tb1 Y3 B16 Mo4'
_cell_volume   256.40147650
_cell_formula_units_Z   1
loop_
 _symmetry_equiv_pos_site_id
 _symmetry_equiv_pos_as_xyz
  1  'x, y, z'
loop_
 _atom_site_type_symbol
 _atom_site_label
 _atom_site_symmetry_multiplicity
 _atom_site_fract_x
 _atom_site_fract_y
 _atom_site_fract_z
 _atom_site_occupancy
  Tb  Tb0  1  0.000000  0.126919  0.149865  1
  Y  Y1  1  0.000000  0.873082  0.850170  1
  Y  Y2  1  0.000000  0.626912  0.350213  1
  Y  Y3  1  0.000000  0.373080  0.649803  1
  B  B4  1  0.500000  0.023756  0.693461  1
  B  B5  1  0.500000  0.976263  0.306662  1
  B  B6  1  0.500000  0.523748  0.806533  1
  B  B7  1  0.500000  0.476266  0.193425  1
  B  B8  1  0.500000  0.113915  0.547426  1
  B  B9  1  0.500000  0.886098  0.452565  1
  B  B10  1  0.500000  0.613925  0.952549  1
  B  B11  1  0.500000  0.386197  0.047363  1
  B  B12  1  0.500000  0.286684  0.313935  1
  B  B13  1  0.500000  0.713233  0.686125  1
  B  B14  1  0.500000  0.786657  0.186099  1
  B  B15  1  0.500000  0.213243  0.813860  1
  B  B16  1  0.500000  0.366565  0.468112  1
  B  B17  1  0.500000  0.633447  0.531892  1
  B  B18  1  0.500000  0.866418  0.031889  1
  B  B19  1  0.500000  0.133550  0.968076  1
  Mo  Mo20  1  0.000000  0.129591  0.416552  1
  Mo  Mo21  1  0.000000  0.870382  0.583490  1
  Mo  Mo22  1  0.000000  0.629665  0.083494  1
  Mo  Mo23  1  0.000000  0.370407  0.916440  1
