# generated using pymatgen
data_Ba6HoSc(BO3)6
_symmetry_space_group_name_H-M   'P 1'
_cell_length_a   8.15686963
_cell_length_b   8.15686891
_cell_length_c   8.15687030
_cell_angle_alpha   105.76522206
_cell_angle_beta   105.76522097
_cell_angle_gamma   105.76523209
_symmetry_Int_Tables_number   1
_chemical_formula_structural   Ba6HoSc(BO3)6
_chemical_formula_sum   'Ba6 Ho1 Sc1 B6 O18'
_cell_volume   466.36452498
_cell_formula_units_Z   1
loop_
 _symmetry_equiv_pos_site_id
 _symmetry_equiv_pos_as_xyz
  1  'x, y, z'
loop_
 _atom_site_type_symbol
 _atom_site_label
 _atom_site_symmetry_multiplicity
 _atom_site_fract_x
 _atom_site_fract_y
 _atom_site_fract_z
 _atom_site_occupancy
  Ba  Ba0  1  0.347152  0.733391  0.835742  1
  Ba  Ba1  1  0.835742  0.347152  0.733391  1
  Ba  Ba2  1  0.733391  0.835742  0.347152  1
  Ba  Ba3  1  0.652848  0.266609  0.164258  1
  Ba  Ba4  1  0.164258  0.652848  0.266609  1
  Ba  Ba5  1  0.266609  0.164258  0.652848  1
  Ho  Ho6  1  0.000000  0.000000  0.000000  1
  Sc  Sc7  1  0.500000  0.500000  0.500000  1
  B  B8  1  0.374480  0.051191  0.292304  1
  B  B9  1  0.292304  0.374480  0.051191  1
  B  B10  1  0.051191  0.292304  0.374480  1
  B  B11  1  0.707696  0.625520  0.948809  1
  B  B12  1  0.948809  0.707696  0.625520  1
  B  B13  1  0.625520  0.948809  0.707696  1
  O  O14  1  0.426316  0.488222  0.225504  1
  O  O15  1  0.225504  0.426316  0.488222  1
  O  O16  1  0.813320  0.012025  0.740463  1
  O  O17  1  0.012025  0.740463  0.813320  1
  O  O18  1  0.740463  0.813320  0.012025  1
  O  O19  1  0.259537  0.186680  0.987975  1
  O  O20  1  0.186680  0.987975  0.259537  1
  O  O21  1  0.987975  0.259537  0.186680  1
  O  O22  1  0.550415  0.058672  0.797845  1
  O  O23  1  0.058672  0.797845  0.550415  1
  O  O24  1  0.797845  0.550415  0.058672  1
  O  O25  1  0.449585  0.941328  0.202155  1
  O  O26  1  0.941328  0.202155  0.449585  1
  O  O27  1  0.202155  0.449585  0.941328  1
  O  O28  1  0.511778  0.774496  0.573684  1
  O  O29  1  0.774496  0.573684  0.511778  1
  O  O30  1  0.573684  0.511778  0.774496  1
  O  O31  1  0.488222  0.225504  0.426316  1
