# generated using pymatgen
data_La3Pu(Re2Si)8
_symmetry_space_group_name_H-M   'P 1'
_cell_length_a   4.18192400
_cell_length_b   7.36527015
_cell_length_c   15.60975700
_cell_angle_alpha   89.84160009
_cell_angle_beta   90.00000000
_cell_angle_gamma   90.00000000
_symmetry_Int_Tables_number   1
_chemical_formula_structural   La3Pu(Re2Si)8
_chemical_formula_sum   'La3 Pu1 Re16 Si8'
_cell_volume   480.79428786
_cell_formula_units_Z   1
loop_
 _symmetry_equiv_pos_site_id
 _symmetry_equiv_pos_as_xyz
  1  'x, y, z'
loop_
 _atom_site_type_symbol
 _atom_site_label
 _atom_site_symmetry_multiplicity
 _atom_site_fract_x
 _atom_site_fract_y
 _atom_site_fract_z
 _atom_site_occupancy
  La  La0  1  0.000000  0.581049  0.117746  1
  La  La1  1  0.000000  0.421832  0.879630  1
  La  La2  1  0.500000  0.077428  0.383170  1
  Pu  Pu3  1  0.500000  0.919722  0.616760  1
  Re  Re4  1  0.000000  0.137098  0.051864  1
  Re  Re5  1  0.000000  0.865446  0.947247  1
  Re  Re6  1  0.500000  0.633401  0.451550  1
  Re  Re7  1  0.500000  0.353877  0.553998  1
  Re  Re8  1  0.000000  0.731575  0.321987  1
  Re  Re9  1  0.000000  0.260549  0.677556  1
  Re  Re10  1  0.500000  0.233789  0.180334  1
  Re  Re11  1  0.500000  0.772372  0.817843  1
  Re  Re12  1  0.000000  0.431340  0.421600  1
  Re  Re13  1  0.000000  0.564997  0.583636  1
  Re  Re14  1  0.500000  0.935317  0.080884  1
  Re  Re15  1  0.500000  0.068246  0.917749  1
  Re  Re16  1  0.000000  0.994896  0.207344  1
  Re  Re17  1  0.000000  0.007194  0.792190  1
  Re  Re18  1  0.500000  0.495077  0.294856  1
  Re  Re19  1  0.500000  0.512624  0.704290  1
  Si  Si20  1  0.000000  0.822897  0.478017  1
  Si  Si21  1  0.000000  0.165741  0.525566  1
  Si  Si22  1  0.500000  0.324661  0.024866  1
  Si  Si23  1  0.500000  0.678486  0.973466  1
  Si  Si24  1  0.000000  0.296722  0.275323  1
  Si  Si25  1  0.000000  0.712521  0.723732  1
  Si  Si26  1  0.500000  0.796195  0.226505  1
  Si  Si27  1  0.500000  0.204947  0.770293  1
