# generated using pymatgen
data_Tm4Fe4OsRu3
_symmetry_space_group_name_H-M   'P 1'
_cell_length_a   5.19372410
_cell_length_b   5.09834848
_cell_length_c   8.69094400
_cell_angle_alpha   90.00000000
_cell_angle_beta   90.00000000
_cell_angle_gamma   119.42146567
_symmetry_Int_Tables_number   1
_chemical_formula_structural   Tm4Fe4OsRu3
_chemical_formula_sum   'Tm4 Fe4 Os1 Ru3'
_cell_volume   200.45106794
_cell_formula_units_Z   1
loop_
 _symmetry_equiv_pos_site_id
 _symmetry_equiv_pos_as_xyz
  1  'x, y, z'
loop_
 _atom_site_type_symbol
 _atom_site_label
 _atom_site_symmetry_multiplicity
 _atom_site_fract_x
 _atom_site_fract_y
 _atom_site_fract_z
 _atom_site_occupancy
  Tm  Tm0  1  0.666566  0.333386  0.564184  1
  Tm  Tm1  1  0.331251  0.665544  0.436409  1
  Tm  Tm2  1  0.331251  0.665544  0.063591  1
  Tm  Tm3  1  0.666566  0.333386  0.935816  1
  Fe  Fe4  1  0.171875  0.337923  0.750000  1
  Fe  Fe5  1  0.171908  0.833968  0.750000  1
  Fe  Fe6  1  0.831633  0.665940  0.250000  1
  Fe  Fe7  1  0.831567  0.165610  0.250000  1
  Os  Os8  1  0.653322  0.826703  0.750000  1
  Ru  Ru9  1  0.996272  0.998118  0.500317  1
  Ru  Ru10  1  0.996272  0.998118  0.999683  1
  Ru  Ru11  1  0.351518  0.175757  0.250000  1
