# generated using pymatgen
data_Tm4Si8Tc5Os
_symmetry_space_group_name_H-M   'P 1'
_cell_length_a   6.74592920
_cell_length_b   6.76728208
_cell_length_c   6.74326874
_cell_angle_alpha   69.88902315
_cell_angle_beta   90.33860589
_cell_angle_gamma   92.14377028
_symmetry_Int_Tables_number   1
_chemical_formula_structural   Tm4Si8Tc5Os
_chemical_formula_sum   'Tm4 Si8 Tc5 Os1'
_cell_volume   288.86123675
_cell_formula_units_Z   1
loop_
 _symmetry_equiv_pos_site_id
 _symmetry_equiv_pos_as_xyz
  1  'x, y, z'
loop_
 _atom_site_type_symbol
 _atom_site_label
 _atom_site_symmetry_multiplicity
 _atom_site_fract_x
 _atom_site_fract_y
 _atom_site_fract_z
 _atom_site_occupancy
  Tm  Tm0  1  0.330807  0.564984  0.806629  1
  Tm  Tm1  1  0.834055  0.943975  0.190664  1
  Tm  Tm2  1  0.669079  0.438256  0.190850  1
  Tm  Tm3  1  0.172459  0.051811  0.810204  1
  Si  Si4  1  0.567025  0.888487  0.889302  1
  Si  Si5  1  0.047812  0.625376  0.095958  1
  Si  Si6  1  0.442970  0.117878  0.108125  1
  Si  Si7  1  0.952541  0.367409  0.901233  1
  Si  Si8  1  0.142496  0.870526  0.480442  1
  Si  Si9  1  0.639327  0.633010  0.502937  1
  Si  Si10  1  0.852057  0.127520  0.530766  1
  Si  Si11  1  0.356925  0.369043  0.492171  1
  Tc  Tc12  1  0.499251  0.005190  0.501157  1
  Tc  Tc13  1  0.001128  0.490187  0.502583  1
  Tc  Tc14  1  0.849427  0.741861  0.754237  1
  Tc  Tc15  1  0.355807  0.732893  0.232771  1
  Tc  Tc16  1  0.151941  0.252801  0.234707  1
  Os  Os17  1  0.634893  0.278793  0.775264  1
