# generated using pymatgen
data_Tb5P12Pd3Ru16
_symmetry_space_group_name_H-M   'P 1'
_cell_length_a   3.98001600
_cell_length_b   12.62346090
_cell_length_c   12.62443001
_cell_angle_alpha   119.99746133
_cell_angle_beta   90.00000000
_cell_angle_gamma   90.00000000
_symmetry_Int_Tables_number   1
_chemical_formula_structural   Tb5P12Pd3Ru16
_chemical_formula_sum   'Tb5 P12 Pd3 Ru16'
_cell_volume   549.30907879
_cell_formula_units_Z   1
loop_
 _symmetry_equiv_pos_site_id
 _symmetry_equiv_pos_as_xyz
  1  'x, y, z'
loop_
 _atom_site_type_symbol
 _atom_site_label
 _atom_site_symmetry_multiplicity
 _atom_site_fract_x
 _atom_site_fract_y
 _atom_site_fract_z
 _atom_site_occupancy
  Tb  Tb0  1  0.500000  0.999915  0.181394  1
  Tb  Tb1  1  0.500000  0.181372  0.000000  1
  Tb  Tb2  1  0.500000  0.818522  0.818606  1
  Tb  Tb3  1  0.000000  0.333309  0.666634  1
  Tb  Tb4  1  0.000000  0.666675  0.333366  1
  P  P5  1  0.000000  0.000077  0.814158  1
  P  P6  1  0.000000  0.814103  0.000000  1
  P  P7  1  0.000000  0.185918  0.185842  1
  P  P8  1  0.500000  0.300769  0.479803  1
  P  P9  1  0.500000  0.179033  0.699203  1
  P  P10  1  0.500000  0.520165  0.820969  1
  P  P11  1  0.500000  0.820966  0.520197  1
  P  P12  1  0.500000  0.479829  0.300797  1
  P  P13  1  0.500000  0.699198  0.179031  1
  P  P14  1  0.000000  0.000000  0.366755  1
  P  P15  1  0.000000  0.366820  0.000000  1
  P  P16  1  0.000000  0.633245  0.633245  1
  Pd  Pd17  1  0.000000  0.000012  0.553584  1
  Pd  Pd18  1  0.000000  0.553616  0.000000  1
  Pd  Pd19  1  0.000000  0.446428  0.446416  1
  Ru  Ru20  1  0.500000  0.000025  0.712728  1
  Ru  Ru21  1  0.500000  0.712691  0.000000  1
  Ru  Ru22  1  0.500000  0.287297  0.287272  1
  Ru  Ru23  1  0.000000  0.192918  0.378649  1
  Ru  Ru24  1  0.000000  0.185771  0.807060  1
  Ru  Ru25  1  0.000000  0.621287  0.814237  1
  Ru  Ru26  1  0.000000  0.814269  0.621351  1
  Ru  Ru27  1  0.000000  0.378711  0.192940  1
  Ru  Ru28  1  0.000000  0.807050  0.185763  1
  Ru  Ru29  1  0.500000  0.123995  0.492724  1
  Ru  Ru30  1  0.500000  0.368740  0.875963  1
  Ru  Ru31  1  0.500000  0.507180  0.631213  1
  Ru  Ru32  1  0.500000  0.631271  0.507276  1
  Ru  Ru33  1  0.500000  0.492777  0.124037  1
  Ru  Ru34  1  0.500000  0.875967  0.368787  1
  Ru  Ru35  1  0.000000  0.999978  0.000000  1
