# generated using pymatgen
data_Zr8Ti2CuSn6Ge
_symmetry_space_group_name_H-M   'P 1'
_cell_length_a   8.64287200
_cell_length_b   8.64287275
_cell_length_c   5.80224800
_cell_angle_alpha   90.00000000
_cell_angle_beta   90.00000000
_cell_angle_gamma   120.00000479
_symmetry_Int_Tables_number   1
_chemical_formula_structural   Zr8Ti2CuSn6Ge
_chemical_formula_sum   'Zr8 Ti2 Cu1 Sn6 Ge1'
_cell_volume   375.35577167
_cell_formula_units_Z   1
loop_
 _symmetry_equiv_pos_site_id
 _symmetry_equiv_pos_as_xyz
  1  'x, y, z'
loop_
 _atom_site_type_symbol
 _atom_site_label
 _atom_site_symmetry_multiplicity
 _atom_site_fract_x
 _atom_site_fract_y
 _atom_site_fract_z
 _atom_site_occupancy
  Zr  Zr0  1  0.264620  0.000000  0.746259  1
  Zr  Zr1  1  0.735380  0.000000  0.253741  1
  Zr  Zr2  1  0.000000  0.264620  0.746259  1
  Zr  Zr3  1  0.000000  0.735380  0.253741  1
  Zr  Zr4  1  0.735380  0.735380  0.746259  1
  Zr  Zr5  1  0.264620  0.264620  0.253741  1
  Zr  Zr6  1  0.333333  0.666667  0.500000  1
  Zr  Zr7  1  0.666667  0.333333  0.500000  1
  Ti  Ti8  1  0.666667  0.333333  0.000000  1
  Ti  Ti9  1  0.333333  0.666667  0.000000  1
  Cu  Cu10  1  0.000000  0.000000  0.000000  1
  Sn  Sn11  1  0.609969  0.000000  0.758529  1
  Sn  Sn12  1  0.390031  0.000000  0.241471  1
  Sn  Sn13  1  0.000000  0.609969  0.758529  1
  Sn  Sn14  1  0.000000  0.390031  0.241471  1
  Sn  Sn15  1  0.390031  0.390031  0.758529  1
  Sn  Sn16  1  0.609969  0.609969  0.241471  1
  Ge  Ge17  1  0.000000  0.000000  0.500000  1
