# generated using pymatgen
data_YLuPa2(Al3Co)6
_symmetry_space_group_name_H-M   'P 1'
_cell_length_a   7.41398701
_cell_length_b   7.40886836
_cell_length_c   9.19573900
_cell_angle_alpha   90.00000000
_cell_angle_beta   90.00000000
_cell_angle_gamma   119.16207780
_symmetry_Int_Tables_number   1
_chemical_formula_structural   YLuPa2(Al3Co)6
_chemical_formula_sum   'Y1 Lu1 Pa2 Al18 Co6'
_cell_volume   441.08911020
_cell_formula_units_Z   1
loop_
 _symmetry_equiv_pos_site_id
 _symmetry_equiv_pos_as_xyz
  1  'x, y, z'
loop_
 _atom_site_type_symbol
 _atom_site_label
 _atom_site_symmetry_multiplicity
 _atom_site_fract_x
 _atom_site_fract_y
 _atom_site_fract_z
 _atom_site_occupancy
  Y  Y0  1  0.673070  0.994148  0.250000  1
  Lu  Lu1  1  0.993764  0.673336  0.250000  1
  Pa  Pa2  1  0.007104  0.322667  0.750000  1
  Pa  Pa3  1  0.322808  0.006889  0.750000  1
  Al  Al4  1  0.661812  0.998327  0.928413  1
  Al  Al5  1  0.998818  0.662054  0.570338  1
  Al  Al6  1  0.123108  0.122371  0.250000  1
  Al  Al7  1  0.671071  0.670039  0.048448  1
  Al  Al8  1  0.337520  0.337465  0.539319  1
  Al  Al9  1  0.337520  0.337465  0.960681  1
  Al  Al10  1  0.671071  0.670039  0.451552  1
  Al  Al11  1  0.334468  0.996371  0.075930  1
  Al  Al12  1  0.997567  0.336960  0.424107  1
  Al  Al13  1  0.339662  0.558665  0.250000  1
  Al  Al14  1  0.997567  0.336960  0.075893  1
  Al  Al15  1  0.559436  0.342987  0.250000  1
  Al  Al16  1  0.659075  0.446521  0.750000  1
  Al  Al17  1  0.865537  0.864842  0.750000  1
  Al  Al18  1  0.998818  0.662054  0.929662  1
  Al  Al19  1  0.661812  0.998327  0.571587  1
  Al  Al20  1  0.334468  0.996371  0.424070  1
  Al  Al21  1  0.446591  0.657911  0.750000  1
  Co  Co22  1  0.671458  0.326318  0.504134  1
  Co  Co23  1  0.671458  0.326318  0.995866  1
  Co  Co24  1  0.325697  0.671165  0.504265  1
  Co  Co25  1  0.006516  0.006134  0.990776  1
  Co  Co26  1  0.006516  0.006134  0.509224  1
  Co  Co27  1  0.325697  0.671165  0.995735  1
