# generated using pymatgen
data_SrTb5HoPtI12
_symmetry_space_group_name_H-M   'P 1'
_cell_length_a   9.84800119
_cell_length_b   9.83862460
_cell_length_c   9.84357699
_cell_angle_alpha   106.32713968
_cell_angle_beta   106.38240298
_cell_angle_gamma   106.37058800
_symmetry_Int_Tables_number   1
_chemical_formula_structural   SrTb5HoPtI12
_chemical_formula_sum   'Sr1 Tb5 Ho1 Pt1 I12'
_cell_volume   807.75879308
_cell_formula_units_Z   1
loop_
 _symmetry_equiv_pos_site_id
 _symmetry_equiv_pos_as_xyz
  1  'x, y, z'
loop_
 _atom_site_type_symbol
 _atom_site_label
 _atom_site_symmetry_multiplicity
 _atom_site_fract_x
 _atom_site_fract_y
 _atom_site_fract_z
 _atom_site_occupancy
  Sr  Sr0  1  0.000058  0.000086  0.000065  1
  Tb  Tb1  1  0.404173  0.477866  0.200945  1
  Tb  Tb2  1  0.201115  0.404775  0.477627  1
  Tb  Tb3  1  0.477430  0.200675  0.404209  1
  Tb  Tb4  1  0.595794  0.522734  0.799188  1
  Tb  Tb5  1  0.799020  0.596153  0.522619  1
  Ho  Ho6  1  0.522675  0.796795  0.595042  1
  Pt  Pt7  1  0.500065  0.500088  0.500017  1
  I  I8  1  0.048876  0.362947  0.128590  1
  I  I9  1  0.128657  0.048964  0.362909  1
  I  I10  1  0.362776  0.128653  0.048868  1
  I  I11  1  0.951115  0.637145  0.871396  1
  I  I12  1  0.869959  0.951181  0.637116  1
  I  I13  1  0.636540  0.871634  0.949439  1
  I  I14  1  0.722951  0.574134  0.176272  1
  I  I15  1  0.177834  0.723981  0.574410  1
  I  I16  1  0.573803  0.174963  0.722436  1
  I  I17  1  0.277072  0.425948  0.823714  1
  I  I18  1  0.823570  0.277138  0.425936  1
  I  I19  1  0.426516  0.824140  0.279201  1
