# generated using pymatgen
data_Er2MnFe10P7W
_symmetry_space_group_name_H-M   'P 1'
_cell_length_a   9.05541203
_cell_length_b   8.99500919
_cell_length_c   3.62841700
_cell_angle_alpha   90.00000000
_cell_angle_beta   90.00000000
_cell_angle_gamma   119.43682229
_symmetry_Int_Tables_number   1
_chemical_formula_structural   Er2MnFe10P7W
_chemical_formula_sum   'Er2 Mn1 Fe10 P7 W1'
_cell_volume   257.39160867
_cell_formula_units_Z   1
loop_
 _symmetry_equiv_pos_site_id
 _symmetry_equiv_pos_as_xyz
  1  'x, y, z'
loop_
 _atom_site_type_symbol
 _atom_site_label
 _atom_site_symmetry_multiplicity
 _atom_site_fract_x
 _atom_site_fract_y
 _atom_site_fract_z
 _atom_site_occupancy
  Er  Er0  1  0.326513  0.662133  0.000000  1
  Er  Er1  1  0.002200  0.002394  0.500000  1
  Mn  Mn2  1  0.450950  0.216119  0.500000  1
  Fe  Fe3  1  0.036050  0.277602  0.000000  1
  Fe  Fe4  1  0.718452  0.765945  0.000000  1
  Fe  Fe5  1  0.241492  0.965014  0.000000  1
  Fe  Fe6  1  0.545917  0.054597  0.000000  1
  Fe  Fe7  1  0.939719  0.485976  0.000000  1
  Fe  Fe8  1  0.509076  0.447458  0.000000  1
  Fe  Fe9  1  0.621626  0.899609  0.500000  1
  Fe  Fe10  1  0.103892  0.717719  0.500000  1
  Fe  Fe11  1  0.278611  0.380346  0.500000  1
  Fe  Fe12  1  0.789537  0.238453  0.500000  1
  P  P13  1  0.785481  0.047050  0.000000  1
  P  P14  1  0.977134  0.752156  0.000000  1
  P  P15  1  0.252278  0.220932  0.000000  1
  P  P16  1  0.376022  0.925390  0.500000  1
  P  P17  1  0.068625  0.445009  0.500000  1
  P  P18  1  0.537711  0.615849  0.500000  1
  P  P19  1  0.667120  0.325998  0.000000  1
  W  W20  1  0.771590  0.554254  0.500000  1
