# generated using pymatgen
data_Ho3CoSn3HgIr
_symmetry_space_group_name_H-M   'P 1'
_cell_length_a   7.67372000
_cell_length_b   7.67371860
_cell_length_c   3.83455700
_cell_angle_alpha   90.00000000
_cell_angle_beta   90.00000000
_cell_angle_gamma   119.99999626
_symmetry_Int_Tables_number   1
_chemical_formula_structural   Ho3CoSn3HgIr
_chemical_formula_sum   'Ho3 Co1 Sn3 Hg1 Ir1'
_cell_volume   195.54992954
_cell_formula_units_Z   1
loop_
 _symmetry_equiv_pos_site_id
 _symmetry_equiv_pos_as_xyz
  1  'x, y, z'
loop_
 _atom_site_type_symbol
 _atom_site_label
 _atom_site_symmetry_multiplicity
 _atom_site_fract_x
 _atom_site_fract_y
 _atom_site_fract_z
 _atom_site_occupancy
  Ho  Ho0  1  0.386837  0.410876  0.500000  1
  Ho  Ho1  1  0.589124  0.975962  0.500000  1
  Ho  Ho2  1  0.024038  0.613163  0.500000  1
  Co  Co3  1  0.000000  0.000000  0.500000  1
  Sn  Sn4  1  0.752439  0.755832  0.000000  1
  Sn  Sn5  1  0.244168  0.996607  0.000000  1
  Sn  Sn6  1  0.003393  0.247561  0.000000  1
  Hg  Hg7  1  0.666667  0.333333  0.000000  1
  Ir  Ir8  1  0.333333  0.666667  0.000000  1
