# generated using pymatgen
data_Yb10InNi4Hg
_symmetry_space_group_name_H-M   'P 1'
_cell_length_a   8.93475482
_cell_length_b   8.93475420
_cell_length_c   8.93475474
_cell_angle_alpha   130.25161721
_cell_angle_beta   130.25161105
_cell_angle_gamma   73.00483406
_symmetry_Int_Tables_number   1
_chemical_formula_structural   Yb10InNi4Hg
_chemical_formula_sum   'Yb10 In1 Ni4 Hg1'
_cell_volume   405.75865436
_cell_formula_units_Z   1
loop_
 _symmetry_equiv_pos_site_id
 _symmetry_equiv_pos_as_xyz
  1  'x, y, z'
loop_
 _atom_site_type_symbol
 _atom_site_label
 _atom_site_symmetry_multiplicity
 _atom_site_fract_x
 _atom_site_fract_y
 _atom_site_fract_z
 _atom_site_occupancy
  Yb  Yb0  1  0.996348  0.996348  0.000000  1
  Yb  Yb1  1  0.503652  0.503652  0.000000  1
  Yb  Yb2  1  0.802529  0.296547  0.839159  1
  Yb  Yb3  1  0.203453  0.697471  0.160841  1
  Yb  Yb4  1  0.457387  0.963369  0.160841  1
  Yb  Yb5  1  0.296547  0.457387  0.494018  1
  Yb  Yb6  1  0.042613  0.203453  0.505982  1
  Yb  Yb7  1  0.536631  0.042613  0.839159  1
  Yb  Yb8  1  0.697471  0.536631  0.494018  1
  Yb  Yb9  1  0.963369  0.802529  0.505982  1
  In  In10  1  0.750000  0.750000  0.000000  1
  Ni  Ni11  1  0.115489  0.615489  0.730978  1
  Ni  Ni12  1  0.884511  0.384511  0.269022  1
  Ni  Ni13  1  0.615489  0.884511  0.500000  1
  Ni  Ni14  1  0.384511  0.115489  0.500000  1
  Hg  Hg15  1  0.250000  0.250000  0.000000  1
