# generated using pymatgen
data_YHo7ZnIn3
_symmetry_space_group_name_H-M   'P 1'
_cell_length_a   10.61993000
_cell_length_b   10.61993172
_cell_length_c   6.74796500
_cell_angle_alpha   90.00000000
_cell_angle_beta   90.00000000
_cell_angle_gamma   120.00000710
_symmetry_Int_Tables_number   1
_chemical_formula_structural   YHo7ZnIn3
_chemical_formula_sum   'Y2 Ho14 Zn2 In6'
_cell_volume   659.09315410
_cell_formula_units_Z   2
loop_
 _symmetry_equiv_pos_site_id
 _symmetry_equiv_pos_as_xyz
  1  'x, y, z'
loop_
 _atom_site_type_symbol
 _atom_site_label
 _atom_site_symmetry_multiplicity
 _atom_site_fract_x
 _atom_site_fract_y
 _atom_site_fract_z
 _atom_site_occupancy
  Y  Y0  1  0.000000  0.000000  0.498575  1
  Y  Y1  1  0.000000  0.000000  0.998575  1
  Ho  Ho2  1  0.479313  0.520687  0.476838  1
  Ho  Ho3  1  0.041374  0.520687  0.476838  1
  Ho  Ho4  1  0.479313  0.958626  0.476838  1
  Ho  Ho5  1  0.520687  0.479313  0.976838  1
  Ho  Ho6  1  0.958626  0.479313  0.976838  1
  Ho  Ho7  1  0.520687  0.041374  0.976838  1
  Ho  Ho8  1  0.827131  0.172869  0.260420  1
  Ho  Ho9  1  0.345738  0.172869  0.260420  1
  Ho  Ho10  1  0.827131  0.654262  0.260420  1
  Ho  Ho11  1  0.172869  0.827131  0.760420  1
  Ho  Ho12  1  0.654262  0.827131  0.760420  1
  Ho  Ho13  1  0.172869  0.345738  0.760420  1
  Ho  Ho14  1  0.333333  0.666667  0.129459  1
  Ho  Ho15  1  0.666667  0.333333  0.629459  1
  Zn  Zn16  1  0.333333  0.666667  0.693743  1
  Zn  Zn17  1  0.666667  0.333333  0.193743  1
  In  In18  1  0.164484  0.835516  0.246241  1
  In  In19  1  0.671032  0.835516  0.246241  1
  In  In20  1  0.164484  0.328968  0.246241  1
  In  In21  1  0.835516  0.164484  0.746241  1
  In  In22  1  0.328968  0.164484  0.746241  1
  In  In23  1  0.835516  0.671032  0.746241  1
