# generated using pymatgen
data_Ac2ZnSi2Ag
_symmetry_space_group_name_H-M   'P 1'
_cell_length_a   11.79110365
_cell_length_b   9.98205630
_cell_length_c   8.83959771
_cell_angle_alpha   77.31580265
_cell_angle_beta   55.68133394
_cell_angle_gamma   47.00285993
_symmetry_Int_Tables_number   1
_chemical_formula_structural   Ac2ZnSi2Ag
_chemical_formula_sum   'Ac8 Zn4 Si8 Ag4'
_cell_volume   604.60424019
_cell_formula_units_Z   4
loop_
 _symmetry_equiv_pos_site_id
 _symmetry_equiv_pos_as_xyz
  1  'x, y, z'
loop_
 _atom_site_type_symbol
 _atom_site_label
 _atom_site_symmetry_multiplicity
 _atom_site_fract_x
 _atom_site_fract_y
 _atom_site_fract_z
 _atom_site_occupancy
  Ac  Ac0  1  0.374659  0.374659  0.625341  1
  Ac  Ac1  1  0.625341  0.625341  0.374659  1
  Ac  Ac2  1  0.875341  0.875341  0.624659  1
  Ac  Ac3  1  0.624659  0.624659  0.875341  1
  Ac  Ac4  1  0.875254  0.875254  0.124746  1
  Ac  Ac5  1  0.124746  0.124746  0.875254  1
  Ac  Ac6  1  0.374746  0.374746  0.125254  1
  Ac  Ac7  1  0.125254  0.125254  0.374746  1
  Zn  Zn8  1  0.661568  0.338432  0.661568  1
  Zn  Zn9  1  0.338432  0.661568  0.338432  1
  Zn  Zn10  1  0.588432  0.911568  0.588432  1
  Zn  Zn11  1  0.911568  0.588432  0.911568  1
  Si  Si12  1  0.333379  0.663723  0.824867  1
  Si  Si13  1  0.178030  0.824867  0.663723  1
  Si  Si14  1  0.824867  0.178030  0.333379  1
  Si  Si15  1  0.663723  0.333379  0.178030  1
  Si  Si16  1  0.916621  0.586277  0.425133  1
  Si  Si17  1  0.071970  0.425133  0.586277  1
  Si  Si18  1  0.425133  0.071970  0.916621  1
  Si  Si19  1  0.586277  0.916621  0.071970  1
  Ag  Ag20  1  0.834696  0.165304  0.834696  1
  Ag  Ag21  1  0.165304  0.834696  0.165304  1
  Ag  Ag22  1  0.415304  0.084696  0.415304  1
  Ag  Ag23  1  0.084696  0.415304  0.084696  1
