# generated using pymatgen
data_KRb3(SiP)12
_symmetry_space_group_name_H-M   'P 1'
_cell_length_a   3.55455800
_cell_length_b   9.92138614
_cell_length_c   19.85122314
_cell_angle_alpha   89.32302864
_cell_angle_beta   90.00000000
_cell_angle_gamma   90.00000000
_symmetry_Int_Tables_number   1
_chemical_formula_structural   KRb3(SiP)12
_chemical_formula_sum   'K1 Rb3 Si12 P12'
_cell_volume   700.02719768
_cell_formula_units_Z   1
loop_
 _symmetry_equiv_pos_site_id
 _symmetry_equiv_pos_as_xyz
  1  'x, y, z'
loop_
 _atom_site_type_symbol
 _atom_site_label
 _atom_site_symmetry_multiplicity
 _atom_site_fract_x
 _atom_site_fract_y
 _atom_site_fract_z
 _atom_site_occupancy
  K  K0  1  0.000000  0.800840  0.191809  1
  Rb  Rb1  1  0.000000  0.306056  0.304433  1
  Rb  Rb2  1  0.000000  0.706044  0.691241  1
  Rb  Rb3  1  0.000000  0.204650  0.808545  1
  Si  Si4  1  0.500000  0.398463  0.038566  1
  Si  Si5  1  0.500000  0.592810  0.969326  1
  Si  Si6  1  0.500000  0.097826  0.532496  1
  Si  Si7  1  0.500000  0.907167  0.462983  1
  Si  Si8  1  0.000000  0.109423  0.018007  1
  Si  Si9  1  0.000000  0.882411  0.987106  1
  Si  Si10  1  0.000000  0.388389  0.512384  1
  Si  Si11  1  0.000000  0.616820  0.481027  1
  Si  Si12  1  0.000000  0.169414  0.132169  1
  Si  Si13  1  0.000000  0.818522  0.873247  1
  Si  Si14  1  0.000000  0.322450  0.626688  1
  Si  Si15  1  0.000000  0.686691  0.367147  1
  P  P16  1  0.500000  0.100564  0.191957  1
  P  P17  1  0.500000  0.887073  0.813491  1
  P  P18  1  0.500000  0.389455  0.686021  1
  P  P19  1  0.500000  0.621083  0.307243  1
  P  P20  1  0.500000  0.284856  0.462016  1
  P  P21  1  0.500000  0.718611  0.532356  1
  P  P22  1  0.500000  0.215460  0.967658  1
  P  P23  1  0.500000  0.778217  0.038661  1
  P  P24  1  0.000000  0.400771  0.110441  1
  P  P25  1  0.000000  0.588076  0.897396  1
  P  P26  1  0.000000  0.092172  0.604489  1
  P  P27  1  0.000000  0.915683  0.391097  1
