# generated using pymatgen
data_SrAsOsF12
_symmetry_space_group_name_H-M   'P 1'
_cell_length_a   11.67014691
_cell_length_b   5.97054205
_cell_length_c   6.00814800
_cell_angle_alpha   57.29036955
_cell_angle_beta   55.91510245
_cell_angle_gamma   56.30552867
_symmetry_Int_Tables_number   1
_chemical_formula_structural   SrAsOsF12
_chemical_formula_sum   'Sr1 As1 Os1 F12'
_cell_volume   272.00141541
_cell_formula_units_Z   1
loop_
 _symmetry_equiv_pos_site_id
 _symmetry_equiv_pos_as_xyz
  1  'x, y, z'
loop_
 _atom_site_type_symbol
 _atom_site_label
 _atom_site_symmetry_multiplicity
 _atom_site_fract_x
 _atom_site_fract_y
 _atom_site_fract_z
 _atom_site_occupancy
  Sr  Sr0  1  0.723864  0.509177  0.528302  1
  As  As1  1  0.494534  0.012137  0.994511  1
  Os  Os2  1  0.007353  0.989501  0.000022  1
  F  F3  1  0.166890  0.115916  0.771866  1
  F  F4  1  0.674660  0.050694  0.814234  1
  F  F5  1  0.065010  0.775699  0.315078  1
  F  F6  1  0.529711  0.832933  0.318763  1
  F  F7  1  0.112856  0.675657  0.875020  1
  F  F8  1  0.598826  0.665664  0.946312  1
  F  F9  1  0.484733  0.162196  0.659060  1
  F  F10  1  0.929833  0.222907  0.693466  1
  F  F11  1  0.330709  0.951417  0.178799  1
  F  F12  1  0.832600  0.874982  0.234253  1
  F  F13  1  0.414733  0.344040  0.032695  1
  F  F14  1  0.883687  0.317083  0.137621  1
