# generated using pymatgen
data_CeRe4SiP
_symmetry_space_group_name_H-M   'P 1'
_cell_length_a   7.25383438
_cell_length_b   7.25383497
_cell_length_c   4.05527700
_cell_angle_alpha   90.00000000
_cell_angle_beta   90.00000000
_cell_angle_gamma   147.07394612
_symmetry_Int_Tables_number   1
_chemical_formula_structural   CeRe4SiP
_chemical_formula_sum   'Ce1 Re4 Si1 P1'
_cell_volume   115.98458608
_cell_formula_units_Z   1
loop_
 _symmetry_equiv_pos_site_id
 _symmetry_equiv_pos_as_xyz
  1  'x, y, z'
loop_
 _atom_site_type_symbol
 _atom_site_label
 _atom_site_symmetry_multiplicity
 _atom_site_fract_x
 _atom_site_fract_y
 _atom_site_fract_z
 _atom_site_occupancy
  Ce  Ce0  1  0.999318  0.000682  0.000000  1
  Re  Re1  1  0.184173  0.815827  0.500000  1
  Re  Re2  1  0.308335  0.691665  0.000000  1
  Re  Re3  1  0.816957  0.183043  0.500000  1
  Re  Re4  1  0.693108  0.306892  0.000000  1
  Si  Si5  1  0.585760  0.414240  0.500000  1
  P  P6  1  0.412349  0.587651  0.500000  1
