# generated using pymatgen
data_La2Pr2SiBr5
_symmetry_space_group_name_H-M   'P 1'
_cell_length_a   9.76618112
_cell_length_b   9.76618143
_cell_length_c   8.74578156
_cell_angle_alpha   77.64134097
_cell_angle_beta   77.64133975
_cell_angle_gamma   25.30214067
_symmetry_Int_Tables_number   1
_chemical_formula_structural   La2Pr2SiBr5
_chemical_formula_sum   'La2 Pr2 Si1 Br5'
_cell_volume   347.82914824
_cell_formula_units_Z   1
loop_
 _symmetry_equiv_pos_site_id
 _symmetry_equiv_pos_as_xyz
  1  'x, y, z'
loop_
 _atom_site_type_symbol
 _atom_site_label
 _atom_site_symmetry_multiplicity
 _atom_site_fract_x
 _atom_site_fract_y
 _atom_site_fract_z
 _atom_site_occupancy
  La  La0  1  0.847135  0.847135  0.081576  1
  La  La1  1  0.152865  0.152865  0.918424  1
  Pr  Pr2  1  0.501023  0.501023  0.224337  1
  Pr  Pr3  1  0.498977  0.498977  0.775663  1
  Si  Si4  1  0.000000  0.000000  0.000000  1
  Br  Br5  1  0.670541  0.670541  0.163775  1
  Br  Br6  1  0.329459  0.329459  0.836225  1
  Br  Br7  1  0.663905  0.663905  0.668856  1
  Br  Br8  1  0.336095  0.336095  0.331144  1
  Br  Br9  1  0.000000  0.000000  0.500000  1
