# generated using pymatgen
data_Ba6MnNb4FeO18
_symmetry_space_group_name_H-M   'P 1'
_cell_length_a   9.34118758
_cell_length_b   9.36142240
_cell_length_c   11.75208408
_cell_angle_alpha   108.28129733
_cell_angle_beta   108.33791762
_cell_angle_gamma   66.35780066
_symmetry_Int_Tables_number   1
_chemical_formula_structural   Ba6MnNb4FeO18
_chemical_formula_sum   'Ba12 Mn2 Nb8 Fe2 O36'
_cell_volume   872.59347240
_cell_formula_units_Z   2
loop_
 _symmetry_equiv_pos_site_id
 _symmetry_equiv_pos_as_xyz
  1  'x, y, z'
loop_
 _atom_site_type_symbol
 _atom_site_label
 _atom_site_symmetry_multiplicity
 _atom_site_fract_x
 _atom_site_fract_y
 _atom_site_fract_z
 _atom_site_occupancy
  Ba  Ba0  1  0.999710  0.999534  0.499919  1
  Ba  Ba1  1  0.500000  0.500000  0.750000  1
  Ba  Ba2  1  0.000290  0.000466  0.000081  1
  Ba  Ba3  1  0.500000  0.500000  0.250000  1
  Ba  Ba4  1  0.167184  0.499850  0.418172  1
  Ba  Ba5  1  0.667682  0.999164  0.668164  1
  Ba  Ba6  1  0.168003  0.499035  0.915481  1
  Ba  Ba7  1  0.667496  0.999705  0.165439  1
  Ba  Ba8  1  0.332504  0.000295  0.334561  1
  Ba  Ba9  1  0.831997  0.500965  0.584519  1
  Ba  Ba10  1  0.332318  0.000836  0.831836  1
  Ba  Ba11  1  0.832816  0.500150  0.081828  1
  Mn  Mn12  1  0.250068  0.249844  0.124948  1
  Mn  Mn13  1  0.749932  0.750156  0.375052  1
  Nb  Nb14  1  0.921153  0.254462  0.295005  1
  Nb  Nb15  1  0.420645  0.755171  0.544927  1
  Nb  Nb16  1  0.921283  0.254865  0.793032  1
  Nb  Nb17  1  0.421796  0.754111  0.042984  1
  Nb  Nb18  1  0.578204  0.245889  0.457016  1
  Nb  Nb19  1  0.078717  0.745135  0.706968  1
  Nb  Nb20  1  0.579355  0.244829  0.955073  1
  Nb  Nb21  1  0.078847  0.745538  0.204995  1
  Fe  Fe22  1  0.249931  0.250136  0.625088  1
  Fe  Fe23  1  0.750069  0.749864  0.874912  1
  O  O24  1  0.249905  0.750150  0.375146  1
  O  O25  1  0.749943  0.250191  0.625123  1
  O  O26  1  0.250057  0.749809  0.874877  1
  O  O27  1  0.750095  0.249850  0.124854  1
  O  O28  1  0.749650  0.249746  0.375542  1
  O  O29  1  0.249630  0.749771  0.625521  1
  O  O30  1  0.750370  0.250229  0.874479  1
  O  O31  1  0.250350  0.750254  0.124458  1
  O  O32  1  0.000000  0.000000  0.250000  1
  O  O33  1  0.499757  0.499962  0.500890  1
  O  O34  1  0.000000  0.000000  0.750000  1
  O  O35  1  0.500243  0.500038  0.999110  1
  O  O36  1  0.425112  0.252390  0.542181  1
  O  O37  1  0.925327  0.752271  0.792092  1
  O  O38  1  0.425429  0.252889  0.038913  1
  O  O39  1  0.925182  0.752891  0.288844  1
  O  O40  1  0.664815  0.013003  0.420144  1
  O  O41  1  0.165018  0.512530  0.669918  1
  O  O42  1  0.665511  0.012427  0.919040  1
  O  O43  1  0.165307  0.512891  0.169159  1
  O  O44  1  0.424821  0.253027  0.300095  1
  O  O45  1  0.924959  0.752516  0.550001  1
  O  O46  1  0.425277  0.251954  0.796893  1
  O  O47  1  0.925160  0.752412  0.046903  1
  O  O48  1  0.834693  0.487109  0.330841  1
  O  O49  1  0.334489  0.987573  0.580960  1
  O  O50  1  0.834982  0.487470  0.830082  1
  O  O51  1  0.335185  0.986997  0.079856  1
  O  O52  1  0.074818  0.247109  0.211156  1
  O  O53  1  0.574571  0.747111  0.461087  1
  O  O54  1  0.074673  0.247729  0.707908  1
  O  O55  1  0.574888  0.747610  0.957819  1
  O  O56  1  0.074840  0.247588  0.453097  1
  O  O57  1  0.574723  0.748046  0.703107  1
  O  O58  1  0.075041  0.247484  0.949999  1
  O  O59  1  0.575179  0.746973  0.199905  1
