# generated using pymatgen
data_Ce5FeReB6
_symmetry_space_group_name_H-M   'P 1'
_cell_length_a   5.41175696
_cell_length_b   5.41175855
_cell_length_c   8.33177822
_cell_angle_alpha   71.04858701
_cell_angle_beta   71.04859977
_cell_angle_gamma   59.99999756
_symmetry_Int_Tables_number   1
_chemical_formula_structural   Ce5FeReB6
_chemical_formula_sum   'Ce5 Fe1 Re1 B6'
_cell_volume   195.90022383
_cell_formula_units_Z   1
loop_
 _symmetry_equiv_pos_site_id
 _symmetry_equiv_pos_as_xyz
  1  'x, y, z'
loop_
 _atom_site_type_symbol
 _atom_site_label
 _atom_site_symmetry_multiplicity
 _atom_site_fract_x
 _atom_site_fract_y
 _atom_site_fract_z
 _atom_site_occupancy
  Ce  Ce0  1  0.008446  0.008446  0.974661  1
  Ce  Ce1  1  0.744908  0.744908  0.765277  1
  Ce  Ce2  1  0.255138  0.255138  0.234586  1
  Ce  Ce3  1  0.587466  0.587466  0.237603  1
  Ce  Ce4  1  0.411060  0.411060  0.766822  1
  Fe  Fe5  1  0.111579  0.111579  0.665264  1
  Re  Re6  1  0.890988  0.890988  0.327039  1
  B  B7  1  0.495392  0.168965  0.504792  1
  B  B8  1  0.830852  0.495392  0.504792  1
  B  B9  1  0.168965  0.830852  0.504792  1
  B  B10  1  0.168965  0.495392  0.504792  1
  B  B11  1  0.830852  0.168965  0.504792  1
  B  B12  1  0.495392  0.830852  0.504792  1
