# generated using pymatgen
data_NbRhSe4
_symmetry_space_group_name_H-M   'P 1'
_cell_length_a   3.61350500
_cell_length_b   11.96833500
_cell_length_c   13.08896700
_cell_angle_alpha   90.00000000
_cell_angle_beta   90.00000000
_cell_angle_gamma   90.00000000
_symmetry_Int_Tables_number   1
_chemical_formula_structural   NbRhSe4
_chemical_formula_sum   'Nb4 Rh4 Se16'
_cell_volume   566.06691138
_cell_formula_units_Z   4
loop_
 _symmetry_equiv_pos_site_id
 _symmetry_equiv_pos_as_xyz
  1  'x, y, z'
loop_
 _atom_site_type_symbol
 _atom_site_label
 _atom_site_symmetry_multiplicity
 _atom_site_fract_x
 _atom_site_fract_y
 _atom_site_fract_z
 _atom_site_occupancy
  Nb  Nb0  1  0.500000  0.949523  0.499168  1
  Nb  Nb1  1  0.000000  0.050477  0.999168  1
  Nb  Nb2  1  0.500000  0.733107  0.995477  1
  Nb  Nb3  1  0.000000  0.266893  0.495477  1
  Rh  Rh4  1  0.500000  0.469068  0.499079  1
  Rh  Rh5  1  0.000000  0.530932  0.999079  1
  Rh  Rh6  1  0.500000  0.252333  0.993896  1
  Rh  Rh7  1  0.000000  0.747667  0.493896  1
  Se  Se8  1  0.500000  0.936475  0.894726  1
  Se  Se9  1  0.000000  0.063525  0.394726  1
  Se  Se10  1  0.500000  0.804311  0.365198  1
  Se  Se11  1  0.000000  0.195689  0.865198  1
  Se  Se12  1  0.500000  0.652946  0.593403  1
  Se  Se13  1  0.000000  0.347054  0.093403  1
  Se  Se14  1  0.500000  0.585821  0.127780  1
  Se  Se15  1  0.000000  0.414179  0.627780  1
  Se  Se16  1  0.500000  0.436069  0.899410  1
  Se  Se17  1  0.000000  0.563931  0.399410  1
  Se  Se18  1  0.500000  0.319392  0.361851  1
  Se  Se19  1  0.000000  0.680608  0.861851  1
  Se  Se20  1  0.500000  0.153149  0.601333  1
  Se  Se21  1  0.000000  0.846851  0.101333  1
  Se  Se22  1  0.500000  0.104828  0.132678  1
  Se  Se23  1  0.000000  0.895172  0.632678  1
