# generated using pymatgen
data_CsH5Rh
_symmetry_space_group_name_H-M   'P 1'
_cell_length_a   11.51423100
_cell_length_b   7.50882500
_cell_length_c   4.80261500
_cell_angle_alpha   90.00000000
_cell_angle_beta   90.00000000
_cell_angle_gamma   90.00000000
_symmetry_Int_Tables_number   1
_chemical_formula_structural   CsH5Rh
_chemical_formula_sum   'Cs4 H20 Rh4'
_cell_volume   415.22614740
_cell_formula_units_Z   4
loop_
 _symmetry_equiv_pos_site_id
 _symmetry_equiv_pos_as_xyz
  1  'x, y, z'
loop_
 _atom_site_type_symbol
 _atom_site_label
 _atom_site_symmetry_multiplicity
 _atom_site_fract_x
 _atom_site_fract_y
 _atom_site_fract_z
 _atom_site_occupancy
  Cs  Cs0  1  0.677752  0.103302  0.278867  1
  Cs  Cs1  1  0.177752  0.396697  0.278867  1
  Cs  Cs2  1  0.822248  0.603302  0.778867  1
  Cs  Cs3  1  0.322248  0.896698  0.778867  1
  H  H4  1  0.330356  0.336591  0.779049  1
  H  H5  1  0.830356  0.163409  0.779049  1
  H  H6  1  0.040306  0.739955  0.487033  1
  H  H7  1  0.540306  0.760044  0.487033  1
  H  H8  1  0.583224  0.463611  0.974794  1
  H  H9  1  0.083223  0.036389  0.974794  1
  H  H10  1  0.417287  0.538844  0.046417  1
  H  H11  1  0.917287  0.961157  0.046417  1
  H  H12  1  0.950985  0.257862  0.537285  1
  H  H13  1  0.450985  0.242139  0.537285  1
  H  H14  1  0.169644  0.836591  0.279048  1
  H  H15  1  0.669644  0.663408  0.279048  1
  H  H16  1  0.459695  0.239955  0.987035  1
  H  H17  1  0.959695  0.260044  0.987035  1
  H  H18  1  0.916777  0.963610  0.474794  1
  H  H19  1  0.416777  0.536390  0.474794  1
  H  H20  1  0.082713  0.038843  0.546417  1
  H  H21  1  0.582713  0.461157  0.546417  1
  H  H22  1  0.549015  0.757862  0.037287  1
  H  H23  1  0.049015  0.742139  0.037287  1
  Rh  Rh24  1  0.536115  0.604058  0.263555  1
  Rh  Rh25  1  0.036115  0.895942  0.263555  1
  Rh  Rh26  1  0.963885  0.104057  0.763554  1
  Rh  Rh27  1  0.463885  0.395943  0.763554  1
