# generated using pymatgen
data_Nd4In16Pt5Au3
_symmetry_space_group_name_H-M   'P 1'
_cell_length_a   4.63426900
_cell_length_b   7.33940602
_cell_length_c   18.76335937
_cell_angle_alpha   90.05894146
_cell_angle_beta   90.00000000
_cell_angle_gamma   90.00000000
_symmetry_Int_Tables_number   1
_chemical_formula_structural   Nd4In16Pt5Au3
_chemical_formula_sum   'Nd4 In16 Pt5 Au3'
_cell_volume   638.19370997
_cell_formula_units_Z   1
loop_
 _symmetry_equiv_pos_site_id
 _symmetry_equiv_pos_as_xyz
  1  'x, y, z'
loop_
 _atom_site_type_symbol
 _atom_site_label
 _atom_site_symmetry_multiplicity
 _atom_site_fract_x
 _atom_site_fract_y
 _atom_site_fract_z
 _atom_site_occupancy
  Nd  Nd0  1  0.750000  0.972702  0.641912  1
  Nd  Nd1  1  0.250000  0.476863  0.857847  1
  Nd  Nd2  1  0.750000  0.526005  0.142986  1
  Nd  Nd3  1  0.250000  0.024300  0.357652  1
  In  In4  1  0.250000  0.236134  0.190845  1
  In  In5  1  0.250000  0.505331  0.427206  1
  In  In6  1  0.250000  0.994324  0.930306  1
  In  In7  1  0.250000  0.826666  0.186010  1
  In  In8  1  0.250000  0.678330  0.684745  1
  In  In9  1  0.250000  0.257216  0.690134  1
  In  In10  1  0.250000  0.139590  0.534990  1
  In  In11  1  0.750000  0.986912  0.072784  1
  In  In12  1  0.750000  0.168953  0.814891  1
  In  In13  1  0.250000  0.360351  0.036459  1
  In  In14  1  0.750000  0.848314  0.464757  1
  In  In15  1  0.750000  0.652501  0.967166  1
  In  In16  1  0.750000  0.765971  0.811060  1
  In  In17  1  0.750000  0.516746  0.568100  1
  In  In18  1  0.750000  0.328999  0.311217  1
  In  In19  1  0.750000  0.737241  0.307995  1
  Pt  Pt20  1  0.250000  0.963489  0.783018  1
  Pt  Pt21  1  0.750000  0.035415  0.218249  1
  Pt  Pt22  1  0.250000  0.536735  0.281263  1
  Pt  Pt23  1  0.250000  0.750306  0.539480  1
  Pt  Pt24  1  0.250000  0.748378  0.041181  1
  Au  Au25  1  0.750000  0.247961  0.458395  1
  Au  Au26  1  0.750000  0.251035  0.961190  1
  Au  Au27  1  0.750000  0.463230  0.718165  1
