# generated using pymatgen
data_SmTm7(AlRu)8
_symmetry_space_group_name_H-M   'P 1'
_cell_length_a   4.07417700
_cell_length_b   6.96226295
_cell_length_c   15.86352709
_cell_angle_alpha   89.90747295
_cell_angle_beta   90.00000000
_cell_angle_gamma   90.00000000
_symmetry_Int_Tables_number   1
_chemical_formula_structural   SmTm7(AlRu)8
_chemical_formula_sum   'Sm1 Tm7 Al8 Ru8'
_cell_volume   449.97615726
_cell_formula_units_Z   1
loop_
 _symmetry_equiv_pos_site_id
 _symmetry_equiv_pos_as_xyz
  1  'x, y, z'
loop_
 _atom_site_type_symbol
 _atom_site_label
 _atom_site_symmetry_multiplicity
 _atom_site_fract_x
 _atom_site_fract_y
 _atom_site_fract_z
 _atom_site_occupancy
  Sm  Sm0  1  0.250000  0.535948  0.720151  1
  Tm  Tm1  1  0.750000  0.962558  0.219220  1
  Tm  Tm2  1  0.250000  0.158192  0.562253  1
  Tm  Tm3  1  0.750000  0.844221  0.435267  1
  Tm  Tm4  1  0.750000  0.462327  0.281036  1
  Tm  Tm5  1  0.750000  0.342084  0.064365  1
  Tm  Tm6  1  0.250000  0.656342  0.937729  1
  Tm  Tm7  1  0.250000  0.037515  0.782043  1
  Al  Al8  1  0.750000  0.503577  0.563701  1
  Al  Al9  1  0.750000  0.362802  0.851167  1
  Al  Al10  1  0.750000  0.000512  0.935366  1
  Al  Al11  1  0.750000  0.869326  0.649834  1
  Al  Al12  1  0.250000  0.499262  0.433267  1
  Al  Al13  1  0.250000  0.996954  0.066939  1
  Al  Al14  1  0.250000  0.633103  0.151865  1
  Al  Al15  1  0.250000  0.133929  0.348140  1
  Ru  Ru16  1  0.750000  0.752302  0.813587  1
  Ru  Ru17  1  0.250000  0.235712  0.938473  1
  Ru  Ru18  1  0.750000  0.263702  0.436756  1
  Ru  Ru19  1  0.250000  0.752877  0.312140  1
  Ru  Ru20  1  0.750000  0.761743  0.063367  1
  Ru  Ru21  1  0.750000  0.242042  0.685725  1
  Ru  Ru22  1  0.250000  0.252344  0.187250  1
  Ru  Ru23  1  0.250000  0.740627  0.560361  1
