# generated using pymatgen
data_YErCo2(CuO5)2
_symmetry_space_group_name_H-M   'P 1'
_cell_length_a   5.60148000
_cell_length_b   7.41863598
_cell_length_c   8.37506206
_cell_angle_alpha   89.94173451
_cell_angle_beta   90.00000000
_cell_angle_gamma   90.00000000
_symmetry_Int_Tables_number   1
_chemical_formula_structural   YErCo2(CuO5)2
_chemical_formula_sum   'Y2 Er2 Co4 Cu4 O20'
_cell_volume   348.02838039
_cell_formula_units_Z   2
loop_
 _symmetry_equiv_pos_site_id
 _symmetry_equiv_pos_as_xyz
  1  'x, y, z'
loop_
 _atom_site_type_symbol
 _atom_site_label
 _atom_site_symmetry_multiplicity
 _atom_site_fract_x
 _atom_site_fract_y
 _atom_site_fract_z
 _atom_site_occupancy
  Y  Y0  1  0.500000  0.146730  0.825675  1
  Y  Y1  1  0.500000  0.853270  0.174325  1
  Er  Er2  1  0.500000  0.349415  0.326999  1
  Er  Er3  1  0.500000  0.650585  0.673001  1
  Co  Co4  1  0.240786  0.000000  0.500000  1
  Co  Co5  1  0.759214  0.000000  0.500000  1
  Co  Co6  1  0.756830  0.500000  0.000000  1
  Co  Co7  1  0.243170  0.500000  0.000000  1
  Cu  Cu8  1  0.000000  0.073957  0.152253  1
  Cu  Cu9  1  0.000000  0.926043  0.847747  1
  Cu  Cu10  1  0.000000  0.430441  0.653881  1
  Cu  Cu11  1  0.000000  0.569559  0.346119  1
  O  O12  1  0.228911  0.000000  0.000000  1
  O  O13  1  0.771089  0.000000  0.000000  1
  O  O14  1  0.770552  0.500000  0.500000  1
  O  O15  1  0.229448  0.500000  0.500000  1
  O  O16  1  0.000000  0.350594  0.059392  1
  O  O17  1  0.000000  0.649406  0.940608  1
  O  O18  1  0.000000  0.144580  0.562533  1
  O  O19  1  0.000000  0.855420  0.437467  1
  O  O20  1  0.259431  0.096425  0.290252  1
  O  O21  1  0.740569  0.903575  0.709748  1
  O  O22  1  0.259431  0.903575  0.709748  1
  O  O23  1  0.740872  0.409168  0.790916  1
  O  O24  1  0.740569  0.096425  0.290252  1
  O  O25  1  0.259128  0.590832  0.209084  1
  O  O26  1  0.740872  0.590832  0.209084  1
  O  O27  1  0.259128  0.409168  0.790916  1
  O  O28  1  0.500000  0.336975  0.053034  1
  O  O29  1  0.500000  0.663025  0.946966  1
  O  O30  1  0.500000  0.162419  0.551202  1
  O  O31  1  0.500000  0.837581  0.448798  1
