# generated using pymatgen
data_Tb3GaSn3Ir2
_symmetry_space_group_name_H-M   'P 1'
_cell_length_a   7.47854300
_cell_length_b   7.47854429
_cell_length_c   4.11557300
_cell_angle_alpha   90.00000000
_cell_angle_beta   90.00000000
_cell_angle_gamma   119.99998987
_symmetry_Int_Tables_number   1
_chemical_formula_structural   Tb3GaSn3Ir2
_chemical_formula_sum   'Tb3 Ga1 Sn3 Ir2'
_cell_volume   199.34027385
_cell_formula_units_Z   1
loop_
 _symmetry_equiv_pos_site_id
 _symmetry_equiv_pos_as_xyz
  1  'x, y, z'
loop_
 _atom_site_type_symbol
 _atom_site_label
 _atom_site_symmetry_multiplicity
 _atom_site_fract_x
 _atom_site_fract_y
 _atom_site_fract_z
 _atom_site_occupancy
  Tb  Tb0  1  0.601958  0.011252  0.000000  1
  Tb  Tb1  1  0.988748  0.590706  0.000000  1
  Tb  Tb2  1  0.409294  0.398042  0.000000  1
  Ga  Ga3  1  0.333333  0.666667  0.500000  1
  Sn  Sn4  1  0.256567  0.005977  0.500000  1
  Sn  Sn5  1  0.994023  0.250590  0.500000  1
  Sn  Sn6  1  0.749410  0.743433  0.500000  1
  Ir  Ir7  1  0.666667  0.333333  0.500000  1
  Ir  Ir8  1  0.000000  0.000000  0.000000  1
