# generated using pymatgen
data_HoCoP3Ir3Rh
_symmetry_space_group_name_H-M   'P 1'
_cell_length_a   3.91197100
_cell_length_b   10.71029000
_cell_length_c   12.40711300
_cell_angle_alpha   90.00000000
_cell_angle_beta   90.00000000
_cell_angle_gamma   90.00000000
_symmetry_Int_Tables_number   1
_chemical_formula_structural   HoCoP3Ir3Rh
_chemical_formula_sum   'Ho4 Co4 P12 Ir12 Rh4'
_cell_volume   519.83748705
_cell_formula_units_Z   4
loop_
 _symmetry_equiv_pos_site_id
 _symmetry_equiv_pos_as_xyz
  1  'x, y, z'
loop_
 _atom_site_type_symbol
 _atom_site_label
 _atom_site_symmetry_multiplicity
 _atom_site_fract_x
 _atom_site_fract_y
 _atom_site_fract_z
 _atom_site_occupancy
  Ho  Ho0  1  0.250000  0.584331  0.709346  1
  Ho  Ho1  1  0.250000  0.915669  0.209346  1
  Ho  Ho2  1  0.750000  0.415669  0.290654  1
  Ho  Ho3  1  0.750000  0.084331  0.790654  1
  Co  Co4  1  0.250000  0.463044  0.933913  1
  Co  Co5  1  0.250000  0.036956  0.433913  1
  Co  Co6  1  0.750000  0.536956  0.066087  1
  Co  Co7  1  0.750000  0.963044  0.566087  1
  P  P8  1  0.250000  0.425506  0.105490  1
  P  P9  1  0.250000  0.074494  0.605490  1
  P  P10  1  0.750000  0.574494  0.894510  1
  P  P11  1  0.750000  0.925506  0.394510  1
  P  P12  1  0.250000  0.270802  0.871466  1
  P  P13  1  0.250000  0.229198  0.371466  1
  P  P14  1  0.750000  0.729198  0.128534  1
  P  P15  1  0.750000  0.770802  0.628534  1
  P  P16  1  0.250000  0.596450  0.384993  1
  P  P17  1  0.250000  0.903550  0.884993  1
  P  P18  1  0.750000  0.403550  0.615007  1
  P  P19  1  0.750000  0.096450  0.115007  1
  Ir  Ir20  1  0.250000  0.407757  0.477260  1
  Ir  Ir21  1  0.250000  0.092243  0.977260  1
  Ir  Ir22  1  0.750000  0.592243  0.522740  1
  Ir  Ir23  1  0.750000  0.907757  0.022740  1
  Ir  Ir24  1  0.250000  0.230596  0.179552  1
  Ir  Ir25  1  0.250000  0.269404  0.679552  1
  Ir  Ir26  1  0.750000  0.769404  0.820448  1
  Ir  Ir27  1  0.750000  0.730596  0.320448  1
  Ir  Ir28  1  0.250000  0.885581  0.697525  1
  Ir  Ir29  1  0.250000  0.614419  0.197525  1
  Ir  Ir30  1  0.750000  0.114419  0.302475  1
  Ir  Ir31  1  0.750000  0.385581  0.802475  1
  Rh  Rh32  1  0.250000  0.719505  0.980889  1
  Rh  Rh33  1  0.250000  0.780495  0.480889  1
  Rh  Rh34  1  0.750000  0.280495  0.019111  1
  Rh  Rh35  1  0.750000  0.219505  0.519111  1
