# generated using pymatgen
data_Sm8CdInPd23
_symmetry_space_group_name_H-M   'P 1'
_cell_length_a   8.46701200
_cell_length_b   8.60470300
_cell_length_c   8.50281800
_cell_angle_alpha   90.00000000
_cell_angle_beta   90.00000000
_cell_angle_gamma   90.00000000
_symmetry_Int_Tables_number   1
_chemical_formula_structural   Sm8CdInPd23
_chemical_formula_sum   'Sm8 Cd1 In1 Pd23'
_cell_volume   619.48235879
_cell_formula_units_Z   1
loop_
 _symmetry_equiv_pos_site_id
 _symmetry_equiv_pos_as_xyz
  1  'x, y, z'
loop_
 _atom_site_type_symbol
 _atom_site_label
 _atom_site_symmetry_multiplicity
 _atom_site_fract_x
 _atom_site_fract_y
 _atom_site_fract_z
 _atom_site_occupancy
  Sm  Sm0  1  0.248927  0.241580  0.259823  1
  Sm  Sm1  1  0.749190  0.748384  0.750556  1
  Sm  Sm2  1  0.749190  0.748384  0.249444  1
  Sm  Sm3  1  0.749190  0.251616  0.750556  1
  Sm  Sm4  1  0.248927  0.241580  0.740177  1
  Sm  Sm5  1  0.248927  0.758420  0.259823  1
  Sm  Sm6  1  0.248927  0.758420  0.740177  1
  Sm  Sm7  1  0.749190  0.251616  0.249444  1
  Cd  Cd8  1  0.275335  0.500000  0.000000  1
  In  In9  1  0.999146  0.000000  0.000000  1
  Pd  Pd10  1  0.733635  0.500000  0.000000  1
  Pd  Pd11  1  0.997209  0.266327  0.500000  1
  Pd  Pd12  1  0.498107  0.263769  0.000000  1
  Pd  Pd13  1  0.997209  0.733673  0.500000  1
  Pd  Pd14  1  0.498107  0.736231  0.000000  1
  Pd  Pd15  1  0.501390  0.000000  0.265551  1
  Pd  Pd16  1  0.267298  0.000000  0.500000  1
  Pd  Pd17  1  0.501390  0.000000  0.734449  1
  Pd  Pd18  1  0.732429  0.000000  0.500000  1
  Pd  Pd19  1  0.002936  0.500000  0.265488  1
  Pd  Pd20  1  0.002936  0.500000  0.734512  1
  Pd  Pd21  1  0.254067  0.500000  0.500000  1
  Pd  Pd22  1  0.745376  0.500000  0.500000  1
  Pd  Pd23  1  0.501831  0.254827  0.500000  1
  Pd  Pd24  1  0.501831  0.745173  0.500000  1
  Pd  Pd25  1  0.497166  0.500000  0.257301  1
  Pd  Pd26  1  0.497166  0.500000  0.742699  1
  Pd  Pd27  1  0.312699  0.000000  0.000000  1
  Pd  Pd28  1  0.686023  0.000000  0.000000  1
  Pd  Pd29  1  0.004345  0.311221  0.000000  1
  Pd  Pd30  1  0.004345  0.688779  0.000000  1
  Pd  Pd31  1  0.997776  0.000000  0.313646  1
  Pd  Pd32  1  0.997776  0.000000  0.686354  1
