# generated using pymatgen
data_Er4Si10(IrOs)3
_symmetry_space_group_name_H-M   'P 1'
_cell_length_a   8.09371513
_cell_length_b   8.08905680
_cell_length_c   5.78237200
_cell_angle_alpha   71.03698992
_cell_angle_beta   71.01311584
_cell_angle_gamma   93.96236672
_symmetry_Int_Tables_number   1
_chemical_formula_structural   Er4Si10(IrOs)3
_chemical_formula_sum   'Er4 Si10 Ir3 Os3'
_cell_volume   332.01737807
_cell_formula_units_Z   1
loop_
 _symmetry_equiv_pos_site_id
 _symmetry_equiv_pos_as_xyz
  1  'x, y, z'
loop_
 _atom_site_type_symbol
 _atom_site_label
 _atom_site_symmetry_multiplicity
 _atom_site_fract_x
 _atom_site_fract_y
 _atom_site_fract_z
 _atom_site_occupancy
  Er  Er0  1  0.867016  0.598764  0.755660  1
  Er  Er1  1  0.401838  0.132989  0.741306  1
  Er  Er2  1  0.132310  0.400765  0.244688  1
  Er  Er3  1  0.599277  0.869334  0.254415  1
  Si  Si4  1  0.064561  0.260540  0.838293  1
  Si  Si5  1  0.739586  0.936490  0.662091  1
  Si  Si6  1  0.936642  0.738070  0.163045  1
  Si  Si7  1  0.263138  0.066255  0.335162  1
  Si  Si8  1  0.207231  0.792187  0.750916  1
  Si  Si9  1  0.790769  0.205097  0.252661  1
  Si  Si10  1  0.514092  0.484306  0.752851  1
  Si  Si11  1  0.485660  0.512940  0.249173  1
  Si  Si12  1  0.773228  0.224484  0.751709  1
  Si  Si13  1  0.223117  0.775685  0.248935  1
  Ir  Ir14  1  0.256174  0.542111  0.629495  1
  Ir  Ir15  1  0.459063  0.744746  0.869046  1
  Ir  Ir16  1  0.743359  0.458883  0.368263  1
  Os  Os17  1  0.542094  0.257478  0.130833  1
  Os  Os18  1  0.004280  0.995071  0.750925  1
  Os  Os19  1  0.996567  0.003806  0.250533  1
