# generated using pymatgen
data_HoHfFeB6
_symmetry_space_group_name_H-M   'P 1'
_cell_length_a   3.42280500
_cell_length_b   8.92667700
_cell_length_c   11.28169300
_cell_angle_alpha   90.00000000
_cell_angle_beta   90.00000000
_cell_angle_gamma   90.00000000
_symmetry_Int_Tables_number   1
_chemical_formula_structural   HoHfFeB6
_chemical_formula_sum   'Ho4 Hf4 Fe4 B24'
_cell_volume   344.70394665
_cell_formula_units_Z   4
loop_
 _symmetry_equiv_pos_site_id
 _symmetry_equiv_pos_as_xyz
  1  'x, y, z'
loop_
 _atom_site_type_symbol
 _atom_site_label
 _atom_site_symmetry_multiplicity
 _atom_site_fract_x
 _atom_site_fract_y
 _atom_site_fract_z
 _atom_site_occupancy
  Ho  Ho0  1  0.000000  0.823134  0.085424  1
  Ho  Ho1  1  0.000000  0.176866  0.914576  1
  Ho  Ho2  1  0.000000  0.323134  0.414576  1
  Ho  Ho3  1  0.000000  0.676866  0.585424  1
  Hf  Hf4  1  0.000000  0.444130  0.128371  1
  Hf  Hf5  1  0.000000  0.555870  0.871629  1
  Hf  Hf6  1  0.000000  0.944130  0.371629  1
  Hf  Hf7  1  0.000000  0.055870  0.628371  1
  Fe  Fe8  1  0.000000  0.143342  0.183095  1
  Fe  Fe9  1  0.000000  0.856658  0.816905  1
  Fe  Fe10  1  0.000000  0.643342  0.316905  1
  Fe  Fe11  1  0.000000  0.356658  0.683095  1
  B  B12  1  0.500000  0.055065  0.067718  1
  B  B13  1  0.500000  0.944935  0.932282  1
  B  B14  1  0.500000  0.555065  0.432282  1
  B  B15  1  0.500000  0.444935  0.567718  1
  B  B16  1  0.500000  0.250846  0.083277  1
  B  B17  1  0.500000  0.749154  0.916723  1
  B  B18  1  0.500000  0.750846  0.416723  1
  B  B19  1  0.500000  0.249154  0.583277  1
  B  B20  1  0.500000  0.294441  0.235945  1
  B  B21  1  0.500000  0.705559  0.764055  1
  B  B22  1  0.500000  0.794441  0.264055  1
  B  B23  1  0.500000  0.205559  0.735945  1
  B  B24  1  0.500000  0.131285  0.316123  1
  B  B25  1  0.500000  0.868715  0.683877  1
  B  B26  1  0.500000  0.631285  0.183877  1
  B  B27  1  0.500000  0.368715  0.816123  1
  B  B28  1  0.500000  0.484920  0.287645  1
  B  B29  1  0.500000  0.515080  0.712355  1
  B  B30  1  0.500000  0.984920  0.212355  1
  B  B31  1  0.500000  0.015080  0.787645  1
  B  B32  1  0.500000  0.101338  0.473055  1
  B  B33  1  0.500000  0.898662  0.526945  1
  B  B34  1  0.500000  0.601338  0.026945  1
  B  B35  1  0.500000  0.398662  0.973055  1
