# generated using pymatgen
data_Y9LuIn7Hg
_symmetry_space_group_name_H-M   'P 1'
_cell_length_a   9.29459900
_cell_length_b   9.29460024
_cell_length_c   6.71618200
_cell_angle_alpha   90.00000000
_cell_angle_beta   90.00000000
_cell_angle_gamma   119.99999913
_symmetry_Int_Tables_number   1
_chemical_formula_structural   Y9LuIn7Hg
_chemical_formula_sum   'Y9 Lu1 In7 Hg1'
_cell_volume   502.47500743
_cell_formula_units_Z   1
loop_
 _symmetry_equiv_pos_site_id
 _symmetry_equiv_pos_as_xyz
  1  'x, y, z'
loop_
 _atom_site_type_symbol
 _atom_site_label
 _atom_site_symmetry_multiplicity
 _atom_site_fract_x
 _atom_site_fract_y
 _atom_site_fract_z
 _atom_site_occupancy
  Y  Y0  1  0.333333  0.666667  0.500000  1
  Y  Y1  1  0.666667  0.333333  0.500000  1
  Y  Y2  1  0.666667  0.333333  0.000000  1
  Y  Y3  1  0.287431  0.999456  0.750420  1
  Y  Y4  1  0.712025  0.999456  0.249580  1
  Y  Y5  1  0.000544  0.287975  0.750420  1
  Y  Y6  1  0.000544  0.712569  0.249580  1
  Y  Y7  1  0.712025  0.712569  0.750420  1
  Y  Y8  1  0.287431  0.287975  0.249580  1
  Lu  Lu9  1  0.333333  0.666667  0.000000  1
  In  In10  1  0.000000  0.000000  0.000000  1
  In  In11  1  0.626636  0.999434  0.750495  1
  In  In12  1  0.372798  0.999434  0.249505  1
  In  In13  1  0.000566  0.627202  0.750495  1
  In  In14  1  0.000566  0.373364  0.249505  1
  In  In15  1  0.372798  0.373364  0.750495  1
  In  In16  1  0.626636  0.627202  0.249505  1
  Hg  Hg17  1  0.000000  0.000000  0.500000  1
