# generated using pymatgen
data_Tb3Ce(Al3Ir)6
_symmetry_space_group_name_H-M   'P 1'
_cell_length_a   7.58339439
_cell_length_b   7.57835151
_cell_length_c   9.48869100
_cell_angle_alpha   90.00000000
_cell_angle_beta   90.00000000
_cell_angle_gamma   119.49019165
_symmetry_Int_Tables_number   1
_chemical_formula_structural   Tb3Ce(Al3Ir)6
_chemical_formula_sum   'Tb3 Ce1 Al18 Ir6'
_cell_volume   474.66097079
_cell_formula_units_Z   1
loop_
 _symmetry_equiv_pos_site_id
 _symmetry_equiv_pos_as_xyz
  1  'x, y, z'
loop_
 _atom_site_type_symbol
 _atom_site_label
 _atom_site_symmetry_multiplicity
 _atom_site_fract_x
 _atom_site_fract_y
 _atom_site_fract_z
 _atom_site_occupancy
  Tb  Tb0  1  0.004421  0.329854  0.750000  1
  Tb  Tb1  1  0.672519  0.995618  0.250000  1
  Tb  Tb2  1  0.328035  0.003289  0.750000  1
  Ce  Ce3  1  0.995102  0.670656  0.250000  1
  Al  Al4  1  0.130336  0.130310  0.250000  1
  Al  Al5  1  0.872687  0.873416  0.750000  1
  Al  Al6  1  0.001372  0.333903  0.073984  1
  Al  Al7  1  0.998440  0.664521  0.923198  1
  Al  Al8  1  0.998440  0.664521  0.576802  1
  Al  Al9  1  0.337008  0.002695  0.425936  1
  Al  Al10  1  0.001372  0.333903  0.426016  1
  Al  Al11  1  0.664904  0.999163  0.575317  1
  Al  Al12  1  0.664904  0.999163  0.924683  1
  Al  Al13  1  0.337008  0.002695  0.074064  1
  Al  Al14  1  0.333042  0.332958  0.552437  1
  Al  Al15  1  0.664828  0.666287  0.450141  1
  Al  Al16  1  0.664828  0.666287  0.049859  1
  Al  Al17  1  0.333042  0.332958  0.947563  1
  Al  Al18  1  0.340760  0.548031  0.250000  1
  Al  Al19  1  0.660053  0.450514  0.750000  1
  Al  Al20  1  0.546508  0.339511  0.250000  1
  Al  Al21  1  0.451626  0.660770  0.750000  1
  Ir  Ir22  1  0.671832  0.328480  0.000355  1
  Ir  Ir23  1  0.327576  0.671490  0.000299  1
  Ir  Ir24  1  0.327576  0.671490  0.499701  1
  Ir  Ir25  1  0.671832  0.328480  0.499645  1
  Ir  Ir26  1  0.999974  0.999519  0.000804  1
  Ir  Ir27  1  0.999974  0.999519  0.499196  1
