# generated using pymatgen
data_Rb3Al2P3
_symmetry_space_group_name_H-M   'P 1'
_cell_length_a   5.98201500
_cell_length_b   7.73262853
_cell_length_c   10.57293093
_cell_angle_alpha   69.80525288
_cell_angle_beta   90.00000000
_cell_angle_gamma   90.00000000
_symmetry_Int_Tables_number   1
_chemical_formula_structural   Rb3Al2P3
_chemical_formula_sum   'Rb6 Al4 P6'
_cell_volume   459.00322366
_cell_formula_units_Z   2
loop_
 _symmetry_equiv_pos_site_id
 _symmetry_equiv_pos_as_xyz
  1  'x, y, z'
loop_
 _atom_site_type_symbol
 _atom_site_label
 _atom_site_symmetry_multiplicity
 _atom_site_fract_x
 _atom_site_fract_y
 _atom_site_fract_z
 _atom_site_occupancy
  Rb  Rb0  1  0.250000  0.439017  0.425235  1
  Rb  Rb1  1  0.750000  0.134792  0.921532  1
  Rb  Rb2  1  0.750000  0.477626  0.148094  1
  Rb  Rb3  1  0.250000  0.522374  0.851906  1
  Rb  Rb4  1  0.750000  0.560983  0.574765  1
  Rb  Rb5  1  0.250000  0.865208  0.078468  1
  Al  Al6  1  0.999881  0.025850  0.346525  1
  Al  Al7  1  0.499881  0.974150  0.653475  1
  Al  Al8  1  0.500119  0.025850  0.346525  1
  Al  Al9  1  0.000119  0.974150  0.653475  1
  P  P10  1  0.250000  0.828975  0.528185  1
  P  P11  1  0.750000  0.171025  0.471815  1
  P  P12  1  0.250000  0.234464  0.192409  1
  P  P13  1  0.750000  0.765536  0.807591  1
  P  P14  1  0.250000  0.141261  0.742312  1
  P  P15  1  0.750000  0.858739  0.257688  1
