# generated using pymatgen
data_CdCu5F18
_symmetry_space_group_name_H-M   'P 1'
_cell_length_a   4.99082546
_cell_length_b   4.99282310
_cell_length_c   13.52128000
_cell_angle_alpha   89.93600041
_cell_angle_beta   89.88843514
_cell_angle_gamma   59.99002721
_symmetry_Int_Tables_number   1
_chemical_formula_structural   CdCu5F18
_chemical_formula_sum   'Cd1 Cu5 F18'
_cell_volume   291.75782852
_cell_formula_units_Z   1
loop_
 _symmetry_equiv_pos_site_id
 _symmetry_equiv_pos_as_xyz
  1  'x, y, z'
loop_
 _atom_site_type_symbol
 _atom_site_label
 _atom_site_symmetry_multiplicity
 _atom_site_fract_x
 _atom_site_fract_y
 _atom_site_fract_z
 _atom_site_occupancy
  Cd  Cd0  1  0.333403  0.333277  0.833381  1
  Cu  Cu1  1  0.999868  0.000187  0.012146  1
  Cu  Cu2  1  0.666583  0.666710  0.171445  1
  Cu  Cu3  1  0.333219  0.333363  0.333303  1
  Cu  Cu4  1  0.000159  0.999984  0.495382  1
  Cu  Cu5  1  0.666772  0.666578  0.654488  1
  F  F6  1  0.328225  0.966389  0.093111  1
  F  F7  1  0.705001  0.328196  0.093278  1
  F  F8  1  0.966951  0.704550  0.093086  1
  F  F9  1  0.999213  0.379107  0.252782  1
  F  F10  1  0.621534  0.999610  0.252522  1
  F  F11  1  0.378266  0.622238  0.252743  1
  F  F12  1  0.288118  0.044577  0.413933  1
  F  F13  1  0.667261  0.287500  0.413881  1
  F  F14  1  0.044975  0.667115  0.414130  1
  F  F15  1  0.338699  0.699926  0.573633  1
  F  F16  1  0.699169  0.962342  0.573702  1
  F  F17  1  0.961868  0.338805  0.573445  1
  F  F18  1  0.364526  0.969873  0.735104  1
  F  F19  1  0.665744  0.364229  0.734870  1
  F  F20  1  0.970310  0.665048  0.734891  1
  F  F21  1  0.001218  0.302218  0.931583  1
  F  F22  1  0.696509  0.001666  0.931594  1
  F  F23  1  0.302253  0.696538  0.931431  1
