# generated using pymatgen
data_YbHoU2(GeRu)4
_symmetry_space_group_name_H-M   'P 1'
_cell_length_a   4.54354800
_cell_length_b   7.08838383
_cell_length_c   7.16858663
_cell_angle_alpha   94.78289558
_cell_angle_beta   90.00000000
_cell_angle_gamma   90.00000000
_symmetry_Int_Tables_number   1
_chemical_formula_structural   YbHoU2(GeRu)4
_chemical_formula_sum   'Yb1 Ho1 U2 Ge4 Ru4'
_cell_volume   230.07050355
_cell_formula_units_Z   1
loop_
 _symmetry_equiv_pos_site_id
 _symmetry_equiv_pos_as_xyz
  1  'x, y, z'
loop_
 _atom_site_type_symbol
 _atom_site_label
 _atom_site_symmetry_multiplicity
 _atom_site_fract_x
 _atom_site_fract_y
 _atom_site_fract_z
 _atom_site_occupancy
  Yb  Yb0  1  0.250000  0.981330  0.283570  1
  Ho  Ho1  1  0.750000  0.017191  0.719897  1
  U  U2  1  0.250000  0.491718  0.198878  1
  U  U3  1  0.750000  0.508148  0.802116  1
  Ge  Ge4  1  0.250000  0.811615  0.889465  1
  Ge  Ge5  1  0.750000  0.192078  0.109351  1
  Ge  Ge6  1  0.250000  0.283172  0.593515  1
  Ge  Ge7  1  0.750000  0.716406  0.405056  1
  Ru  Ru8  1  0.750000  0.745518  0.047154  1
  Ru  Ru9  1  0.250000  0.255071  0.949916  1
  Ru  Ru10  1  0.750000  0.357091  0.465314  1
  Ru  Ru11  1  0.250000  0.640661  0.535767  1
