# generated using pymatgen
data_Rb2Pr3Dy(CuSe4)2
_symmetry_space_group_name_H-M   'P 1'
_cell_length_a   4.25754600
_cell_length_b   7.61492182
_cell_length_c   14.68622815
_cell_angle_alpha   89.63621992
_cell_angle_beta   90.00000000
_cell_angle_gamma   73.76648937
_symmetry_Int_Tables_number   1
_chemical_formula_structural   Rb2Pr3Dy(CuSe4)2
_chemical_formula_sum   'Rb2 Pr3 Dy1 Cu2 Se8'
_cell_volume   457.14689011
_cell_formula_units_Z   1
loop_
 _symmetry_equiv_pos_site_id
 _symmetry_equiv_pos_as_xyz
  1  'x, y, z'
loop_
 _atom_site_type_symbol
 _atom_site_label
 _atom_site_symmetry_multiplicity
 _atom_site_fract_x
 _atom_site_fract_y
 _atom_site_fract_z
 _atom_site_occupancy
  Rb  Rb0  1  0.890813  0.218377  0.248717  1
  Rb  Rb1  1  0.109185  0.781629  0.751318  1
  Pr  Pr2  1  0.632267  0.735467  0.060260  1
  Pr  Pr3  1  0.634906  0.730189  0.436567  1
  Pr  Pr4  1  0.365892  0.268217  0.565774  1
  Dy  Dy5  1  0.363750  0.272500  0.936598  1
  Cu  Cu6  1  0.163090  0.673821  0.248713  1
  Cu  Cu7  1  0.839165  0.321669  0.751248  1
  Se  Se8  1  0.994012  0.011977  0.996437  1
  Se  Se9  1  0.263320  0.473358  0.110152  1
  Se  Se10  1  0.570385  0.859232  0.248196  1
  Se  Se11  1  0.263962  0.472075  0.385727  1
  Se  Se12  1  0.999930  0.000141  0.500407  1
  Se  Se13  1  0.736741  0.526521  0.615594  1
  Se  Se14  1  0.429968  0.140065  0.755873  1
  Se  Se15  1  0.742620  0.514764  0.888420  1
