# generated using pymatgen
data_Nd5Hg4PtRh
_symmetry_space_group_name_H-M   'P 1'
_cell_length_a   3.81483000
_cell_length_b   8.17787368
_cell_length_c   18.44690219
_cell_angle_alpha   89.68681469
_cell_angle_beta   90.00000000
_cell_angle_gamma   90.00000000
_symmetry_Int_Tables_number   1
_chemical_formula_structural   Nd5Hg4PtRh
_chemical_formula_sum   'Nd10 Hg8 Pt2 Rh2'
_cell_volume   575.48306021
_cell_formula_units_Z   2
loop_
 _symmetry_equiv_pos_site_id
 _symmetry_equiv_pos_as_xyz
  1  'x, y, z'
loop_
 _atom_site_type_symbol
 _atom_site_label
 _atom_site_symmetry_multiplicity
 _atom_site_fract_x
 _atom_site_fract_y
 _atom_site_fract_z
 _atom_site_occupancy
  Nd  Nd0  1  0.000000  0.110652  0.411871  1
  Nd  Nd1  1  0.000000  0.889348  0.588129  1
  Nd  Nd2  1  0.000000  0.386928  0.912430  1
  Nd  Nd3  1  0.000000  0.613072  0.087570  1
  Nd  Nd4  1  0.000000  0.229166  0.216861  1
  Nd  Nd5  1  0.000000  0.770834  0.783139  1
  Nd  Nd6  1  0.000000  0.260409  0.716317  1
  Nd  Nd7  1  0.000000  0.739591  0.283683  1
  Nd  Nd8  1  0.000000  0.000000  0.000000  1
  Nd  Nd9  1  0.000000  0.500000  0.500000  1
  Hg  Hg10  1  0.500000  0.414636  0.354344  1
  Hg  Hg11  1  0.500000  0.585364  0.645656  1
  Hg  Hg12  1  0.500000  0.079632  0.851612  1
  Hg  Hg13  1  0.500000  0.920368  0.148388  1
  Hg  Hg14  1  0.500000  0.287842  0.062632  1
  Hg  Hg15  1  0.500000  0.712158  0.937368  1
  Hg  Hg16  1  0.500000  0.210244  0.564743  1
  Hg  Hg17  1  0.500000  0.789756  0.435257  1
  Pt  Pt18  1  0.500000  0.479544  0.800754  1
  Pt  Pt19  1  0.500000  0.520456  0.199246  1
  Rh  Rh20  1  0.500000  0.022340  0.303868  1
  Rh  Rh21  1  0.500000  0.977660  0.696132  1
