# generated using pymatgen
data_La17Dy2InIr12
_symmetry_space_group_name_H-M   'P 1'
_cell_length_a   11.39210700
_cell_length_b   11.39210700
_cell_length_c   6.54890600
_cell_angle_alpha   90.00000000
_cell_angle_beta   90.00000000
_cell_angle_gamma   90.00000000
_symmetry_Int_Tables_number   1
_chemical_formula_structural   La17Dy2InIr12
_chemical_formula_sum   'La17 Dy2 In1 Ir12'
_cell_volume   849.91768801
_cell_formula_units_Z   1
loop_
 _symmetry_equiv_pos_site_id
 _symmetry_equiv_pos_as_xyz
  1  'x, y, z'
loop_
 _atom_site_type_symbol
 _atom_site_label
 _atom_site_symmetry_multiplicity
 _atom_site_fract_x
 _atom_site_fract_y
 _atom_site_fract_z
 _atom_site_occupancy
  La  La0  1  0.291447  0.088646  0.391610  1
  La  La1  1  0.279189  0.913202  0.895259  1
  La  La2  1  0.720811  0.086798  0.895259  1
  La  La3  1  0.708553  0.911354  0.391610  1
  La  La4  1  0.586563  0.789538  0.890376  1
  La  La5  1  0.589501  0.212165  0.394778  1
  La  La6  1  0.410499  0.787835  0.394778  1
  La  La7  1  0.413437  0.210462  0.890376  1
  La  La8  1  0.212165  0.410499  0.605222  1
  La  La9  1  0.210462  0.586563  0.109624  1
  La  La10  1  0.789538  0.413437  0.109624  1
  La  La11  1  0.787835  0.589501  0.605222  1
  La  La12  1  0.913202  0.720811  0.104741  1
  La  La13  1  0.911354  0.291447  0.608390  1
  La  La14  1  0.088646  0.708553  0.608390  1
  La  La15  1  0.086798  0.279189  0.104741  1
  La  La16  1  0.000000  0.000000  0.500000  1
  Dy  Dy17  1  0.500000  0.500000  0.000000  1
  Dy  Dy18  1  0.500000  0.500000  0.500000  1
  In  In19  1  0.000000  0.000000  0.000000  1
  Ir  Ir20  1  0.845208  0.153918  0.254785  1
  Ir  Ir21  1  0.846082  0.845208  0.745215  1
  Ir  Ir22  1  0.153918  0.154792  0.745215  1
  Ir  Ir23  1  0.154792  0.846082  0.254785  1
  Ir  Ir24  1  0.647091  0.350377  0.753439  1
  Ir  Ir25  1  0.649623  0.647091  0.246561  1
  Ir  Ir26  1  0.350377  0.352909  0.246561  1
  Ir  Ir27  1  0.352909  0.649623  0.753439  1
  Ir  Ir28  1  0.500000  0.000000  0.118613  1
  Ir  Ir29  1  0.500000  0.000000  0.625113  1
  Ir  Ir30  1  0.000000  0.500000  0.881387  1
  Ir  Ir31  1  0.000000  0.500000  0.374887  1
