# generated using pymatgen
data_Ca2Ga9Ru4Rh
_symmetry_space_group_name_H-M   'P 1'
_cell_length_a   8.06895074
_cell_length_b   8.06894977
_cell_length_c   8.06895018
_cell_angle_alpha   134.88954699
_cell_angle_beta   134.88954159
_cell_angle_gamma   65.70187443
_symmetry_Int_Tables_number   1
_chemical_formula_structural   Ca2Ga9Ru4Rh
_chemical_formula_sum   'Ca2 Ga9 Ru4 Rh1'
_cell_volume   259.73591899
_cell_formula_units_Z   1
loop_
 _symmetry_equiv_pos_site_id
 _symmetry_equiv_pos_as_xyz
  1  'x, y, z'
loop_
 _atom_site_type_symbol
 _atom_site_label
 _atom_site_symmetry_multiplicity
 _atom_site_fract_x
 _atom_site_fract_y
 _atom_site_fract_z
 _atom_site_occupancy
  Ca  Ca0  1  0.000000  0.500000  0.500000  1
  Ca  Ca1  1  0.500000  0.000000  0.500000  1
  Ga  Ga2  1  0.437605  0.858998  0.000000  1
  Ga  Ga3  1  0.141002  0.141002  0.578608  1
  Ga  Ga4  1  0.858998  0.437605  0.000000  1
  Ga  Ga5  1  0.858998  0.858998  0.421392  1
  Ga  Ga6  1  0.562395  0.141002  0.000000  1
  Ga  Ga7  1  0.141002  0.562395  0.000000  1
  Ga  Ga8  1  0.562395  0.562395  0.421392  1
  Ga  Ga9  1  0.000000  0.000000  0.000000  1
  Ga  Ga10  1  0.437605  0.437605  0.578608  1
  Ru  Ru11  1  0.181376  0.181376  0.000000  1
  Ru  Ru12  1  0.818624  0.818624  0.000000  1
  Ru  Ru13  1  0.250000  0.750000  0.500000  1
  Ru  Ru14  1  0.750000  0.250000  0.500000  1
  Rh  Rh15  1  0.500000  0.500000  0.000000  1
