# generated using pymatgen
data_PrNd7(DyIn5)4
_symmetry_space_group_name_H-M   'P 1'
_cell_length_a   6.67217156
_cell_length_b   10.55421648
_cell_length_c   12.44630400
_cell_angle_alpha   90.00602587
_cell_angle_beta   89.97661685
_cell_angle_gamma   89.98372176
_symmetry_Int_Tables_number   1
_chemical_formula_structural   PrNd7(DyIn5)4
_chemical_formula_sum   'Pr1 Nd7 Dy4 In20'
_cell_volume   876.46292674
_cell_formula_units_Z   1
loop_
 _symmetry_equiv_pos_site_id
 _symmetry_equiv_pos_as_xyz
  1  'x, y, z'
loop_
 _atom_site_type_symbol
 _atom_site_label
 _atom_site_symmetry_multiplicity
 _atom_site_fract_x
 _atom_site_fract_y
 _atom_site_fract_z
 _atom_site_occupancy
  Pr  Pr0  1  0.611458  0.489821  0.643856  1
  Nd  Nd1  1  0.888726  0.489833  0.143825  1
  Nd  Nd2  1  0.611316  0.010186  0.643805  1
  Nd  Nd3  1  0.111358  0.989825  0.856253  1
  Nd  Nd4  1  0.388575  0.510172  0.355924  1
  Nd  Nd5  1  0.111434  0.510165  0.856255  1
  Nd  Nd6  1  0.388559  0.989839  0.356071  1
  Nd  Nd7  1  0.888680  0.010215  0.143846  1
  Dy  Dy8  1  0.349549  0.750069  0.059572  1
  Dy  Dy9  1  0.150185  0.749938  0.559485  1
  Dy  Dy10  1  0.650390  0.250020  0.940505  1
  Dy  Dy11  1  0.849640  0.249864  0.440316  1
  In  In12  1  0.616695  0.750505  0.503261  1
  In  In13  1  0.883366  0.750055  0.003820  1
  In  In14  1  0.382809  0.249827  0.496070  1
  In  In15  1  0.116667  0.250017  0.996246  1
  In  In16  1  0.654538  0.750030  0.243698  1
  In  In17  1  0.845819  0.750488  0.744046  1
  In  In18  1  0.345241  0.249604  0.756444  1
  In  In19  1  0.154566  0.249959  0.256177  1
  In  In20  1  0.111087  0.750039  0.284172  1
  In  In21  1  0.388827  0.750160  0.784417  1
  In  In22  1  0.889613  0.249336  0.716036  1
  In  In23  1  0.611089  0.250003  0.215778  1
  In  In24  1  0.874142  0.545222  0.403854  1
  In  In25  1  0.626170  0.954908  0.904128  1
  In  In26  1  0.126148  0.044992  0.595828  1
  In  In27  1  0.373842  0.454851  0.095907  1
  In  In28  1  0.125446  0.454634  0.595675  1
  In  In29  1  0.373831  0.045150  0.095877  1
  In  In30  1  0.874018  0.954892  0.404061  1
  In  In31  1  0.626217  0.545381  0.904794  1
