# generated using pymatgen
data_HoEr5Pa2(ReB6)4
_symmetry_space_group_name_H-M   'P 1'
_cell_length_a   3.68530700
_cell_length_b   9.13550715
_cell_length_c   11.50418500
_cell_angle_alpha   90.32683911
_cell_angle_beta   90.00000000
_cell_angle_gamma   90.00000000
_symmetry_Int_Tables_number   1
_chemical_formula_structural   HoEr5Pa2(ReB6)4
_chemical_formula_sum   'Ho1 Er5 Pa2 Re4 B24'
_cell_volume   387.30680267
_cell_formula_units_Z   1
loop_
 _symmetry_equiv_pos_site_id
 _symmetry_equiv_pos_as_xyz
  1  'x, y, z'
loop_
 _atom_site_type_symbol
 _atom_site_label
 _atom_site_symmetry_multiplicity
 _atom_site_fract_x
 _atom_site_fract_y
 _atom_site_fract_z
 _atom_site_occupancy
  Ho  Ho0  1  0.000000  0.823778  0.085622  1
  Er  Er1  1  0.000000  0.176250  0.914411  1
  Er  Er2  1  0.000000  0.944843  0.372454  1
  Er  Er3  1  0.000000  0.055174  0.627580  1
  Er  Er4  1  0.000000  0.443813  0.126292  1
  Er  Er5  1  0.000000  0.556092  0.873662  1
  Pa  Pa6  1  0.000000  0.321338  0.413088  1
  Pa  Pa7  1  0.000000  0.678658  0.586915  1
  Re  Re8  1  0.000000  0.635586  0.324227  1
  Re  Re9  1  0.000000  0.364342  0.675855  1
  Re  Re10  1  0.000000  0.140413  0.181419  1
  Re  Re11  1  0.000000  0.859763  0.818516  1
  B  B12  1  0.500000  0.553630  0.432812  1
  B  B13  1  0.500000  0.446353  0.567200  1
  B  B14  1  0.500000  0.053406  0.067015  1
  B  B15  1  0.500000  0.946796  0.932873  1
  B  B16  1  0.500000  0.748812  0.419452  1
  B  B17  1  0.500000  0.251192  0.580576  1
  B  B18  1  0.500000  0.248187  0.079781  1
  B  B19  1  0.500000  0.751804  0.920018  1
  B  B20  1  0.500000  0.791877  0.265325  1
  B  B21  1  0.500000  0.208057  0.734811  1
  B  B22  1  0.500000  0.292202  0.233585  1
  B  B23  1  0.500000  0.707796  0.766385  1
  B  B24  1  0.500000  0.631368  0.185094  1
  B  B25  1  0.500000  0.368493  0.814992  1
  B  B26  1  0.500000  0.131798  0.314112  1
  B  B27  1  0.500000  0.868234  0.685896  1
  B  B28  1  0.500000  0.981935  0.212128  1
  B  B29  1  0.500000  0.018273  0.787939  1
  B  B30  1  0.500000  0.482868  0.286312  1
  B  B31  1  0.500000  0.517093  0.713701  1
  B  B32  1  0.500000  0.604470  0.029194  1
  B  B33  1  0.500000  0.395299  0.970748  1
  B  B34  1  0.500000  0.109031  0.469822  1
  B  B35  1  0.500000  0.890977  0.530187  1
