# generated using pymatgen
data_Sr13AlGa5Si8O
_symmetry_space_group_name_H-M   'P 1'
_cell_length_a   4.81188482
_cell_length_b   11.61431815
_cell_length_c   14.52120093
_cell_angle_alpha   92.97911495
_cell_angle_beta   99.56836681
_cell_angle_gamma   101.98875439
_symmetry_Int_Tables_number   1
_chemical_formula_structural   Sr13AlGa5Si8O
_chemical_formula_sum   'Sr13 Al1 Ga5 Si8 O1'
_cell_volume   779.64394570
_cell_formula_units_Z   1
loop_
 _symmetry_equiv_pos_site_id
 _symmetry_equiv_pos_as_xyz
  1  'x, y, z'
loop_
 _atom_site_type_symbol
 _atom_site_label
 _atom_site_symmetry_multiplicity
 _atom_site_fract_x
 _atom_site_fract_y
 _atom_site_fract_z
 _atom_site_occupancy
  Sr  Sr0  1  0.293175  0.477040  0.109232  1
  Sr  Sr1  1  0.119134  0.116803  0.120955  1
  Sr  Sr2  1  0.954533  0.760458  0.146764  1
  Sr  Sr3  1  0.355460  0.352929  0.358138  1
  Sr  Sr4  1  0.537734  0.691711  0.383543  1
  Sr  Sr5  1  0.197136  0.004243  0.390523  1
  Sr  Sr6  1  0.000040  0.500047  0.499995  1
  Sr  Sr7  1  0.802630  0.995570  0.609280  1
  Sr  Sr8  1  0.462295  0.308316  0.616386  1
  Sr  Sr9  1  0.644532  0.647095  0.641885  1
  Sr  Sr10  1  0.045730  0.240753  0.852554  1
  Sr  Sr11  1  0.880344  0.881686  0.879676  1
  Sr  Sr12  1  0.706970  0.523074  0.890883  1
  Al  Al13  1  0.516724  0.085201  0.948387  1
  Ga  Ga14  1  0.483532  0.915044  0.051532  1
  Ga  Ga15  1  0.755649  0.320769  0.191646  1
  Ga  Ga16  1  0.721563  0.150369  0.293679  1
  Ga  Ga17  1  0.278037  0.849285  0.706014  1
  Ga  Ga18  1  0.244588  0.679522  0.808653  1
  Si  Si19  1  0.654868  0.293497  0.017381  1
  Si  Si20  1  0.583293  0.939601  0.228386  1
  Si  Si21  1  0.896507  0.526817  0.265650  1
  Si  Si22  1  0.832036  0.199670  0.465004  1
  Si  Si23  1  0.167873  0.800140  0.534875  1
  Si  Si24  1  0.103675  0.473495  0.734425  1
  Si  Si25  1  0.416577  0.060232  0.771602  1
  Si  Si26  1  0.345387  0.706718  0.982913  1
  O  O27  1  0.499978  0.499919  0.500040  1
