# generated using pymatgen
data_Ti2Pd5Pt
_symmetry_space_group_name_H-M   'P 1'
_cell_length_a   5.56387016
_cell_length_b   5.56387101
_cell_length_c   9.09620900
_cell_angle_alpha   90.00000000
_cell_angle_beta   90.00000000
_cell_angle_gamma   119.92608502
_symmetry_Int_Tables_number   1
_chemical_formula_structural   Ti2Pd5Pt
_chemical_formula_sum   'Ti4 Pd10 Pt2'
_cell_volume   244.04397472
_cell_formula_units_Z   2
loop_
 _symmetry_equiv_pos_site_id
 _symmetry_equiv_pos_as_xyz
  1  'x, y, z'
loop_
 _atom_site_type_symbol
 _atom_site_label
 _atom_site_symmetry_multiplicity
 _atom_site_fract_x
 _atom_site_fract_y
 _atom_site_fract_z
 _atom_site_occupancy
  Ti  Ti0  1  0.001713  0.998287  0.496184  1
  Ti  Ti1  1  0.001713  0.998287  0.003816  1
  Ti  Ti2  1  0.331797  0.668203  0.250000  1
  Ti  Ti3  1  0.666754  0.333246  0.750000  1
  Pd  Pd4  1  0.500361  0.499639  0.501361  1
  Pd  Pd5  1  0.500902  0.000148  0.502105  1
  Pd  Pd6  1  0.999852  0.499098  0.502105  1
  Pd  Pd7  1  0.500361  0.499639  0.998639  1
  Pd  Pd8  1  0.500902  0.000148  0.997895  1
  Pd  Pd9  1  0.999852  0.499098  0.997895  1
  Pd  Pd10  1  0.832332  0.167668  0.250000  1
  Pd  Pd11  1  0.166244  0.332399  0.750000  1
  Pd  Pd12  1  0.667601  0.833756  0.750000  1
  Pd  Pd13  1  0.165536  0.834464  0.750000  1
  Pt  Pt14  1  0.832905  0.668825  0.250000  1
  Pt  Pt15  1  0.331175  0.167095  0.250000  1
