# generated using pymatgen
data_ErTh3In2CoNi3
_symmetry_space_group_name_H-M   'P 1'
_cell_length_a   7.59427240
_cell_length_b   7.55278076
_cell_length_c   3.69644600
_cell_angle_alpha   90.00000000
_cell_angle_beta   90.00000000
_cell_angle_gamma   91.67702903
_symmetry_Int_Tables_number   1
_chemical_formula_structural   ErTh3In2CoNi3
_chemical_formula_sum   'Er1 Th3 In2 Co1 Ni3'
_cell_volume   211.92947167
_cell_formula_units_Z   1
loop_
 _symmetry_equiv_pos_site_id
 _symmetry_equiv_pos_as_xyz
  1  'x, y, z'
loop_
 _atom_site_type_symbol
 _atom_site_label
 _atom_site_symmetry_multiplicity
 _atom_site_fract_x
 _atom_site_fract_y
 _atom_site_fract_z
 _atom_site_occupancy
  Er  Er0  1  0.830748  0.672656  0.500000  1
  Th  Th1  1  0.672188  0.169975  0.500000  1
  Th  Th2  1  0.320265  0.819857  0.500000  1
  Th  Th3  1  0.171427  0.337363  0.500000  1
  In  In4  1  0.510449  0.505682  0.000000  1
  In  In5  1  0.993976  0.991684  0.000000  1
  Co  Co6  1  0.140127  0.618598  0.000000  1
  Ni  Ni7  1  0.871629  0.378247  0.000000  1
  Ni  Ni8  1  0.618380  0.881558  0.000000  1
  Ni  Ni9  1  0.370811  0.124381  0.000000  1
