# generated using pymatgen
data_Dy20TcBi8Pt3
_symmetry_space_group_name_H-M   'P 1'
_cell_length_a   8.05861878
_cell_length_b   9.05771600
_cell_length_c   12.46130152
_cell_angle_alpha   90.00000000
_cell_angle_beta   90.12535321
_cell_angle_gamma   90.00000000
_symmetry_Int_Tables_number   1
_chemical_formula_structural   Dy20TcBi8Pt3
_chemical_formula_sum   'Dy20 Tc1 Bi8 Pt3'
_cell_volume   909.58162064
_cell_formula_units_Z   1
loop_
 _symmetry_equiv_pos_site_id
 _symmetry_equiv_pos_as_xyz
  1  'x, y, z'
loop_
 _atom_site_type_symbol
 _atom_site_label
 _atom_site_symmetry_multiplicity
 _atom_site_fract_x
 _atom_site_fract_y
 _atom_site_fract_z
 _atom_site_occupancy
  Dy  Dy0  1  0.832917  0.750000  0.785474  1
  Dy  Dy1  1  0.163685  0.250000  0.210751  1
  Dy  Dy2  1  0.339676  0.250000  0.707810  1
  Dy  Dy3  1  0.657484  0.750000  0.294549  1
  Dy  Dy4  1  0.376902  0.750000  0.695852  1
  Dy  Dy5  1  0.626439  0.250000  0.302313  1
  Dy  Dy6  1  0.872867  0.250000  0.802801  1
  Dy  Dy7  1  0.126803  0.750000  0.196645  1
  Dy  Dy8  1  0.948856  0.750000  0.501268  1
  Dy  Dy9  1  0.050188  0.250000  0.498688  1
  Dy  Dy10  1  0.451004  0.250000  0.000615  1
  Dy  Dy11  1  0.550045  0.750000  0.001067  1
  Dy  Dy12  1  0.676972  0.039350  0.564583  1
  Dy  Dy13  1  0.322897  0.951110  0.436015  1
  Dy  Dy14  1  0.178943  0.955475  0.932156  1
  Dy  Dy15  1  0.322897  0.548890  0.436015  1
  Dy  Dy16  1  0.821733  0.045346  0.066646  1
  Dy  Dy17  1  0.676972  0.460650  0.564583  1
  Dy  Dy18  1  0.821733  0.454654  0.066646  1
  Dy  Dy19  1  0.178943  0.544525  0.932156  1
  Tc  Tc20  1  0.579330  0.750000  0.515159  1
  Bi  Bi21  1  0.569420  0.489461  0.828584  1
  Bi  Bi22  1  0.430489  0.509385  0.172713  1
  Bi  Bi23  1  0.068908  0.508507  0.673630  1
  Bi  Bi24  1  0.430489  0.990615  0.172713  1
  Bi  Bi25  1  0.931739  0.490919  0.326602  1
  Bi  Bi26  1  0.569420  0.010539  0.828584  1
  Bi  Bi27  1  0.931739  0.009081  0.326602  1
  Bi  Bi28  1  0.068908  0.991493  0.673630  1
  Pt  Pt29  1  0.421230  0.250000  0.486884  1
  Pt  Pt30  1  0.074186  0.250000  0.989061  1
  Pt  Pt31  1  0.926185  0.750000  0.009207  1
