# generated using pymatgen
data_Tb11HoOs4
_symmetry_space_group_name_H-M   'P 1'
_cell_length_a   6.35401818
_cell_length_b   7.40154363
_cell_length_c   9.14517436
_cell_angle_alpha   90.00118833
_cell_angle_beta   90.08233923
_cell_angle_gamma   90.04703270
_symmetry_Int_Tables_number   1
_chemical_formula_structural   Tb11HoOs4
_chemical_formula_sum   'Tb11 Ho1 Os4'
_cell_volume   430.09277912
_cell_formula_units_Z   1
loop_
 _symmetry_equiv_pos_site_id
 _symmetry_equiv_pos_as_xyz
  1  'x, y, z'
loop_
 _atom_site_type_symbol
 _atom_site_label
 _atom_site_symmetry_multiplicity
 _atom_site_fract_x
 _atom_site_fract_y
 _atom_site_fract_z
 _atom_site_occupancy
  Tb  Tb0  1  0.331348  0.676147  0.063246  1
  Tb  Tb1  1  0.168307  0.176234  0.436309  1
  Tb  Tb2  1  0.668415  0.323792  0.563258  1
  Tb  Tb3  1  0.831906  0.824176  0.936975  1
  Tb  Tb4  1  0.668407  0.323674  0.936983  1
  Tb  Tb5  1  0.831672  0.823823  0.563220  1
  Tb  Tb6  1  0.331492  0.676091  0.436710  1
  Tb  Tb7  1  0.868908  0.538840  0.249843  1
  Tb  Tb8  1  0.631136  0.039224  0.249724  1
  Tb  Tb9  1  0.131451  0.460882  0.750205  1
  Tb  Tb10  1  0.368414  0.961219  0.750248  1
  Ho  Ho11  1  0.168270  0.175903  0.063487  1
  Os  Os12  1  0.041203  0.884447  0.249717  1
  Os  Os13  1  0.458613  0.383595  0.249646  1
  Os  Os14  1  0.959431  0.116073  0.750548  1
  Os  Os15  1  0.541025  0.615879  0.749880  1
