# generated using pymatgen
data_Ti5NbAl4(PtN)2
_symmetry_space_group_name_H-M   'P 1'
_cell_length_a   8.21970263
_cell_length_b   8.21540869
_cell_length_c   8.21970184
_cell_angle_alpha   60.10071281
_cell_angle_beta   59.97426504
_cell_angle_gamma   60.10071347
_symmetry_Int_Tables_number   1
_chemical_formula_structural   Ti5NbAl4(PtN)2
_chemical_formula_sum   'Ti10 Nb2 Al8 Pt4 N4'
_cell_volume   393.00764120
_cell_formula_units_Z   2
loop_
 _symmetry_equiv_pos_site_id
 _symmetry_equiv_pos_as_xyz
  1  'x, y, z'
loop_
 _atom_site_type_symbol
 _atom_site_label
 _atom_site_symmetry_multiplicity
 _atom_site_fract_x
 _atom_site_fract_y
 _atom_site_fract_z
 _atom_site_occupancy
  Ti  Ti0  1  0.432097  0.067913  0.067282  1
  Ti  Ti1  1  0.066854  0.068511  0.431460  1
  Ti  Ti2  1  0.066832  0.431422  0.068024  1
  Ti  Ti3  1  0.432770  0.068677  0.432156  1
  Ti  Ti4  1  0.181976  0.818578  0.183168  1
  Ti  Ti5  1  0.181054  0.818811  0.816978  1
  Ti  Ti6  1  0.818540  0.181489  0.183146  1
  Ti  Ti7  1  0.817844  0.181323  0.817230  1
  Ti  Ti8  1  0.433022  0.431189  0.068946  1
  Ti  Ti9  1  0.182718  0.182087  0.817903  1
  Nb  Nb10  1  0.816708  0.817505  0.182797  1
  Nb  Nb11  1  0.067203  0.432495  0.433292  1
  Al  Al12  1  0.415171  0.755616  0.414568  1
  Al  Al13  1  0.835384  0.835030  0.496224  1
  Al  Al14  1  0.494789  0.835339  0.835292  1
  Al  Al15  1  0.834585  0.835292  0.833327  1
  Al  Al16  1  0.753776  0.414970  0.414616  1
  Al  Al17  1  0.416673  0.414708  0.415415  1
  Al  Al18  1  0.414708  0.414661  0.755211  1
  Al  Al19  1  0.835432  0.494384  0.834829  1
  Pt  Pt20  1  0.624868  0.125000  0.625132  1
  Pt  Pt21  1  0.624120  0.624062  0.124122  1
  Pt  Pt22  1  0.125878  0.625938  0.625880  1
  Pt  Pt23  1  0.621476  0.625000  0.628524  1
  N  N24  1  0.133205  0.625000  0.116795  1
  N  N25  1  0.126495  0.118461  0.629124  1
  N  N26  1  0.620876  0.131539  0.123505  1
  N  N27  1  0.124947  0.125000  0.125053  1
