# generated using pymatgen
data_Mg2ZrCo6(NiB2)3
_symmetry_space_group_name_H-M   'P 1'
_cell_length_a   5.68425974
_cell_length_b   5.68426060
_cell_length_c   5.68425938
_cell_angle_alpha   95.75473923
_cell_angle_beta   95.75475164
_cell_angle_gamma   95.75474496
_symmetry_Int_Tables_number   1
_chemical_formula_structural   Mg2ZrCo6(NiB2)3
_chemical_formula_sum   'Mg2 Zr1 Co6 Ni3 B6'
_cell_volume   180.68385743
_cell_formula_units_Z   1
loop_
 _symmetry_equiv_pos_site_id
 _symmetry_equiv_pos_as_xyz
  1  'x, y, z'
loop_
 _atom_site_type_symbol
 _atom_site_label
 _atom_site_symmetry_multiplicity
 _atom_site_fract_x
 _atom_site_fract_y
 _atom_site_fract_z
 _atom_site_occupancy
  Mg  Mg0  1  0.994232  0.994232  0.994232  1
  Mg  Mg1  1  0.676396  0.676396  0.676396  1
  Zr  Zr2  1  0.330857  0.330857  0.330857  1
  Co  Co3  1  0.702246  0.210139  0.702246  1
  Co  Co4  1  0.702246  0.702246  0.210139  1
  Co  Co5  1  0.210139  0.702246  0.702246  1
  Co  Co6  1  0.293967  0.799949  0.293967  1
  Co  Co7  1  0.293967  0.293967  0.799949  1
  Co  Co8  1  0.799949  0.293967  0.293967  1
  Ni  Ni9  1  0.996799  0.996799  0.498101  1
  Ni  Ni10  1  0.498101  0.996799  0.996799  1
  Ni  Ni11  1  0.996799  0.498101  0.996799  1
  B  B12  1  0.612587  0.388752  0.000812  1
  B  B13  1  0.000812  0.612587  0.388752  1
  B  B14  1  0.388752  0.000812  0.612587  1
  B  B15  1  0.000812  0.388752  0.612587  1
  B  B16  1  0.612587  0.000812  0.388752  1
  B  B17  1  0.388752  0.612587  0.000812  1
