# generated using pymatgen
data_La2HfGa6
_symmetry_space_group_name_H-M   'P 1'
_cell_length_a   6.55173170
_cell_length_b   6.55173215
_cell_length_c   6.55173200
_cell_angle_alpha   60.00000075
_cell_angle_beta   59.99999847
_cell_angle_gamma   60.00000126
_symmetry_Int_Tables_number   1
_chemical_formula_structural   La2HfGa6
_chemical_formula_sum   'La2 Hf1 Ga6'
_cell_volume   198.86271575
_cell_formula_units_Z   1
loop_
 _symmetry_equiv_pos_site_id
 _symmetry_equiv_pos_as_xyz
  1  'x, y, z'
loop_
 _atom_site_type_symbol
 _atom_site_label
 _atom_site_symmetry_multiplicity
 _atom_site_fract_x
 _atom_site_fract_y
 _atom_site_fract_z
 _atom_site_occupancy
  La  La0  1  0.250001  0.250001  0.250001  1
  La  La1  1  0.750000  0.750000  0.750000  1
  Hf  Hf2  1  0.500000  0.500000  0.500000  1
  Ga  Ga3  1  0.792421  0.207579  0.207579  1
  Ga  Ga4  1  0.207579  0.792421  0.207579  1
  Ga  Ga5  1  0.792421  0.792421  0.207579  1
  Ga  Ga6  1  0.207579  0.207579  0.792421  1
  Ga  Ga7  1  0.792421  0.207579  0.792421  1
  Ga  Ga8  1  0.207579  0.792421  0.792421  1
