# generated using pymatgen
data_Y8Os3RuC8
_symmetry_space_group_name_H-M   'P 1'
_cell_length_a   5.14550200
_cell_length_b   6.45811926
_cell_length_c   9.81736448
_cell_angle_alpha   89.90389690
_cell_angle_beta   90.00000000
_cell_angle_gamma   90.00000000
_symmetry_Int_Tables_number   1
_chemical_formula_structural   Y8Os3RuC8
_chemical_formula_sum   'Y8 Os3 Ru1 C8'
_cell_volume   326.23316960
_cell_formula_units_Z   1
loop_
 _symmetry_equiv_pos_site_id
 _symmetry_equiv_pos_as_xyz
  1  'x, y, z'
loop_
 _atom_site_type_symbol
 _atom_site_label
 _atom_site_symmetry_multiplicity
 _atom_site_fract_x
 _atom_site_fract_y
 _atom_site_fract_z
 _atom_site_occupancy
  Y  Y0  1  0.250000  0.684405  0.552757  1
  Y  Y1  1  0.750000  0.315667  0.447847  1
  Y  Y2  1  0.750000  0.816770  0.053170  1
  Y  Y3  1  0.250000  0.181046  0.947701  1
  Y  Y4  1  0.250000  0.526431  0.218719  1
  Y  Y5  1  0.750000  0.473978  0.781434  1
  Y  Y6  1  0.750000  0.974272  0.719121  1
  Y  Y7  1  0.250000  0.025918  0.279851  1
  Os  Os8  1  0.750000  0.275387  0.135226  1
  Os  Os9  1  0.750000  0.774625  0.365115  1
  Os  Os10  1  0.250000  0.224577  0.635435  1
  Ru  Ru11  1  0.250000  0.724192  0.865005  1
  C  C12  1  0.250000  0.459578  0.756310  1
  C  C13  1  0.750000  0.538875  0.242323  1
  C  C14  1  0.750000  0.039280  0.258460  1
  C  C15  1  0.250000  0.961353  0.740856  1
  C  C16  1  0.250000  0.825727  0.052507  1
  C  C17  1  0.750000  0.176960  0.948202  1
  C  C18  1  0.750000  0.677280  0.552205  1
  C  C19  1  0.250000  0.323678  0.447757  1
