# generated using pymatgen
data_Lu12Fe3Ni2Sn
_symmetry_space_group_name_H-M   'P 1'
_cell_length_a   8.10046688
_cell_length_b   8.10046538
_cell_length_c   8.10046636
_cell_angle_alpha   111.69511146
_cell_angle_beta   111.53997627
_cell_angle_gamma   105.25896217
_symmetry_Int_Tables_number   1
_chemical_formula_structural   Lu12Fe3Ni2Sn
_chemical_formula_sum   'Lu12 Fe3 Ni2 Sn1'
_cell_volume   407.53063639
_cell_formula_units_Z   1
loop_
 _symmetry_equiv_pos_site_id
 _symmetry_equiv_pos_as_xyz
  1  'x, y, z'
loop_
 _atom_site_type_symbol
 _atom_site_label
 _atom_site_symmetry_multiplicity
 _atom_site_fract_x
 _atom_site_fract_y
 _atom_site_fract_z
 _atom_site_occupancy
  Lu  Lu0  1  0.682542  0.878080  0.195538  1
  Lu  Lu1  1  0.317458  0.512998  0.195538  1
  Lu  Lu2  1  0.815928  0.771481  0.587408  1
  Lu  Lu3  1  0.184072  0.771481  0.955552  1
  Lu  Lu4  1  0.815928  0.228519  0.044448  1
  Lu  Lu5  1  0.184072  0.228519  0.412592  1
  Lu  Lu6  1  0.682542  0.487002  0.804462  1
  Lu  Lu7  1  0.317458  0.121920  0.804462  1
  Lu  Lu8  1  0.586164  0.280510  0.305652  1
  Lu  Lu9  1  0.413836  0.719490  0.694348  1
  Lu  Lu10  1  0.025142  0.719490  0.305652  1
  Lu  Lu11  1  0.974858  0.280510  0.694348  1
  Fe  Fe12  1  0.377321  0.500000  0.877321  1
  Fe  Fe13  1  0.622679  0.500000  0.122679  1
  Fe  Fe14  1  0.000000  0.500000  0.500000  1
  Ni  Ni15  1  0.884305  0.884305  0.000000  1
  Ni  Ni16  1  0.115695  0.115695  0.000000  1
  Sn  Sn17  1  0.500000  0.000000  0.500000  1
