# generated using pymatgen
data_SmCuRuO5
_symmetry_space_group_name_H-M   'P 1'
_cell_length_a   5.59647400
_cell_length_b   7.83664700
_cell_length_c   8.75584900
_cell_angle_alpha   90.00000000
_cell_angle_beta   90.00000000
_cell_angle_gamma   90.00000000
_symmetry_Int_Tables_number   1
_chemical_formula_structural   SmCuRuO5
_chemical_formula_sum   'Sm4 Cu4 Ru4 O20'
_cell_volume   384.01044590
_cell_formula_units_Z   4
loop_
 _symmetry_equiv_pos_site_id
 _symmetry_equiv_pos_as_xyz
  1  'x, y, z'
loop_
 _atom_site_type_symbol
 _atom_site_label
 _atom_site_symmetry_multiplicity
 _atom_site_fract_x
 _atom_site_fract_y
 _atom_site_fract_z
 _atom_site_occupancy
  Sm  Sm0  1  0.000000  0.352968  0.670025  1
  Sm  Sm1  1  0.000000  0.647032  0.329975  1
  Sm  Sm2  1  0.000000  0.852968  0.829975  1
  Sm  Sm3  1  0.000000  0.147032  0.170025  1
  Cu  Cu4  1  0.500000  0.065179  0.851584  1
  Cu  Cu5  1  0.500000  0.934821  0.148416  1
  Cu  Cu6  1  0.500000  0.565179  0.648416  1
  Cu  Cu7  1  0.500000  0.434821  0.351584  1
  Ru  Ru8  1  0.282450  0.500000  0.000000  1
  Ru  Ru9  1  0.717550  0.000000  0.500000  1
  Ru  Ru10  1  0.717550  0.500000  0.000000  1
  Ru  Ru11  1  0.282450  0.000000  0.500000  1
  O  O12  1  0.248226  0.908284  0.289079  1
  O  O13  1  0.248226  0.091716  0.710921  1
  O  O14  1  0.751774  0.408284  0.210921  1
  O  O15  1  0.751774  0.591716  0.789079  1
  O  O16  1  0.751774  0.091716  0.710921  1
  O  O17  1  0.751774  0.908284  0.289079  1
  O  O18  1  0.248226  0.591716  0.789079  1
  O  O19  1  0.248226  0.408284  0.210921  1
  O  O20  1  0.500000  0.325452  0.930957  1
  O  O21  1  0.500000  0.674548  0.069043  1
  O  O22  1  0.500000  0.825452  0.569043  1
  O  O23  1  0.500000  0.174548  0.430957  1
  O  O24  1  0.263275  0.000000  0.000000  1
  O  O25  1  0.736725  0.500000  0.500000  1
  O  O26  1  0.736725  0.000000  0.000000  1
  O  O27  1  0.263275  0.500000  0.500000  1
  O  O28  1  0.000000  0.158325  0.446084  1
  O  O29  1  0.000000  0.841675  0.553916  1
  O  O30  1  0.000000  0.658325  0.053916  1
  O  O31  1  0.000000  0.341675  0.946084  1
