# generated using pymatgen
data_IrOF4
_symmetry_space_group_name_H-M   'P 1'
_cell_length_a   8.66418070
_cell_length_b   8.66329715
_cell_length_c   8.66208161
_cell_angle_alpha   98.31246186
_cell_angle_beta   98.31106256
_cell_angle_gamma   135.31381730
_symmetry_Int_Tables_number   1
_chemical_formula_structural   IrOF4
_chemical_formula_sum   'Ir4 O4 F16'
_cell_volume   422.87306076
_cell_formula_units_Z   4
loop_
 _symmetry_equiv_pos_site_id
 _symmetry_equiv_pos_as_xyz
  1  'x, y, z'
loop_
 _atom_site_type_symbol
 _atom_site_label
 _atom_site_symmetry_multiplicity
 _atom_site_fract_x
 _atom_site_fract_y
 _atom_site_fract_z
 _atom_site_occupancy
  Ir  Ir0  1  0.936446  0.760691  0.725072  1
  Ir  Ir1  1  0.788619  0.063497  0.824193  1
  Ir  Ir2  1  0.239293  0.964424  0.175810  1
  Ir  Ir3  1  0.035637  0.211403  0.274955  1
  O  O4  1  0.088004  0.858409  0.949592  1
  O  O5  1  0.141620  0.091194  0.229654  1
  O  O6  1  0.861528  0.911970  0.770320  1
  O  O7  1  0.908841  0.138421  0.050443  1
  F  F8  1  0.646975  0.475214  0.726915  1
  F  F9  1  0.218701  0.023563  0.698901  1
  F  F10  1  0.710586  0.215044  0.870934  1
  F  F11  1  0.784883  0.655851  0.495421  1
  F  F12  1  0.004801  0.602095  0.669584  1
  F  F13  1  0.397911  0.067487  0.402760  1
  F  F14  1  0.480080  0.781272  0.804776  1
  F  F15  1  0.079894  0.353112  0.828177  1
  F  F16  1  0.524883  0.251770  0.171870  1
  F  F17  1  0.976490  0.675343  0.195250  1
  F  F18  1  0.664714  0.995154  0.597212  1
  F  F19  1  0.932619  0.335189  0.330402  1
  F  F20  1  0.160388  0.289411  0.504463  1
  F  F21  1  0.344088  0.839610  0.129057  1
  F  F22  1  0.324635  0.519777  0.301132  1
  F  F23  1  0.748363  0.920097  0.273105  1
