# generated using pymatgen
data_TaCoTe4
_symmetry_space_group_name_H-M   'P 1'
_cell_length_a   3.69679200
_cell_length_b   12.57513900
_cell_length_c   13.65109200
_cell_angle_alpha   90.00000000
_cell_angle_beta   90.00000000
_cell_angle_gamma   90.00000000
_symmetry_Int_Tables_number   1
_chemical_formula_structural   TaCoTe4
_chemical_formula_sum   'Ta4 Co4 Te16'
_cell_volume   634.60750446
_cell_formula_units_Z   4
loop_
 _symmetry_equiv_pos_site_id
 _symmetry_equiv_pos_as_xyz
  1  'x, y, z'
loop_
 _atom_site_type_symbol
 _atom_site_label
 _atom_site_symmetry_multiplicity
 _atom_site_fract_x
 _atom_site_fract_y
 _atom_site_fract_z
 _atom_site_occupancy
  Ta  Ta0  1  0.000000  0.053020  0.002349  1
  Ta  Ta1  1  0.500000  0.946980  0.502349  1
  Ta  Ta2  1  0.000000  0.270195  0.492293  1
  Ta  Ta3  1  0.500000  0.729805  0.992293  1
  Co  Co4  1  0.000000  0.533580  0.000320  1
  Co  Co5  1  0.500000  0.466420  0.500320  1
  Co  Co6  1  0.000000  0.752196  0.492105  1
  Co  Co7  1  0.500000  0.247804  0.992105  1
  Te  Te8  1  0.500000  0.117570  0.141456  1
  Te  Te9  1  0.000000  0.882430  0.641456  1
  Te  Te10  1  0.500000  0.151543  0.607817  1
  Te  Te11  1  0.000000  0.848457  0.107817  1
  Te  Te12  1  0.500000  0.333866  0.352712  1
  Te  Te13  1  0.000000  0.666134  0.852712  1
  Te  Te14  1  0.500000  0.435811  0.908223  1
  Te  Te15  1  0.000000  0.564189  0.408223  1
  Te  Te16  1  0.000000  0.066649  0.389597  1
  Te  Te17  1  0.500000  0.933351  0.889597  1
  Te  Te18  1  0.000000  0.200314  0.862080  1
  Te  Te19  1  0.500000  0.799686  0.362080  1
  Te  Te20  1  0.000000  0.345008  0.083623  1
  Te  Te21  1  0.500000  0.654992  0.583623  1
  Te  Te22  1  0.000000  0.419231  0.630483  1
  Te  Te23  1  0.500000  0.580769  0.130483  1
