# generated using pymatgen
data_Nd16Cd4CuTc2Pd
_symmetry_space_group_name_H-M   'P 1'
_cell_length_a   9.96666640
_cell_length_b   9.95718541
_cell_length_c   10.07734800
_cell_angle_alpha   59.59999340
_cell_angle_beta   59.63196536
_cell_angle_gamma   59.56053322
_symmetry_Int_Tables_number   1
_chemical_formula_structural   Nd16Cd4CuTc2Pd
_chemical_formula_sum   'Nd16 Cd4 Cu1 Tc2 Pd1'
_cell_volume   700.69009354
_cell_formula_units_Z   1
loop_
 _symmetry_equiv_pos_site_id
 _symmetry_equiv_pos_as_xyz
  1  'x, y, z'
loop_
 _atom_site_type_symbol
 _atom_site_label
 _atom_site_symmetry_multiplicity
 _atom_site_fract_x
 _atom_site_fract_y
 _atom_site_fract_z
 _atom_site_occupancy
  Nd  Nd0  1  0.346904  0.349522  0.354900  1
  Nd  Nd1  1  0.346904  0.349522  0.948673  1
  Nd  Nd2  1  0.343300  0.957051  0.349825  1
  Nd  Nd3  1  0.958052  0.344320  0.348814  1
  Nd  Nd4  1  0.815183  0.189375  0.191439  1
  Nd  Nd5  1  0.189428  0.815092  0.804413  1
  Nd  Nd6  1  0.189428  0.815092  0.191066  1
  Nd  Nd7  1  0.815183  0.189375  0.804002  1
  Nd  Nd8  1  0.190323  0.189870  0.809903  1
  Nd  Nd9  1  0.805803  0.805326  0.194436  1
  Nd  Nd10  1  0.937051  0.555964  0.567383  1
  Nd  Nd11  1  0.556671  0.937385  0.940087  1
  Nd  Nd12  1  0.556671  0.937385  0.565855  1
  Nd  Nd13  1  0.937051  0.555964  0.939601  1
  Nd  Nd14  1  0.564321  0.562072  0.936804  1
  Nd  Nd15  1  0.939737  0.939675  0.560294  1
  Cd  Cd16  1  0.579616  0.579937  0.579916  1
  Cd  Cd17  1  0.579616  0.579937  0.260533  1
  Cd  Cd18  1  0.580823  0.258486  0.580345  1
  Cd  Cd19  1  0.258985  0.580742  0.580136  1
  Cu  Cu20  1  0.148134  0.572559  0.139653  1
  Tc  Tc21  1  0.142946  0.144006  0.132492  1
  Tc  Tc22  1  0.142946  0.144006  0.580554  1
  Pd  Pd23  1  0.574920  0.147333  0.138873  1
