# generated using pymatgen
data_TlAgRu2O7
_symmetry_space_group_name_H-M   'P 1'
_cell_length_a   7.17922032
_cell_length_b   7.25948977
_cell_length_c   7.25949000
_cell_angle_alpha   61.52449819
_cell_angle_beta   60.36509203
_cell_angle_gamma   60.36510260
_symmetry_Int_Tables_number   1
_chemical_formula_structural   TlAgRu2O7
_chemical_formula_sum   'Tl2 Ag2 Ru4 O14'
_cell_volume   271.99461934
_cell_formula_units_Z   2
loop_
 _symmetry_equiv_pos_site_id
 _symmetry_equiv_pos_as_xyz
  1  'x, y, z'
loop_
 _atom_site_type_symbol
 _atom_site_label
 _atom_site_symmetry_multiplicity
 _atom_site_fract_x
 _atom_site_fract_y
 _atom_site_fract_z
 _atom_site_occupancy
  Tl  Tl0  1  0.625000  0.625000  0.125000  1
  Tl  Tl1  1  0.625000  0.125000  0.625000  1
  Ag  Ag2  1  0.625000  0.625000  0.625000  1
  Ag  Ag3  1  0.125000  0.625000  0.625000  1
  Ru  Ru4  1  0.125000  0.125000  0.125000  1
  Ru  Ru5  1  0.625000  0.125000  0.125000  1
  Ru  Ru6  1  0.125000  0.125000  0.625000  1
  Ru  Ru7  1  0.125000  0.625000  0.125000  1
  O  O8  1  0.490111  0.509889  0.509889  1
  O  O9  1  0.759889  0.740111  0.740111  1
  O  O10  1  0.052585  0.059799  0.442183  1
  O  O11  1  0.804567  0.807817  0.190201  1
  O  O12  1  0.445433  0.059799  0.442183  1
  O  O13  1  0.447467  0.052533  0.052533  1
  O  O14  1  0.060660  0.439340  0.439340  1
  O  O15  1  0.052585  0.442183  0.059799  1
  O  O16  1  0.445433  0.442183  0.059799  1
  O  O17  1  0.189340  0.810660  0.810660  1
  O  O18  1  0.802533  0.197467  0.197467  1
  O  O19  1  0.197415  0.190201  0.807817  1
  O  O20  1  0.197415  0.807817  0.190201  1
  O  O21  1  0.804567  0.190201  0.807817  1
