# generated using pymatgen
data_CsGd(SeO4)2
_symmetry_space_group_name_H-M   'P 1'
_cell_length_a   5.56022601
_cell_length_b   5.56004558
_cell_length_c   9.34225400
_cell_angle_alpha   89.99993840
_cell_angle_beta   89.99860574
_cell_angle_gamma   119.99556312
_symmetry_Int_Tables_number   1
_chemical_formula_structural   CsGd(SeO4)2
_chemical_formula_sum   'Cs1 Gd1 Se2 O8'
_cell_volume   250.13387669
_cell_formula_units_Z   1
loop_
 _symmetry_equiv_pos_site_id
 _symmetry_equiv_pos_as_xyz
  1  'x, y, z'
loop_
 _atom_site_type_symbol
 _atom_site_label
 _atom_site_symmetry_multiplicity
 _atom_site_fract_x
 _atom_site_fract_y
 _atom_site_fract_z
 _atom_site_occupancy
  Cs  Cs0  1  0.000000  0.000000  0.500001  1
  Gd  Gd1  1  0.000000  0.000000  0.000000  1
  Se  Se2  1  0.333350  0.666666  0.212572  1
  Se  Se3  1  0.666650  0.333336  0.787428  1
  O  O4  1  0.081267  0.360462  0.149684  1
  O  O5  1  0.639574  0.720787  0.149695  1
  O  O6  1  0.279213  0.918759  0.149690  1
  O  O7  1  0.333351  0.666663  0.388854  1
  O  O8  1  0.666649  0.333339  0.611146  1
  O  O9  1  0.720786  0.081240  0.850310  1
  O  O10  1  0.360428  0.279215  0.850305  1
  O  O11  1  0.918731  0.639537  0.850316  1
