# generated using pymatgen
data_YbTh(Cd2Cu9)2
_symmetry_space_group_name_H-M   'P 1'
_cell_length_a   5.09146500
_cell_length_b   5.09166365
_cell_length_c   15.90463800
_cell_angle_alpha   89.99998334
_cell_angle_beta   90.00002206
_cell_angle_gamma   120.00107046
_symmetry_Int_Tables_number   1
_chemical_formula_structural   YbTh(Cd2Cu9)2
_chemical_formula_sum   'Yb1 Th1 Cd4 Cu18'
_cell_volume   357.06904795
_cell_formula_units_Z   1
loop_
 _symmetry_equiv_pos_site_id
 _symmetry_equiv_pos_as_xyz
  1  'x, y, z'
loop_
 _atom_site_type_symbol
 _atom_site_label
 _atom_site_symmetry_multiplicity
 _atom_site_fract_x
 _atom_site_fract_y
 _atom_site_fract_z
 _atom_site_occupancy
  Yb  Yb0  1  0.333337  0.666668  0.750000  1
  Th  Th1  1  0.666661  0.333332  0.249999  1
  Cd  Cd2  1  0.666665  0.333336  0.466160  1
  Cd  Cd3  1  0.333338  0.666668  0.965042  1
  Cd  Cd4  1  0.666664  0.333336  0.033838  1
  Cd  Cd5  1  0.333339  0.666668  0.534958  1
  Cu  Cu6  1  0.333331  0.666665  0.249999  1
  Cu  Cu7  1  0.666716  0.333377  0.750001  1
  Cu  Cu8  1  0.168317  0.831676  0.376684  1
  Cu  Cu9  1  0.168312  0.336638  0.376684  1
  Cu  Cu10  1  0.999939  0.999942  0.750001  1
  Cu  Cu11  1  0.999994  0.999998  0.250000  1
  Cu  Cu12  1  0.999992  0.999992  0.999429  1
  Cu  Cu13  1  0.999994  0.999994  0.500571  1
  Cu  Cu14  1  0.168313  0.336642  0.123316  1
  Cu  Cu15  1  0.831632  0.168379  0.624611  1
  Cu  Cu16  1  0.336757  0.168377  0.624610  1
  Cu  Cu17  1  0.663353  0.831680  0.123316  1
  Cu  Cu18  1  0.168319  0.831674  0.123316  1
  Cu  Cu19  1  0.831640  0.663259  0.875391  1
  Cu  Cu20  1  0.831632  0.168379  0.875391  1
  Cu  Cu21  1  0.831640  0.663259  0.624611  1
  Cu  Cu22  1  0.336758  0.168377  0.875393  1
  Cu  Cu23  1  0.663357  0.831682  0.376683  1
