# generated using pymatgen
data_Yb15PrSb12
_symmetry_space_group_name_H-M   'P 1'
_cell_length_a   9.43079035
_cell_length_b   9.43079059
_cell_length_c   9.43079000
_cell_angle_alpha   89.73833790
_cell_angle_beta   89.73833789
_cell_angle_gamma   90.26165517
_symmetry_Int_Tables_number   1
_chemical_formula_structural   Yb15PrSb12
_chemical_formula_sum   'Yb15 Pr1 Sb12'
_cell_volume   838.74633961
_cell_formula_units_Z   1
loop_
 _symmetry_equiv_pos_site_id
 _symmetry_equiv_pos_as_xyz
  1  'x, y, z'
loop_
 _atom_site_type_symbol
 _atom_site_label
 _atom_site_symmetry_multiplicity
 _atom_site_fract_x
 _atom_site_fract_y
 _atom_site_fract_z
 _atom_site_occupancy
  Yb  Yb0  1  0.821575  0.321575  0.178425  1
  Yb  Yb1  1  0.923838  0.931175  0.926386  1
  Yb  Yb2  1  0.824428  0.674577  0.325283  1
  Yb  Yb3  1  0.175039  0.825928  0.325508  1
  Yb  Yb4  1  0.174577  0.174717  0.175572  1
  Yb  Yb5  1  0.328218  0.828218  0.671782  1
  Yb  Yb6  1  0.073614  0.423838  0.568825  1
  Yb  Yb7  1  0.325928  0.174492  0.824961  1
  Yb  Yb8  1  0.674717  0.324428  0.825423  1
  Yb  Yb9  1  0.674492  0.675039  0.674072  1
  Yb  Yb10  1  0.574690  0.074690  0.425310  1
  Yb  Yb11  1  0.431175  0.573614  0.076162  1
  Yb  Yb12  1  0.923663  0.074076  0.573951  1
  Yb  Yb13  1  0.426049  0.423663  0.425924  1
  Yb  Yb14  1  0.574076  0.926049  0.076337  1
  Pr  Pr15  1  0.074208  0.574208  0.925792  1
  Sb  Sb16  1  0.748541  0.375066  0.501173  1
  Sb  Sb17  1  0.875066  0.998827  0.251459  1
  Sb  Sb18  1  0.000881  0.749442  0.626527  1
  Sb  Sb19  1  0.248956  0.126104  0.500536  1
  Sb  Sb20  1  0.126691  0.500959  0.248688  1
  Sb  Sb21  1  0.000959  0.251312  0.873309  1
  Sb  Sb22  1  0.249442  0.873473  0.999119  1
  Sb  Sb23  1  0.373473  0.500881  0.750558  1
  Sb  Sb24  1  0.498827  0.248541  0.124934  1
  Sb  Sb25  1  0.751312  0.626691  0.999041  1
  Sb  Sb26  1  0.626104  0.999464  0.751044  1
  Sb  Sb27  1  0.499464  0.748956  0.373896  1
