# generated using pymatgen
data_Y5Ho15(Hg3Os)2
_symmetry_space_group_name_H-M   'P 1'
_cell_length_a   9.57889200
_cell_length_b   9.57889207
_cell_length_c   9.84265600
_cell_angle_alpha   90.00000000
_cell_angle_beta   90.00000000
_cell_angle_gamma   119.99346613
_symmetry_Int_Tables_number   1
_chemical_formula_structural   Y5Ho15(Hg3Os)2
_chemical_formula_sum   'Y5 Ho15 Hg6 Os2'
_cell_volume   782.17167622
_cell_formula_units_Z   1
loop_
 _symmetry_equiv_pos_site_id
 _symmetry_equiv_pos_as_xyz
  1  'x, y, z'
loop_
 _atom_site_type_symbol
 _atom_site_label
 _atom_site_symmetry_multiplicity
 _atom_site_fract_x
 _atom_site_fract_y
 _atom_site_fract_z
 _atom_site_occupancy
  Y  Y0  1  0.539895  0.079889  0.250000  1
  Y  Y1  1  0.920111  0.460105  0.250000  1
  Y  Y2  1  0.460238  0.539762  0.750000  1
  Y  Y3  1  0.460221  0.920642  0.750000  1
  Y  Y4  1  0.079358  0.539779  0.750000  1
  Ho  Ho5  1  0.000088  0.999912  0.500031  1
  Ho  Ho6  1  0.000088  0.999912  0.999969  1
  Ho  Ho7  1  0.209509  0.790491  0.440114  1
  Ho  Ho8  1  0.209812  0.418857  0.439944  1
  Ho  Ho9  1  0.581143  0.790188  0.439944  1
  Ho  Ho10  1  0.790471  0.209529  0.559908  1
  Ho  Ho11  1  0.790143  0.580789  0.559642  1
  Ho  Ho12  1  0.419211  0.209857  0.559642  1
  Ho  Ho13  1  0.790471  0.209529  0.940092  1
  Ho  Ho14  1  0.790143  0.580789  0.940358  1
  Ho  Ho15  1  0.419211  0.209857  0.940358  1
  Ho  Ho16  1  0.209509  0.790491  0.059886  1
  Ho  Ho17  1  0.209812  0.418857  0.060056  1
  Ho  Ho18  1  0.581143  0.790188  0.060056  1
  Ho  Ho19  1  0.539284  0.460716  0.250000  1
  Hg  Hg20  1  0.883128  0.116872  0.250000  1
  Hg  Hg21  1  0.882350  0.765665  0.250000  1
  Hg  Hg22  1  0.234335  0.117650  0.250000  1
  Hg  Hg23  1  0.116901  0.883099  0.750000  1
  Hg  Hg24  1  0.117051  0.233839  0.750000  1
  Hg  Hg25  1  0.766161  0.882949  0.750000  1
  Os  Os26  1  0.333551  0.666449  0.250000  1
  Os  Os27  1  0.666659  0.333341  0.750000  1
