# generated using pymatgen
data_Y5ErLu4(In2Pt)4
_symmetry_space_group_name_H-M   'P 1'
_cell_length_a   3.60392700
_cell_length_b   8.14807186
_cell_length_c   18.11799605
_cell_angle_alpha   90.07706411
_cell_angle_beta   90.00000000
_cell_angle_gamma   90.00000000
_symmetry_Int_Tables_number   1
_chemical_formula_structural   Y5ErLu4(In2Pt)4
_chemical_formula_sum   'Y5 Er1 Lu4 In8 Pt4'
_cell_volume   532.03549063
_cell_formula_units_Z   1
loop_
 _symmetry_equiv_pos_site_id
 _symmetry_equiv_pos_as_xyz
  1  'x, y, z'
loop_
 _atom_site_type_symbol
 _atom_site_label
 _atom_site_symmetry_multiplicity
 _atom_site_fract_x
 _atom_site_fract_y
 _atom_site_fract_z
 _atom_site_occupancy
  Y  Y0  1  0.000000  0.241687  0.220095  1
  Y  Y1  1  0.000000  0.758598  0.780186  1
  Y  Y2  1  0.000000  0.258578  0.719808  1
  Y  Y3  1  0.000000  0.000253  0.000259  1
  Y  Y4  1  0.000000  0.499892  0.499822  1
  Er  Er5  1  0.000000  0.742311  0.279534  1
  Lu  Lu6  1  0.000000  0.115568  0.413955  1
  Lu  Lu7  1  0.000000  0.883636  0.585381  1
  Lu  Lu8  1  0.000000  0.383940  0.914605  1
  Lu  Lu9  1  0.000000  0.616379  0.086025  1
  In  In10  1  0.500000  0.421700  0.350987  1
  In  In11  1  0.500000  0.579229  0.648907  1
  In  In12  1  0.500000  0.079470  0.851085  1
  In  In13  1  0.500000  0.920268  0.149018  1
  In  In14  1  0.500000  0.295297  0.066366  1
  In  In15  1  0.500000  0.705352  0.934169  1
  In  In16  1  0.500000  0.204959  0.565653  1
  In  In17  1  0.500000  0.793903  0.433322  1
  Pt  Pt18  1  0.500000  0.021846  0.305008  1
  Pt  Pt19  1  0.500000  0.974157  0.694455  1
  Pt  Pt20  1  0.500000  0.474548  0.805612  1
  Pt  Pt21  1  0.500000  0.528426  0.195746  1
