# generated using pymatgen
data_Ti3ZnAuO
_symmetry_space_group_name_H-M   'P 1'
_cell_length_a   6.92620000
_cell_length_b   6.92620000
_cell_length_c   6.92620000
_cell_angle_alpha   90.00000000
_cell_angle_beta   90.00000000
_cell_angle_gamma   90.00000000
_symmetry_Int_Tables_number   1
_chemical_formula_structural   Ti3ZnAuO
_chemical_formula_sum   'Ti12 Zn4 Au4 O4'
_cell_volume   332.26537329
_cell_formula_units_Z   4
loop_
 _symmetry_equiv_pos_site_id
 _symmetry_equiv_pos_as_xyz
  1  'x, y, z'
loop_
 _atom_site_type_symbol
 _atom_site_label
 _atom_site_symmetry_multiplicity
 _atom_site_fract_x
 _atom_site_fract_y
 _atom_site_fract_z
 _atom_site_occupancy
  Ti  Ti0  1  0.788398  0.957556  0.376271  1
  Ti  Ti1  1  0.711602  0.042444  0.876271  1
  Ti  Ti2  1  0.211602  0.457556  0.123729  1
  Ti  Ti3  1  0.288398  0.542444  0.623729  1
  Ti  Ti4  1  0.957556  0.376271  0.788398  1
  Ti  Ti5  1  0.042444  0.876271  0.711602  1
  Ti  Ti6  1  0.457556  0.123729  0.211602  1
  Ti  Ti7  1  0.542444  0.623729  0.288398  1
  Ti  Ti8  1  0.376271  0.788398  0.957556  1
  Ti  Ti9  1  0.876271  0.711602  0.042444  1
  Ti  Ti10  1  0.123729  0.211602  0.457556  1
  Ti  Ti11  1  0.623729  0.288398  0.542444  1
  Zn  Zn12  1  0.567774  0.432226  0.932226  1
  Zn  Zn13  1  0.432226  0.932226  0.567774  1
  Zn  Zn14  1  0.932226  0.567774  0.432226  1
  Zn  Zn15  1  0.067774  0.067774  0.067774  1
  Au  Au16  1  0.180457  0.819543  0.319543  1
  Au  Au17  1  0.319543  0.180457  0.819543  1
  Au  Au18  1  0.819543  0.319543  0.180457  1
  Au  Au19  1  0.680457  0.680457  0.680457  1
  O  O20  1  0.874698  0.125302  0.625302  1
  O  O21  1  0.625302  0.874698  0.125302  1
  O  O22  1  0.125302  0.625302  0.874698  1
  O  O23  1  0.374698  0.374698  0.374698  1
