# generated using pymatgen
data_DyHo2Si3Pd
_symmetry_space_group_name_H-M   'P 1'
_cell_length_a   5.64246160
_cell_length_b   5.64246071
_cell_length_c   13.57296400
_cell_angle_alpha   71.39210758
_cell_angle_beta   71.39211063
_cell_angle_gamma   44.07769732
_symmetry_Int_Tables_number   1
_chemical_formula_structural   DyHo2Si3Pd
_chemical_formula_sum   'Dy2 Ho4 Si6 Pd2'
_cell_volume   282.22947955
_cell_formula_units_Z   2
loop_
 _symmetry_equiv_pos_site_id
 _symmetry_equiv_pos_as_xyz
  1  'x, y, z'
loop_
 _atom_site_type_symbol
 _atom_site_label
 _atom_site_symmetry_multiplicity
 _atom_site_fract_x
 _atom_site_fract_y
 _atom_site_fract_z
 _atom_site_occupancy
  Dy  Dy0  1  0.396820  0.396820  0.922445  1
  Dy  Dy1  1  0.255209  0.255209  0.225191  1
  Ho  Ho2  1  0.472494  0.472494  0.376213  1
  Ho  Ho3  1  0.603224  0.603224  0.077328  1
  Ho  Ho4  1  0.744746  0.744746  0.774704  1
  Ho  Ho5  1  0.527488  0.527488  0.623746  1
  Si  Si6  1  0.876828  0.876828  0.544576  1
  Si  Si7  1  0.961446  0.961446  0.229474  1
  Si  Si8  1  0.887339  0.887339  0.074416  1
  Si  Si9  1  0.112735  0.112735  0.925477  1
  Si  Si10  1  0.123104  0.123104  0.455506  1
  Si  Si11  1  0.038655  0.038655  0.770342  1
  Pd  Pd12  1  0.754101  0.754101  0.402392  1
  Pd  Pd13  1  0.245812  0.245812  0.598188  1
