# generated using pymatgen
data_Yb2Ni3Pt
_symmetry_space_group_name_H-M   'P 1'
_cell_length_a   5.15971272
_cell_length_b   5.15971236
_cell_length_c   5.15971252
_cell_angle_alpha   58.43683487
_cell_angle_beta   58.43683817
_cell_angle_gamma   58.43683056
_symmetry_Int_Tables_number   1
_chemical_formula_structural   Yb2Ni3Pt
_chemical_formula_sum   'Yb2 Ni3 Pt1'
_cell_volume   93.65727755
_cell_formula_units_Z   1
loop_
 _symmetry_equiv_pos_site_id
 _symmetry_equiv_pos_as_xyz
  1  'x, y, z'
loop_
 _atom_site_type_symbol
 _atom_site_label
 _atom_site_symmetry_multiplicity
 _atom_site_fract_x
 _atom_site_fract_y
 _atom_site_fract_z
 _atom_site_occupancy
  Yb  Yb0  1  0.376793  0.376793  0.376793  1
  Yb  Yb1  1  0.623207  0.623207  0.623207  1
  Ni  Ni2  1  0.500001  0.000000  0.000000  1
  Ni  Ni3  1  0.000000  0.500001  0.000000  1
  Ni  Ni4  1  0.000000  0.000000  0.500000  1
  Pt  Pt5  1  0.000000  0.000000  0.000000  1
