# generated using pymatgen
data_La2Zn14Rh3
_symmetry_space_group_name_H-M   'P 1'
_cell_length_a   6.89570346
_cell_length_b   6.89570287
_cell_length_c   6.89570335
_cell_angle_alpha   82.96120015
_cell_angle_beta   97.03877851
_cell_angle_gamma   97.03880288
_symmetry_Int_Tables_number   1
_chemical_formula_structural   La2Zn14Rh3
_chemical_formula_sum   'La2 Zn14 Rh3'
_cell_volume   321.04170004
_cell_formula_units_Z   1
loop_
 _symmetry_equiv_pos_site_id
 _symmetry_equiv_pos_as_xyz
  1  'x, y, z'
loop_
 _atom_site_type_symbol
 _atom_site_label
 _atom_site_symmetry_multiplicity
 _atom_site_fract_x
 _atom_site_fract_y
 _atom_site_fract_z
 _atom_site_occupancy
  La  La0  1  0.661456  0.338543  0.338544  1
  La  La1  1  0.338543  0.661456  0.661456  1
  Zn  Zn2  1  0.289306  0.289306  0.000000  1
  Zn  Zn3  1  0.710694  0.710694  0.000000  1
  Zn  Zn4  1  0.897340  0.102658  0.102659  1
  Zn  Zn5  1  0.345123  0.654878  0.150399  1
  Zn  Zn6  1  0.000000  0.710694  0.289305  1
  Zn  Zn7  1  0.289306  0.000000  0.289306  1
  Zn  Zn8  1  0.654878  0.849601  0.345121  1
  Zn  Zn9  1  0.150399  0.345122  0.345123  1
  Zn  Zn10  1  0.849601  0.654878  0.654877  1
  Zn  Zn11  1  0.345122  0.150398  0.654878  1
  Zn  Zn12  1  0.000000  0.289306  0.710693  1
  Zn  Zn13  1  0.710694  0.000000  0.710694  1
  Zn  Zn14  1  0.654878  0.345122  0.849601  1
  Zn  Zn15  1  0.102658  0.897342  0.897341  1
  Rh  Rh16  1  0.500000  0.000000  0.000000  1
  Rh  Rh17  1  0.000000  0.499999  0.000000  1
  Rh  Rh18  1  0.000000  0.000000  0.500000  1
