# generated using pymatgen
data_Er6Th2Cd2IrRu
_symmetry_space_group_name_H-M   'P 1'
_cell_length_a   9.66662155
_cell_length_b   9.66662218
_cell_length_c   9.67635200
_cell_angle_alpha   59.96669842
_cell_angle_beta   59.96669624
_cell_angle_gamma   59.97606629
_symmetry_Int_Tables_number   1
_chemical_formula_structural   Er6Th2Cd2IrRu
_chemical_formula_sum   'Er12 Th4 Cd4 Ir2 Ru2'
_cell_volume   638.92339388
_cell_formula_units_Z   2
loop_
 _symmetry_equiv_pos_site_id
 _symmetry_equiv_pos_as_xyz
  1  'x, y, z'
loop_
 _atom_site_type_symbol
 _atom_site_label
 _atom_site_symmetry_multiplicity
 _atom_site_fract_x
 _atom_site_fract_y
 _atom_site_fract_z
 _atom_site_occupancy
  Er  Er0  1  0.063241  0.437490  0.437914  1
  Er  Er1  1  0.437490  0.063241  0.061355  1
  Er  Er2  1  0.437490  0.063241  0.437914  1
  Er  Er3  1  0.063241  0.437490  0.061355  1
  Er  Er4  1  0.437522  0.437522  0.062478  1
  Er  Er5  1  0.062137  0.062137  0.437863  1
  Er  Er6  1  0.185280  0.814297  0.815515  1
  Er  Er7  1  0.814297  0.185280  0.184908  1
  Er  Er8  1  0.814297  0.185280  0.815515  1
  Er  Er9  1  0.185280  0.814297  0.184908  1
  Er  Er10  1  0.814932  0.814932  0.185068  1
  Er  Er11  1  0.185202  0.185202  0.814798  1
  Th  Th12  1  0.598132  0.598132  0.602073  1
  Th  Th13  1  0.598132  0.598132  0.201664  1
  Th  Th14  1  0.596605  0.203020  0.600187  1
  Th  Th15  1  0.203020  0.596605  0.600187  1
  Cd  Cd16  1  0.832388  0.832388  0.833051  1
  Cd  Cd17  1  0.832388  0.832388  0.502172  1
  Cd  Cd18  1  0.832431  0.501439  0.833065  1
  Cd  Cd19  1  0.501439  0.832431  0.833065  1
  Ir  Ir20  1  0.393088  0.823439  0.391736  1
  Ir  Ir21  1  0.823439  0.393088  0.391736  1
  Ru  Ru22  1  0.394263  0.394263  0.392562  1
  Ru  Ru23  1  0.394263  0.394263  0.818909  1
