# generated using pymatgen
data_La5Ga2Os
_symmetry_space_group_name_H-M   'P 1'
_cell_length_a   8.31028300
_cell_length_b   9.18201100
_cell_length_c   12.39674400
_cell_angle_alpha   90.00000000
_cell_angle_beta   90.00000000
_cell_angle_gamma   90.00000000
_symmetry_Int_Tables_number   1
_chemical_formula_structural   La5Ga2Os
_chemical_formula_sum   'La20 Ga8 Os4'
_cell_volume   945.93491356
_cell_formula_units_Z   4
loop_
 _symmetry_equiv_pos_site_id
 _symmetry_equiv_pos_as_xyz
  1  'x, y, z'
loop_
 _atom_site_type_symbol
 _atom_site_label
 _atom_site_symmetry_multiplicity
 _atom_site_fract_x
 _atom_site_fract_y
 _atom_site_fract_z
 _atom_site_occupancy
  La  La0  1  0.157739  0.750000  0.212166  1
  La  La1  1  0.657739  0.250000  0.287834  1
  La  La2  1  0.842261  0.250000  0.787834  1
  La  La3  1  0.342261  0.750000  0.712166  1
  La  La4  1  0.450890  0.750000  0.995804  1
  La  La5  1  0.950890  0.250000  0.504196  1
  La  La6  1  0.549110  0.250000  0.004196  1
  La  La7  1  0.049110  0.750000  0.495804  1
  La  La8  1  0.624486  0.750000  0.299522  1
  La  La9  1  0.124486  0.250000  0.200478  1
  La  La10  1  0.375514  0.250000  0.700478  1
  La  La11  1  0.875514  0.750000  0.799522  1
  La  La12  1  0.815848  0.964760  0.068373  1
  La  La13  1  0.315848  0.035240  0.431627  1
  La  La14  1  0.184152  0.464760  0.931627  1
  La  La15  1  0.684152  0.535240  0.568373  1
  La  La16  1  0.184152  0.035240  0.931627  1
  La  La17  1  0.684152  0.964760  0.568373  1
  La  La18  1  0.815848  0.535240  0.068373  1
  La  La19  1  0.315848  0.464760  0.431627  1
  Ga  Ga20  1  0.926814  0.992783  0.331033  1
  Ga  Ga21  1  0.426814  0.007217  0.168967  1
  Ga  Ga22  1  0.073186  0.492783  0.668967  1
  Ga  Ga23  1  0.573186  0.507217  0.831033  1
  Ga  Ga24  1  0.073186  0.007217  0.668967  1
  Ga  Ga25  1  0.573186  0.992783  0.831033  1
  Ga  Ga26  1  0.926814  0.507217  0.331033  1
  Ga  Ga27  1  0.426814  0.492783  0.168967  1
  Os  Os28  1  0.425412  0.750000  0.485336  1
  Os  Os29  1  0.925412  0.250000  0.014664  1
  Os  Os30  1  0.574588  0.250000  0.514664  1
  Os  Os31  1  0.074588  0.750000  0.985336  1
