# generated using pymatgen
data_Er3Hg(Pd2Au)4
_symmetry_space_group_name_H-M   'P 1'
_cell_length_a   5.98582515
_cell_length_b   5.98127417
_cell_length_c   7.94298400
_cell_angle_alpha   90.00049409
_cell_angle_beta   90.00011976
_cell_angle_gamma   89.97340847
_symmetry_Int_Tables_number   1
_chemical_formula_structural   Er3Hg(Pd2Au)4
_chemical_formula_sum   'Er3 Hg1 Pd8 Au4'
_cell_volume   284.38152438
_cell_formula_units_Z   1
loop_
 _symmetry_equiv_pos_site_id
 _symmetry_equiv_pos_as_xyz
  1  'x, y, z'
loop_
 _atom_site_type_symbol
 _atom_site_label
 _atom_site_symmetry_multiplicity
 _atom_site_fract_x
 _atom_site_fract_y
 _atom_site_fract_z
 _atom_site_occupancy
  Er  Er0  1  0.249830  0.250016  0.000000  1
  Er  Er1  1  0.750221  0.749999  0.000005  1
  Er  Er2  1  0.749832  0.750013  0.499976  1
  Hg  Hg3  1  0.250261  0.249994  0.500006  1
  Pd  Pd4  1  0.500441  0.999497  0.251140  1
  Pd  Pd5  1  0.500463  0.500538  0.251169  1
  Pd  Pd6  1  0.999527  0.999516  0.251456  1
  Pd  Pd7  1  0.999555  0.500451  0.251443  1
  Pd  Pd8  1  0.999509  0.999524  0.748532  1
  Pd  Pd9  1  0.999540  0.500441  0.748556  1
  Pd  Pd10  1  0.500438  0.999500  0.748859  1
  Pd  Pd11  1  0.500465  0.500518  0.748845  1
  Au  Au12  1  0.749944  0.249995  0.000018  1
  Au  Au13  1  0.250046  0.749997  0.999979  1
  Au  Au14  1  0.749948  0.250006  0.499981  1
  Au  Au15  1  0.249978  0.749993  0.500037  1
