# generated using pymatgen
data_Er12Tc2OsPt
_symmetry_space_group_name_H-M   'P 1'
_cell_length_a   6.28856900
_cell_length_b   7.32195657
_cell_length_c   9.06660900
_cell_angle_alpha   90.00000000
_cell_angle_beta   90.00000000
_cell_angle_gamma   90.22917726
_symmetry_Int_Tables_number   1
_chemical_formula_structural   Er12Tc2OsPt
_chemical_formula_sum   'Er12 Tc2 Os1 Pt1'
_cell_volume   417.46530922
_cell_formula_units_Z   1
loop_
 _symmetry_equiv_pos_site_id
 _symmetry_equiv_pos_as_xyz
  1  'x, y, z'
loop_
 _atom_site_type_symbol
 _atom_site_label
 _atom_site_symmetry_multiplicity
 _atom_site_fract_x
 _atom_site_fract_y
 _atom_site_fract_z
 _atom_site_occupancy
  Er  Er0  1  0.335675  0.672946  0.059611  1
  Er  Er1  1  0.168158  0.180642  0.441235  1
  Er  Er2  1  0.667502  0.323131  0.563126  1
  Er  Er3  1  0.826110  0.823103  0.932993  1
  Er  Er4  1  0.667502  0.323131  0.936874  1
  Er  Er5  1  0.826110  0.823103  0.567007  1
  Er  Er6  1  0.335675  0.672946  0.440389  1
  Er  Er7  1  0.168158  0.180642  0.058765  1
  Er  Er8  1  0.873583  0.534396  0.250000  1
  Er  Er9  1  0.626737  0.042039  0.250000  1
  Er  Er10  1  0.128044  0.462041  0.750000  1
  Er  Er11  1  0.369919  0.959144  0.750000  1
  Tc  Tc12  1  0.460623  0.386895  0.250000  1
  Tc  Tc13  1  0.964501  0.113811  0.750000  1
  Os  Os14  1  0.537121  0.616018  0.750000  1
  Pt  Pt15  1  0.044580  0.886013  0.250000  1
