# generated using pymatgen
data_SrTb3Ho3NiBr12
_symmetry_space_group_name_H-M   'P 1'
_cell_length_a   9.20053025
_cell_length_b   9.20053030
_cell_length_c   9.20053280
_cell_angle_alpha   105.94774105
_cell_angle_beta   105.94775124
_cell_angle_gamma   105.94774645
_symmetry_Int_Tables_number   1
_chemical_formula_structural   SrTb3Ho3NiBr12
_chemical_formula_sum   'Sr1 Tb3 Ho3 Ni1 Br12'
_cell_volume   666.35325626
_cell_formula_units_Z   1
loop_
 _symmetry_equiv_pos_site_id
 _symmetry_equiv_pos_as_xyz
  1  'x, y, z'
loop_
 _atom_site_type_symbol
 _atom_site_label
 _atom_site_symmetry_multiplicity
 _atom_site_fract_x
 _atom_site_fract_y
 _atom_site_fract_z
 _atom_site_occupancy
  Sr  Sr0  1  0.499945  0.499945  0.499945  1
  Tb  Tb1  1  0.096598  0.019236  0.303984  1
  Tb  Tb2  1  0.303984  0.096598  0.019236  1
  Tb  Tb3  1  0.019236  0.303984  0.096598  1
  Ho  Ho4  1  0.903031  0.980570  0.698383  1
  Ho  Ho5  1  0.698383  0.903031  0.980570  1
  Ho  Ho6  1  0.980570  0.698383  0.903031  1
  Ni  Ni7  1  0.999979  0.999979  0.999979  1
  Br  Br8  1  0.925955  0.323483  0.777860  1
  Br  Br9  1  0.777860  0.925955  0.323483  1
  Br  Br10  1  0.323483  0.777860  0.925955  1
  Br  Br11  1  0.072471  0.675317  0.217711  1
  Br  Br12  1  0.217711  0.072471  0.675317  1
  Br  Br13  1  0.675317  0.217711  0.072471  1
  Br  Br14  1  0.556206  0.862452  0.635767  1
  Br  Br15  1  0.635767  0.556206  0.862452  1
  Br  Br16  1  0.862452  0.635767  0.556206  1
  Br  Br17  1  0.446087  0.138480  0.366483  1
  Br  Br18  1  0.366483  0.446087  0.138480  1
  Br  Br19  1  0.138480  0.366483  0.446087  1
