# generated using pymatgen
data_Be3Nb4Al4Zn
_symmetry_space_group_name_H-M   'P 1'
_cell_length_a   4.90967763
_cell_length_b   4.90967769
_cell_length_c   8.10093000
_cell_angle_alpha   90.00000000
_cell_angle_beta   90.00000000
_cell_angle_gamma   60.94858345
_symmetry_Int_Tables_number   1
_chemical_formula_structural   Be3Nb4Al4Zn
_chemical_formula_sum   'Be3 Nb4 Al4 Zn1'
_cell_volume   170.70405526
_cell_formula_units_Z   1
loop_
 _symmetry_equiv_pos_site_id
 _symmetry_equiv_pos_as_xyz
  1  'x, y, z'
loop_
 _atom_site_type_symbol
 _atom_site_label
 _atom_site_symmetry_multiplicity
 _atom_site_fract_x
 _atom_site_fract_y
 _atom_site_fract_z
 _atom_site_occupancy
  Be  Be0  1  0.834024  0.834023  0.750000  1
  Be  Be1  1  0.189418  0.638979  0.250000  1
  Be  Be2  1  0.638977  0.189420  0.250000  1
  Nb  Nb3  1  0.337165  0.337166  0.562355  1
  Nb  Nb4  1  0.662578  0.662578  0.433676  1
  Nb  Nb5  1  0.662578  0.662578  0.066324  1
  Nb  Nb6  1  0.337165  0.337166  0.937645  1
  Al  Al7  1  0.988413  0.988411  0.484793  1
  Al  Al8  1  0.988413  0.988411  0.015207  1
  Al  Al9  1  0.836058  0.346570  0.750000  1
  Al  Al10  1  0.346573  0.836055  0.750000  1
  Zn  Zn11  1  0.178640  0.178641  0.250000  1
