# generated using pymatgen
data_GdDy5U4O20
_symmetry_space_group_name_H-M   'P 1'
_cell_length_a   6.65427057
_cell_length_b   7.49975303
_cell_length_c   8.41402500
_cell_angle_alpha   100.84198108
_cell_angle_beta   97.66995260
_cell_angle_gamma   107.26012571
_symmetry_Int_Tables_number   1
_chemical_formula_structural   GdDy5U4O20
_chemical_formula_sum   'Gd1 Dy5 U4 O20'
_cell_volume   385.73489352
_cell_formula_units_Z   1
loop_
 _symmetry_equiv_pos_site_id
 _symmetry_equiv_pos_as_xyz
  1  'x, y, z'
loop_
 _atom_site_type_symbol
 _atom_site_label
 _atom_site_symmetry_multiplicity
 _atom_site_fract_x
 _atom_site_fract_y
 _atom_site_fract_z
 _atom_site_occupancy
  Gd  Gd0  1  0.000000  0.000000  0.500000  1
  Dy  Dy1  1  0.614296  0.703284  0.699620  1
  Dy  Dy2  1  0.385704  0.296716  0.300380  1
  Dy  Dy3  1  0.197678  0.896365  0.891924  1
  Dy  Dy4  1  0.000000  0.500000  0.500000  1
  Dy  Dy5  1  0.802322  0.103635  0.108076  1
  U  U6  1  0.401368  0.803867  0.301436  1
  U  U7  1  0.199262  0.400163  0.899699  1
  U  U8  1  0.800738  0.599837  0.100301  1
  U  U9  1  0.598632  0.196133  0.698564  1
  O  O10  1  0.439747  0.531720  0.137630  1
  O  O11  1  0.555431  0.987104  0.841506  1
  O  O12  1  0.269575  0.144620  0.746479  1
  O  O13  1  0.360498  0.594298  0.442780  1
  O  O14  1  0.054544  0.727139  0.332117  1
  O  O15  1  0.444569  0.012896  0.158494  1
  O  O16  1  0.150102  0.183228  0.032293  1
  O  O17  1  0.560253  0.468280  0.862370  1
  O  O18  1  0.854147  0.336265  0.951009  1
  O  O19  1  0.257747  0.606722  0.758867  1
  O  O20  1  0.953046  0.769875  0.653599  1
  O  O21  1  0.355710  0.063317  0.452714  1
  O  O22  1  0.644290  0.936683  0.547286  1
  O  O23  1  0.046954  0.230125  0.346401  1
  O  O24  1  0.742253  0.393278  0.241133  1
  O  O25  1  0.145853  0.663735  0.048991  1
  O  O26  1  0.849898  0.816772  0.967707  1
  O  O27  1  0.945456  0.272861  0.667883  1
  O  O28  1  0.639502  0.405702  0.557220  1
  O  O29  1  0.730425  0.855380  0.253521  1
