# generated using pymatgen
data_La2PPd14
_symmetry_space_group_name_H-M   'P 1'
_cell_length_a   9.01402900
_cell_length_b   9.01402900
_cell_length_c   7.16513300
_cell_angle_alpha   90.00000000
_cell_angle_beta   90.00000000
_cell_angle_gamma   90.00000000
_symmetry_Int_Tables_number   1
_chemical_formula_structural   La2PPd14
_chemical_formula_sum   'La4 P2 Pd28'
_cell_volume   582.18653691
_cell_formula_units_Z   2
loop_
 _symmetry_equiv_pos_site_id
 _symmetry_equiv_pos_as_xyz
  1  'x, y, z'
loop_
 _atom_site_type_symbol
 _atom_site_label
 _atom_site_symmetry_multiplicity
 _atom_site_fract_x
 _atom_site_fract_y
 _atom_site_fract_z
 _atom_site_occupancy
  La  La0  1  0.500000  0.000000  0.936307  1
  La  La1  1  0.000000  0.500000  0.063693  1
  La  La2  1  0.000000  0.000000  0.500000  1
  La  La3  1  0.500000  0.500000  0.500000  1
  P  P4  1  0.500000  0.000000  0.450035  1
  P  P5  1  0.000000  0.500000  0.549965  1
  Pd  Pd6  1  0.336660  0.836660  0.613170  1
  Pd  Pd7  1  0.336660  0.163340  0.613170  1
  Pd  Pd8  1  0.663340  0.836660  0.613170  1
  Pd  Pd9  1  0.663340  0.163340  0.613170  1
  Pd  Pd10  1  0.163340  0.663340  0.386830  1
  Pd  Pd11  1  0.163340  0.336660  0.386830  1
  Pd  Pd12  1  0.836660  0.663340  0.386830  1
  Pd  Pd13  1  0.836660  0.336660  0.386830  1
  Pd  Pd14  1  0.500000  0.772160  0.258902  1
  Pd  Pd15  1  0.500000  0.227840  0.258902  1
  Pd  Pd16  1  0.272160  0.000000  0.258902  1
  Pd  Pd17  1  0.727840  0.000000  0.258902  1
  Pd  Pd18  1  0.000000  0.727840  0.741098  1
  Pd  Pd19  1  0.000000  0.272160  0.741098  1
  Pd  Pd20  1  0.227840  0.500000  0.741098  1
  Pd  Pd21  1  0.772160  0.500000  0.741098  1
  Pd  Pd22  1  0.500000  0.349365  0.855112  1
  Pd  Pd23  1  0.500000  0.650635  0.855112  1
  Pd  Pd24  1  0.849365  0.000000  0.855112  1
  Pd  Pd25  1  0.150635  0.000000  0.855112  1
  Pd  Pd26  1  0.000000  0.150635  0.144888  1
  Pd  Pd27  1  0.000000  0.849365  0.144888  1
  Pd  Pd28  1  0.650635  0.500000  0.144888  1
  Pd  Pd29  1  0.349365  0.500000  0.144888  1
  Pd  Pd30  1  0.250000  0.750000  0.000000  1
  Pd  Pd31  1  0.250000  0.250000  0.000000  1
  Pd  Pd32  1  0.750000  0.750000  0.000000  1
  Pd  Pd33  1  0.750000  0.250000  0.000000  1
