# generated using pymatgen
data_Ce8TiAgSn6
_symmetry_space_group_name_H-M   'P 1'
_cell_length_a   8.98802463
_cell_length_b   8.98802377
_cell_length_c   8.98802500
_cell_angle_alpha   96.57349224
_cell_angle_beta   96.57348519
_cell_angle_gamma   140.44784490
_symmetry_Int_Tables_number   1
_chemical_formula_structural   Ce8TiAgSn6
_chemical_formula_sum   'Ce8 Ti1 Ag1 Sn6'
_cell_volume   435.09306615
_cell_formula_units_Z   1
loop_
 _symmetry_equiv_pos_site_id
 _symmetry_equiv_pos_as_xyz
  1  'x, y, z'
loop_
 _atom_site_type_symbol
 _atom_site_label
 _atom_site_symmetry_multiplicity
 _atom_site_fract_x
 _atom_site_fract_y
 _atom_site_fract_z
 _atom_site_occupancy
  Ce  Ce0  1  0.099634  0.237398  0.332888  1
  Ce  Ce1  1  0.904507  0.766744  0.667112  1
  Ce  Ce2  1  0.762602  0.095493  0.862236  1
  Ce  Ce3  1  0.400366  0.733256  0.137764  1
  Ce  Ce4  1  0.233256  0.900366  0.137764  1
  Ce  Ce5  1  0.595493  0.262602  0.862236  1
  Ce  Ce6  1  0.737398  0.599634  0.332888  1
  Ce  Ce7  1  0.266744  0.404507  0.667112  1
  Ti  Ti8  1  0.250000  0.750000  0.500000  1
  Ag  Ag9  1  0.750000  0.250000  0.500000  1
  Sn  Sn10  1  0.155266  0.655266  0.792949  1
  Sn  Sn11  1  0.862319  0.362319  0.207051  1
  Sn  Sn12  1  0.344734  0.137681  0.500000  1
  Sn  Sn13  1  0.637681  0.844734  0.500000  1
  Sn  Sn14  1  0.250000  0.250000  0.000000  1
  Sn  Sn15  1  0.750000  0.750000  0.000000  1
