# generated using pymatgen
data_LaPr15Cd4Ir3Au
_symmetry_space_group_name_H-M   'P 1'
_cell_length_a   10.08472989
_cell_length_b   10.08472766
_cell_length_c   10.08472838
_cell_angle_alpha   60.08853105
_cell_angle_beta   60.08853907
_cell_angle_gamma   60.08853331
_symmetry_Int_Tables_number   1
_chemical_formula_structural   LaPr15Cd4Ir3Au
_chemical_formula_sum   'La1 Pr15 Cd4 Ir3 Au1'
_cell_volume   726.68810311
_cell_formula_units_Z   1
loop_
 _symmetry_equiv_pos_site_id
 _symmetry_equiv_pos_as_xyz
  1  'x, y, z'
loop_
 _atom_site_type_symbol
 _atom_site_label
 _atom_site_symmetry_multiplicity
 _atom_site_fract_x
 _atom_site_fract_y
 _atom_site_fract_z
 _atom_site_occupancy
  La  La0  1  0.343997  0.343997  0.343997  1
  Pr  Pr1  1  0.356183  0.356183  0.944573  1
  Pr  Pr2  1  0.356183  0.944573  0.356183  1
  Pr  Pr3  1  0.944573  0.356183  0.356183  1
  Pr  Pr4  1  0.800042  0.191333  0.191333  1
  Pr  Pr5  1  0.189758  0.809897  0.809897  1
  Pr  Pr6  1  0.191333  0.800042  0.191333  1
  Pr  Pr7  1  0.809897  0.189758  0.809897  1
  Pr  Pr8  1  0.191333  0.191333  0.800042  1
  Pr  Pr9  1  0.809897  0.809897  0.189758  1
  Pr  Pr10  1  0.940281  0.563203  0.563203  1
  Pr  Pr11  1  0.562706  0.939739  0.939739  1
  Pr  Pr12  1  0.563203  0.940281  0.563203  1
  Pr  Pr13  1  0.939739  0.562706  0.939739  1
  Pr  Pr14  1  0.563203  0.563203  0.940281  1
  Pr  Pr15  1  0.939739  0.939739  0.562706  1
  Cd  Cd16  1  0.580634  0.580634  0.580634  1
  Cd  Cd17  1  0.579546  0.579546  0.260293  1
  Cd  Cd18  1  0.579546  0.260293  0.579546  1
  Cd  Cd19  1  0.260293  0.579546  0.579546  1
  Ir  Ir20  1  0.140891  0.140891  0.572452  1
  Ir  Ir21  1  0.140891  0.572452  0.140891  1
  Ir  Ir22  1  0.572452  0.140891  0.140891  1
  Au  Au23  1  0.143681  0.143681  0.143681  1
