# generated using pymatgen
data_Rb2NaTbCl6
_symmetry_space_group_name_H-M   'P 1'
_cell_length_a   7.60376262
_cell_length_b   7.60376247
_cell_length_c   7.65692364
_cell_angle_alpha   120.00825991
_cell_angle_beta   120.00825897
_cell_angle_gamma   60.27399775
_symmetry_Int_Tables_number   1
_chemical_formula_structural   Rb2NaTbCl6
_chemical_formula_sum   'Rb2 Na1 Tb1 Cl6'
_cell_volume   313.64126872
_cell_formula_units_Z   1
loop_
 _symmetry_equiv_pos_site_id
 _symmetry_equiv_pos_as_xyz
  1  'x, y, z'
loop_
 _atom_site_type_symbol
 _atom_site_label
 _atom_site_symmetry_multiplicity
 _atom_site_fract_x
 _atom_site_fract_y
 _atom_site_fract_z
 _atom_site_occupancy
  Rb  Rb0  1  0.248883  0.248883  0.237169  1
  Rb  Rb1  1  0.751117  0.751117  0.762830  1
  Na  Na2  1  0.000000  0.000000  0.500000  1
  Tb  Tb3  1  0.500000  0.500000  0.000000  1
  Cl  Cl4  1  0.700977  0.214943  0.199559  1
  Cl  Cl5  1  0.214943  0.700977  0.199559  1
  Cl  Cl6  1  0.741820  0.741820  0.320317  1
  Cl  Cl7  1  0.258179  0.258179  0.679684  1
  Cl  Cl8  1  0.785058  0.299024  0.800442  1
  Cl  Cl9  1  0.299024  0.785058  0.800442  1
