# generated using pymatgen
data_RbPr(LuSe2)2
_symmetry_space_group_name_H-M   'P 1'
_cell_length_a   4.12731800
_cell_length_b   4.12731816
_cell_length_c   29.71660100
_cell_angle_alpha   90.00000000
_cell_angle_beta   90.00000000
_cell_angle_gamma   119.99998269
_symmetry_Int_Tables_number   1
_chemical_formula_structural   RbPr(LuSe2)2
_chemical_formula_sum   'Rb2 Pr2 Lu4 Se8'
_cell_volume   438.39512942
_cell_formula_units_Z   2
loop_
 _symmetry_equiv_pos_site_id
 _symmetry_equiv_pos_as_xyz
  1  'x, y, z'
loop_
 _atom_site_type_symbol
 _atom_site_label
 _atom_site_symmetry_multiplicity
 _atom_site_fract_x
 _atom_site_fract_y
 _atom_site_fract_z
 _atom_site_occupancy
  Rb  Rb0  1  0.666667  0.333333  0.250000  1
  Rb  Rb1  1  0.333333  0.666667  0.750000  1
  Pr  Pr2  1  0.000000  0.000000  0.500000  1
  Pr  Pr3  1  0.000000  0.000000  0.000000  1
  Lu  Lu4  1  0.666667  0.333333  0.614654  1
  Lu  Lu5  1  0.666667  0.333333  0.885346  1
  Lu  Lu6  1  0.333333  0.666667  0.385346  1
  Lu  Lu7  1  0.333333  0.666667  0.114654  1
  Se  Se8  1  0.000000  0.000000  0.166511  1
  Se  Se9  1  0.666667  0.333333  0.436619  1
  Se  Se10  1  0.000000  0.000000  0.666511  1
  Se  Se11  1  0.333333  0.666667  0.936619  1
  Se  Se12  1  0.333333  0.666667  0.563381  1
  Se  Se13  1  0.000000  0.000000  0.333489  1
  Se  Se14  1  0.666667  0.333333  0.063381  1
  Se  Se15  1  0.000000  0.000000  0.833489  1
