# generated using pymatgen
data_Tm4Lu6Sn7Ru
_symmetry_space_group_name_H-M   'P 1'
_cell_length_a   7.72712400
_cell_length_b   8.13431108
_cell_length_c   14.99498900
_cell_angle_alpha   90.00000000
_cell_angle_beta   90.00000000
_cell_angle_gamma   89.31455962
_symmetry_Int_Tables_number   1
_chemical_formula_structural   Tm4Lu6Sn7Ru
_chemical_formula_sum   'Tm8 Lu12 Sn14 Ru2'
_cell_volume   942.44004546
_cell_formula_units_Z   2
loop_
 _symmetry_equiv_pos_site_id
 _symmetry_equiv_pos_as_xyz
  1  'x, y, z'
loop_
 _atom_site_type_symbol
 _atom_site_label
 _atom_site_symmetry_multiplicity
 _atom_site_fract_x
 _atom_site_fract_y
 _atom_site_fract_z
 _atom_site_occupancy
  Tm  Tm0  1  0.993200  0.164778  0.098119  1
  Tm  Tm1  1  0.006800  0.835222  0.901881  1
  Tm  Tm2  1  0.508363  0.682221  0.906562  1
  Tm  Tm3  1  0.006800  0.835222  0.598119  1
  Tm  Tm4  1  0.491637  0.317779  0.093438  1
  Tm  Tm5  1  0.993200  0.164778  0.401881  1
  Tm  Tm6  1  0.491637  0.317779  0.406562  1
  Tm  Tm7  1  0.508363  0.682221  0.593438  1
  Lu  Lu8  1  0.176622  0.504327  0.750000  1
  Lu  Lu9  1  0.823378  0.495673  0.250000  1
  Lu  Lu10  1  0.310083  0.999219  0.250000  1
  Lu  Lu11  1  0.689917  0.000781  0.750000  1
  Lu  Lu12  1  0.307352  0.161150  0.632218  1
  Lu  Lu13  1  0.692648  0.838850  0.367782  1
  Lu  Lu14  1  0.131061  0.690032  0.366170  1
  Lu  Lu15  1  0.692648  0.838850  0.132218  1
  Lu  Lu16  1  0.868939  0.309968  0.633830  1
  Lu  Lu17  1  0.307352  0.161150  0.867782  1
  Lu  Lu18  1  0.868939  0.309968  0.866170  1
  Lu  Lu19  1  0.131061  0.690032  0.133830  1
  Sn  Sn20  1  0.462663  0.617763  0.250000  1
  Sn  Sn21  1  0.537337  0.382237  0.750000  1
  Sn  Sn22  1  0.309642  0.851808  0.750000  1
  Sn  Sn23  1  0.690358  0.148192  0.250000  1
  Sn  Sn24  1  0.194444  0.355826  0.250000  1
  Sn  Sn25  1  0.805556  0.644174  0.750000  1
  Sn  Sn26  1  0.186224  0.472092  0.535987  1
  Sn  Sn27  1  0.813776  0.527908  0.464013  1
  Sn  Sn28  1  0.327533  0.960550  0.459306  1
  Sn  Sn29  1  0.813776  0.527908  0.035987  1
  Sn  Sn30  1  0.672467  0.039450  0.540694  1
  Sn  Sn31  1  0.186224  0.472092  0.964013  1
  Sn  Sn32  1  0.672467  0.039450  0.959306  1
  Sn  Sn33  1  0.327533  0.960550  0.040694  1
  Ru  Ru34  1  0.033553  0.090704  0.750000  1
  Ru  Ru35  1  0.966447  0.909296  0.250000  1
