# generated using pymatgen
data_Dy5ZrUO12
_symmetry_space_group_name_H-M   'P 1'
_cell_length_a   6.66084706
_cell_length_b   6.56552699
_cell_length_c   6.50808700
_cell_angle_alpha   99.38798786
_cell_angle_beta   98.85024263
_cell_angle_gamma   99.43014052
_symmetry_Int_Tables_number   1
_chemical_formula_structural   Dy5ZrUO12
_chemical_formula_sum   'Dy5 Zr1 U1 O12'
_cell_volume   272.19522478
_cell_formula_units_Z   1
loop_
 _symmetry_equiv_pos_site_id
 _symmetry_equiv_pos_as_xyz
  1  'x, y, z'
loop_
 _atom_site_type_symbol
 _atom_site_label
 _atom_site_symmetry_multiplicity
 _atom_site_fract_x
 _atom_site_fract_y
 _atom_site_fract_z
 _atom_site_occupancy
  Dy  Dy0  1  0.858654  0.686272  0.388000  1
  Dy  Dy1  1  0.391398  0.859923  0.689620  1
  Dy  Dy2  1  0.325361  0.606248  0.151333  1
  Dy  Dy3  1  0.138431  0.311361  0.609792  1
  Dy  Dy4  1  0.608023  0.138059  0.313481  1
  Zr  Zr5  1  0.667001  0.392476  0.850640  1
  U  U6  1  0.998617  0.999394  0.995591  1
  O  O7  1  0.432512  0.185496  0.592573  1
  O  O8  1  0.593360  0.426678  0.170816  1
  O  O9  1  0.174046  0.584955  0.432474  1
  O  O10  1  0.573068  0.820356  0.420282  1
  O  O11  1  0.432441  0.567321  0.821416  1
  O  O12  1  0.815825  0.414172  0.589278  1
  O  O13  1  0.098124  0.311830  0.954563  1
  O  O14  1  0.686972  0.080753  0.917129  1
  O  O15  1  0.056523  0.928525  0.682540  1
  O  O16  1  0.895809  0.677011  0.032034  1
  O  O17  1  0.311911  0.936021  0.075776  1
  O  O18  1  0.941924  0.073149  0.312662  1
