# generated using pymatgen
data_Ce2DyY(Al3Rh)6
_symmetry_space_group_name_H-M   'P 1'
_cell_length_a   7.59926566
_cell_length_b   7.60016537
_cell_length_c   9.48366800
_cell_angle_alpha   90.00000000
_cell_angle_beta   90.00000000
_cell_angle_gamma   119.46548527
_symmetry_Int_Tables_number   1
_chemical_formula_structural   Ce2DyY(Al3Rh)6
_chemical_formula_sum   'Ce2 Dy1 Y1 Al18 Rh6'
_cell_volume   476.88723653
_cell_formula_units_Z   1
loop_
 _symmetry_equiv_pos_site_id
 _symmetry_equiv_pos_as_xyz
  1  'x, y, z'
loop_
 _atom_site_type_symbol
 _atom_site_label
 _atom_site_symmetry_multiplicity
 _atom_site_fract_x
 _atom_site_fract_y
 _atom_site_fract_z
 _atom_site_occupancy
  Ce  Ce0  1  0.995206  0.670787  0.750000  1
  Ce  Ce1  1  0.004688  0.329330  0.250000  1
  Dy  Dy2  1  0.328142  0.004648  0.250000  1
  Y  Y3  1  0.671686  0.995195  0.750000  1
  Al  Al4  1  0.129065  0.128646  0.750000  1
  Al  Al5  1  0.871221  0.871596  0.250000  1
  Al  Al6  1  0.000989  0.333691  0.575949  1
  Al  Al7  1  0.999205  0.666239  0.423500  1
  Al  Al8  1  0.999205  0.666239  0.076500  1
  Al  Al9  1  0.336956  0.002012  0.925328  1
  Al  Al10  1  0.000989  0.333691  0.924051  1
  Al  Al11  1  0.663064  0.998214  0.075297  1
  Al  Al12  1  0.663064  0.998214  0.424703  1
  Al  Al13  1  0.336956  0.002012  0.574672  1
  Al  Al14  1  0.334433  0.333138  0.050578  1
  Al  Al15  1  0.665435  0.666736  0.950143  1
  Al  Al16  1  0.665435  0.666736  0.549857  1
  Al  Al17  1  0.334433  0.333138  0.449422  1
  Al  Al18  1  0.341144  0.549446  0.750000  1
  Al  Al19  1  0.658695  0.450176  0.250000  1
  Al  Al20  1  0.547611  0.339177  0.750000  1
  Al  Al21  1  0.452186  0.660817  0.250000  1
  Rh  Rh22  1  0.671826  0.328093  0.499736  1
  Rh  Rh23  1  0.328149  0.671831  0.499933  1
  Rh  Rh24  1  0.328149  0.671831  0.000067  1
  Rh  Rh25  1  0.671826  0.328093  0.000264  1
  Rh  Rh26  1  0.000122  0.000137  0.499808  1
  Rh  Rh27  1  0.000122  0.000137  0.000192  1
