# generated using pymatgen
data_DyY3InRh
_symmetry_space_group_name_H-M   'P 1'
_cell_length_a   9.69699443
_cell_length_b   9.69699492
_cell_length_c   9.69923520
_cell_angle_alpha   60.01142246
_cell_angle_beta   60.01142107
_cell_angle_gamma   60.11637321
_symmetry_Int_Tables_number   1
_chemical_formula_structural   DyY3InRh
_chemical_formula_sum   'Dy4 Y12 In4 Rh4'
_cell_volume   645.58346245
_cell_formula_units_Z   4
loop_
 _symmetry_equiv_pos_site_id
 _symmetry_equiv_pos_as_xyz
  1  'x, y, z'
loop_
 _atom_site_type_symbol
 _atom_site_label
 _atom_site_symmetry_multiplicity
 _atom_site_fract_x
 _atom_site_fract_y
 _atom_site_fract_z
 _atom_site_occupancy
  Dy  Dy0  1  0.148438  0.549645  0.148470  1
  Dy  Dy1  1  0.311364  0.690007  0.689519  1
  Dy  Dy2  1  0.690007  0.311364  0.689519  1
  Dy  Dy3  1  0.549645  0.148438  0.148470  1
  Y  Y4  1  0.690578  0.309779  0.309901  1
  Y  Y5  1  0.690555  0.690555  0.310418  1
  Y  Y6  1  0.309779  0.690578  0.309901  1
  Y  Y7  1  0.937281  0.937281  0.562134  1
  Y  Y8  1  0.147406  0.147406  0.552982  1
  Y  Y9  1  0.560460  0.938108  0.560248  1
  Y  Y10  1  0.151823  0.151823  0.151484  1
  Y  Y11  1  0.310064  0.310064  0.690344  1
  Y  Y12  1  0.938108  0.560460  0.560248  1
  Y  Y13  1  0.559837  0.559837  0.938431  1
  Y  Y14  1  0.562034  0.937697  0.937418  1
  Y  Y15  1  0.937697  0.562034  0.937418  1
  In  In16  1  0.917860  0.917860  0.249104  1
  In  In17  1  0.249413  0.917793  0.918209  1
  In  In18  1  0.917793  0.249413  0.918209  1
  In  In19  1  0.916374  0.916374  0.916887  1
  Rh  Rh20  1  0.357402  0.357402  0.354811  1
  Rh  Rh21  1  0.926481  0.359020  0.359912  1
  Rh  Rh22  1  0.360580  0.360580  0.926050  1
  Rh  Rh23  1  0.359020  0.926481  0.359912  1
