# generated using pymatgen
data_Er2Tm10GaCo4Pb
_symmetry_space_group_name_H-M   'P 1'
_cell_length_a   8.23508311
_cell_length_b   8.22829135
_cell_length_c   8.22983276
_cell_angle_alpha   111.97612384
_cell_angle_beta   109.29065076
_cell_angle_gamma   107.13940088
_symmetry_Int_Tables_number   1
_chemical_formula_structural   Er2Tm10GaCo4Pb
_chemical_formula_sum   'Er2 Tm10 Ga1 Co4 Pb1'
_cell_volume   428.74839788
_cell_formula_units_Z   1
loop_
 _symmetry_equiv_pos_site_id
 _symmetry_equiv_pos_as_xyz
  1  'x, y, z'
loop_
 _atom_site_type_symbol
 _atom_site_label
 _atom_site_symmetry_multiplicity
 _atom_site_fract_x
 _atom_site_fract_y
 _atom_site_fract_z
 _atom_site_occupancy
  Er  Er0  1  0.565726  0.267953  0.297246  1
  Er  Er1  1  0.179326  0.219481  0.399162  1
  Tm  Tm2  1  0.179517  0.780008  0.959679  1
  Tm  Tm3  1  0.675543  0.489669  0.814812  1
  Tm  Tm4  1  0.674989  0.860370  0.185584  1
  Tm  Tm5  1  0.970596  0.267816  0.703238  1
  Tm  Tm6  1  0.029682  0.732094  0.297088  1
  Tm  Tm7  1  0.324322  0.138844  0.813961  1
  Tm  Tm8  1  0.324377  0.510595  0.185205  1
  Tm  Tm9  1  0.820069  0.219741  0.039446  1
  Tm  Tm10  1  0.820224  0.780723  0.600564  1
  Tm  Tm11  1  0.435542  0.732430  0.703486  1
  Ga  Ga12  1  0.000738  0.501058  0.500510  1
  Co  Co13  1  0.884668  0.884632  0.999355  1
  Co  Co14  1  0.341769  0.500332  0.842356  1
  Co  Co15  1  0.658380  0.500353  0.158190  1
  Co  Co16  1  0.113536  0.114526  0.998329  1
  Pb  Pb17  1  0.500998  0.999375  0.501788  1
