# generated using pymatgen
data_Tb2Si4Tc7W
_symmetry_space_group_name_H-M   'P 1'
_cell_length_a   7.72418754
_cell_length_b   7.04280286
_cell_length_c   4.17976200
_cell_angle_alpha   90.00000000
_cell_angle_beta   90.00000000
_cell_angle_gamma   90.07791300
_symmetry_Int_Tables_number   1
_chemical_formula_structural   Tb2Si4Tc7W
_chemical_formula_sum   'Tb2 Si4 Tc7 W1'
_cell_volume   227.37855064
_cell_formula_units_Z   1
loop_
 _symmetry_equiv_pos_site_id
 _symmetry_equiv_pos_as_xyz
  1  'x, y, z'
loop_
 _atom_site_type_symbol
 _atom_site_label
 _atom_site_symmetry_multiplicity
 _atom_site_fract_x
 _atom_site_fract_y
 _atom_site_fract_z
 _atom_site_occupancy
  Tb  Tb0  1  0.002769  0.000271  0.000000  1
  Tb  Tb1  1  0.500929  0.499143  0.500000  1
  Si  Si2  1  0.305145  0.275812  0.000000  1
  Si  Si3  1  0.693142  0.727670  0.000000  1
  Si  Si4  1  0.811389  0.229157  0.500000  1
  Si  Si5  1  0.192622  0.771557  0.500000  1
  Tc  Tc6  1  0.390367  0.843924  0.000000  1
  Tc  Tc7  1  0.659042  0.921959  0.500000  1
  Tc  Tc8  1  0.108758  0.347675  0.500000  1
  Tc  Tc9  1  0.336809  0.080538  0.500000  1
  Tc  Tc10  1  0.892390  0.654657  0.500000  1
  Tc  Tc11  1  0.157103  0.581455  0.000000  1
  Tc  Tc12  1  0.841148  0.419198  0.000000  1
  W  W13  1  0.608388  0.146984  0.000000  1
