# generated using pymatgen
data_Ho6ErTm3In8
_symmetry_space_group_name_H-M   'P 1'
_cell_length_a   9.22300500
_cell_length_b   9.22300594
_cell_length_c   6.64869100
_cell_angle_alpha   90.00000000
_cell_angle_beta   90.00000000
_cell_angle_gamma   119.99999305
_symmetry_Int_Tables_number   1
_chemical_formula_structural   Ho6ErTm3In8
_chemical_formula_sum   'Ho6 Er1 Tm3 In8'
_cell_volume   489.79206374
_cell_formula_units_Z   1
loop_
 _symmetry_equiv_pos_site_id
 _symmetry_equiv_pos_as_xyz
  1  'x, y, z'
loop_
 _atom_site_type_symbol
 _atom_site_label
 _atom_site_symmetry_multiplicity
 _atom_site_fract_x
 _atom_site_fract_y
 _atom_site_fract_z
 _atom_site_occupancy
  Ho  Ho0  1  0.289038  0.000026  0.750018  1
  Ho  Ho1  1  0.710988  0.000026  0.249982  1
  Ho  Ho2  1  0.999974  0.289012  0.750018  1
  Ho  Ho3  1  0.999974  0.710962  0.249982  1
  Ho  Ho4  1  0.710988  0.710962  0.750018  1
  Ho  Ho5  1  0.289038  0.289012  0.249982  1
  Er  Er6  1  0.333333  0.666667  0.500000  1
  Tm  Tm7  1  0.666667  0.333333  0.500000  1
  Tm  Tm8  1  0.666667  0.333333  0.000000  1
  Tm  Tm9  1  0.333333  0.666667  0.000000  1
  In  In10  1  0.000000  0.000000  0.500000  1
  In  In11  1  0.000000  0.000000  0.000000  1
  In  In12  1  0.627607  0.000043  0.750022  1
  In  In13  1  0.372436  0.000043  0.249978  1
  In  In14  1  0.999957  0.627564  0.750022  1
  In  In15  1  0.999957  0.372393  0.249978  1
  In  In16  1  0.372436  0.372393  0.750022  1
  In  In17  1  0.627607  0.627564  0.249978  1
