# generated using pymatgen
data_Eu2Cd3InPd2
_symmetry_space_group_name_H-M   'P 1'
_cell_length_a   5.69386886
_cell_length_b   5.69386902
_cell_length_c   8.21751255
_cell_angle_alpha   90.05688322
_cell_angle_beta   89.94311546
_cell_angle_gamma   134.05311099
_symmetry_Int_Tables_number   1
_chemical_formula_structural   Eu2Cd3InPd2
_chemical_formula_sum   'Eu2 Cd3 In1 Pd2'
_cell_volume   191.46968574
_cell_formula_units_Z   1
loop_
 _symmetry_equiv_pos_site_id
 _symmetry_equiv_pos_as_xyz
  1  'x, y, z'
loop_
 _atom_site_type_symbol
 _atom_site_label
 _atom_site_symmetry_multiplicity
 _atom_site_fract_x
 _atom_site_fract_y
 _atom_site_fract_z
 _atom_site_occupancy
  Eu  Eu0  1  0.066195  0.933805  0.252498  1
  Eu  Eu1  1  0.934317  0.065683  0.749560  1
  Cd  Cd2  1  0.644920  0.355080  0.552346  1
  Cd  Cd3  1  0.354859  0.645141  0.449716  1
  Cd  Cd4  1  0.642205  0.357795  0.944215  1
  In  In5  1  0.353594  0.646406  0.053559  1
  Pd  Pd6  1  0.222401  0.777599  0.752185  1
  Pd  Pd7  1  0.781509  0.218491  0.245921  1
