# generated using pymatgen
data_Er19Th(Ir3Ru)3
_symmetry_space_group_name_H-M   'P 1'
_cell_length_a   10.78579453
_cell_length_b   10.76658507
_cell_length_c   6.39047142
_cell_angle_alpha   90.11842582
_cell_angle_beta   89.80750557
_cell_angle_gamma   89.94374063
_symmetry_Int_Tables_number   1
_chemical_formula_structural   Er19Th(Ir3Ru)3
_chemical_formula_sum   'Er19 Th1 Ir9 Ru3'
_cell_volume   742.09486270
_cell_formula_units_Z   1
loop_
 _symmetry_equiv_pos_site_id
 _symmetry_equiv_pos_as_xyz
  1  'x, y, z'
loop_
 _atom_site_type_symbol
 _atom_site_label
 _atom_site_symmetry_multiplicity
 _atom_site_fract_x
 _atom_site_fract_y
 _atom_site_fract_z
 _atom_site_occupancy
  Er  Er0  1  0.293531  0.911141  0.878224  1
  Er  Er1  1  0.706800  0.086070  0.880128  1
  Er  Er2  1  0.706710  0.912205  0.378649  1
  Er  Er3  1  0.586788  0.793260  0.879515  1
  Er  Er4  1  0.592667  0.208198  0.378233  1
  Er  Er5  1  0.415110  0.788887  0.377592  1
  Er  Er6  1  0.415527  0.208300  0.878473  1
  Er  Er7  1  0.207468  0.413483  0.623107  1
  Er  Er8  1  0.206319  0.586969  0.119287  1
  Er  Er9  1  0.792587  0.413702  0.118859  1
  Er  Er10  1  0.791931  0.587536  0.622979  1
  Er  Er11  1  0.912399  0.707732  0.120282  1
  Er  Er12  1  0.912523  0.292326  0.621204  1
  Er  Er13  1  0.086655  0.707601  0.624022  1
  Er  Er14  1  0.084936  0.293893  0.118255  1
  Er  Er15  1  0.996027  0.998654  0.500109  1
  Er  Er16  1  0.000130  0.999783  0.999676  1
  Er  Er17  1  0.499947  0.500730  0.000528  1
  Er  Er18  1  0.501296  0.499118  0.501390  1
  Th  Th19  1  0.295014  0.086947  0.379265  1
  Ir  Ir20  1  0.847482  0.153668  0.248396  1
  Ir  Ir21  1  0.846420  0.847302  0.750926  1
  Ir  Ir22  1  0.152926  0.152408  0.746304  1
  Ir  Ir23  1  0.153228  0.847909  0.251545  1
  Ir  Ir24  1  0.653412  0.347454  0.750360  1
  Ir  Ir25  1  0.652622  0.652458  0.249314  1
  Ir  Ir26  1  0.346835  0.347692  0.250848  1
  Ir  Ir27  1  0.347579  0.652155  0.749862  1
  Ir  Ir28  1  0.999665  0.500707  0.377354  1
  Ru  Ru29  1  0.496479  0.000923  0.127094  1
  Ru  Ru30  1  0.499267  0.000444  0.622301  1
  Ru  Ru31  1  0.999720  0.500346  0.875916  1
