# generated using pymatgen
data_Ac7Nd12TmPb16
_symmetry_space_group_name_H-M   'P 1'
_cell_length_a   8.62310844
_cell_length_b   16.56003610
_cell_length_c   8.69854100
_cell_angle_alpha   90.08878754
_cell_angle_beta   89.77339057
_cell_angle_gamma   90.14144421
_symmetry_Int_Tables_number   1
_chemical_formula_structural   Ac7Nd12TmPb16
_chemical_formula_sum   'Ac7 Nd12 Tm1 Pb16'
_cell_volume   1242.12787105
_cell_formula_units_Z   1
loop_
 _symmetry_equiv_pos_site_id
 _symmetry_equiv_pos_as_xyz
  1  'x, y, z'
loop_
 _atom_site_type_symbol
 _atom_site_label
 _atom_site_symmetry_multiplicity
 _atom_site_fract_x
 _atom_site_fract_y
 _atom_site_fract_z
 _atom_site_occupancy
  Ac  Ac0  1  0.972401  0.900656  0.820806  1
  Ac  Ac1  1  0.528368  0.098744  0.320879  1
  Ac  Ac2  1  0.029255  0.401739  0.178203  1
  Ac  Ac3  1  0.528777  0.401707  0.322898  1
  Ac  Ac4  1  0.027072  0.098825  0.177793  1
  Ac  Ac5  1  0.472930  0.901338  0.677881  1
  Ac  Ac6  1  0.971960  0.598019  0.819746  1
  Nd  Nd7  1  0.626184  0.618953  0.156913  1
  Nd  Nd8  1  0.128006  0.879658  0.343483  1
  Nd  Nd9  1  0.372866  0.120628  0.843608  1
  Nd  Nd10  1  0.872811  0.380758  0.656352  1
  Nd  Nd11  1  0.375720  0.380694  0.843236  1
  Nd  Nd12  1  0.871664  0.120446  0.656407  1
  Nd  Nd13  1  0.627853  0.879117  0.156637  1
  Nd  Nd14  1  0.127602  0.618711  0.343389  1
  Nd  Nd15  1  0.468014  0.601681  0.676277  1
  Nd  Nd16  1  0.790921  0.748760  0.496941  1
  Nd  Nd17  1  0.290775  0.748927  0.003044  1
  Nd  Nd18  1  0.208705  0.250847  0.503572  1
  Tm  Tm19  1  0.709896  0.250174  0.995154  1
  Pb  Pb20  1  0.709836  0.452562  0.962075  1
  Pb  Pb21  1  0.208654  0.045515  0.541335  1
  Pb  Pb22  1  0.292120  0.954175  0.039963  1
  Pb  Pb23  1  0.783124  0.547017  0.466678  1
  Pb  Pb24  1  0.293252  0.546418  0.033866  1
  Pb  Pb25  1  0.791567  0.954698  0.458719  1
  Pb  Pb26  1  0.709018  0.047150  0.960572  1
  Pb  Pb27  1  0.214289  0.458127  0.544634  1
  Pb  Pb28  1  0.429056  0.748359  0.369722  1
  Pb  Pb29  1  0.929131  0.749172  0.132400  1
  Pb  Pb30  1  0.571713  0.250016  0.636622  1
  Pb  Pb31  1  0.066945  0.250743  0.868318  1
  Pb  Pb32  1  0.657041  0.746427  0.854605  1
  Pb  Pb33  1  0.166971  0.748382  0.642087  1
  Pb  Pb34  1  0.338902  0.250279  0.141519  1
  Pb  Pb35  1  0.836598  0.250577  0.353670  1
