# generated using pymatgen
data_Tb6Ho2Ti11Si16W
_symmetry_space_group_name_H-M   'P 1'
_cell_length_a   7.04309007
_cell_length_b   7.04094292
_cell_length_c   12.94957697
_cell_angle_alpha   90.02279740
_cell_angle_beta   89.98041823
_cell_angle_gamma   90.09641439
_symmetry_Int_Tables_number   1
_chemical_formula_structural   Tb6Ho2Ti11Si16W
_chemical_formula_sum   'Tb6 Ho2 Ti11 Si16 W1'
_cell_volume   642.16846106
_cell_formula_units_Z   1
loop_
 _symmetry_equiv_pos_site_id
 _symmetry_equiv_pos_as_xyz
  1  'x, y, z'
loop_
 _atom_site_type_symbol
 _atom_site_label
 _atom_site_symmetry_multiplicity
 _atom_site_fract_x
 _atom_site_fract_y
 _atom_site_fract_z
 _atom_site_occupancy
  Tb  Tb0  1  0.340117  0.003512  0.467145  1
  Tb  Tb1  1  0.496828  0.839858  0.717440  1
  Tb  Tb2  1  0.501362  0.159645  0.215499  1
  Tb  Tb3  1  0.840152  0.496870  0.282524  1
  Tb  Tb4  1  0.159420  0.501348  0.784421  1
  Tb  Tb5  1  0.658579  0.998001  0.967208  1
  Ho  Ho6  1  0.002530  0.340760  0.533086  1
  Ho  Ho7  1  0.999014  0.657987  0.032819  1
  Ti  Ti8  1  0.174008  0.827090  0.249456  1
  Ti  Ti9  1  0.827345  0.174257  0.750507  1
  Ti  Ti10  1  0.673300  0.672864  0.500006  1
  Ti  Ti11  1  0.154142  0.010055  0.877104  1
  Ti  Ti12  1  0.491052  0.651661  0.124129  1
  Ti  Ti13  1  0.507711  0.348348  0.626364  1
  Ti  Ti14  1  0.651860  0.491478  0.875846  1
  Ti  Ti15  1  0.348170  0.507338  0.373582  1
  Ti  Ti16  1  0.848245  0.991694  0.375923  1
  Ti  Ti17  1  0.009812  0.154139  0.122974  1
  Ti  Ti18  1  0.991822  0.848202  0.624161  1
  Si  Si19  1  0.201267  0.130468  0.684649  1
  Si  Si20  1  0.369560  0.699949  0.935143  1
  Si  Si21  1  0.630821  0.297776  0.435152  1
  Si  Si22  1  0.700806  0.371082  0.065090  1
  Si  Si23  1  0.296843  0.629099  0.565076  1
  Si  Si24  1  0.798591  0.869762  0.184283  1
  Si  Si25  1  0.129708  0.202154  0.315143  1
  Si  Si26  1  0.870605  0.797661  0.815441  1
  Si  Si27  1  0.289351  0.953577  0.064591  1
  Si  Si28  1  0.546789  0.790730  0.314682  1
  Si  Si29  1  0.452264  0.209410  0.815734  1
  Si  Si30  1  0.791269  0.546131  0.684992  1
  Si  Si31  1  0.208787  0.452984  0.183920  1
  Si  Si32  1  0.710293  0.048095  0.565037  1
  Si  Si33  1  0.954370  0.290877  0.935625  1
  Si  Si34  1  0.047207  0.708679  0.435240  1
  W  W35  1  0.326000  0.326459  0.000009  1
