# generated using pymatgen
data_TbDy15Cd4CoRu3
_symmetry_space_group_name_H-M   'P 1'
_cell_length_a   9.63553682
_cell_length_b   9.62789184
_cell_length_c   9.56368859
_cell_angle_alpha   59.77768322
_cell_angle_beta   59.79874039
_cell_angle_gamma   60.02625223
_symmetry_Int_Tables_number   1
_chemical_formula_structural   TbDy15Cd4CoRu3
_chemical_formula_sum   'Tb1 Dy15 Cd4 Co1 Ru3'
_cell_volume   625.46837324
_cell_formula_units_Z   1
loop_
 _symmetry_equiv_pos_site_id
 _symmetry_equiv_pos_as_xyz
  1  'x, y, z'
loop_
 _atom_site_type_symbol
 _atom_site_label
 _atom_site_symmetry_multiplicity
 _atom_site_fract_x
 _atom_site_fract_y
 _atom_site_fract_z
 _atom_site_occupancy
  Tb  Tb0  1  0.065181  0.438718  0.057382  1
  Dy  Dy1  1  0.439235  0.438847  0.057405  1
  Dy  Dy2  1  0.593897  0.593967  0.601129  1
  Dy  Dy3  1  0.187674  0.814896  0.809860  1
  Dy  Dy4  1  0.061145  0.060658  0.437857  1
  Dy  Dy5  1  0.439235  0.064512  0.057405  1
  Dy  Dy6  1  0.814376  0.187832  0.809960  1
  Dy  Dy7  1  0.440782  0.060971  0.437275  1
  Dy  Dy8  1  0.593897  0.211006  0.601129  1
  Dy  Dy9  1  0.810162  0.810593  0.189521  1
  Dy  Dy10  1  0.210666  0.594287  0.600759  1
  Dy  Dy11  1  0.810162  0.189724  0.189521  1
  Dy  Dy12  1  0.061145  0.440340  0.437857  1
  Dy  Dy13  1  0.189497  0.810673  0.189156  1
  Dy  Dy14  1  0.596088  0.596333  0.211246  1
  Dy  Dy15  1  0.187674  0.187570  0.809860  1
  Cd  Cd16  1  0.830939  0.830670  0.507721  1
  Cd  Cd17  1  0.830968  0.830886  0.829604  1
  Cd  Cd18  1  0.508832  0.830756  0.829653  1
  Cd  Cd19  1  0.830968  0.508541  0.829604  1
  Co  Co20  1  0.389680  0.390045  0.830232  1
  Ru  Ru21  1  0.388121  0.388483  0.392031  1
  Ru  Ru22  1  0.831552  0.388322  0.391803  1
  Ru  Ru23  1  0.388121  0.831365  0.392031  1
