# generated using pymatgen
data_Y2SnGe2(PRh3)4
_symmetry_space_group_name_H-M   'P 1'
_cell_length_a   9.85926495
_cell_length_b   9.92055207
_cell_length_c   3.85759820
_cell_angle_alpha   90.05924612
_cell_angle_beta   90.10243211
_cell_angle_gamma   119.71033741
_symmetry_Int_Tables_number   1
_chemical_formula_structural   Y2SnGe2(PRh3)4
_chemical_formula_sum   'Y2 Sn1 Ge2 P4 Rh12'
_cell_volume   327.70758469
_cell_formula_units_Z   1
loop_
 _symmetry_equiv_pos_site_id
 _symmetry_equiv_pos_as_xyz
  1  'x, y, z'
loop_
 _atom_site_type_symbol
 _atom_site_label
 _atom_site_symmetry_multiplicity
 _atom_site_fract_x
 _atom_site_fract_y
 _atom_site_fract_z
 _atom_site_occupancy
  Y  Y0  1  0.333490  0.668401  0.740200  1
  Y  Y1  1  0.671172  0.337271  0.239198  1
  Sn  Sn2  1  0.003137  0.006444  0.718487  1
  Ge  Ge3  1  0.405017  0.287160  0.738054  1
  Ge  Ge4  1  0.710205  0.115347  0.739018  1
  P  P5  1  0.883285  0.595230  0.739466  1
  P  P6  1  0.597226  0.708678  0.239742  1
  P  P7  1  0.288658  0.887342  0.238804  1
  P  P8  1  0.117184  0.408940  0.240148  1
  Rh  Rh9  1  0.436094  0.053632  0.738059  1
  Rh  Rh10  1  0.934348  0.390022  0.738971  1
  Rh  Rh11  1  0.626959  0.554911  0.739388  1
  Rh  Rh12  1  0.543968  0.927220  0.239083  1
  Rh  Rh13  1  0.066953  0.613159  0.239119  1
  Rh  Rh14  1  0.391130  0.456912  0.239374  1
  Rh  Rh15  1  0.161642  0.304776  0.739917  1
  Rh  Rh16  1  0.704811  0.861287  0.739893  1
  Rh  Rh17  1  0.123888  0.828025  0.739389  1
  Rh  Rh18  1  0.852344  0.730329  0.239412  1
  Rh  Rh19  1  0.254906  0.108483  0.236223  1
  Rh  Rh20  1  0.893585  0.156430  0.238055  1
