# generated using pymatgen
data_Hf4GaSi5Ir7
_symmetry_space_group_name_H-M   'P 1'
_cell_length_a   7.01600388
_cell_length_b   7.01600420
_cell_length_c   7.01600280
_cell_angle_alpha   108.57035649
_cell_angle_beta   109.92351856
_cell_angle_gamma   109.92351736
_symmetry_Int_Tables_number   1
_chemical_formula_structural   Hf4GaSi5Ir7
_chemical_formula_sum   'Hf4 Ga1 Si5 Ir7'
_cell_volume   265.80747516
_cell_formula_units_Z   1
loop_
 _symmetry_equiv_pos_site_id
 _symmetry_equiv_pos_as_xyz
  1  'x, y, z'
loop_
 _atom_site_type_symbol
 _atom_site_label
 _atom_site_symmetry_multiplicity
 _atom_site_fract_x
 _atom_site_fract_y
 _atom_site_fract_z
 _atom_site_occupancy
  Hf  Hf0  1  0.523282  0.523143  0.523143  1
  Hf  Hf1  1  0.000000  0.999861  0.523143  1
  Hf  Hf2  1  0.000000  0.523143  0.999861  1
  Hf  Hf3  1  0.476718  0.999861  0.999861  1
  Ga  Ga4  1  0.000000  0.296013  0.296013  1
  Si  Si5  1  0.317734  0.006084  0.323818  1
  Si  Si6  1  0.317734  0.323818  0.006084  1
  Si  Si7  1  0.000000  0.663495  0.663495  1
  Si  Si8  1  0.682266  0.006084  0.688350  1
  Si  Si9  1  0.682266  0.688350  0.006084  1
  Ir  Ir10  1  0.500000  0.751211  0.251211  1
  Ir  Ir11  1  0.253160  0.500151  0.753311  1
  Ir  Ir12  1  0.746840  0.246991  0.500151  1
  Ir  Ir13  1  0.746840  0.500151  0.246991  1
  Ir  Ir14  1  0.500000  0.251211  0.751211  1
  Ir  Ir15  1  0.253160  0.753311  0.500151  1
  Ir  Ir16  1  0.000000  0.967123  0.967123  1
