# generated using pymatgen
data_Sc3ZnGa4Au
_symmetry_space_group_name_H-M   'P 1'
_cell_length_a   6.71857415
_cell_length_b   6.70433222
_cell_length_c   8.34869604
_cell_angle_alpha   90.00072779
_cell_angle_beta   90.00029574
_cell_angle_gamma   119.92918997
_symmetry_Int_Tables_number   1
_chemical_formula_structural   Sc3ZnGa4Au
_chemical_formula_sum   'Sc6 Zn2 Ga8 Au2'
_cell_volume   325.90525444
_cell_formula_units_Z   2
loop_
 _symmetry_equiv_pos_site_id
 _symmetry_equiv_pos_as_xyz
  1  'x, y, z'
loop_
 _atom_site_type_symbol
 _atom_site_label
 _atom_site_symmetry_multiplicity
 _atom_site_fract_x
 _atom_site_fract_y
 _atom_site_fract_z
 _atom_site_occupancy
  Sc  Sc0  1  0.570392  0.998800  0.752782  1
  Sc  Sc1  1  0.000005  0.571947  0.751970  1
  Sc  Sc2  1  0.429568  0.428406  0.752753  1
  Sc  Sc3  1  0.999996  0.571938  0.248035  1
  Sc  Sc4  1  0.570465  0.998830  0.247238  1
  Sc  Sc5  1  0.429594  0.428402  0.247211  1
  Zn  Zn6  1  0.753438  0.750278  0.999869  1
  Zn  Zn7  1  0.246544  0.996830  0.000173  1
  Ga  Ga8  1  0.999978  0.243739  0.999985  1
  Ga  Ga9  1  0.743547  0.746464  0.500007  1
  Ga  Ga10  1  0.256471  0.002937  0.500022  1
  Ga  Ga11  1  0.000003  0.256970  0.499995  1
  Ga  Ga12  1  0.665272  0.332209  0.000003  1
  Ga  Ga13  1  0.667193  0.334827  0.499967  1
  Ga  Ga14  1  0.332796  0.667619  0.499953  1
  Ga  Ga15  1  0.334696  0.666931  0.000009  1
  Au  Au16  1  0.000097  0.001476  0.744814  1
  Au  Au17  1  0.999947  0.001396  0.255214  1
