# generated using pymatgen
data_HoTh2(GeIr)3
_symmetry_space_group_name_H-M   'P 1'
_cell_length_a   7.26817504
_cell_length_b   7.30654286
_cell_length_c   3.96434000
_cell_angle_alpha   90.00000000
_cell_angle_beta   90.00000000
_cell_angle_gamma   120.17478257
_symmetry_Int_Tables_number   1
_chemical_formula_structural   HoTh2(GeIr)3
_chemical_formula_sum   'Ho1 Th2 Ge3 Ir3'
_cell_volume   181.99994318
_cell_formula_units_Z   1
loop_
 _symmetry_equiv_pos_site_id
 _symmetry_equiv_pos_as_xyz
  1  'x, y, z'
loop_
 _atom_site_type_symbol
 _atom_site_label
 _atom_site_symmetry_multiplicity
 _atom_site_fract_x
 _atom_site_fract_y
 _atom_site_fract_z
 _atom_site_occupancy
  Ho  Ho0  1  0.000000  0.595667  0.500000  1
  Th  Th1  1  0.412266  0.412658  0.500000  1
  Th  Th2  1  0.587734  0.000392  0.500000  1
  Ge  Ge3  1  0.760539  0.749729  0.000000  1
  Ge  Ge4  1  0.239461  0.989190  0.000000  1
  Ge  Ge5  1  0.000000  0.258362  0.000000  1
  Ir  Ir6  1  0.659887  0.326255  0.000000  1
  Ir  Ir7  1  0.340113  0.666369  0.000000  1
  Ir  Ir8  1  0.000000  0.001378  0.500000  1
