# generated using pymatgen
data_Lu4Sc2GaNiRu
_symmetry_space_group_name_H-M   'P 1'
_cell_length_a   8.03028639
_cell_length_b   8.03028572
_cell_length_c   8.03028502
_cell_angle_alpha   112.48084458
_cell_angle_beta   110.95364726
_cell_angle_gamma   105.07082101
_symmetry_Int_Tables_number   1
_chemical_formula_structural   Lu4Sc2GaNiRu
_chemical_formula_sum   'Lu8 Sc4 Ga2 Ni2 Ru2'
_cell_volume   396.80872674
_cell_formula_units_Z   2
loop_
 _symmetry_equiv_pos_site_id
 _symmetry_equiv_pos_as_xyz
  1  'x, y, z'
loop_
 _atom_site_type_symbol
 _atom_site_label
 _atom_site_symmetry_multiplicity
 _atom_site_fract_x
 _atom_site_fract_y
 _atom_site_fract_z
 _atom_site_occupancy
  Lu  Lu0  1  0.184485  0.284344  0.468829  1
  Lu  Lu1  1  0.815515  0.715656  0.531171  1
  Lu  Lu2  1  0.184485  0.715656  0.900141  1
  Lu  Lu3  1  0.815515  0.284344  0.099859  1
  Lu  Lu4  1  0.325925  0.632860  0.306936  1
  Lu  Lu5  1  0.674075  0.367140  0.693064  1
  Lu  Lu6  1  0.325925  0.018990  0.693064  1
  Lu  Lu7  1  0.674075  0.981010  0.306936  1
  Sc  Sc8  1  0.429909  0.238014  0.191895  1
  Sc  Sc9  1  0.570091  0.761986  0.808105  1
  Sc  Sc10  1  0.046119  0.238014  0.808105  1
  Sc  Sc11  1  0.953881  0.761986  0.191895  1
  Ga  Ga12  1  0.500000  0.500000  0.000000  1
  Ga  Ga13  1  0.000000  0.000000  0.000000  1
  Ni  Ni14  1  0.121789  0.621789  0.500000  1
  Ni  Ni15  1  0.878211  0.378211  0.500000  1
  Ru  Ru16  1  0.326807  0.000000  0.326807  1
  Ru  Ru17  1  0.673193  0.000000  0.673193  1
