# generated using pymatgen
data_Er6Mn2Fe7(Co3P4)3
_symmetry_space_group_name_H-M   'P 1'
_cell_length_a   3.69180100
_cell_length_b   10.56708800
_cell_length_c   12.08437900
_cell_angle_alpha   90.00000000
_cell_angle_beta   90.00000000
_cell_angle_gamma   90.00000000
_symmetry_Int_Tables_number   1
_chemical_formula_structural   Er6Mn2Fe7(Co3P4)3
_chemical_formula_sum   'Er6 Mn2 Fe7 Co9 P12'
_cell_volume   471.43079116
_cell_formula_units_Z   1
loop_
 _symmetry_equiv_pos_site_id
 _symmetry_equiv_pos_as_xyz
  1  'x, y, z'
loop_
 _atom_site_type_symbol
 _atom_site_label
 _atom_site_symmetry_multiplicity
 _atom_site_fract_x
 _atom_site_fract_y
 _atom_site_fract_z
 _atom_site_occupancy
  Er  Er0  1  0.750000  0.250000  0.475773  1
  Er  Er1  1  0.250000  0.750000  0.525154  1
  Er  Er2  1  0.250000  0.929640  0.794950  1
  Er  Er3  1  0.250000  0.570360  0.794950  1
  Er  Er4  1  0.750000  0.071338  0.204134  1
  Er  Er5  1  0.750000  0.428662  0.204134  1
  Mn  Mn6  1  0.250000  0.250000  0.846291  1
  Mn  Mn7  1  0.750000  0.750000  0.156110  1
  Fe  Fe8  1  0.750000  0.250000  0.010009  1
  Fe  Fe9  1  0.250000  0.418216  0.003709  1
  Fe  Fe10  1  0.250000  0.081784  0.003709  1
  Fe  Fe11  1  0.750000  0.583865  0.996695  1
  Fe  Fe12  1  0.750000  0.916135  0.996695  1
  Fe  Fe13  1  0.250000  0.453190  0.569417  1
  Fe  Fe14  1  0.250000  0.046810  0.569417  1
  Co  Co15  1  0.250000  0.250000  0.298274  1
  Co  Co16  1  0.750000  0.750000  0.701994  1
  Co  Co17  1  0.250000  0.750000  0.988195  1
  Co  Co18  1  0.750000  0.547433  0.428957  1
  Co  Co19  1  0.750000  0.952567  0.428957  1
  Co  Co20  1  0.250000  0.870068  0.290950  1
  Co  Co21  1  0.250000  0.629932  0.290950  1
  Co  Co22  1  0.750000  0.129882  0.709725  1
  Co  Co23  1  0.750000  0.370118  0.709725  1
  P  P24  1  0.250000  0.250000  0.114038  1
  P  P25  1  0.750000  0.750000  0.885235  1
  P  P26  1  0.250000  0.250000  0.652348  1
  P  P27  1  0.750000  0.750000  0.347390  1
  P  P28  1  0.250000  0.439633  0.384512  1
  P  P29  1  0.250000  0.060367  0.384512  1
  P  P30  1  0.750000  0.558434  0.616116  1
  P  P31  1  0.750000  0.941566  0.616116  1
  P  P32  1  0.250000  0.905805  0.106000  1
  P  P33  1  0.250000  0.594195  0.106000  1
  P  P34  1  0.750000  0.093080  0.894429  1
  P  P35  1  0.750000  0.406920  0.894429  1
