# generated using pymatgen
data_Ho6Fe13P12Rh5
_symmetry_space_group_name_H-M   'P 1'
_cell_length_a   3.76520900
_cell_length_b   10.75092255
_cell_length_c   12.25664511
_cell_angle_alpha   90.28007588
_cell_angle_beta   90.00000000
_cell_angle_gamma   90.00000000
_symmetry_Int_Tables_number   1
_chemical_formula_structural   Ho6Fe13P12Rh5
_chemical_formula_sum   'Ho6 Fe13 P12 Rh5'
_cell_volume   496.13657471
_cell_formula_units_Z   1
loop_
 _symmetry_equiv_pos_site_id
 _symmetry_equiv_pos_as_xyz
  1  'x, y, z'
loop_
 _atom_site_type_symbol
 _atom_site_label
 _atom_site_symmetry_multiplicity
 _atom_site_fract_x
 _atom_site_fract_y
 _atom_site_fract_z
 _atom_site_occupancy
  Ho  Ho0  1  0.000000  0.498780  0.523478  1
  Ho  Ho1  1  0.500000  0.999472  0.476075  1
  Ho  Ho2  1  0.500000  0.814612  0.207772  1
  Ho  Ho3  1  0.500000  0.187204  0.204925  1
  Ho  Ho4  1  0.000000  0.681164  0.795113  1
  Ho  Ho5  1  0.000000  0.315753  0.794820  1
  Fe  Fe6  1  0.000000  0.497971  0.990148  1
  Fe  Fe7  1  0.500000  0.003833  0.009335  1
  Fe  Fe8  1  0.500000  0.300674  0.430463  1
  Fe  Fe9  1  0.500000  0.698602  0.431443  1
  Fe  Fe10  1  0.000000  0.199034  0.568474  1
  Fe  Fe11  1  0.000000  0.800689  0.569964  1
  Fe  Fe12  1  0.500000  0.883684  0.709363  1
  Fe  Fe13  1  0.500000  0.117221  0.709097  1
  Fe  Fe14  1  0.000000  0.615225  0.291508  1
  Fe  Fe15  1  0.000000  0.382767  0.289429  1
  Fe  Fe16  1  0.500000  0.331424  0.993902  1
  Fe  Fe17  1  0.500000  0.665863  0.993192  1
  Fe  Fe18  1  0.000000  0.171000  0.004192  1
  P  P19  1  0.500000  0.295821  0.613299  1
  P  P20  1  0.500000  0.703512  0.614001  1
  P  P21  1  0.000000  0.203956  0.385830  1
  P  P22  1  0.000000  0.795868  0.387102  1
  P  P23  1  0.500000  0.498995  0.890744  1
  P  P24  1  0.000000  0.010799  0.111544  1
  P  P25  1  0.500000  0.845334  0.891032  1
  P  P26  1  0.500000  0.158141  0.895467  1
  P  P27  1  0.000000  0.648209  0.108052  1
  P  P28  1  0.000000  0.342489  0.102988  1
  P  P29  1  0.500000  0.498935  0.347646  1
  P  P30  1  0.000000  0.000191  0.651904  1
  Rh  Rh31  1  0.000000  0.830846  0.010351  1
  Rh  Rh32  1  0.500000  0.499434  0.156421  1
  Rh  Rh33  1  0.000000  0.003182  0.841462  1
  Rh  Rh34  1  0.500000  0.499539  0.697608  1
  Rh  Rh35  1  0.000000  0.999776  0.301859  1
