# generated using pymatgen
data_TbPr8ErIr4
_symmetry_space_group_name_H-M   'P 1'
_cell_length_a   6.70036517
_cell_length_b   7.29580260
_cell_length_c   8.95955717
_cell_angle_alpha   96.32427689
_cell_angle_beta   111.95775155
_cell_angle_gamma   89.99999468
_symmetry_Int_Tables_number   1
_chemical_formula_structural   TbPr8ErIr4
_chemical_formula_sum   'Tb1 Pr8 Er1 Ir4'
_cell_volume   403.33711275
_cell_formula_units_Z   1
loop_
 _symmetry_equiv_pos_site_id
 _symmetry_equiv_pos_as_xyz
  1  'x, y, z'
loop_
 _atom_site_type_symbol
 _atom_site_label
 _atom_site_symmetry_multiplicity
 _atom_site_fract_x
 _atom_site_fract_y
 _atom_site_fract_z
 _atom_site_occupancy
  Tb  Tb0  1  0.562868  0.250000  0.000000  1
  Pr  Pr1  1  0.976149  0.922173  0.180997  1
  Pr  Pr2  1  0.795151  0.577827  0.819003  1
  Pr  Pr3  1  0.024137  0.076746  0.818438  1
  Pr  Pr4  1  0.205700  0.423254  0.181562  1
  Pr  Pr5  1  0.646548  0.813031  0.430693  1
  Pr  Pr6  1  0.215855  0.686969  0.569307  1
  Pr  Pr7  1  0.352278  0.186711  0.568312  1
  Pr  Pr8  1  0.783966  0.313289  0.431688  1
  Er  Er9  1  0.438267  0.750000  0.000000  1
  Ir  Ir10  1  0.808752  0.571441  0.210563  1
  Ir  Ir11  1  0.598188  0.928559  0.789437  1
  Ir  Ir12  1  0.190896  0.430931  0.789650  1
  Ir  Ir13  1  0.401246  0.069069  0.210350  1
