# generated using pymatgen
data_Hf15Sc3Re8PIr
_symmetry_space_group_name_H-M   'P 1'
_cell_length_a   8.65195400
_cell_length_b   8.65195404
_cell_length_c   8.52019800
_cell_angle_alpha   90.00000000
_cell_angle_beta   90.00000000
_cell_angle_gamma   119.99999986
_symmetry_Int_Tables_number   1
_chemical_formula_structural   Hf15Sc3Re8PIr
_chemical_formula_sum   'Hf15 Sc3 Re8 P1 Ir1'
_cell_volume   552.34283555
_cell_formula_units_Z   1
loop_
 _symmetry_equiv_pos_site_id
 _symmetry_equiv_pos_as_xyz
  1  'x, y, z'
loop_
 _atom_site_type_symbol
 _atom_site_label
 _atom_site_symmetry_multiplicity
 _atom_site_fract_x
 _atom_site_fract_y
 _atom_site_fract_z
 _atom_site_occupancy
  Hf  Hf0  1  0.195555  0.804445  0.446846  1
  Hf  Hf1  1  0.195555  0.391108  0.446846  1
  Hf  Hf2  1  0.608892  0.804445  0.446846  1
  Hf  Hf3  1  0.805278  0.194722  0.548335  1
  Hf  Hf4  1  0.805278  0.610556  0.548335  1
  Hf  Hf5  1  0.389444  0.194722  0.548335  1
  Hf  Hf6  1  0.805278  0.194722  0.951665  1
  Hf  Hf7  1  0.805278  0.610556  0.951665  1
  Hf  Hf8  1  0.389444  0.194722  0.951665  1
  Hf  Hf9  1  0.195555  0.804445  0.053154  1
  Hf  Hf10  1  0.195555  0.391108  0.053154  1
  Hf  Hf11  1  0.608892  0.804445  0.053154  1
  Hf  Hf12  1  0.542163  0.457837  0.250000  1
  Hf  Hf13  1  0.542163  0.084326  0.250000  1
  Hf  Hf14  1  0.915674  0.457837  0.250000  1
  Sc  Sc15  1  0.461992  0.538008  0.750000  1
  Sc  Sc16  1  0.461992  0.923986  0.750000  1
  Sc  Sc17  1  0.076014  0.538008  0.750000  1
  Re  Re18  1  0.889697  0.110303  0.250000  1
  Re  Re19  1  0.889697  0.779393  0.250000  1
  Re  Re20  1  0.220607  0.110303  0.250000  1
  Re  Re21  1  0.109677  0.890323  0.750000  1
  Re  Re22  1  0.109677  0.219355  0.750000  1
  Re  Re23  1  0.780645  0.890323  0.750000  1
  Re  Re24  1  0.000000  0.000000  0.501530  1
  Re  Re25  1  0.000000  0.000000  0.998470  1
  P  P26  1  0.666667  0.333333  0.750000  1
  Ir  Ir27  1  0.333333  0.666667  0.250000  1
