# generated using pymatgen
data_Tb7Ho3(Bi2Ir)2
_symmetry_space_group_name_H-M   'P 1'
_cell_length_a   8.01191589
_cell_length_b   9.02943139
_cell_length_c   12.54221012
_cell_angle_alpha   90.03973681
_cell_angle_beta   89.91613830
_cell_angle_gamma   90.04971410
_symmetry_Int_Tables_number   1
_chemical_formula_structural   Tb7Ho3(Bi2Ir)2
_chemical_formula_sum   'Tb14 Ho6 Bi8 Ir4'
_cell_volume   907.34013864
_cell_formula_units_Z   2
loop_
 _symmetry_equiv_pos_site_id
 _symmetry_equiv_pos_as_xyz
  1  'x, y, z'
loop_
 _atom_site_type_symbol
 _atom_site_label
 _atom_site_symmetry_multiplicity
 _atom_site_fract_x
 _atom_site_fract_y
 _atom_site_fract_z
 _atom_site_occupancy
  Tb  Tb0  1  0.839889  0.749978  0.792413  1
  Tb  Tb1  1  0.160111  0.250022  0.207587  1
  Tb  Tb2  1  0.339402  0.250374  0.707885  1
  Tb  Tb3  1  0.660598  0.749626  0.292115  1
  Tb  Tb4  1  0.375011  0.749247  0.692802  1
  Tb  Tb5  1  0.624989  0.250753  0.307198  1
  Tb  Tb6  1  0.875031  0.249874  0.807870  1
  Tb  Tb7  1  0.124969  0.750126  0.192130  1
  Tb  Tb8  1  0.946299  0.749103  0.501166  1
  Tb  Tb9  1  0.053701  0.250897  0.498834  1
  Tb  Tb10  1  0.445648  0.250096  0.998819  1
  Tb  Tb11  1  0.554352  0.749904  0.001181  1
  Tb  Tb12  1  0.676325  0.041902  0.566633  1
  Tb  Tb13  1  0.323675  0.958098  0.433367  1
  Ho  Ho14  1  0.174048  0.958193  0.933592  1
  Ho  Ho15  1  0.326010  0.542166  0.433405  1
  Ho  Ho16  1  0.825952  0.041807  0.066408  1
  Ho  Ho17  1  0.673990  0.457834  0.566595  1
  Ho  Ho18  1  0.826023  0.458160  0.066568  1
  Ho  Ho19  1  0.173977  0.541840  0.933432  1
  Bi  Bi20  1  0.567304  0.491536  0.827416  1
  Bi  Bi21  1  0.432696  0.508464  0.172584  1
  Bi  Bi22  1  0.067114  0.508323  0.672888  1
  Bi  Bi23  1  0.433109  0.991653  0.172485  1
  Bi  Bi24  1  0.932886  0.491677  0.327112  1
  Bi  Bi25  1  0.566891  0.008347  0.827515  1
  Bi  Bi26  1  0.931484  0.008615  0.327183  1
  Bi  Bi27  1  0.068516  0.991385  0.672817  1
  Ir  Ir28  1  0.571317  0.748829  0.508927  1
  Ir  Ir29  1  0.428683  0.251171  0.491073  1
  Ir  Ir30  1  0.070631  0.250014  0.991413  1
  Ir  Ir31  1  0.929369  0.749986  0.008587  1
