# generated using pymatgen
data_NaScH9W
_symmetry_space_group_name_H-M   'P 1'
_cell_length_a   8.19021100
_cell_length_b   8.19020970
_cell_length_c   4.98798100
_cell_angle_alpha   90.00000000
_cell_angle_beta   90.00000000
_cell_angle_gamma   120.00000928
_symmetry_Int_Tables_number   1
_chemical_formula_structural   NaScH9W
_chemical_formula_sum   'Na3 Sc3 H27 W3'
_cell_volume   289.76471081
_cell_formula_units_Z   3
loop_
 _symmetry_equiv_pos_site_id
 _symmetry_equiv_pos_as_xyz
  1  'x, y, z'
loop_
 _atom_site_type_symbol
 _atom_site_label
 _atom_site_symmetry_multiplicity
 _atom_site_fract_x
 _atom_site_fract_y
 _atom_site_fract_z
 _atom_site_occupancy
  Na  Na0  1  0.000000  0.600227  0.000000  1
  Na  Na1  1  0.399773  0.399773  0.000000  1
  Na  Na2  1  0.600227  0.000000  0.000000  1
  Sc  Sc3  1  0.000000  0.259336  0.500000  1
  Sc  Sc4  1  0.740664  0.740664  0.500000  1
  Sc  Sc5  1  0.259336  0.000000  0.500000  1
  H  H6  1  0.828739  0.341449  0.745014  1
  H  H7  1  0.658551  0.487289  0.745014  1
  H  H8  1  0.512711  0.171261  0.745014  1
  H  H9  1  0.171261  0.512711  0.254986  1
  H  H10  1  0.512711  0.171261  0.254986  1
  H  H11  1  0.828739  0.341449  0.254986  1
  H  H12  1  0.658551  0.487289  0.254986  1
  H  H13  1  0.341449  0.828739  0.745014  1
  H  H14  1  0.487289  0.658551  0.745014  1
  H  H15  1  0.215889  0.000000  0.000000  1
  H  H16  1  0.784111  0.784111  0.000000  1
  H  H17  1  0.000000  0.215889  0.000000  1
  H  H18  1  0.844268  0.000000  0.268073  1
  H  H19  1  0.155732  0.155732  0.731927  1
  H  H20  1  0.000000  0.844268  0.731927  1
  H  H21  1  0.000000  0.844268  0.268073  1
  H  H22  1  0.155732  0.155732  0.268073  1
  H  H23  1  0.844268  0.000000  0.731927  1
  H  H24  1  0.133087  0.695233  0.500000  1
  H  H25  1  0.562146  0.866913  0.500000  1
  H  H26  1  0.304767  0.437854  0.500000  1
  H  H27  1  0.437854  0.304767  0.500000  1
  H  H28  1  0.866913  0.562146  0.500000  1
  H  H29  1  0.695233  0.133087  0.500000  1
  H  H30  1  0.171261  0.512711  0.745014  1
  H  H31  1  0.341449  0.828739  0.254986  1
  H  H32  1  0.487289  0.658551  0.254986  1
  W  W33  1  0.666667  0.333333  0.500000  1
  W  W34  1  0.333333  0.666667  0.500000  1
  W  W35  1  0.000000  0.000000  0.000000  1
