# generated using pymatgen
data_Rb2Ga13Sb
_symmetry_space_group_name_H-M   'P 1'
_cell_length_a   10.42378284
_cell_length_b   10.42378288
_cell_length_c   10.42378418
_cell_angle_alpha   39.15222121
_cell_angle_beta   39.15221897
_cell_angle_gamma   39.15222653
_symmetry_Int_Tables_number   1
_chemical_formula_structural   Rb2Ga13Sb
_chemical_formula_sum   'Rb2 Ga13 Sb1'
_cell_volume   406.16117511
_cell_formula_units_Z   1
loop_
 _symmetry_equiv_pos_site_id
 _symmetry_equiv_pos_as_xyz
  1  'x, y, z'
loop_
 _atom_site_type_symbol
 _atom_site_label
 _atom_site_symmetry_multiplicity
 _atom_site_fract_x
 _atom_site_fract_y
 _atom_site_fract_z
 _atom_site_occupancy
  Rb  Rb0  1  0.197112  0.197112  0.197112  1
  Rb  Rb1  1  0.803593  0.803593  0.803593  1
  Ga  Ga2  1  0.555169  0.555169  0.555169  1
  Ga  Ga3  1  0.575260  0.184694  0.184694  1
  Ga  Ga4  1  0.184694  0.184694  0.575260  1
  Ga  Ga5  1  0.184694  0.575260  0.184694  1
  Ga  Ga6  1  0.814055  0.423730  0.814055  1
  Ga  Ga7  1  0.423730  0.814055  0.814055  1
  Ga  Ga8  1  0.814055  0.814055  0.423730  1
  Ga  Ga9  1  0.803817  0.207304  0.207304  1
  Ga  Ga10  1  0.207304  0.207304  0.803817  1
  Ga  Ga11  1  0.207304  0.803817  0.207304  1
  Ga  Ga12  1  0.791214  0.191283  0.791214  1
  Ga  Ga13  1  0.191283  0.791214  0.791214  1
  Ga  Ga14  1  0.791214  0.791214  0.191283  1
  Sb  Sb15  1  0.455502  0.455502  0.455502  1
