# generated using pymatgen
data_Sc3Tc2Ge3Au
_symmetry_space_group_name_H-M   'P 1'
_cell_length_a   7.03305500
_cell_length_b   7.05290617
_cell_length_c   3.60942300
_cell_angle_alpha   90.00000000
_cell_angle_beta   90.00000000
_cell_angle_gamma   119.90693240
_symmetry_Int_Tables_number   1
_chemical_formula_structural   Sc3Tc2Ge3Au
_chemical_formula_sum   'Sc3 Tc2 Ge3 Au1'
_cell_volume   155.19833428
_cell_formula_units_Z   1
loop_
 _symmetry_equiv_pos_site_id
 _symmetry_equiv_pos_as_xyz
  1  'x, y, z'
loop_
 _atom_site_type_symbol
 _atom_site_label
 _atom_site_symmetry_multiplicity
 _atom_site_fract_x
 _atom_site_fract_y
 _atom_site_fract_z
 _atom_site_occupancy
  Sc  Sc0  1  0.992633  0.585423  0.000000  1
  Sc  Sc1  1  0.407209  0.414577  0.000000  1
  Sc  Sc2  1  0.601501  0.000000  0.000000  1
  Tc  Tc3  1  0.999890  0.254322  0.500000  1
  Tc  Tc4  1  0.745568  0.745678  0.500000  1
  Ge  Ge5  1  0.334149  0.660188  0.500000  1
  Ge  Ge6  1  0.673962  0.339812  0.500000  1
  Ge  Ge7  1  0.986942  0.000000  0.000000  1
  Au  Au8  1  0.258148  0.000000  0.500000  1
