# generated using pymatgen
data_Tb4Dy3Ho(ReC2)4
_symmetry_space_group_name_H-M   'P 1'
_cell_length_a   5.13418300
_cell_length_b   6.59626410
_cell_length_c   9.88378715
_cell_angle_alpha   89.97989828
_cell_angle_beta   90.00000000
_cell_angle_gamma   90.00000000
_symmetry_Int_Tables_number   1
_chemical_formula_structural   Tb4Dy3Ho(ReC2)4
_chemical_formula_sum   'Tb4 Dy3 Ho1 Re4 C8'
_cell_volume   334.72853560
_cell_formula_units_Z   1
loop_
 _symmetry_equiv_pos_site_id
 _symmetry_equiv_pos_as_xyz
  1  'x, y, z'
loop_
 _atom_site_type_symbol
 _atom_site_label
 _atom_site_symmetry_multiplicity
 _atom_site_fract_x
 _atom_site_fract_y
 _atom_site_fract_z
 _atom_site_occupancy
  Tb  Tb0  1  0.750000  0.468223  0.784470  1
  Tb  Tb1  1  0.250000  0.031775  0.284227  1
  Tb  Tb2  1  0.750000  0.968397  0.715724  1
  Tb  Tb3  1  0.250000  0.531582  0.215539  1
  Dy  Dy4  1  0.750000  0.820226  0.056193  1
  Dy  Dy5  1  0.250000  0.679884  0.556326  1
  Dy  Dy6  1  0.750000  0.320034  0.443735  1
  Ho  Ho7  1  0.250000  0.179186  0.943345  1
  Re  Re8  1  0.750000  0.277537  0.134381  1
  Re  Re9  1  0.250000  0.222520  0.634737  1
  Re  Re10  1  0.750000  0.777534  0.365422  1
  Re  Re11  1  0.250000  0.722581  0.865532  1
  C  C12  1  0.750000  0.176447  0.951470  1
  C  C13  1  0.250000  0.824071  0.048276  1
  C  C14  1  0.750000  0.676523  0.548389  1
  C  C15  1  0.250000  0.323446  0.451697  1
  C  C16  1  0.750000  0.044503  0.259048  1
  C  C17  1  0.250000  0.455265  0.759447  1
  C  C18  1  0.750000  0.544452  0.240891  1
  C  C19  1  0.250000  0.955815  0.741153  1
