# generated using pymatgen
data_Lu4VB12Ir
_symmetry_space_group_name_H-M   'P 1'
_cell_length_a   3.54445000
_cell_length_b   9.07614305
_cell_length_c   11.45735127
_cell_angle_alpha   89.77151958
_cell_angle_beta   90.00000000
_cell_angle_gamma   90.00000000
_symmetry_Int_Tables_number   1
_chemical_formula_structural   Lu4VB12Ir
_chemical_formula_sum   'Lu8 V2 B24 Ir2'
_cell_volume   368.57931769
_cell_formula_units_Z   2
loop_
 _symmetry_equiv_pos_site_id
 _symmetry_equiv_pos_as_xyz
  1  'x, y, z'
loop_
 _atom_site_type_symbol
 _atom_site_label
 _atom_site_symmetry_multiplicity
 _atom_site_fract_x
 _atom_site_fract_y
 _atom_site_fract_z
 _atom_site_occupancy
  Lu  Lu0  1  0.000000  0.325700  0.417079  1
  Lu  Lu1  1  0.000000  0.674300  0.582921  1
  Lu  Lu2  1  0.000000  0.815976  0.089118  1
  Lu  Lu3  1  0.000000  0.184024  0.910882  1
  Lu  Lu4  1  0.000000  0.941108  0.373405  1
  Lu  Lu5  1  0.000000  0.058892  0.626595  1
  Lu  Lu6  1  0.000000  0.446353  0.128478  1
  Lu  Lu7  1  0.000000  0.553647  0.871522  1
  V  V8  1  0.000000  0.639279  0.318606  1
  V  V9  1  0.000000  0.360721  0.681394  1
  B  B10  1  0.500000  0.551948  0.433862  1
  B  B11  1  0.500000  0.448052  0.566138  1
  B  B12  1  0.500000  0.053390  0.065499  1
  B  B13  1  0.500000  0.946610  0.934501  1
  B  B14  1  0.500000  0.749031  0.420785  1
  B  B15  1  0.500000  0.250969  0.579215  1
  B  B16  1  0.500000  0.251076  0.079074  1
  B  B17  1  0.500000  0.748924  0.920926  1
  B  B18  1  0.500000  0.794723  0.264205  1
  B  B19  1  0.500000  0.205277  0.735795  1
  B  B20  1  0.500000  0.292738  0.235673  1
  B  B21  1  0.500000  0.707262  0.764327  1
  B  B22  1  0.500000  0.631731  0.183251  1
  B  B23  1  0.500000  0.368269  0.816749  1
  B  B24  1  0.500000  0.131028  0.316226  1
  B  B25  1  0.500000  0.868972  0.683774  1
  B  B26  1  0.500000  0.980270  0.212544  1
  B  B27  1  0.500000  0.019730  0.787456  1
  B  B28  1  0.500000  0.479260  0.287602  1
  B  B29  1  0.500000  0.520740  0.712398  1
  B  B30  1  0.500000  0.604980  0.027959  1
  B  B31  1  0.500000  0.395020  0.972041  1
  B  B32  1  0.500000  0.104553  0.470442  1
  B  B33  1  0.500000  0.895447  0.529558  1
  Ir  Ir34  1  0.000000  0.137682  0.177994  1
  Ir  Ir35  1  0.000000  0.862318  0.822006  1
