# generated using pymatgen
data_Mn8Nb2AlGa
_symmetry_space_group_name_H-M   'P 1'
_cell_length_a   4.72701700
_cell_length_b   4.72701655
_cell_length_c   7.83215100
_cell_angle_alpha   90.00000000
_cell_angle_beta   90.00000000
_cell_angle_gamma   120.00001013
_symmetry_Int_Tables_number   1
_chemical_formula_structural   Mn8Nb2AlGa
_chemical_formula_sum   'Mn8 Nb2 Al1 Ga1'
_cell_volume   151.56046407
_cell_formula_units_Z   1
loop_
 _symmetry_equiv_pos_site_id
 _symmetry_equiv_pos_as_xyz
  1  'x, y, z'
loop_
 _atom_site_type_symbol
 _atom_site_label
 _atom_site_symmetry_multiplicity
 _atom_site_fract_x
 _atom_site_fract_y
 _atom_site_fract_z
 _atom_site_occupancy
  Mn  Mn0  1  0.173457  0.346913  0.751803  1
  Mn  Mn1  1  0.826418  0.173582  0.250523  1
  Mn  Mn2  1  0.347164  0.173582  0.250523  1
  Mn  Mn3  1  0.653087  0.826543  0.751803  1
  Mn  Mn4  1  0.000000  0.000000  0.991447  1
  Mn  Mn5  1  0.000000  0.000000  0.492323  1
  Mn  Mn6  1  0.826418  0.652836  0.250523  1
  Mn  Mn7  1  0.173457  0.826543  0.751803  1
  Nb  Nb8  1  0.666667  0.333333  0.567211  1
  Nb  Nb9  1  0.333333  0.666667  0.068050  1
  Al  Al10  1  0.666667  0.333333  0.937018  1
  Ga  Ga11  1  0.333333  0.666667  0.436974  1
