# generated using pymatgen
data_Li4YHo3Sn3Sb
_symmetry_space_group_name_H-M   'P 1'
_cell_length_a   9.37602216
_cell_length_b   9.37955909
_cell_length_c   7.21683474
_cell_angle_alpha   89.99999703
_cell_angle_beta   90.08091633
_cell_angle_gamma   120.01248340
_symmetry_Int_Tables_number   1
_chemical_formula_structural   Li4YHo3Sn3Sb
_chemical_formula_sum   'Li8 Y2 Ho6 Sn6 Sb2'
_cell_volume   549.57025558
_cell_formula_units_Z   2
loop_
 _symmetry_equiv_pos_site_id
 _symmetry_equiv_pos_as_xyz
  1  'x, y, z'
loop_
 _atom_site_type_symbol
 _atom_site_label
 _atom_site_symmetry_multiplicity
 _atom_site_fract_x
 _atom_site_fract_y
 _atom_site_fract_z
 _atom_site_occupancy
  Li  Li0  1  0.167193  0.333983  0.285424  1
  Li  Li1  1  0.167193  0.833212  0.285424  1
  Li  Li2  1  0.666123  0.833062  0.285512  1
  Li  Li3  1  0.832206  0.665956  0.786075  1
  Li  Li4  1  0.832206  0.166249  0.786075  1
  Li  Li5  1  0.334378  0.167189  0.787298  1
  Li  Li6  1  0.334218  0.667109  0.673828  1
  Li  Li7  1  0.666559  0.333280  0.175710  1
  Y  Y8  1  0.513805  0.023915  0.491976  1
  Y  Y9  1  0.513805  0.489889  0.491976  1
  Ho  Ho10  1  0.975444  0.487722  0.490734  1
  Ho  Ho11  1  0.490397  0.978274  0.995232  1
  Ho  Ho12  1  0.490397  0.512125  0.995232  1
  Ho  Ho13  1  0.019922  0.509962  0.996539  1
  Ho  Ho14  1  0.998043  0.999021  0.496940  1
  Ho  Ho15  1  0.998016  0.999008  0.002756  1
  Sn  Sn16  1  0.667006  0.833503  0.732558  1
  Sn  Sn17  1  0.834179  0.666872  0.231923  1
  Sn  Sn18  1  0.834179  0.167306  0.231923  1
  Sn  Sn19  1  0.333043  0.166521  0.231500  1
  Sn  Sn20  1  0.332374  0.666188  0.259288  1
  Sn  Sn21  1  0.667478  0.333738  0.760763  1
  Sb  Sb22  1  0.165916  0.333230  0.733642  1
  Sb  Sb23  1  0.165916  0.832687  0.733642  1
