# generated using pymatgen
data_Cs9K7(CrSe4)4
_symmetry_space_group_name_H-M   'P 1'
_cell_length_a   8.63156642
_cell_length_b   10.42078863
_cell_length_c   15.78697600
_cell_angle_alpha   89.62915353
_cell_angle_beta   89.79101078
_cell_angle_gamma   89.86980831
_symmetry_Int_Tables_number   1
_chemical_formula_structural   Cs9K7(CrSe4)4
_chemical_formula_sum   'Cs9 K7 Cr4 Se16'
_cell_volume   1419.95986134
_cell_formula_units_Z   1
loop_
 _symmetry_equiv_pos_site_id
 _symmetry_equiv_pos_as_xyz
  1  'x, y, z'
loop_
 _atom_site_type_symbol
 _atom_site_label
 _atom_site_symmetry_multiplicity
 _atom_site_fract_x
 _atom_site_fract_y
 _atom_site_fract_z
 _atom_site_occupancy
  Cs  Cs0  1  0.996886  0.997537  0.999826  1
  Cs  Cs1  1  0.504064  0.002400  0.505290  1
  Cs  Cs2  1  0.001682  0.499070  0.999612  1
  Cs  Cs3  1  0.498648  0.503875  0.499431  1
  Cs  Cs4  1  0.991502  0.750868  0.426498  1
  Cs  Cs5  1  0.493608  0.247804  0.070512  1
  Cs  Cs6  1  0.009712  0.250456  0.573330  1
  Cs  Cs7  1  0.504846  0.745698  0.925280  1
  Cs  Cs8  1  0.825606  0.058942  0.278919  1
  K  K9  1  0.334400  0.948756  0.229897  1
  K  K10  1  0.160946  0.549614  0.730022  1
  K  K11  1  0.661539  0.448721  0.768846  1
  K  K12  1  0.161703  0.949438  0.730846  1
  K  K13  1  0.661897  0.049224  0.769994  1
  K  K14  1  0.841046  0.453952  0.269168  1
  K  K15  1  0.337957  0.549677  0.229011  1
  Cr  Cr16  1  0.770528  0.750061  0.676036  1
  Cr  Cr17  1  0.235868  0.254507  0.326196  1
  Cr  Cr18  1  0.726150  0.745085  0.172804  1
  Cr  Cr19  1  0.268505  0.248323  0.823498  1
  Se  Se20  1  0.995674  0.249366  0.817483  1
  Se  Se21  1  0.505897  0.264727  0.320490  1
  Se  Se22  1  0.497675  0.751560  0.682516  1
  Se  Se23  1  0.999244  0.747794  0.179590  1
  Se  Se24  1  0.644020  0.562018  0.103111  1
  Se  Se25  1  0.140363  0.434327  0.395989  1
  Se  Se26  1  0.354268  0.065377  0.894579  1
  Se  Se27  1  0.859835  0.932492  0.605318  1
  Se  Se28  1  0.355688  0.430053  0.893444  1
  Se  Se29  1  0.856174  0.568274  0.604940  1
  Se  Se30  1  0.634059  0.924833  0.100562  1
  Se  Se31  1  0.161897  0.069287  0.398712  1
  Se  Se32  1  0.618757  0.742673  0.310892  1
  Se  Se33  1  0.133465  0.254995  0.187771  1
  Se  Se34  1  0.378217  0.249177  0.686359  1
  Se  Se35  1  0.877675  0.749043  0.813230  1
