# generated using pymatgen
data_TbNdNi7B2Pt
_symmetry_space_group_name_H-M   'P 1'
_cell_length_a   5.07403800
_cell_length_b   5.07403767
_cell_length_c   7.10160400
_cell_angle_alpha   90.00000000
_cell_angle_beta   90.00000000
_cell_angle_gamma   119.99998914
_symmetry_Int_Tables_number   1
_chemical_formula_structural   TbNdNi7B2Pt
_chemical_formula_sum   'Tb1 Nd1 Ni7 B2 Pt1'
_cell_volume   158.34141912
_cell_formula_units_Z   1
loop_
 _symmetry_equiv_pos_site_id
 _symmetry_equiv_pos_as_xyz
  1  'x, y, z'
loop_
 _atom_site_type_symbol
 _atom_site_label
 _atom_site_symmetry_multiplicity
 _atom_site_fract_x
 _atom_site_fract_y
 _atom_site_fract_z
 _atom_site_occupancy
  Tb  Tb0  1  0.000000  0.000000  0.500000  1
  Nd  Nd1  1  0.000000  0.000000  0.000000  1
  Ni  Ni2  1  0.666667  0.333333  0.000000  1
  Ni  Ni3  1  0.500946  0.001893  0.301879  1
  Ni  Ni4  1  0.500946  0.499054  0.301879  1
  Ni  Ni5  1  0.998107  0.499054  0.301879  1
  Ni  Ni6  1  0.500946  0.001893  0.698121  1
  Ni  Ni7  1  0.500946  0.499054  0.698121  1
  Ni  Ni8  1  0.998107  0.499054  0.698121  1
  B  B9  1  0.666667  0.333333  0.500000  1
  B  B10  1  0.333333  0.666667  0.500000  1
  Pt  Pt11  1  0.333333  0.666667  0.000000  1
