# generated using pymatgen
data_LaTb2Nd7Ir4
_symmetry_space_group_name_H-M   'P 1'
_cell_length_a   6.68637477
_cell_length_b   7.28848331
_cell_length_c   8.95413181
_cell_angle_alpha   96.26496818
_cell_angle_beta   112.17591127
_cell_angle_gamma   90.23657211
_symmetry_Int_Tables_number   1
_chemical_formula_structural   LaTb2Nd7Ir4
_chemical_formula_sum   'La1 Tb2 Nd7 Ir4'
_cell_volume   401.18777947
_cell_formula_units_Z   1
loop_
 _symmetry_equiv_pos_site_id
 _symmetry_equiv_pos_as_xyz
  1  'x, y, z'
loop_
 _atom_site_type_symbol
 _atom_site_label
 _atom_site_symmetry_multiplicity
 _atom_site_fract_x
 _atom_site_fract_y
 _atom_site_fract_z
 _atom_site_occupancy
  La  La0  1  0.979426  0.918568  0.181959  1
  Tb  Tb1  1  0.435986  0.749843  0.998944  1
  Tb  Tb2  1  0.563378  0.250604  0.000645  1
  Nd  Nd3  1  0.791924  0.576337  0.814630  1
  Nd  Nd4  1  0.023081  0.077991  0.817401  1
  Nd  Nd5  1  0.207522  0.422284  0.183186  1
  Nd  Nd6  1  0.645399  0.812189  0.432309  1
  Nd  Nd7  1  0.214763  0.685628  0.567231  1
  Nd  Nd8  1  0.353315  0.188352  0.569772  1
  Nd  Nd9  1  0.784359  0.314535  0.433633  1
  Ir  Ir10  1  0.816034  0.574091  0.215761  1
  Ir  Ir11  1  0.599915  0.929828  0.787033  1
  Ir  Ir12  1  0.186169  0.428927  0.784986  1
  Ir  Ir13  1  0.398731  0.070824  0.212510  1
