# generated using pymatgen
data_La8DyLu(In3Br)2
_symmetry_space_group_name_H-M   'P 1'
_cell_length_a   9.69628200
_cell_length_b   9.69628204
_cell_length_c   6.86546500
_cell_angle_alpha   90.00000000
_cell_angle_beta   90.00000000
_cell_angle_gamma   120.00000670
_symmetry_Int_Tables_number   1
_chemical_formula_structural   La8DyLu(In3Br)2
_chemical_formula_sum   'La8 Dy1 Lu1 In6 Br2'
_cell_volume   558.99900774
_cell_formula_units_Z   1
loop_
 _symmetry_equiv_pos_site_id
 _symmetry_equiv_pos_as_xyz
  1  'x, y, z'
loop_
 _atom_site_type_symbol
 _atom_site_label
 _atom_site_symmetry_multiplicity
 _atom_site_fract_x
 _atom_site_fract_y
 _atom_site_fract_z
 _atom_site_occupancy
  La  La0  1  0.732379  0.732017  0.254030  1
  La  La1  1  0.999638  0.732017  0.745970  1
  La  La2  1  0.732379  0.000362  0.745970  1
  La  La3  1  0.267983  0.267621  0.745970  1
  La  La4  1  0.999638  0.267621  0.254030  1
  La  La5  1  0.267983  0.000362  0.254030  1
  La  La6  1  0.333333  0.666667  0.000000  1
  La  La7  1  0.666667  0.333333  0.000000  1
  Dy  Dy8  1  0.333333  0.666667  0.500000  1
  Lu  Lu9  1  0.666667  0.333333  0.500000  1
  In  In10  1  0.393276  0.000343  0.743983  1
  In  In11  1  0.999657  0.606724  0.256017  1
  In  In12  1  0.607068  0.000343  0.256017  1
  In  In13  1  0.999657  0.392932  0.743983  1
  In  In14  1  0.393276  0.392932  0.256017  1
  In  In15  1  0.607068  0.606724  0.743983  1
  Br  Br16  1  0.000000  0.000000  0.500000  1
  Br  Br17  1  0.000000  0.000000  0.000000  1
