# generated using pymatgen
data_Dy5Ho15(Ga2Bi)4
_symmetry_space_group_name_H-M   'P 1'
_cell_length_a   8.19476794
_cell_length_b   8.20668320
_cell_length_c   12.68444740
_cell_angle_alpha   89.97095137
_cell_angle_beta   89.99723898
_cell_angle_gamma   90.05468435
_symmetry_Int_Tables_number   1
_chemical_formula_structural   Dy5Ho15(Ga2Bi)4
_chemical_formula_sum   'Dy5 Ho15 Ga8 Bi4'
_cell_volume   853.05223722
_cell_formula_units_Z   1
loop_
 _symmetry_equiv_pos_site_id
 _symmetry_equiv_pos_as_xyz
  1  'x, y, z'
loop_
 _atom_site_type_symbol
 _atom_site_label
 _atom_site_symmetry_multiplicity
 _atom_site_fract_x
 _atom_site_fract_y
 _atom_site_fract_z
 _atom_site_occupancy
  Dy  Dy0  1  0.652447  0.652050  0.607879  1
  Dy  Dy1  1  0.652546  0.347879  0.107640  1
  Dy  Dy2  1  0.847690  0.848030  0.392120  1
  Dy  Dy3  1  0.152523  0.847825  0.892536  1
  Dy  Dy4  1  0.347220  0.347630  0.607735  1
  Ho  Ho5  1  0.999907  0.499835  0.750467  1
  Ho  Ho6  1  0.000236  0.499922  0.250403  1
  Ho  Ho7  1  0.499775  0.999931  0.249663  1
  Ho  Ho8  1  0.500154  0.000081  0.749716  1
  Ho  Ho9  1  0.347869  0.651752  0.108597  1
  Ho  Ho10  1  0.152254  0.151784  0.391331  1
  Ho  Ho11  1  0.847793  0.151719  0.891573  1
  Ho  Ho12  1  0.652387  0.347429  0.391485  1
  Ho  Ho13  1  0.347515  0.347573  0.891656  1
  Ho  Ho14  1  0.152431  0.847548  0.608160  1
  Ho  Ho15  1  0.847502  0.847567  0.108358  1
  Ho  Ho16  1  0.347807  0.652600  0.391363  1
  Ho  Ho17  1  0.652142  0.652810  0.891606  1
  Ho  Ho18  1  0.847928  0.152649  0.608303  1
  Ho  Ho19  1  0.152073  0.152746  0.108427  1
  Ga  Ga20  1  0.852539  0.852678  0.750043  1
  Ga  Ga21  1  0.852847  0.147528  0.250158  1
  Ga  Ga22  1  0.647253  0.647533  0.250037  1
  Ga  Ga23  1  0.352262  0.647752  0.750041  1
  Ga  Ga24  1  0.147201  0.147473  0.750199  1
  Ga  Ga25  1  0.147542  0.852582  0.249891  1
  Ga  Ga26  1  0.352459  0.352630  0.250184  1
  Ga  Ga27  1  0.647716  0.352244  0.750352  1
  Bi  Bi28  1  0.000162  0.499827  0.500203  1
  Bi  Bi29  1  0.000030  0.500090  0.000284  1
  Bi  Bi30  1  0.499655  0.000325  0.499749  1
  Bi  Bi31  1  0.500134  0.999975  0.999839  1
