# generated using pymatgen
data_KPH6
_symmetry_space_group_name_H-M   'P 1'
_cell_length_a   5.12000591
_cell_length_b   4.43664369
_cell_length_c   7.00433398
_cell_angle_alpha   75.66422643
_cell_angle_beta   102.86604015
_cell_angle_gamma   89.74892939
_symmetry_Int_Tables_number   1
_chemical_formula_structural   KPH6
_chemical_formula_sum   'K1 P1 H6'
_cell_volume   149.98461089
_cell_formula_units_Z   1
loop_
 _symmetry_equiv_pos_site_id
 _symmetry_equiv_pos_as_xyz
  1  'x, y, z'
loop_
 _atom_site_type_symbol
 _atom_site_label
 _atom_site_symmetry_multiplicity
 _atom_site_fract_x
 _atom_site_fract_y
 _atom_site_fract_z
 _atom_site_occupancy
  K  K0  1  0.701678  0.654121  0.117487  1
  P  P1  1  0.200601  0.145693  0.116976  1
  H  H2  1  0.923302  0.714896  0.604820  1
  H  H3  1  0.150307  0.428828  0.957516  1
  H  H4  1  0.257555  0.310476  0.272512  1
  H  H5  1  0.934173  0.844322  0.514800  1
  H  H6  1  0.438708  0.170909  0.729393  1
  H  H7  1  0.473690  0.132941  0.638622  1
