# generated using pymatgen
data_Tm3MgGa4Pd
_symmetry_space_group_name_H-M   'P 1'
_cell_length_a   6.98321500
_cell_length_b   6.93123435
_cell_length_c   4.33614300
_cell_angle_alpha   90.00000000
_cell_angle_beta   90.00000000
_cell_angle_gamma   120.24839722
_symmetry_Int_Tables_number   1
_chemical_formula_structural   Tm3MgGa4Pd
_chemical_formula_sum   'Tm3 Mg1 Ga4 Pd1'
_cell_volume   181.30414263
_cell_formula_units_Z   1
loop_
 _symmetry_equiv_pos_site_id
 _symmetry_equiv_pos_as_xyz
  1  'x, y, z'
loop_
 _atom_site_type_symbol
 _atom_site_label
 _atom_site_symmetry_multiplicity
 _atom_site_fract_x
 _atom_site_fract_y
 _atom_site_fract_z
 _atom_site_occupancy
  Tm  Tm0  1  0.588498  0.000000  0.000000  1
  Tm  Tm1  1  0.000680  0.580709  0.000000  1
  Tm  Tm2  1  0.419972  0.419291  0.000000  1
  Mg  Mg3  1  0.233414  0.000000  0.500000  1
  Ga  Ga4  1  0.001561  0.244809  0.500000  1
  Ga  Ga5  1  0.756752  0.755191  0.500000  1
  Ga  Ga6  1  0.336674  0.664776  0.500000  1
  Ga  Ga7  1  0.671898  0.335224  0.500000  1
  Pd  Pd8  1  0.990551  0.000000  0.000000  1
