# generated using pymatgen
data_Eu2CuAs2Pd
_symmetry_space_group_name_H-M   'P 1'
_cell_length_a   4.30543700
_cell_length_b   4.30543741
_cell_length_c   8.26576100
_cell_angle_alpha   90.00000000
_cell_angle_beta   90.00000000
_cell_angle_gamma   120.00000454
_symmetry_Int_Tables_number   1
_chemical_formula_structural   Eu2CuAs2Pd
_chemical_formula_sum   'Eu2 Cu1 As2 Pd1'
_cell_volume   132.69298818
_cell_formula_units_Z   1
loop_
 _symmetry_equiv_pos_site_id
 _symmetry_equiv_pos_as_xyz
  1  'x, y, z'
loop_
 _atom_site_type_symbol
 _atom_site_label
 _atom_site_symmetry_multiplicity
 _atom_site_fract_x
 _atom_site_fract_y
 _atom_site_fract_z
 _atom_site_occupancy
  Eu  Eu0  1  0.000000  0.000000  0.496381  1
  Eu  Eu1  1  0.000000  0.000000  0.003619  1
  Cu  Cu2  1  0.333333  0.666667  0.750000  1
  As  As3  1  0.333333  0.666667  0.250000  1
  As  As4  1  0.666667  0.333333  0.750000  1
  Pd  Pd5  1  0.666667  0.333333  0.250000  1
