# generated using pymatgen
data_Y2TmCoSn6
_symmetry_space_group_name_H-M   'P 1'
_cell_length_a   8.44371684
_cell_length_b   8.44371705
_cell_length_c   13.17025100
_cell_angle_alpha   90.00000000
_cell_angle_beta   90.00000000
_cell_angle_gamma   148.67538930
_symmetry_Int_Tables_number   1
_chemical_formula_structural   Y2TmCoSn6
_chemical_formula_sum   'Y4 Tm2 Co2 Sn12'
_cell_volume   488.16830478
_cell_formula_units_Z   2
loop_
 _symmetry_equiv_pos_site_id
 _symmetry_equiv_pos_as_xyz
  1  'x, y, z'
loop_
 _atom_site_type_symbol
 _atom_site_label
 _atom_site_symmetry_multiplicity
 _atom_site_fract_x
 _atom_site_fract_y
 _atom_site_fract_z
 _atom_site_occupancy
  Y  Y0  1  0.900115  0.099885  0.093411  1
  Y  Y1  1  0.099885  0.900115  0.593411  1
  Y  Y2  1  0.099885  0.900115  0.906589  1
  Y  Y3  1  0.900115  0.099885  0.406589  1
  Tm  Tm4  1  0.900442  0.099558  0.750000  1
  Tm  Tm5  1  0.099558  0.900442  0.250000  1
  Co  Co6  1  0.297383  0.702617  0.250000  1
  Co  Co7  1  0.702617  0.297383  0.750000  1
  Sn  Sn8  1  0.755625  0.244375  0.571062  1
  Sn  Sn9  1  0.426875  0.573125  0.577167  1
  Sn  Sn10  1  0.573125  0.426875  0.422833  1
  Sn  Sn11  1  0.731894  0.268106  0.250000  1
  Sn  Sn12  1  0.268106  0.731894  0.750000  1
  Sn  Sn13  1  0.244375  0.755625  0.071062  1
  Sn  Sn14  1  0.244375  0.755625  0.428938  1
  Sn  Sn15  1  0.573125  0.426875  0.077167  1
  Sn  Sn16  1  0.453086  0.546914  0.250000  1
  Sn  Sn17  1  0.546914  0.453086  0.750000  1
  Sn  Sn18  1  0.755625  0.244375  0.928938  1
  Sn  Sn19  1  0.426875  0.573125  0.922833  1
