# generated using pymatgen
data_Y6Ho4Si5Bi
_symmetry_space_group_name_H-M   'P 1'
_cell_length_a   8.52406400
_cell_length_b   8.57072010
_cell_length_c   6.35665900
_cell_angle_alpha   90.00000000
_cell_angle_beta   90.00000000
_cell_angle_gamma   119.82008791
_symmetry_Int_Tables_number   1
_chemical_formula_structural   Y6Ho4Si5Bi
_chemical_formula_sum   'Y6 Ho4 Si5 Bi1'
_cell_volume   402.91000074
_cell_formula_units_Z   1
loop_
 _symmetry_equiv_pos_site_id
 _symmetry_equiv_pos_as_xyz
  1  'x, y, z'
loop_
 _atom_site_type_symbol
 _atom_site_label
 _atom_site_symmetry_multiplicity
 _atom_site_fract_x
 _atom_site_fract_y
 _atom_site_fract_z
 _atom_site_occupancy
  Y  Y0  1  0.985065  0.744920  0.750000  1
  Y  Y1  1  0.998295  0.243539  0.250000  1
  Y  Y2  1  0.754757  0.756461  0.250000  1
  Y  Y3  1  0.767372  0.000000  0.750000  1
  Y  Y4  1  0.240147  0.255080  0.750000  1
  Y  Y5  1  0.240557  0.000000  0.250000  1
  Ho  Ho6  1  0.330710  0.653955  0.495037  1
  Ho  Ho7  1  0.676756  0.346045  0.004963  1
  Ho  Ho8  1  0.676756  0.346045  0.495037  1
  Ho  Ho9  1  0.330710  0.653955  0.004963  1
  Si  Si10  1  0.393389  0.390871  0.250000  1
  Si  Si11  1  0.002517  0.609129  0.250000  1
  Si  Si12  1  0.998667  0.394674  0.750000  1
  Si  Si13  1  0.603993  0.605326  0.750000  1
  Si  Si14  1  0.606785  0.000000  0.250000  1
  Bi  Bi15  1  0.393523  0.000000  0.750000  1
