# generated using pymatgen
data_Dy5Ho15Ir11Ru
_symmetry_space_group_name_H-M   'P 1'
_cell_length_a   10.83530102
_cell_length_b   10.83447301
_cell_length_c   6.38079801
_cell_angle_alpha   90.00404047
_cell_angle_beta   89.99389591
_cell_angle_gamma   89.99901652
_symmetry_Int_Tables_number   1
_chemical_formula_structural   Dy5Ho15Ir11Ru
_chemical_formula_sum   'Dy5 Ho15 Ir11 Ru1'
_cell_volume   749.07234964
_cell_formula_units_Z   1
loop_
 _symmetry_equiv_pos_site_id
 _symmetry_equiv_pos_as_xyz
  1  'x, y, z'
loop_
 _atom_site_type_symbol
 _atom_site_label
 _atom_site_symmetry_multiplicity
 _atom_site_fract_x
 _atom_site_fract_y
 _atom_site_fract_z
 _atom_site_occupancy
  Dy  Dy0  1  0.292267  0.087216  0.376656  1
  Dy  Dy1  1  0.292499  0.912782  0.879446  1
  Dy  Dy2  1  0.707451  0.087355  0.879434  1
  Dy  Dy3  1  0.707772  0.912855  0.376666  1
  Dy  Dy4  1  0.587199  0.792418  0.879437  1
  Ho  Ho5  1  0.587153  0.207743  0.376869  1
  Ho  Ho6  1  0.412787  0.792233  0.376850  1
  Ho  Ho7  1  0.412803  0.207455  0.879558  1
  Ho  Ho8  1  0.208978  0.411856  0.621951  1
  Ho  Ho9  1  0.208956  0.588009  0.121639  1
  Ho  Ho10  1  0.791046  0.411989  0.121604  1
  Ho  Ho11  1  0.791071  0.588087  0.621889  1
  Ho  Ho12  1  0.912062  0.708919  0.121540  1
  Ho  Ho13  1  0.911902  0.291064  0.621865  1
  Ho  Ho14  1  0.088111  0.708938  0.621862  1
  Ho  Ho15  1  0.087965  0.291071  0.121511  1
  Ho  Ho16  1  0.000003  0.999984  0.499472  1
  Ho  Ho17  1  0.000002  0.000000  0.999446  1
  Ho  Ho18  1  0.499959  0.499913  0.999476  1
  Ho  Ho19  1  0.499995  0.500007  0.499443  1
  Ir  Ir20  1  0.847218  0.153851  0.250292  1
  Ir  Ir21  1  0.847472  0.846528  0.749953  1
  Ir  Ir22  1  0.152700  0.153503  0.750026  1
  Ir  Ir23  1  0.152787  0.846146  0.250287  1
  Ir  Ir24  1  0.653288  0.347315  0.749725  1
  Ir  Ir25  1  0.653676  0.652657  0.250263  1
  Ir  Ir26  1  0.346391  0.347238  0.249957  1
  Ir  Ir27  1  0.346593  0.652617  0.749665  1
  Ir  Ir28  1  0.499935  0.000125  0.622470  1
  Ir  Ir29  1  0.000005  0.499999  0.878711  1
  Ir  Ir30  1  0.999993  0.499996  0.378815  1
  Ru  Ru31  1  0.499964  0.000133  0.123230  1
