# generated using pymatgen
data_Sr5Sn2SbH
_symmetry_space_group_name_H-M   'P 1'
_cell_length_a   9.98836798
_cell_length_b   9.98836840
_cell_length_c   9.98836610
_cell_angle_alpha   128.64518511
_cell_angle_beta   128.64518560
_cell_angle_gamma   75.58216953
_symmetry_Int_Tables_number   1
_chemical_formula_structural   Sr5Sn2SbH
_chemical_formula_sum   'Sr10 Sn4 Sb2 H2'
_cell_volume   591.41606247
_cell_formula_units_Z   2
loop_
 _symmetry_equiv_pos_site_id
 _symmetry_equiv_pos_as_xyz
  1  'x, y, z'
loop_
 _atom_site_type_symbol
 _atom_site_label
 _atom_site_symmetry_multiplicity
 _atom_site_fract_x
 _atom_site_fract_y
 _atom_site_fract_z
 _atom_site_occupancy
  Sr  Sr0  1  0.500000  0.500000  0.000000  1
  Sr  Sr1  1  0.000000  0.000000  0.000000  1
  Sr  Sr2  1  0.514483  0.014483  0.823913  1
  Sr  Sr3  1  0.190570  0.690570  0.176089  1
  Sr  Sr4  1  0.014480  0.190569  0.499999  1
  Sr  Sr5  1  0.690569  0.514480  0.499999  1
  Sr  Sr6  1  0.485517  0.985517  0.176087  1
  Sr  Sr7  1  0.809430  0.309430  0.823911  1
  Sr  Sr8  1  0.985520  0.809431  0.500001  1
  Sr  Sr9  1  0.309431  0.485520  0.500001  1
  Sn  Sn10  1  0.875454  0.375454  0.250907  1
  Sn  Sn11  1  0.124546  0.624546  0.749093  1
  Sn  Sn12  1  0.375449  0.124551  0.500000  1
  Sn  Sn13  1  0.624551  0.875449  0.500000  1
  Sb  Sb14  1  0.250000  0.250000  0.000000  1
  Sb  Sb15  1  0.750000  0.750000  0.000000  1
  H  H16  1  0.250000  0.750000  0.500000  1
  H  H17  1  0.750000  0.250000  0.500000  1
