# generated using pymatgen
data_La2PrTc4(P2O)2
_symmetry_space_group_name_H-M   'P 1'
_cell_length_a   4.16811147
_cell_length_b   4.16812282
_cell_length_c   13.60434908
_cell_angle_alpha   98.81861616
_cell_angle_beta   98.81803770
_cell_angle_gamma   89.94582498
_symmetry_Int_Tables_number   1
_chemical_formula_structural   La2PrTc4(P2O)2
_chemical_formula_sum   'La2 Pr1 Tc4 P4 O2'
_cell_volume   230.73490426
_cell_formula_units_Z   1
loop_
 _symmetry_equiv_pos_site_id
 _symmetry_equiv_pos_as_xyz
  1  'x, y, z'
loop_
 _atom_site_type_symbol
 _atom_site_label
 _atom_site_symmetry_multiplicity
 _atom_site_fract_x
 _atom_site_fract_y
 _atom_site_fract_z
 _atom_site_occupancy
  La  La0  1  0.705836  0.705833  0.411197  1
  La  La1  1  0.294132  0.294143  0.588787  1
  Pr  Pr2  1  0.000082  0.000093  0.000089  1
  Tc  Tc3  1  0.592524  0.092403  0.184868  1
  Tc  Tc4  1  0.092412  0.592529  0.184877  1
  Tc  Tc5  1  0.907561  0.407457  0.815075  1
  Tc  Tc6  1  0.407442  0.907543  0.815058  1
  P  P7  1  0.550227  0.550223  0.100530  1
  P  P8  1  0.134076  0.134077  0.267756  1
  P  P9  1  0.865874  0.865869  0.732138  1
  P  P10  1  0.449831  0.449825  0.899568  1
  O  O11  1  0.750156  0.249851  0.500027  1
  O  O12  1  0.249855  0.750161  0.500028  1
