# generated using pymatgen
data_Rb5BaPaAs4
_symmetry_space_group_name_H-M   'P 1'
_cell_length_a   11.17158700
_cell_length_b   11.17158720
_cell_length_c   8.47815646
_cell_angle_alpha   88.60175392
_cell_angle_beta   88.60174798
_cell_angle_gamma   119.64164798
_symmetry_Int_Tables_number   1
_chemical_formula_structural   Rb5BaPaAs4
_chemical_formula_sum   'Rb10 Ba2 Pa2 As8'
_cell_volume   918.55782895
_cell_formula_units_Z   2
loop_
 _symmetry_equiv_pos_site_id
 _symmetry_equiv_pos_as_xyz
  1  'x, y, z'
loop_
 _atom_site_type_symbol
 _atom_site_label
 _atom_site_symmetry_multiplicity
 _atom_site_fract_x
 _atom_site_fract_y
 _atom_site_fract_z
 _atom_site_occupancy
  Rb  Rb0  1  0.464426  0.530637  0.605086  1
  Rb  Rb1  1  0.060241  0.529777  0.606688  1
  Rb  Rb2  1  0.530637  0.464426  0.105086  1
  Rb  Rb3  1  0.529777  0.060241  0.106688  1
  Rb  Rb4  1  0.864179  0.137944  0.786468  1
  Rb  Rb5  1  0.285924  0.148383  0.823330  1
  Rb  Rb6  1  0.857064  0.722179  0.767104  1
  Rb  Rb7  1  0.137944  0.864179  0.286468  1
  Rb  Rb8  1  0.722179  0.857064  0.267104  1
  Rb  Rb9  1  0.148383  0.285924  0.323330  1
  Ba  Ba10  1  0.459980  0.929383  0.597010  1
  Ba  Ba11  1  0.929383  0.459980  0.097010  1
  Pa  Pa12  1  0.668415  0.333290  0.504976  1
  Pa  Pa13  1  0.333290  0.668415  0.004976  1
  As  As14  1  0.690809  0.344162  0.827656  1
  As  As15  1  0.344162  0.690809  0.327656  1
  As  As16  1  0.194991  0.796379  0.889670  1
  As  As17  1  0.594734  0.805877  0.870724  1
  As  As18  1  0.184616  0.396612  0.928488  1
  As  As19  1  0.796379  0.194991  0.389670  1
  As  As20  1  0.396612  0.184616  0.428488  1
  As  As21  1  0.805877  0.594734  0.370724  1
