# generated using pymatgen
data_KRbEr4(CuSe4)2
_symmetry_space_group_name_H-M   'P 1'
_cell_length_a   7.35464427
_cell_length_b   4.10438982
_cell_length_c   14.38016100
_cell_angle_alpha   90.00000000
_cell_angle_beta   90.00000000
_cell_angle_gamma   106.20256006
_symmetry_Int_Tables_number   1
_chemical_formula_structural   KRbEr4(CuSe4)2
_chemical_formula_sum   'K1 Rb1 Er4 Cu2 Se8'
_cell_volume   416.84294683
_cell_formula_units_Z   1
loop_
 _symmetry_equiv_pos_site_id
 _symmetry_equiv_pos_as_xyz
  1  'x, y, z'
loop_
 _atom_site_type_symbol
 _atom_site_label
 _atom_site_symmetry_multiplicity
 _atom_site_fract_x
 _atom_site_fract_y
 _atom_site_fract_z
 _atom_site_occupancy
  K  K0  1  0.772034  0.886017  0.750000  1
  Rb  Rb1  1  0.227364  0.113682  0.250000  1
  Er  Er2  1  0.733760  0.366880  0.064125  1
  Er  Er3  1  0.733760  0.366880  0.435876  1
  Er  Er4  1  0.267623  0.633811  0.565705  1
  Er  Er5  1  0.267623  0.633811  0.934295  1
  Cu  Cu6  1  0.678538  0.839270  0.250000  1
  Cu  Cu7  1  0.319775  0.159887  0.750000  1
  Se  Se8  1  0.000652  0.000326  0.999804  1
  Se  Se9  1  0.477649  0.738824  0.107299  1
  Se  Se10  1  0.862127  0.431063  0.250000  1
  Se  Se11  1  0.477649  0.738824  0.392700  1
  Se  Se12  1  0.000652  0.000326  0.500196  1
  Se  Se13  1  0.525553  0.262777  0.610063  1
  Se  Se14  1  0.129696  0.564848  0.750000  1
  Se  Se15  1  0.525553  0.262777  0.889937  1
