# generated using pymatgen
data_In3Sn2(BIr3)2
_symmetry_space_group_name_H-M   'P 1'
_cell_length_a   6.69881081
_cell_length_b   6.76837415
_cell_length_c   5.64392500
_cell_angle_alpha   90.00000000
_cell_angle_beta   90.00000000
_cell_angle_gamma   120.34411074
_symmetry_Int_Tables_number   1
_chemical_formula_structural   In3Sn2(BIr3)2
_chemical_formula_sum   'In3 Sn2 B2 Ir6'
_cell_volume   220.83990820
_cell_formula_units_Z   1
loop_
 _symmetry_equiv_pos_site_id
 _symmetry_equiv_pos_as_xyz
  1  'x, y, z'
loop_
 _atom_site_type_symbol
 _atom_site_label
 _atom_site_symmetry_multiplicity
 _atom_site_fract_x
 _atom_site_fract_y
 _atom_site_fract_z
 _atom_site_occupancy
  In  In0  1  0.670534  0.337583  0.500000  1
  In  In1  1  0.000000  0.591997  0.000000  1
  In  In2  1  0.329466  0.667050  0.500000  1
  Sn  Sn3  1  0.403122  0.405427  0.000000  1
  Sn  Sn4  1  0.596878  0.002305  0.000000  1
  B  B5  1  0.000000  0.998714  0.500000  1
  B  B6  1  0.000000  0.995856  0.000000  1
  Ir  Ir7  1  0.000000  0.248948  0.744695  1
  Ir  Ir8  1  0.000000  0.248948  0.255305  1
  Ir  Ir9  1  0.744021  0.747803  0.254067  1
  Ir  Ir10  1  0.255979  0.003783  0.745933  1
  Ir  Ir11  1  0.255979  0.003783  0.254067  1
  Ir  Ir12  1  0.744021  0.747803  0.745933  1
