# generated using pymatgen
data_Tb3Ho(ReB2)6
_symmetry_space_group_name_H-M   'P 1'
_cell_length_a   6.22724316
_cell_length_b   6.22568822
_cell_length_c   7.51542594
_cell_angle_alpha   90.66499716
_cell_angle_beta   90.56607831
_cell_angle_gamma   113.83301515
_symmetry_Int_Tables_number   1
_chemical_formula_structural   Tb3Ho(ReB2)6
_chemical_formula_sum   'Tb3 Ho1 Re6 B12'
_cell_volume   266.46730375
_cell_formula_units_Z   1
loop_
 _symmetry_equiv_pos_site_id
 _symmetry_equiv_pos_as_xyz
  1  'x, y, z'
loop_
 _atom_site_type_symbol
 _atom_site_label
 _atom_site_symmetry_multiplicity
 _atom_site_fract_x
 _atom_site_fract_y
 _atom_site_fract_z
 _atom_site_occupancy
  Tb  Tb0  1  0.100270  0.443009  0.322449  1
  Tb  Tb1  1  0.556921  0.899753  0.177449  1
  Tb  Tb2  1  0.899576  0.556803  0.677625  1
  Ho  Ho3  1  0.443204  0.101178  0.821612  1
  Re  Re4  1  0.588340  0.411570  0.250094  1
  Re  Re5  1  0.411650  0.588692  0.750203  1
  Re  Re6  1  0.990724  0.807283  0.088406  1
  Re  Re7  1  0.192776  0.009469  0.411484  1
  Re  Re8  1  0.009738  0.192544  0.911220  1
  Re  Re9  1  0.806905  0.990647  0.588805  1
  B  B10  1  0.249949  0.151369  0.129631  1
  B  B11  1  0.848583  0.750564  0.369844  1
  B  B12  1  0.750293  0.848670  0.869895  1
  B  B13  1  0.151687  0.249238  0.630361  1
  B  B14  1  0.587092  0.159672  0.480058  1
  B  B15  1  0.839943  0.412446  0.020206  1
  B  B16  1  0.412696  0.840514  0.520759  1
  B  B17  1  0.159769  0.587122  0.979632  1
  B  B18  1  0.443122  0.350032  0.535892  1
  B  B19  1  0.649622  0.556589  0.964371  1
  B  B20  1  0.556896  0.649789  0.464497  1
  B  B21  1  0.350243  0.443046  0.035506  1
