# generated using pymatgen
data_Cs2AcCl5
_symmetry_space_group_name_H-M   'P 1'
_cell_length_a   8.77862900
_cell_length_b   9.49174600
_cell_length_c   14.15978000
_cell_angle_alpha   90.00000000
_cell_angle_beta   90.00000000
_cell_angle_gamma   90.00000000
_symmetry_Int_Tables_number   1
_chemical_formula_structural   Cs2AcCl5
_chemical_formula_sum   'Cs8 Ac4 Cl20'
_cell_volume   1179.85682503
_cell_formula_units_Z   4
loop_
 _symmetry_equiv_pos_site_id
 _symmetry_equiv_pos_as_xyz
  1  'x, y, z'
loop_
 _atom_site_type_symbol
 _atom_site_label
 _atom_site_symmetry_multiplicity
 _atom_site_fract_x
 _atom_site_fract_y
 _atom_site_fract_z
 _atom_site_occupancy
  Cs  Cs0  1  0.948495  0.004879  0.828804  1
  Cs  Cs1  1  0.051505  0.995121  0.171196  1
  Cs  Cs2  1  0.448495  0.995121  0.671196  1
  Cs  Cs3  1  0.051505  0.504879  0.171196  1
  Cs  Cs4  1  0.551505  0.004879  0.328804  1
  Cs  Cs5  1  0.948495  0.495121  0.828804  1
  Cs  Cs6  1  0.551505  0.495121  0.328804  1
  Cs  Cs7  1  0.448495  0.504879  0.671196  1
  Ac  Ac8  1  0.933009  0.750000  0.503733  1
  Ac  Ac9  1  0.066991  0.250000  0.496267  1
  Ac  Ac10  1  0.433009  0.250000  0.996267  1
  Ac  Ac11  1  0.566991  0.750000  0.003733  1
  Cl  Cl12  1  0.117534  0.750000  0.673565  1
  Cl  Cl13  1  0.882466  0.250000  0.326435  1
  Cl  Cl14  1  0.617534  0.250000  0.826435  1
  Cl  Cl15  1  0.382466  0.750000  0.173565  1
  Cl  Cl16  1  0.842273  0.040252  0.572212  1
  Cl  Cl17  1  0.157727  0.959748  0.427788  1
  Cl  Cl18  1  0.342273  0.959748  0.927788  1
  Cl  Cl19  1  0.157727  0.540252  0.427788  1
  Cl  Cl20  1  0.657727  0.040252  0.072212  1
  Cl  Cl21  1  0.842273  0.459748  0.572212  1
  Cl  Cl22  1  0.657727  0.459748  0.072212  1
  Cl  Cl23  1  0.342273  0.540252  0.927788  1
  Cl  Cl24  1  0.601134  0.750000  0.511642  1
  Cl  Cl25  1  0.398866  0.250000  0.488358  1
  Cl  Cl26  1  0.101134  0.250000  0.988358  1
  Cl  Cl27  1  0.898866  0.750000  0.011642  1
  Cl  Cl28  1  0.653830  0.750000  0.805860  1
  Cl  Cl29  1  0.346170  0.250000  0.194140  1
  Cl  Cl30  1  0.153830  0.250000  0.694140  1
  Cl  Cl31  1  0.846170  0.750000  0.305860  1
