# generated using pymatgen
data_Sr3EuSc8O16
_symmetry_space_group_name_H-M   'P 1'
_cell_length_a   3.21196700
_cell_length_b   9.74971523
_cell_length_c   11.37398542
_cell_angle_alpha   90.05741755
_cell_angle_beta   90.00000000
_cell_angle_gamma   90.00000000
_symmetry_Int_Tables_number   1
_chemical_formula_structural   Sr3EuSc8O16
_chemical_formula_sum   'Sr3 Eu1 Sc8 O16'
_cell_volume   356.18485953
_cell_formula_units_Z   1
loop_
 _symmetry_equiv_pos_site_id
 _symmetry_equiv_pos_as_xyz
  1  'x, y, z'
loop_
 _atom_site_type_symbol
 _atom_site_label
 _atom_site_symmetry_multiplicity
 _atom_site_fract_x
 _atom_site_fract_y
 _atom_site_fract_z
 _atom_site_occupancy
  Sr  Sr0  1  0.250000  0.255242  0.153103  1
  Sr  Sr1  1  0.750000  0.744843  0.846806  1
  Sr  Sr2  1  0.250000  0.755142  0.347211  1
  Eu  Eu3  1  0.750000  0.245036  0.654024  1
  Sc  Sc4  1  0.750000  0.070465  0.889510  1
  Sc  Sc5  1  0.750000  0.079252  0.394026  1
  Sc  Sc6  1  0.250000  0.420845  0.892837  1
  Sc  Sc7  1  0.250000  0.429407  0.390490  1
  Sc  Sc8  1  0.750000  0.568695  0.610472  1
  Sc  Sc9  1  0.750000  0.577877  0.106064  1
  Sc  Sc10  1  0.250000  0.922778  0.606771  1
  Sc  Sc11  1  0.250000  0.930224  0.109653  1
  O  O12  1  0.250000  0.022395  0.283979  1
  O  O13  1  0.750000  0.074770  0.073636  1
  O  O14  1  0.250000  0.119636  0.522788  1
  O  O15  1  0.250000  0.207581  0.837506  1
  O  O16  1  0.750000  0.292634  0.339647  1
  O  O17  1  0.750000  0.382657  0.020155  1
  O  O18  1  0.250000  0.422063  0.574701  1
  O  O19  1  0.750000  0.476684  0.782649  1
  O  O20  1  0.250000  0.521715  0.216641  1
  O  O21  1  0.750000  0.573796  0.427078  1
  O  O22  1  0.250000  0.616202  0.978805  1
  O  O23  1  0.250000  0.707439  0.659968  1
  O  O24  1  0.750000  0.792563  0.159737  1
  O  O25  1  0.750000  0.884732  0.479448  1
  O  O26  1  0.250000  0.925571  0.925930  1
  O  O27  1  0.750000  0.979755  0.716365  1
