# generated using pymatgen
data_LiEr8Sc11Si15P
_symmetry_space_group_name_H-M   'P 1'
_cell_length_a   7.01122971
_cell_length_b   7.34644132
_cell_length_c   13.92516400
_cell_angle_alpha   90.00000000
_cell_angle_beta   90.00000000
_cell_angle_gamma   89.86871748
_symmetry_Int_Tables_number   1
_chemical_formula_structural   LiEr8Sc11Si15P
_chemical_formula_sum   'Li1 Er8 Sc11 Si15 P1'
_cell_volume   717.24972265
_cell_formula_units_Z   1
loop_
 _symmetry_equiv_pos_site_id
 _symmetry_equiv_pos_as_xyz
  1  'x, y, z'
loop_
 _atom_site_type_symbol
 _atom_site_label
 _atom_site_symmetry_multiplicity
 _atom_site_fract_x
 _atom_site_fract_y
 _atom_site_fract_z
 _atom_site_occupancy
  Li  Li0  1  0.161769  0.512810  0.750000  1
  Er  Er1  1  0.010191  0.175555  0.096274  1
  Er  Er2  1  0.991379  0.818581  0.899325  1
  Er  Er3  1  0.484682  0.675083  0.902333  1
  Er  Er4  1  0.991379  0.818581  0.600675  1
  Er  Er5  1  0.511200  0.323617  0.095764  1
  Er  Er6  1  0.010191  0.175555  0.403726  1
  Er  Er7  1  0.511200  0.323617  0.404236  1
  Er  Er8  1  0.484682  0.675083  0.597667  1
  Sc  Sc9  1  0.838263  0.497217  0.250000  1
  Sc  Sc10  1  0.338671  0.004404  0.250000  1
  Sc  Sc11  1  0.661006  0.996939  0.750000  1
  Sc  Sc12  1  0.322796  0.179487  0.627847  1
  Sc  Sc13  1  0.669728  0.824407  0.376056  1
  Sc  Sc14  1  0.168805  0.679738  0.374955  1
  Sc  Sc15  1  0.669728  0.824407  0.123944  1
  Sc  Sc16  1  0.840020  0.323363  0.628556  1
  Sc  Sc17  1  0.322796  0.179487  0.872153  1
  Sc  Sc18  1  0.840020  0.323363  0.871444  1
  Sc  Sc19  1  0.168805  0.679738  0.125045  1
  Si  Si20  1  0.966075  0.886421  0.250000  1
  Si  Si21  1  0.467113  0.614754  0.250000  1
  Si  Si22  1  0.534252  0.386343  0.750000  1
  Si  Si23  1  0.293067  0.873492  0.750000  1
  Si  Si24  1  0.713073  0.129182  0.250000  1
  Si  Si25  1  0.213957  0.372260  0.250000  1
  Si  Si26  1  0.778757  0.626225  0.750000  1
  Si  Si27  1  0.160166  0.461392  0.534697  1
  Si  Si28  1  0.841968  0.535804  0.463346  1
  Si  Si29  1  0.340739  0.966507  0.462505  1
  Si  Si30  1  0.841968  0.535804  0.036654  1
  Si  Si31  1  0.660507  0.035459  0.541676  1
  Si  Si32  1  0.160166  0.461392  0.965303  1
  Si  Si33  1  0.660507  0.035459  0.958324  1
  Si  Si34  1  0.340739  0.966507  0.037495  1
  P  P35  1  0.029635  0.101972  0.750000  1
