# generated using pymatgen
data_Yb3Dy2Y3(ReC2)4
_symmetry_space_group_name_H-M   'P 1'
_cell_length_a   5.13728400
_cell_length_b   6.55378313
_cell_length_c   10.04586601
_cell_angle_alpha   89.39069644
_cell_angle_beta   90.00000000
_cell_angle_gamma   90.00000000
_symmetry_Int_Tables_number   1
_chemical_formula_structural   Yb3Dy2Y3(ReC2)4
_chemical_formula_sum   'Yb3 Dy2 Y3 Re4 C8'
_cell_volume   338.21157326
_cell_formula_units_Z   1
loop_
 _symmetry_equiv_pos_site_id
 _symmetry_equiv_pos_as_xyz
  1  'x, y, z'
loop_
 _atom_site_type_symbol
 _atom_site_label
 _atom_site_symmetry_multiplicity
 _atom_site_fract_x
 _atom_site_fract_y
 _atom_site_fract_z
 _atom_site_occupancy
  Yb  Yb0  1  0.750000  0.461765  0.776970  1
  Yb  Yb1  1  0.750000  0.961416  0.723452  1
  Yb  Yb2  1  0.250000  0.037704  0.277899  1
  Dy  Dy3  1  0.750000  0.314262  0.446610  1
  Dy  Dy4  1  0.750000  0.818110  0.053665  1
  Y  Y5  1  0.250000  0.688260  0.554385  1
  Y  Y6  1  0.250000  0.183250  0.945189  1
  Y  Y7  1  0.250000  0.536750  0.222051  1
  Re  Re8  1  0.250000  0.720954  0.861382  1
  Re  Re9  1  0.750000  0.277570  0.139103  1
  Re  Re10  1  0.750000  0.776316  0.360683  1
  Re  Re11  1  0.250000  0.225233  0.637394  1
  C  C12  1  0.250000  0.455276  0.758887  1
  C  C13  1  0.750000  0.544634  0.239580  1
  C  C14  1  0.750000  0.044824  0.260628  1
  C  C15  1  0.250000  0.956023  0.740453  1
  C  C16  1  0.250000  0.809531  0.042488  1
  C  C17  1  0.750000  0.178809  0.961243  1
  C  C18  1  0.750000  0.684875  0.540557  1
  C  C19  1  0.250000  0.324437  0.457380  1
