# generated using pymatgen
data_PrTmFe4(CoB2)4
_symmetry_space_group_name_H-M   'P 1'
_cell_length_a   7.01021478
_cell_length_b   6.98154478
_cell_length_c   3.81482600
_cell_angle_alpha   90.00000000
_cell_angle_beta   90.00000000
_cell_angle_gamma   90.05411923
_symmetry_Int_Tables_number   1
_chemical_formula_structural   PrTmFe4(CoB2)4
_chemical_formula_sum   'Pr1 Tm1 Fe4 Co4 B8'
_cell_volume   186.70562065
_cell_formula_units_Z   1
loop_
 _symmetry_equiv_pos_site_id
 _symmetry_equiv_pos_as_xyz
  1  'x, y, z'
loop_
 _atom_site_type_symbol
 _atom_site_label
 _atom_site_symmetry_multiplicity
 _atom_site_fract_x
 _atom_site_fract_y
 _atom_site_fract_z
 _atom_site_occupancy
  Pr  Pr0  1  0.500000  0.500000  0.497219  1
  Tm  Tm1  1  0.000000  0.000000  0.999090  1
  Fe  Fe2  1  0.869720  0.383411  0.107442  1
  Fe  Fe3  1  0.130280  0.616589  0.107442  1
  Fe  Fe4  1  0.886838  0.635435  0.606692  1
  Fe  Fe5  1  0.113162  0.364565  0.606692  1
  Co  Co6  1  0.642596  0.113947  0.391305  1
  Co  Co7  1  0.357404  0.886053  0.391305  1
  Co  Co8  1  0.618303  0.865263  0.890832  1
  Co  Co9  1  0.381697  0.134737  0.890832  1
  B  B10  1  0.333075  0.803894  0.897260  1
  B  B11  1  0.666925  0.196106  0.897260  1
  B  B12  1  0.289622  0.160597  0.394358  1
  B  B13  1  0.710378  0.839403  0.394358  1
  B  B14  1  0.161960  0.705034  0.609028  1
  B  B15  1  0.838040  0.294966  0.609028  1
  B  B16  1  0.192810  0.331804  0.104930  1
  B  B17  1  0.807190  0.668196  0.104930  1
