# generated using pymatgen
data_Tb5TlPb2Cl
_symmetry_space_group_name_H-M   'P 1'
_cell_length_a   9.20823500
_cell_length_b   9.20823428
_cell_length_c   6.70576900
_cell_angle_alpha   90.00000000
_cell_angle_beta   90.00000000
_cell_angle_gamma   119.83515794
_symmetry_Int_Tables_number   1
_chemical_formula_structural   Tb5TlPb2Cl
_chemical_formula_sum   'Tb10 Tl2 Pb4 Cl2'
_cell_volume   493.23168678
_cell_formula_units_Z   2
loop_
 _symmetry_equiv_pos_site_id
 _symmetry_equiv_pos_as_xyz
  1  'x, y, z'
loop_
 _atom_site_type_symbol
 _atom_site_label
 _atom_site_symmetry_multiplicity
 _atom_site_fract_x
 _atom_site_fract_y
 _atom_site_fract_z
 _atom_site_occupancy
  Tb  Tb0  1  0.738954  0.738954  0.250000  1
  Tb  Tb1  1  0.996925  0.741259  0.750000  1
  Tb  Tb2  1  0.741259  0.996925  0.750000  1
  Tb  Tb3  1  0.335471  0.664529  0.500000  1
  Tb  Tb4  1  0.261046  0.261046  0.750000  1
  Tb  Tb5  1  0.003075  0.258741  0.250000  1
  Tb  Tb6  1  0.664529  0.335471  0.500000  1
  Tb  Tb7  1  0.258741  0.003075  0.250000  1
  Tb  Tb8  1  0.335471  0.664529  0.000000  1
  Tb  Tb9  1  0.664529  0.335471  0.000000  1
  Tl  Tl10  1  0.393299  0.393299  0.250000  1
  Tl  Tl11  1  0.606701  0.606701  0.750000  1
  Pb  Pb12  1  0.390318  0.998979  0.750000  1
  Pb  Pb13  1  0.001021  0.609682  0.250000  1
  Pb  Pb14  1  0.609682  0.001021  0.250000  1
  Pb  Pb15  1  0.998979  0.390318  0.750000  1
  Cl  Cl16  1  0.000000  0.000000  0.500000  1
  Cl  Cl17  1  0.000000  0.000000  0.000000  1
