# generated using pymatgen
data_Tb3Ho7Tl6(InNi2)2
_symmetry_space_group_name_H-M   'P 1'
_cell_length_a   3.57230400
_cell_length_b   8.09300270
_cell_length_c   18.03458642
_cell_angle_alpha   90.10438177
_cell_angle_beta   90.00000000
_cell_angle_gamma   90.00000000
_symmetry_Int_Tables_number   1
_chemical_formula_structural   Tb3Ho7Tl6(InNi2)2
_chemical_formula_sum   'Tb3 Ho7 Tl6 In2 Ni4'
_cell_volume   521.39103767
_cell_formula_units_Z   1
loop_
 _symmetry_equiv_pos_site_id
 _symmetry_equiv_pos_as_xyz
  1  'x, y, z'
loop_
 _atom_site_type_symbol
 _atom_site_label
 _atom_site_symmetry_multiplicity
 _atom_site_fract_x
 _atom_site_fract_y
 _atom_site_fract_z
 _atom_site_occupancy
  Tb  Tb0  1  0.000000  0.499112  0.500353  1
  Tb  Tb1  1  0.000000  0.000651  0.999955  1
  Tb  Tb2  1  0.000000  0.117371  0.409680  1
  Ho  Ho3  1  0.000000  0.744841  0.279678  1
  Ho  Ho4  1  0.000000  0.255377  0.720157  1
  Ho  Ho5  1  0.000000  0.755720  0.780911  1
  Ho  Ho6  1  0.000000  0.244613  0.219023  1
  Ho  Ho7  1  0.000000  0.619227  0.089789  1
  Ho  Ho8  1  0.000000  0.381695  0.909884  1
  Ho  Ho9  1  0.000000  0.882477  0.590868  1
  Tl  Tl10  1  0.500000  0.703238  0.932436  1
  Tl  Tl11  1  0.500000  0.297961  0.067459  1
  Tl  Tl12  1  0.500000  0.797067  0.433366  1
  Tl  Tl13  1  0.500000  0.201055  0.567501  1
  Tl  Tl14  1  0.500000  0.577650  0.653654  1
  Tl  Tl15  1  0.500000  0.424540  0.346079  1
  In  In16  1  0.500000  0.923270  0.153410  1
  In  In17  1  0.500000  0.076850  0.846354  1
  Ni  Ni18  1  0.500000  0.529995  0.195892  1
  Ni  Ni19  1  0.500000  0.469756  0.803745  1
  Ni  Ni20  1  0.500000  0.973133  0.698512  1
  Ni  Ni21  1  0.500000  0.024401  0.301295  1
