# generated using pymatgen
data_Rb4Sr(PSe4)2
_symmetry_space_group_name_H-M   'P 1'
_cell_length_a   9.54850935
_cell_length_b   10.60445283
_cell_length_c   12.06012847
_cell_angle_alpha   116.08150081
_cell_angle_beta   113.32030655
_cell_angle_gamma   90.00000356
_symmetry_Int_Tables_number   1
_chemical_formula_structural   Rb4Sr(PSe4)2
_chemical_formula_sum   'Rb8 Sr2 P4 Se16'
_cell_volume   984.53393711
_cell_formula_units_Z   2
loop_
 _symmetry_equiv_pos_site_id
 _symmetry_equiv_pos_as_xyz
  1  'x, y, z'
loop_
 _atom_site_type_symbol
 _atom_site_label
 _atom_site_symmetry_multiplicity
 _atom_site_fract_x
 _atom_site_fract_y
 _atom_site_fract_z
 _atom_site_occupancy
  Rb  Rb0  1  0.702312  0.086435  0.172870  1
  Rb  Rb1  1  0.470557  0.586435  0.172870  1
  Rb  Rb2  1  0.234828  0.484828  0.469658  1
  Rb  Rb3  1  0.234828  0.984828  0.469658  1
  Rb  Rb4  1  0.765172  0.015173  0.530343  1
  Rb  Rb5  1  0.765172  0.515172  0.530343  1
  Rb  Rb6  1  0.529442  0.413565  0.827130  1
  Rb  Rb7  1  0.297688  0.913566  0.827130  1
  Sr  Sr8  1  0.000000  0.250000  0.000000  1
  Sr  Sr9  1  0.000000  0.750000  0.000000  1
  P  P10  1  0.328133  0.124890  0.249780  1
  P  P11  1  0.921647  0.624890  0.249780  1
  P  P12  1  0.078353  0.375111  0.750220  1
  P  P13  1  0.671868  0.875111  0.750220  1
  Se  Se14  1  0.362963  0.244636  0.146941  1
  Se  Se15  1  0.783977  0.402305  0.146941  1
  Se  Se16  1  0.783977  0.744636  0.146941  1
  Se  Se17  1  0.362963  0.902305  0.146941  1
  Se  Se18  1  0.076413  0.104838  0.209676  1
  Se  Se19  1  0.133262  0.604838  0.209676  1
  Se  Se20  1  0.493601  0.235794  0.471586  1
  Se  Se21  1  0.977985  0.735794  0.471586  1
  Se  Se22  1  0.022015  0.264207  0.528414  1
  Se  Se23  1  0.506399  0.764207  0.528414  1
  Se  Se24  1  0.866738  0.395162  0.790323  1
  Se  Se25  1  0.923586  0.895162  0.790323  1
  Se  Se26  1  0.637036  0.097695  0.853059  1
  Se  Se27  1  0.216022  0.255364  0.853059  1
  Se  Se28  1  0.216022  0.597695  0.853059  1
  Se  Se29  1  0.637036  0.755364  0.853059  1
