# generated using pymatgen
data_PrNdGd4Ta2O14
_symmetry_space_group_name_H-M   'P 1'
_cell_length_a   6.57927719
_cell_length_b   6.57927803
_cell_length_c   7.68515501
_cell_angle_alpha   89.99600727
_cell_angle_beta   90.00399196
_cell_angle_gamma   109.61945867
_symmetry_Int_Tables_number   1
_chemical_formula_structural   PrNdGd4Ta2O14
_chemical_formula_sum   'Pr1 Nd1 Gd4 Ta2 O14'
_cell_volume   313.35302694
_cell_formula_units_Z   1
loop_
 _symmetry_equiv_pos_site_id
 _symmetry_equiv_pos_as_xyz
  1  'x, y, z'
loop_
 _atom_site_type_symbol
 _atom_site_label
 _atom_site_symmetry_multiplicity
 _atom_site_fract_x
 _atom_site_fract_y
 _atom_site_fract_z
 _atom_site_occupancy
  Pr  Pr0  1  0.500000  0.500000  0.500000  1
  Nd  Nd1  1  0.500000  0.500000  0.000000  1
  Gd  Gd2  1  0.000130  0.532749  0.249610  1
  Gd  Gd3  1  0.999870  0.467251  0.750390  1
  Gd  Gd4  1  0.532749  0.000130  0.750390  1
  Gd  Gd5  1  0.467251  0.999870  0.249610  1
  Ta  Ta6  1  0.000000  0.000000  0.500000  1
  Ta  Ta7  1  0.000000  0.000000  0.000000  1
  O  O8  1  0.940704  0.059296  0.749984  1
  O  O9  1  0.059296  0.940704  0.250016  1
  O  O10  1  0.359450  0.640550  0.248769  1
  O  O11  1  0.640550  0.359450  0.751231  1
  O  O12  1  0.366254  0.633746  0.751486  1
  O  O13  1  0.633746  0.366254  0.248514  1
  O  O14  1  0.317908  0.069525  0.969384  1
  O  O15  1  0.682133  0.931007  0.469321  1
  O  O16  1  0.317867  0.068993  0.530679  1
  O  O17  1  0.682092  0.930475  0.030616  1
  O  O18  1  0.068993  0.317867  0.469321  1
  O  O19  1  0.930475  0.682092  0.969384  1
  O  O20  1  0.931007  0.682133  0.530679  1
  O  O21  1  0.069525  0.317908  0.030616  1
