# generated using pymatgen
data_Dy2AlZnPt2
_symmetry_space_group_name_H-M   'P 1'
_cell_length_a   4.39234800
_cell_length_b   6.84795443
_cell_length_c   7.88919540
_cell_angle_alpha   90.08165460
_cell_angle_beta   90.00000000
_cell_angle_gamma   90.00000000
_symmetry_Int_Tables_number   1
_chemical_formula_structural   Dy2AlZnPt2
_chemical_formula_sum   'Dy4 Al2 Zn2 Pt4'
_cell_volume   237.29570327
_cell_formula_units_Z   2
loop_
 _symmetry_equiv_pos_site_id
 _symmetry_equiv_pos_as_xyz
  1  'x, y, z'
loop_
 _atom_site_type_symbol
 _atom_site_label
 _atom_site_symmetry_multiplicity
 _atom_site_fract_x
 _atom_site_fract_y
 _atom_site_fract_z
 _atom_site_occupancy
  Dy  Dy0  1  0.250000  0.469002  0.180848  1
  Dy  Dy1  1  0.750000  0.530998  0.819152  1
  Dy  Dy2  1  0.750000  0.027539  0.688145  1
  Dy  Dy3  1  0.250000  0.972461  0.311855  1
  Al  Al4  1  0.750000  0.646178  0.440022  1
  Al  Al5  1  0.250000  0.353822  0.559978  1
  Zn  Zn6  1  0.250000  0.850514  0.932991  1
  Zn  Zn7  1  0.750000  0.149486  0.067009  1
  Pt  Pt8  1  0.250000  0.728003  0.607653  1
  Pt  Pt9  1  0.750000  0.271997  0.392347  1
  Pt  Pt10  1  0.750000  0.760293  0.125198  1
  Pt  Pt11  1  0.250000  0.239707  0.874802  1
