# generated using pymatgen
data_Sc4Mn17(FeP4)3
_symmetry_space_group_name_H-M   'P 1'
_cell_length_a   3.51334100
_cell_length_b   10.49369535
_cell_length_c   12.10727820
_cell_angle_alpha   90.28925216
_cell_angle_beta   90.00000000
_cell_angle_gamma   90.00000000
_symmetry_Int_Tables_number   1
_chemical_formula_structural   Sc4Mn17(FeP4)3
_chemical_formula_sum   'Sc4 Mn17 Fe3 P12'
_cell_volume   446.36459808
_cell_formula_units_Z   1
loop_
 _symmetry_equiv_pos_site_id
 _symmetry_equiv_pos_as_xyz
  1  'x, y, z'
loop_
 _atom_site_type_symbol
 _atom_site_label
 _atom_site_symmetry_multiplicity
 _atom_site_fract_x
 _atom_site_fract_y
 _atom_site_fract_z
 _atom_site_occupancy
  Sc  Sc0  1  0.250000  0.584585  0.706187  1
  Sc  Sc1  1  0.250000  0.916780  0.207511  1
  Sc  Sc2  1  0.750000  0.416620  0.293521  1
  Sc  Sc3  1  0.750000  0.082052  0.791686  1
  Mn  Mn4  1  0.250000  0.715511  0.985741  1
  Mn  Mn5  1  0.250000  0.787814  0.485038  1
  Mn  Mn6  1  0.750000  0.284830  0.015490  1
  Mn  Mn7  1  0.750000  0.212826  0.515153  1
  Mn  Mn8  1  0.250000  0.409819  0.492102  1
  Mn  Mn9  1  0.250000  0.090173  0.992248  1
  Mn  Mn10  1  0.750000  0.591346  0.508007  1
  Mn  Mn11  1  0.750000  0.908373  0.008014  1
  Mn  Mn12  1  0.250000  0.216625  0.178472  1
  Mn  Mn13  1  0.250000  0.282324  0.677462  1
  Mn  Mn14  1  0.750000  0.783992  0.821515  1
  Mn  Mn15  1  0.750000  0.717766  0.322220  1
  Mn  Mn16  1  0.250000  0.879974  0.696452  1
  Mn  Mn17  1  0.250000  0.620122  0.195698  1
  Mn  Mn18  1  0.750000  0.120307  0.303517  1
  Mn  Mn19  1  0.750000  0.379199  0.803645  1
  Mn  Mn20  1  0.250000  0.462565  0.933566  1
  Fe  Fe21  1  0.250000  0.037064  0.431314  1
  Fe  Fe22  1  0.750000  0.536305  0.067815  1
  Fe  Fe23  1  0.750000  0.963123  0.567744  1
  P  P24  1  0.250000  0.416440  0.117703  1
  P  P25  1  0.250000  0.080625  0.612975  1
  P  P26  1  0.750000  0.585344  0.883314  1
  P  P27  1  0.750000  0.919121  0.386279  1
  P  P28  1  0.250000  0.256960  0.871037  1
  P  P29  1  0.250000  0.239990  0.372182  1
  P  P30  1  0.750000  0.740381  0.128278  1
  P  P31  1  0.750000  0.761056  0.627944  1
  P  P32  1  0.250000  0.589987  0.383389  1
  P  P33  1  0.250000  0.910928  0.883106  1
  P  P34  1  0.750000  0.410879  0.616638  1
  P  P35  1  0.750000  0.088190  0.117039  1
