# generated using pymatgen
data_Ho2Al9Os2Pd
_symmetry_space_group_name_H-M   'P 1'
_cell_length_a   7.58406928
_cell_length_b   7.58406889
_cell_length_c   9.52637000
_cell_angle_alpha   90.00000000
_cell_angle_beta   90.00000000
_cell_angle_gamma   119.58334859
_symmetry_Int_Tables_number   1
_chemical_formula_structural   Ho2Al9Os2Pd
_chemical_formula_sum   'Ho4 Al18 Os4 Pd2'
_cell_volume   476.50859203
_cell_formula_units_Z   2
loop_
 _symmetry_equiv_pos_site_id
 _symmetry_equiv_pos_as_xyz
  1  'x, y, z'
loop_
 _atom_site_type_symbol
 _atom_site_label
 _atom_site_symmetry_multiplicity
 _atom_site_fract_x
 _atom_site_fract_y
 _atom_site_fract_z
 _atom_site_occupancy
  Ho  Ho0  1  0.997848  0.669262  0.250000  1
  Ho  Ho1  1  0.002152  0.330738  0.750000  1
  Ho  Ho2  1  0.669262  0.997848  0.250000  1
  Ho  Ho3  1  0.330738  0.002152  0.750000  1
  Al  Al4  1  0.131457  0.131457  0.250000  1
  Al  Al5  1  0.868543  0.868543  0.750000  1
  Al  Al6  1  0.002226  0.339563  0.072562  1
  Al  Al7  1  0.997774  0.660437  0.927438  1
  Al  Al8  1  0.997774  0.660437  0.572562  1
  Al  Al9  1  0.339563  0.002226  0.427438  1
  Al  Al10  1  0.002226  0.339563  0.427438  1
  Al  Al11  1  0.660437  0.997774  0.572562  1
  Al  Al12  1  0.660437  0.997774  0.927438  1
  Al  Al13  1  0.339563  0.002226  0.072562  1
  Al  Al14  1  0.338833  0.338833  0.549610  1
  Al  Al15  1  0.661167  0.661168  0.450390  1
  Al  Al16  1  0.661167  0.661168  0.049610  1
  Al  Al17  1  0.338833  0.338833  0.950390  1
  Al  Al18  1  0.336568  0.548942  0.250000  1
  Al  Al19  1  0.663432  0.451058  0.750000  1
  Al  Al20  1  0.548942  0.336568  0.250000  1
  Al  Al21  1  0.451058  0.663432  0.750000  1
  Os  Os22  1  0.672741  0.327259  0.000000  1
  Os  Os23  1  0.327259  0.672741  0.000000  1
  Os  Os24  1  0.327259  0.672741  0.500000  1
  Os  Os25  1  0.672741  0.327259  0.500000  1
  Pd  Pd26  1  0.000000  0.000000  0.000000  1
  Pd  Pd27  1  0.000000  0.000000  0.500000  1
