# generated using pymatgen
data_TbDy5Al24Os7Ru
_symmetry_space_group_name_H-M   'P 1'
_cell_length_a   8.83026817
_cell_length_b   8.83026549
_cell_length_c   9.57155800
_cell_angle_alpha   90.00084137
_cell_angle_beta   89.99923412
_cell_angle_gamma   119.97731063
_symmetry_Int_Tables_number   1
_chemical_formula_structural   TbDy5Al24Os7Ru
_chemical_formula_sum   'Tb1 Dy5 Al24 Os7 Ru1'
_cell_volume   646.48755681
_cell_formula_units_Z   1
loop_
 _symmetry_equiv_pos_site_id
 _symmetry_equiv_pos_as_xyz
  1  'x, y, z'
loop_
 _atom_site_type_symbol
 _atom_site_label
 _atom_site_symmetry_multiplicity
 _atom_site_fract_x
 _atom_site_fract_y
 _atom_site_fract_z
 _atom_site_occupancy
  Tb  Tb0  1  0.193245  0.806755  0.249383  1
  Dy  Dy1  1  0.193371  0.386700  0.249325  1
  Dy  Dy2  1  0.613300  0.806629  0.249325  1
  Dy  Dy3  1  0.806693  0.193306  0.750680  1
  Dy  Dy4  1  0.806683  0.613363  0.750672  1
  Dy  Dy5  1  0.386637  0.193317  0.750671  1
  Al  Al6  1  0.560699  0.439302  0.249785  1
  Al  Al7  1  0.560938  0.121627  0.249784  1
  Al  Al8  1  0.878374  0.439062  0.249784  1
  Al  Al9  1  0.439295  0.560705  0.750211  1
  Al  Al10  1  0.439319  0.878614  0.750212  1
  Al  Al11  1  0.121386  0.560681  0.750212  1
  Al  Al12  1  0.324637  0.162425  0.423770  1
  Al  Al13  1  0.837690  0.162310  0.423755  1
  Al  Al14  1  0.837575  0.675362  0.423770  1
  Al  Al15  1  0.675426  0.837712  0.576278  1
  Al  Al16  1  0.162289  0.837710  0.576394  1
  Al  Al17  1  0.162288  0.324574  0.576278  1
  Al  Al18  1  0.675331  0.837664  0.923767  1
  Al  Al19  1  0.162337  0.837663  0.923651  1
  Al  Al20  1  0.162336  0.324669  0.923767  1
  Al  Al21  1  0.324732  0.162474  0.076176  1
  Al  Al22  1  0.837638  0.162363  0.076188  1
  Al  Al23  1  0.837526  0.675268  0.076176  1
  Al  Al24  1  0.666674  0.333326  0.515770  1
  Al  Al25  1  0.333395  0.666605  0.484267  1
  Al  Al26  1  0.333396  0.666603  0.015658  1
  Al  Al27  1  0.666676  0.333324  0.984297  1
  Al  Al28  1  0.999893  0.000107  0.248279  1
  Al  Al29  1  0.000000  0.000000  0.751720  1
  Os  Os30  1  0.999997  0.000003  0.500059  1
  Os  Os31  1  0.500047  0.499953  0.500057  1
  Os  Os32  1  0.500178  0.000112  0.500142  1
  Os  Os33  1  0.999888  0.499822  0.500142  1
  Os  Os34  1  0.500046  0.499954  0.999938  1
  Os  Os35  1  0.500175  0.000108  0.999858  1
  Os  Os36  1  0.999892  0.499826  0.999858  1
  Ru  Ru37  1  0.999997  0.000003  0.999942  1
