# generated using pymatgen
data_Hf18TiNb(FeRe3)2
_symmetry_space_group_name_H-M   'P 1'
_cell_length_a   8.43914401
_cell_length_b   8.63276844
_cell_length_c   8.63282802
_cell_angle_alpha   120.00867756
_cell_angle_beta   89.99429877
_cell_angle_gamma   90.00207679
_symmetry_Int_Tables_number   1
_chemical_formula_structural   Hf18TiNb(FeRe3)2
_chemical_formula_sum   'Hf18 Ti1 Nb1 Fe2 Re6'
_cell_volume   544.62080342
_cell_formula_units_Z   1
loop_
 _symmetry_equiv_pos_site_id
 _symmetry_equiv_pos_as_xyz
  1  'x, y, z'
loop_
 _atom_site_type_symbol
 _atom_site_label
 _atom_site_symmetry_multiplicity
 _atom_site_fract_x
 _atom_site_fract_y
 _atom_site_fract_z
 _atom_site_occupancy
  Hf  Hf0  1  0.559575  0.799682  0.599374  1
  Hf  Hf1  1  0.559632  0.799691  0.200315  1
  Hf  Hf2  1  0.559578  0.400618  0.200312  1
  Hf  Hf3  1  0.440425  0.200318  0.400626  1
  Hf  Hf4  1  0.440368  0.200309  0.799685  1
  Hf  Hf5  1  0.440422  0.599382  0.799688  1
  Hf  Hf6  1  0.060224  0.202387  0.404766  1
  Hf  Hf7  1  0.060251  0.202384  0.797609  1
  Hf  Hf8  1  0.060222  0.595240  0.797612  1
  Hf  Hf9  1  0.939776  0.797613  0.595234  1
  Hf  Hf10  1  0.939749  0.797616  0.202391  1
  Hf  Hf11  1  0.939778  0.404760  0.202388  1
  Hf  Hf12  1  0.749598  0.458023  0.916058  1
  Hf  Hf13  1  0.749597  0.458032  0.541973  1
  Hf  Hf14  1  0.749598  0.083936  0.541973  1
  Hf  Hf15  1  0.250402  0.541976  0.083942  1
  Hf  Hf16  1  0.250403  0.541968  0.458027  1
  Hf  Hf17  1  0.250402  0.916064  0.458026  1
  Ti  Ti18  1  0.500000  0.000000  0.000000  1
  Nb  Nb19  1  0.000000  0.000000  0.000000  1
  Fe  Fe20  1  0.750088  0.666653  0.333377  1
  Fe  Fe21  1  0.249912  0.333347  0.666623  1
  Re  Re22  1  0.747961  0.113719  0.227497  1
  Re  Re23  1  0.747994  0.113765  0.886239  1
  Re  Re24  1  0.747967  0.772505  0.886286  1
  Re  Re25  1  0.252039  0.886281  0.772503  1
  Re  Re26  1  0.252006  0.886235  0.113761  1
  Re  Re27  1  0.252033  0.227495  0.113714  1
