# generated using pymatgen
data_Pu(Pa2Br5)3
_symmetry_space_group_name_H-M   'P 1'
_cell_length_a   9.71786806
_cell_length_b   9.71786746
_cell_length_c   9.71786800
_cell_angle_alpha   109.47121967
_cell_angle_beta   109.47121842
_cell_angle_gamma   109.47121820
_symmetry_Int_Tables_number   1
_chemical_formula_structural   Pu(Pa2Br5)3
_chemical_formula_sum   'Pu1 Pa6 Br15'
_cell_volume   706.46573927
_cell_formula_units_Z   1
loop_
 _symmetry_equiv_pos_site_id
 _symmetry_equiv_pos_as_xyz
  1  'x, y, z'
loop_
 _atom_site_type_symbol
 _atom_site_label
 _atom_site_symmetry_multiplicity
 _atom_site_fract_x
 _atom_site_fract_y
 _atom_site_fract_z
 _atom_site_occupancy
  Pu  Pu0  1  0.000000  0.000000  0.000000  1
  Pa  Pa1  1  0.224881  0.000000  0.224881  1
  Pa  Pa2  1  0.224881  0.224881  0.000000  1
  Pa  Pa3  1  0.775119  0.000000  0.775119  1
  Pa  Pa4  1  0.000000  0.224881  0.224881  1
  Pa  Pa5  1  0.000000  0.775119  0.775119  1
  Pa  Pa6  1  0.775119  0.775119  0.000000  1
  Br  Br7  1  0.000000  0.746377  0.253623  1
  Br  Br8  1  0.253623  0.746377  0.000000  1
  Br  Br9  1  0.492755  0.746377  0.746377  1
  Br  Br10  1  0.000000  0.253623  0.746377  1
  Br  Br11  1  0.746377  0.000000  0.253623  1
  Br  Br12  1  0.253623  0.507245  0.253623  1
  Br  Br13  1  0.746377  0.253623  0.000000  1
  Br  Br14  1  0.500000  0.500000  0.000000  1
  Br  Br15  1  0.253623  0.253623  0.507245  1
  Br  Br16  1  0.746377  0.492755  0.746377  1
  Br  Br17  1  0.746377  0.746377  0.492755  1
  Br  Br18  1  0.507245  0.253623  0.253623  1
  Br  Br19  1  0.253623  0.000000  0.746377  1
  Br  Br20  1  0.000000  0.500000  0.500000  1
  Br  Br21  1  0.500000  0.000000  0.500000  1
