# generated using pymatgen
data_YTm3Sc3AlPt4
_symmetry_space_group_name_H-M   'P 1'
_cell_length_a   4.48925100
_cell_length_b   6.98632497
_cell_length_c   8.28010787
_cell_angle_alpha   86.90812509
_cell_angle_beta   90.00000000
_cell_angle_gamma   90.00000000
_symmetry_Int_Tables_number   1
_chemical_formula_structural   YTm3Sc3AlPt4
_chemical_formula_sum   'Y1 Tm3 Sc3 Al1 Pt4'
_cell_volume   259.31403048
_cell_formula_units_Z   1
loop_
 _symmetry_equiv_pos_site_id
 _symmetry_equiv_pos_as_xyz
  1  'x, y, z'
loop_
 _atom_site_type_symbol
 _atom_site_label
 _atom_site_symmetry_multiplicity
 _atom_site_fract_x
 _atom_site_fract_y
 _atom_site_fract_z
 _atom_site_occupancy
  Y  Y0  1  0.250000  0.039138  0.671834  1
  Tm  Tm1  1  0.250000  0.520749  0.815960  1
  Tm  Tm2  1  0.750000  0.989730  0.341052  1
  Tm  Tm3  1  0.750000  0.467847  0.183073  1
  Sc  Sc4  1  0.250000  0.133984  0.071032  1
  Sc  Sc5  1  0.250000  0.640077  0.435315  1
  Sc  Sc6  1  0.750000  0.860813  0.929664  1
  Al  Al7  1  0.750000  0.361191  0.567740  1
  Pt  Pt8  1  0.250000  0.264103  0.380640  1
  Pt  Pt9  1  0.250000  0.743826  0.101005  1
  Pt  Pt10  1  0.750000  0.730732  0.614861  1
  Pt  Pt11  1  0.750000  0.247810  0.887825  1
