# generated using pymatgen
data_Zr6Ti3Sn6MoN2
_symmetry_space_group_name_H-M   'P 1'
_cell_length_a   8.31111300
_cell_length_b   8.31111276
_cell_length_c   5.57728700
_cell_angle_alpha   90.00000000
_cell_angle_beta   90.00000000
_cell_angle_gamma   119.99999699
_symmetry_Int_Tables_number   1
_chemical_formula_structural   Zr6Ti3Sn6MoN2
_chemical_formula_sum   'Zr6 Ti3 Sn6 Mo1 N2'
_cell_volume   333.63530399
_cell_formula_units_Z   1
loop_
 _symmetry_equiv_pos_site_id
 _symmetry_equiv_pos_as_xyz
  1  'x, y, z'
loop_
 _atom_site_type_symbol
 _atom_site_label
 _atom_site_symmetry_multiplicity
 _atom_site_fract_x
 _atom_site_fract_y
 _atom_site_fract_z
 _atom_site_occupancy
  Zr  Zr0  1  0.776581  0.776303  0.750030  1
  Zr  Zr1  1  0.223697  0.000277  0.750030  1
  Zr  Zr2  1  0.999723  0.223419  0.750030  1
  Zr  Zr3  1  0.223697  0.223419  0.249970  1
  Zr  Zr4  1  0.776581  0.000277  0.249970  1
  Zr  Zr5  1  0.999723  0.776303  0.249970  1
  Ti  Ti6  1  0.333333  0.666667  0.000000  1
  Ti  Ti7  1  0.333333  0.666667  0.500000  1
  Ti  Ti8  1  0.666667  0.333333  0.500000  1
  Sn  Sn9  1  0.411493  0.411226  0.751028  1
  Sn  Sn10  1  0.588774  0.000267  0.751028  1
  Sn  Sn11  1  0.999733  0.588507  0.751028  1
  Sn  Sn12  1  0.588774  0.588507  0.248972  1
  Sn  Sn13  1  0.411493  0.000267  0.248972  1
  Sn  Sn14  1  0.999733  0.411226  0.248972  1
  Mo  Mo15  1  0.666667  0.333333  0.000000  1
  N  N16  1  0.000000  0.000000  0.000000  1
  N  N17  1  0.000000  0.000000  0.500000  1
