# generated using pymatgen
data_Th2HgH4
_symmetry_space_group_name_H-M   'P 1'
_cell_length_a   6.36590634
_cell_length_b   6.36590743
_cell_length_c   6.36590683
_cell_angle_alpha   105.59141513
_cell_angle_beta   105.59142529
_cell_angle_gamma   117.54524023
_symmetry_Int_Tables_number   1
_chemical_formula_structural   Th2HgH4
_chemical_formula_sum   'Th4 Hg2 H8'
_cell_volume   195.59440221
_cell_formula_units_Z   2
loop_
 _symmetry_equiv_pos_site_id
 _symmetry_equiv_pos_as_xyz
  1  'x, y, z'
loop_
 _atom_site_type_symbol
 _atom_site_label
 _atom_site_symmetry_multiplicity
 _atom_site_fract_x
 _atom_site_fract_y
 _atom_site_fract_z
 _atom_site_occupancy
  Th  Th0  1  0.836498  0.663502  0.500000  1
  Th  Th1  1  0.663502  0.163502  0.827006  1
  Th  Th2  1  0.163502  0.336498  0.500000  1
  Th  Th3  1  0.336498  0.836498  0.172994  1
  Hg  Hg4  1  0.750000  0.750000  0.000000  1
  Hg  Hg5  1  0.250000  0.250000  0.000000  1
  H  H6  1  0.221468  0.980841  0.500000  1
  H  H7  1  0.480841  0.721468  0.500000  1
  H  H8  1  0.721468  0.221468  0.240628  1
  H  H9  1  0.980841  0.480841  0.759372  1
  H  H10  1  0.278532  0.778532  0.759372  1
  H  H11  1  0.519159  0.278532  0.500000  1
  H  H12  1  0.019159  0.519159  0.240628  1
  H  H13  1  0.778532  0.019159  0.500000  1
