# generated using pymatgen
data_La4NiGe8Au7
_symmetry_space_group_name_H-M   'P 1'
_cell_length_a   4.49106306
_cell_length_b   9.01439196
_cell_length_c   10.32915654
_cell_angle_alpha   89.81883049
_cell_angle_beta   89.99121994
_cell_angle_gamma   90.01064730
_symmetry_Int_Tables_number   1
_chemical_formula_structural   La4NiGe8Au7
_chemical_formula_sum   'La4 Ni1 Ge8 Au7'
_cell_volume   418.16556508
_cell_formula_units_Z   1
loop_
 _symmetry_equiv_pos_site_id
 _symmetry_equiv_pos_as_xyz
  1  'x, y, z'
loop_
 _atom_site_type_symbol
 _atom_site_label
 _atom_site_symmetry_multiplicity
 _atom_site_fract_x
 _atom_site_fract_y
 _atom_site_fract_z
 _atom_site_occupancy
  La  La0  1  0.253066  0.872724  0.245667  1
  La  La1  1  0.751635  0.625394  0.756952  1
  La  La2  1  0.247764  0.375770  0.245650  1
  La  La3  1  0.747764  0.125740  0.756115  1
  Ni  Ni4  1  0.752503  0.625811  0.116699  1
  Ge  Ge5  1  0.250870  0.123604  0.999164  1
  Ge  Ge6  1  0.757684  0.621632  0.346141  1
  Ge  Ge7  1  0.734660  0.120429  0.371303  1
  Ge  Ge8  1  0.252513  0.624069  0.016454  1
  Ge  Ge9  1  0.237515  0.381719  0.631231  1
  Ge  Ge10  1  0.749452  0.392049  0.009446  1
  Ge  Ge11  1  0.265866  0.877259  0.630344  1
  Ge  Ge12  1  0.750356  0.860069  0.009137  1
  Au  Au13  1  0.259349  0.628219  0.492505  1
  Au  Au14  1  0.751652  0.125750  0.125290  1
  Au  Au15  1  0.234294  0.129793  0.503694  1
  Au  Au16  1  0.765594  0.863063  0.497420  1
  Au  Au17  1  0.250175  0.376961  0.875401  1
  Au  Au18  1  0.249102  0.870940  0.874604  1
  Au  Au19  1  0.738186  0.379007  0.496782  1
