# generated using pymatgen
data_Dy2Er5Th(CdNi)2
_symmetry_space_group_name_H-M   'P 1'
_cell_length_a   9.54786943
_cell_length_b   9.54714377
_cell_length_c   9.55107903
_cell_angle_alpha   59.99138089
_cell_angle_beta   59.98384905
_cell_angle_gamma   60.02969838
_symmetry_Int_Tables_number   1
_chemical_formula_structural   Dy2Er5Th(CdNi)2
_chemical_formula_sum   'Dy4 Er10 Th2 Cd4 Ni4'
_cell_volume   615.64929926
_cell_formula_units_Z   2
loop_
 _symmetry_equiv_pos_site_id
 _symmetry_equiv_pos_as_xyz
  1  'x, y, z'
loop_
 _atom_site_type_symbol
 _atom_site_label
 _atom_site_symmetry_multiplicity
 _atom_site_fract_x
 _atom_site_fract_y
 _atom_site_fract_z
 _atom_site_occupancy
  Dy  Dy0  1  0.814143  0.186652  0.815939  1
  Dy  Dy1  1  0.186652  0.814143  0.183266  1
  Dy  Dy2  1  0.814839  0.814839  0.185161  1
  Dy  Dy3  1  0.185146  0.185146  0.814854  1
  Er  Er4  1  0.598151  0.201314  0.599980  1
  Er  Er5  1  0.201314  0.598151  0.600557  1
  Er  Er6  1  0.062877  0.438983  0.437407  1
  Er  Er7  1  0.438983  0.062877  0.060733  1
  Er  Er8  1  0.438895  0.062844  0.437478  1
  Er  Er9  1  0.062844  0.438895  0.060784  1
  Er  Er10  1  0.437941  0.437941  0.062059  1
  Er  Er11  1  0.061995  0.061995  0.438005  1
  Er  Er12  1  0.187067  0.813710  0.815399  1
  Er  Er13  1  0.813710  0.187067  0.183824  1
  Th  Th14  1  0.593901  0.594213  0.600898  1
  Th  Th15  1  0.594213  0.593901  0.210988  1
  Cd  Cd16  1  0.832987  0.832636  0.829466  1
  Cd  Cd17  1  0.832636  0.832987  0.504910  1
  Cd  Cd18  1  0.833993  0.505157  0.830557  1
  Cd  Cd19  1  0.505157  0.833993  0.830293  1
  Ni  Ni20  1  0.393409  0.393073  0.391273  1
  Ni  Ni21  1  0.393073  0.393409  0.822246  1
  Ni  Ni22  1  0.395666  0.820412  0.392129  1
  Ni  Ni23  1  0.820412  0.395666  0.391795  1
