# generated using pymatgen
data_Ba5NbSbI2O9
_symmetry_space_group_name_H-M   'P 1'
_cell_length_a   6.08110700
_cell_length_b   6.08110662
_cell_length_c   27.11640800
_cell_angle_alpha   90.00000000
_cell_angle_beta   90.00000000
_cell_angle_gamma   119.99999660
_symmetry_Int_Tables_number   1
_chemical_formula_structural   Ba5NbSbI2O9
_chemical_formula_sum   'Ba10 Nb2 Sb2 I4 O18'
_cell_volume   868.41650643
_cell_formula_units_Z   2
loop_
 _symmetry_equiv_pos_site_id
 _symmetry_equiv_pos_as_xyz
  1  'x, y, z'
loop_
 _atom_site_type_symbol
 _atom_site_label
 _atom_site_symmetry_multiplicity
 _atom_site_fract_x
 _atom_site_fract_y
 _atom_site_fract_z
 _atom_site_occupancy
  Ba  Ba0  1  0.333333  0.666667  0.904653  1
  Ba  Ba1  1  0.666667  0.333333  0.404653  1
  Ba  Ba2  1  0.666667  0.333333  0.092049  1
  Ba  Ba3  1  0.333333  0.666667  0.180333  1
  Ba  Ba4  1  0.666667  0.333333  0.680333  1
  Ba  Ba5  1  0.333333  0.666667  0.324943  1
  Ba  Ba6  1  0.666667  0.333333  0.824943  1
  Ba  Ba7  1  0.666667  0.333333  0.254381  1
  Ba  Ba8  1  0.333333  0.666667  0.592049  1
  Ba  Ba9  1  0.333333  0.666667  0.754381  1
  Nb  Nb10  1  0.000000  0.000000  0.690821  1
  Nb  Nb11  1  0.000000  0.000000  0.190821  1
  Sb  Sb12  1  0.000000  0.000000  0.802853  1
  Sb  Sb13  1  0.000000  0.000000  0.302853  1
  I  I14  1  0.333333  0.666667  0.454591  1
  I  I15  1  0.333333  0.666667  0.049390  1
  I  I16  1  0.666667  0.333333  0.549390  1
  I  I17  1  0.666667  0.333333  0.954591  1
  O  O18  1  0.162628  0.837372  0.661092  1
  O  O19  1  0.672397  0.836198  0.837327  1
  O  O20  1  0.162628  0.325255  0.661092  1
  O  O21  1  0.852208  0.147792  0.750243  1
  O  O22  1  0.295584  0.147792  0.750243  1
  O  O23  1  0.147792  0.295584  0.250243  1
  O  O24  1  0.147792  0.852208  0.250243  1
  O  O25  1  0.704416  0.852208  0.250243  1
  O  O26  1  0.836198  0.163802  0.337327  1
  O  O27  1  0.325255  0.162628  0.161092  1
  O  O28  1  0.852208  0.704416  0.750243  1
  O  O29  1  0.837372  0.674745  0.161092  1
  O  O30  1  0.327603  0.163802  0.337327  1
  O  O31  1  0.837372  0.162628  0.161092  1
  O  O32  1  0.163802  0.327603  0.837327  1
  O  O33  1  0.836198  0.672397  0.337327  1
  O  O34  1  0.674745  0.837372  0.661092  1
  O  O35  1  0.163802  0.836198  0.837327  1
