# generated using pymatgen
data_YTm2B7W
_symmetry_space_group_name_H-M   'P 1'
_cell_length_a   8.07930500
_cell_length_b   8.07930511
_cell_length_c   9.46271700
_cell_angle_alpha   90.00000000
_cell_angle_beta   90.00000000
_cell_angle_gamma   155.46529703
_symmetry_Int_Tables_number   1
_chemical_formula_structural   YTm2B7W
_chemical_formula_sum   'Y2 Tm4 B14 W2'
_cell_volume   256.48829925
_cell_formula_units_Z   2
loop_
 _symmetry_equiv_pos_site_id
 _symmetry_equiv_pos_as_xyz
  1  'x, y, z'
loop_
 _atom_site_type_symbol
 _atom_site_label
 _atom_site_symmetry_multiplicity
 _atom_site_fract_x
 _atom_site_fract_y
 _atom_site_fract_z
 _atom_site_occupancy
  Y  Y0  1  0.246657  0.753343  0.250000  1
  Y  Y1  1  0.753343  0.246657  0.750000  1
  Tm  Tm2  1  0.892927  0.107073  0.441143  1
  Tm  Tm3  1  0.107073  0.892927  0.558857  1
  Tm  Tm4  1  0.892927  0.107073  0.058857  1
  Tm  Tm5  1  0.107073  0.892927  0.941143  1
  B  B6  1  0.727628  0.272372  0.467448  1
  B  B7  1  0.272372  0.727628  0.532552  1
  B  B8  1  0.727628  0.272372  0.032552  1
  B  B9  1  0.272372  0.727628  0.967448  1
  B  B10  1  0.635001  0.364999  0.146659  1
  B  B11  1  0.364999  0.635001  0.853341  1
  B  B12  1  0.635001  0.364999  0.353341  1
  B  B13  1  0.364999  0.635001  0.646659  1
  B  B14  1  0.518843  0.481157  0.091256  1
  B  B15  1  0.481157  0.518843  0.908744  1
  B  B16  1  0.518843  0.481157  0.408744  1
  B  B17  1  0.481157  0.518843  0.591256  1
  B  B18  1  0.452486  0.547514  0.250000  1
  B  B19  1  0.547514  0.452486  0.750000  1
  W  W20  1  0.052453  0.947547  0.250000  1
  W  W21  1  0.947547  0.052453  0.750000  1
