# generated using pymatgen
data_Y13Er3MgCo4Ag3
_symmetry_space_group_name_H-M   'P 1'
_cell_length_a   9.48099599
_cell_length_b   9.47854909
_cell_length_c   9.47854900
_cell_angle_alpha   60.00000379
_cell_angle_beta   60.00854081
_cell_angle_gamma   60.00853916
_symmetry_Int_Tables_number   1
_chemical_formula_structural   Y13Er3MgCo4Ag3
_chemical_formula_sum   'Y13 Er3 Mg1 Co4 Ag3'
_cell_volume   602.39137895
_cell_formula_units_Z   1
loop_
 _symmetry_equiv_pos_site_id
 _symmetry_equiv_pos_as_xyz
  1  'x, y, z'
loop_
 _atom_site_type_symbol
 _atom_site_label
 _atom_site_symmetry_multiplicity
 _atom_site_fract_x
 _atom_site_fract_y
 _atom_site_fract_z
 _atom_site_occupancy
  Y  Y0  1  0.948892  0.350369  0.350369  1
  Y  Y1  1  0.809327  0.189014  0.189014  1
  Y  Y2  1  0.186976  0.812760  0.812760  1
  Y  Y3  1  0.186976  0.812760  0.187505  1
  Y  Y4  1  0.809327  0.189014  0.812645  1
  Y  Y5  1  0.186976  0.187505  0.812760  1
  Y  Y6  1  0.809327  0.812645  0.189014  1
  Y  Y7  1  0.936313  0.562807  0.562807  1
  Y  Y8  1  0.561472  0.937362  0.937362  1
  Y  Y9  1  0.561472  0.937362  0.563804  1
  Y  Y10  1  0.936313  0.562807  0.938074  1
  Y  Y11  1  0.561472  0.563804  0.937362  1
  Y  Y12  1  0.936313  0.938074  0.562807  1
  Er  Er13  1  0.346046  0.345473  0.345473  1
  Er  Er14  1  0.346046  0.345473  0.963007  1
  Er  Er15  1  0.346046  0.963007  0.345473  1
  Mg  Mg16  1  0.288042  0.570652  0.570652  1
  Co  Co17  1  0.141739  0.142430  0.142430  1
  Co  Co18  1  0.141739  0.142430  0.573401  1
  Co  Co19  1  0.141739  0.573401  0.142430  1
  Co  Co20  1  0.571053  0.142982  0.142982  1
  Ag  Ag21  1  0.582131  0.582575  0.582575  1
  Ag  Ag22  1  0.582131  0.582575  0.252719  1
  Ag  Ag23  1  0.582131  0.252719  0.582575  1
