# generated using pymatgen
data_K3CrSe4
_symmetry_space_group_name_H-M   'P 1'
_cell_length_a   9.59373100
_cell_length_b   9.70179600
_cell_length_c   10.90568000
_cell_angle_alpha   90.00000000
_cell_angle_beta   90.00000000
_cell_angle_gamma   90.00000000
_symmetry_Int_Tables_number   1
_chemical_formula_structural   K3CrSe4
_chemical_formula_sum   'K12 Cr4 Se16'
_cell_volume   1015.06166342
_cell_formula_units_Z   4
loop_
 _symmetry_equiv_pos_site_id
 _symmetry_equiv_pos_as_xyz
  1  'x, y, z'
loop_
 _atom_site_type_symbol
 _atom_site_label
 _atom_site_symmetry_multiplicity
 _atom_site_fract_x
 _atom_site_fract_y
 _atom_site_fract_z
 _atom_site_occupancy
  K  K0  1  0.942402  0.701383  0.009342  1
  K  K1  1  0.057598  0.298617  0.509342  1
  K  K2  1  0.557598  0.201383  0.509342  1
  K  K3  1  0.442402  0.798617  0.009342  1
  K  K4  1  0.942924  0.702715  0.418281  1
  K  K5  1  0.057076  0.297285  0.918281  1
  K  K6  1  0.557076  0.202715  0.918281  1
  K  K7  1  0.442924  0.797285  0.418281  1
  K  K8  1  0.638250  0.419150  0.216523  1
  K  K9  1  0.361750  0.580850  0.716523  1
  K  K10  1  0.861750  0.919150  0.716523  1
  K  K11  1  0.138250  0.080850  0.216523  1
  Cr  Cr12  1  0.719253  0.982613  0.212198  1
  Cr  Cr13  1  0.280747  0.017387  0.712198  1
  Cr  Cr14  1  0.780747  0.482613  0.712198  1
  Cr  Cr15  1  0.219253  0.517387  0.212198  1
  Se  Se16  1  0.692163  0.750161  0.213718  1
  Se  Se17  1  0.307837  0.249839  0.713718  1
  Se  Se18  1  0.807837  0.250161  0.713718  1
  Se  Se19  1  0.192163  0.749839  0.213718  1
  Se  Se20  1  0.837819  0.042052  0.040097  1
  Se  Se21  1  0.162181  0.957948  0.540097  1
  Se  Se22  1  0.662181  0.542052  0.540097  1
  Se  Se23  1  0.337819  0.457948  0.040097  1
  Se  Se24  1  0.504849  0.084802  0.211899  1
  Se  Se25  1  0.495151  0.915198  0.711899  1
  Se  Se26  1  0.995151  0.584802  0.711899  1
  Se  Se27  1  0.004849  0.415198  0.211899  1
  Se  Se28  1  0.837756  0.045300  0.383341  1
  Se  Se29  1  0.162244  0.954700  0.883341  1
  Se  Se30  1  0.662244  0.545300  0.883341  1
  Se  Se31  1  0.337756  0.454700  0.383341  1
