# generated using pymatgen
data_Ho16CdHg3OsRh3
_symmetry_space_group_name_H-M   'P 1'
_cell_length_a   9.56040721
_cell_length_b   9.54541892
_cell_length_c   9.59509504
_cell_angle_alpha   60.05618175
_cell_angle_beta   60.11952177
_cell_angle_gamma   59.94804488
_symmetry_Int_Tables_number   1
_chemical_formula_structural   Ho16CdHg3OsRh3
_chemical_formula_sum   'Ho16 Cd1 Hg3 Os1 Rh3'
_cell_volume   619.74003182
_cell_formula_units_Z   1
loop_
 _symmetry_equiv_pos_site_id
 _symmetry_equiv_pos_as_xyz
  1  'x, y, z'
loop_
 _atom_site_type_symbol
 _atom_site_label
 _atom_site_symmetry_multiplicity
 _atom_site_fract_x
 _atom_site_fract_y
 _atom_site_fract_z
 _atom_site_occupancy
  Ho  Ho0  1  0.936596  0.937346  0.562112  1
  Ho  Ho1  1  0.560429  0.561555  0.935662  1
  Ho  Ho2  1  0.689489  0.691013  0.309590  1
  Ho  Ho3  1  0.149647  0.552297  0.148407  1
  Ho  Ho4  1  0.687074  0.312201  0.690884  1
  Ho  Ho5  1  0.151142  0.149628  0.150263  1
  Ho  Ho6  1  0.548964  0.149628  0.150263  1
  Ho  Ho7  1  0.689400  0.311455  0.309743  1
  Ho  Ho8  1  0.149978  0.147510  0.552533  1
  Ho  Ho9  1  0.309907  0.691013  0.309590  1
  Ho  Ho10  1  0.310431  0.688298  0.690839  1
  Ho  Ho11  1  0.936881  0.564774  0.561463  1
  Ho  Ho12  1  0.942354  0.561555  0.935662  1
  Ho  Ho13  1  0.563945  0.937346  0.562112  1
  Ho  Ho14  1  0.560757  0.943359  0.935126  1
  Ho  Ho15  1  0.309841  0.312201  0.690884  1
  Cd  Cd16  1  0.919457  0.242114  0.918974  1
  Hg  Hg17  1  0.914619  0.916492  0.254270  1
  Hg  Hg18  1  0.253903  0.916737  0.914245  1
  Hg  Hg19  1  0.915116  0.916737  0.914245  1
  Os  Os20  1  0.358360  0.356418  0.926862  1
  Rh  Rh21  1  0.357842  0.925847  0.358468  1
  Rh  Rh22  1  0.925568  0.357235  0.358900  1
  Rh  Rh23  1  0.358295  0.357235  0.358900  1
