# generated using pymatgen
data_Rb3La(PO4)2
_symmetry_space_group_name_H-M   'P 1'
_cell_length_a   5.93647800
_cell_length_b   5.93647784
_cell_length_c   8.19718900
_cell_angle_alpha   90.00000000
_cell_angle_beta   90.00000000
_cell_angle_gamma   120.00001201
_symmetry_Int_Tables_number   1
_chemical_formula_structural   Rb3La(PO4)2
_chemical_formula_sum   'Rb3 La1 P2 O8'
_cell_volume   250.18037648
_cell_formula_units_Z   1
loop_
 _symmetry_equiv_pos_site_id
 _symmetry_equiv_pos_as_xyz
  1  'x, y, z'
loop_
 _atom_site_type_symbol
 _atom_site_label
 _atom_site_symmetry_multiplicity
 _atom_site_fract_x
 _atom_site_fract_y
 _atom_site_fract_z
 _atom_site_occupancy
  Rb  Rb0  1  0.333333  0.666667  0.740866  1
  Rb  Rb1  1  0.666667  0.333333  0.259134  1
  Rb  Rb2  1  0.000000  0.000000  0.000000  1
  La  La3  1  0.000000  0.000000  0.500000  1
  P  P4  1  0.333333  0.666667  0.260982  1
  P  P5  1  0.666667  0.333333  0.739018  1
  O  O6  1  0.333333  0.666667  0.075155  1
  O  O7  1  0.666667  0.333333  0.924845  1
  O  O8  1  0.190173  0.809827  0.329585  1
  O  O9  1  0.809827  0.190173  0.670415  1
  O  O10  1  0.190173  0.380346  0.329585  1
  O  O11  1  0.809827  0.619654  0.670415  1
  O  O12  1  0.619654  0.809827  0.329585  1
  O  O13  1  0.380346  0.190173  0.670415  1
