# generated using pymatgen
data_K4Os2Cl10O
_symmetry_space_group_name_H-M   'P 1'
_cell_length_a   7.27173286
_cell_length_b   7.27173315
_cell_length_c   10.16066158
_cell_angle_alpha   110.96745793
_cell_angle_beta   110.96745913
_cell_angle_gamma   89.99999169
_symmetry_Int_Tables_number   1
_chemical_formula_structural   K4Os2Cl10O
_chemical_formula_sum   'K4 Os2 Cl10 O1'
_cell_volume   463.40041218
_cell_formula_units_Z   1
loop_
 _symmetry_equiv_pos_site_id
 _symmetry_equiv_pos_as_xyz
  1  'x, y, z'
loop_
 _atom_site_type_symbol
 _atom_site_label
 _atom_site_symmetry_multiplicity
 _atom_site_fract_x
 _atom_site_fract_y
 _atom_site_fract_z
 _atom_site_occupancy
  K  K0  1  0.500000  0.000000  0.000000  1
  K  K1  1  0.000000  0.500000  0.000000  1
  K  K2  1  0.750000  0.250000  0.500000  1
  K  K3  1  0.250000  0.750000  0.500000  1
  Os  Os4  1  0.103945  0.103945  0.207890  1
  Os  Os5  1  0.896055  0.896055  0.792111  1
  Cl  Cl6  1  0.344409  0.344409  0.223126  1
  Cl  Cl7  1  0.878717  0.344409  0.223126  1
  Cl  Cl8  1  0.344409  0.878717  0.223126  1
  Cl  Cl9  1  0.878717  0.878717  0.223126  1
  Cl  Cl10  1  0.237662  0.237662  0.475324  1
  Cl  Cl11  1  0.762339  0.762339  0.524676  1
  Cl  Cl12  1  0.121283  0.121283  0.776874  1
  Cl  Cl13  1  0.655591  0.121283  0.776874  1
  Cl  Cl14  1  0.121283  0.655591  0.776874  1
  Cl  Cl15  1  0.655591  0.655591  0.776874  1
  O  O16  1  0.000000  0.000000  0.000000  1
