# generated using pymatgen
data_K2MgAs2O7
_symmetry_space_group_name_H-M   'P 1'
_cell_length_a   8.31292900
_cell_length_b   8.31292900
_cell_length_c   11.31680300
_cell_angle_alpha   90.00000000
_cell_angle_beta   90.00000000
_cell_angle_gamma   90.00000000
_symmetry_Int_Tables_number   1
_chemical_formula_structural   K2MgAs2O7
_chemical_formula_sum   'K8 Mg4 As8 O28'
_cell_volume   782.04527848
_cell_formula_units_Z   4
loop_
 _symmetry_equiv_pos_site_id
 _symmetry_equiv_pos_as_xyz
  1  'x, y, z'
loop_
 _atom_site_type_symbol
 _atom_site_label
 _atom_site_symmetry_multiplicity
 _atom_site_fract_x
 _atom_site_fract_y
 _atom_site_fract_z
 _atom_site_occupancy
  K  K0  1  0.816460  0.816460  0.000000  1
  K  K1  1  0.683540  0.316460  0.500000  1
  K  K2  1  0.316460  0.683540  0.500000  1
  K  K3  1  0.183540  0.183540  0.000000  1
  K  K4  1  0.647097  0.352903  0.000000  1
  K  K5  1  0.147097  0.147097  0.500000  1
  K  K6  1  0.852903  0.852903  0.500000  1
  K  K7  1  0.352903  0.647097  0.000000  1
  Mg  Mg8  1  0.000000  0.500000  0.750000  1
  Mg  Mg9  1  0.000000  0.500000  0.250000  1
  Mg  Mg10  1  0.500000  0.000000  0.750000  1
  Mg  Mg11  1  0.500000  0.000000  0.250000  1
  As  As12  1  0.640825  0.640825  0.717285  1
  As  As13  1  0.359175  0.359175  0.717285  1
  As  As14  1  0.640825  0.640825  0.282715  1
  As  As15  1  0.140825  0.859175  0.217285  1
  As  As16  1  0.859175  0.140825  0.217285  1
  As  As17  1  0.859175  0.140825  0.782715  1
  As  As18  1  0.140825  0.859175  0.782715  1
  As  As19  1  0.359175  0.359175  0.282715  1
  O  O20  1  0.635231  0.635231  0.865136  1
  O  O21  1  0.364769  0.364769  0.865136  1
  O  O22  1  0.635231  0.635231  0.134864  1
  O  O23  1  0.135231  0.864769  0.365136  1
  O  O24  1  0.864769  0.135231  0.365136  1
  O  O25  1  0.864769  0.135231  0.634864  1
  O  O26  1  0.135231  0.864769  0.634864  1
  O  O27  1  0.364769  0.364769  0.134864  1
  O  O28  1  0.420193  0.182539  0.346236  1
  O  O29  1  0.579807  0.817461  0.346236  1
  O  O30  1  0.182539  0.420193  0.653764  1
  O  O31  1  0.682539  0.079807  0.846236  1
  O  O32  1  0.317461  0.920193  0.846236  1
  O  O33  1  0.079807  0.682539  0.153764  1
  O  O34  1  0.920193  0.317461  0.153764  1
  O  O35  1  0.817461  0.579807  0.653764  1
  O  O36  1  0.579807  0.817461  0.653764  1
  O  O37  1  0.420193  0.182539  0.653764  1
  O  O38  1  0.817461  0.579807  0.346236  1
  O  O39  1  0.317461  0.920193  0.153764  1
  O  O40  1  0.000000  0.000000  0.151913  1
  O  O41  1  0.500000  0.500000  0.651913  1
  O  O42  1  0.500000  0.500000  0.348087  1
  O  O43  1  0.000000  0.000000  0.848087  1
  O  O44  1  0.182539  0.420193  0.346236  1
  O  O45  1  0.079807  0.682539  0.846236  1
  O  O46  1  0.920193  0.317461  0.846236  1
  O  O47  1  0.682539  0.079807  0.153764  1
