# generated using pymatgen
data_Ho2Sc3GaSi3
_symmetry_space_group_name_H-M   'P 1'
_cell_length_a   7.12303506
_cell_length_b   7.40260900
_cell_length_c   14.12244544
_cell_angle_alpha   90.00528085
_cell_angle_beta   89.87461935
_cell_angle_gamma   90.13290425
_symmetry_Int_Tables_number   1
_chemical_formula_structural   Ho2Sc3GaSi3
_chemical_formula_sum   'Ho8 Sc12 Ga4 Si12'
_cell_volume   744.65924942
_cell_formula_units_Z   4
loop_
 _symmetry_equiv_pos_site_id
 _symmetry_equiv_pos_as_xyz
  1  'x, y, z'
loop_
 _atom_site_type_symbol
 _atom_site_label
 _atom_site_symmetry_multiplicity
 _atom_site_fract_x
 _atom_site_fract_y
 _atom_site_fract_z
 _atom_site_occupancy
  Ho  Ho0  1  0.013636  0.174679  0.097316  1
  Ho  Ho1  1  0.987910  0.824884  0.901648  1
  Ho  Ho2  1  0.486914  0.676788  0.901396  1
  Ho  Ho3  1  0.987418  0.827422  0.600087  1
  Ho  Ho4  1  0.510928  0.321656  0.097458  1
  Ho  Ho5  1  0.010067  0.174611  0.400763  1
  Ho  Ho6  1  0.511374  0.324667  0.400646  1
  Ho  Ho7  1  0.489942  0.675848  0.600366  1
  Sc  Sc8  1  0.162420  0.501513  0.751111  1
  Sc  Sc9  1  0.837022  0.497779  0.250153  1
  Sc  Sc10  1  0.336747  0.002547  0.248692  1
  Sc  Sc11  1  0.662858  0.997920  0.749902  1
  Sc  Sc12  1  0.332655  0.175112  0.627237  1
  Sc  Sc13  1  0.669730  0.825713  0.374024  1
  Sc  Sc14  1  0.170405  0.674514  0.373352  1
  Sc  Sc15  1  0.668994  0.825625  0.125448  1
  Sc  Sc16  1  0.828863  0.324057  0.626402  1
  Sc  Sc17  1  0.330412  0.175852  0.874685  1
  Sc  Sc18  1  0.829262  0.323040  0.874210  1
  Sc  Sc19  1  0.172797  0.675833  0.124678  1
  Ga  Ga20  1  0.161373  0.461942  0.539815  1
  Ga  Ga21  1  0.839422  0.537519  0.461125  1
  Ga  Ga22  1  0.339928  0.962372  0.461276  1
  Ga  Ga23  1  0.840041  0.537620  0.038816  1
  Si  Si24  1  0.032834  0.116403  0.751037  1
  Si  Si25  1  0.966899  0.884050  0.249415  1
  Si  Si26  1  0.467270  0.614685  0.248639  1
  Si  Si27  1  0.532772  0.384881  0.750975  1
  Si  Si28  1  0.285848  0.871812  0.750947  1
  Si  Si29  1  0.715194  0.127573  0.248844  1
  Si  Si30  1  0.214393  0.372385  0.248981  1
  Si  Si31  1  0.786508  0.628657  0.751258  1
  Si  Si32  1  0.658087  0.036024  0.539382  1
  Si  Si33  1  0.158235  0.463795  0.960748  1
  Si  Si34  1  0.656718  0.035729  0.961223  1
  Si  Si35  1  0.344123  0.964490  0.037948  1
