# generated using pymatgen
data_Tm4Al17SiNiRh5
_symmetry_space_group_name_H-M   'P 1'
_cell_length_a   7.50517323
_cell_length_b   7.50517344
_cell_length_c   9.33053113
_cell_angle_alpha   90.14241012
_cell_angle_beta   90.14240651
_cell_angle_gamma   119.59866872
_symmetry_Int_Tables_number   1
_chemical_formula_structural   Tm4Al17SiNiRh5
_chemical_formula_sum   'Tm4 Al17 Si1 Ni1 Rh5'
_cell_volume   456.97801273
_cell_formula_units_Z   1
loop_
 _symmetry_equiv_pos_site_id
 _symmetry_equiv_pos_as_xyz
  1  'x, y, z'
loop_
 _atom_site_type_symbol
 _atom_site_label
 _atom_site_symmetry_multiplicity
 _atom_site_fract_x
 _atom_site_fract_y
 _atom_site_fract_z
 _atom_site_occupancy
  Tm  Tm0  1  0.992482  0.675802  0.249137  1
  Tm  Tm1  1  0.005310  0.330569  0.750943  1
  Tm  Tm2  1  0.675802  0.992482  0.249137  1
  Tm  Tm3  1  0.330569  0.005310  0.750943  1
  Al  Al4  1  0.878896  0.878896  0.752275  1
  Al  Al5  1  0.999811  0.334588  0.077545  1
  Al  Al6  1  0.000370  0.667054  0.924018  1
  Al  Al7  1  0.999959  0.665932  0.576506  1
  Al  Al8  1  0.336713  0.000043  0.422426  1
  Al  Al9  1  0.000043  0.336713  0.422426  1
  Al  Al10  1  0.665932  0.999959  0.576506  1
  Al  Al11  1  0.667054  0.000370  0.924018  1
  Al  Al12  1  0.334588  0.999811  0.077545  1
  Al  Al13  1  0.331262  0.331262  0.558435  1
  Al  Al14  1  0.663785  0.663785  0.447478  1
  Al  Al15  1  0.666523  0.666523  0.050819  1
  Al  Al16  1  0.329724  0.329724  0.943245  1
  Al  Al17  1  0.335623  0.549775  0.249779  1
  Al  Al18  1  0.662346  0.451256  0.750546  1
  Al  Al19  1  0.549775  0.335623  0.249779  1
  Al  Al20  1  0.451256  0.662346  0.750546  1
  Si  Si21  1  0.126800  0.126800  0.245727  1
  Ni  Ni22  1  0.000803  0.000803  0.007288  1
  Rh  Rh23  1  0.670600  0.326400  0.000662  1
  Rh  Rh24  1  0.326400  0.670600  0.000662  1
  Rh  Rh25  1  0.326446  0.670660  0.499720  1
  Rh  Rh26  1  0.670660  0.326446  0.499720  1
  Rh  Rh27  1  0.000468  0.000468  0.492168  1
