# generated using pymatgen
data_Ca6TmHf(Si4Mo3)4
_symmetry_space_group_name_H-M   'P 1'
_cell_length_a   6.71276339
_cell_length_b   6.91971651
_cell_length_c   12.99539302
_cell_angle_alpha   89.72541910
_cell_angle_beta   89.88780548
_cell_angle_gamma   90.20398046
_symmetry_Int_Tables_number   1
_chemical_formula_structural   Ca6TmHf(Si4Mo3)4
_chemical_formula_sum   'Ca6 Tm1 Hf1 Si16 Mo12'
_cell_volume   603.62952461
_cell_formula_units_Z   1
loop_
 _symmetry_equiv_pos_site_id
 _symmetry_equiv_pos_as_xyz
  1  'x, y, z'
loop_
 _atom_site_type_symbol
 _atom_site_label
 _atom_site_symmetry_multiplicity
 _atom_site_fract_x
 _atom_site_fract_y
 _atom_site_fract_z
 _atom_site_occupancy
  Ca  Ca0  1  0.997805  0.165877  0.091199  1
  Ca  Ca1  1  0.002202  0.835100  0.908240  1
  Ca  Ca2  1  0.502762  0.665266  0.909528  1
  Ca  Ca3  1  0.001977  0.833996  0.590462  1
  Ca  Ca4  1  0.497370  0.332768  0.091013  1
  Ca  Ca5  1  0.999401  0.167653  0.410157  1
  Tm  Tm6  1  0.499259  0.330100  0.406948  1
  Hf  Hf7  1  0.500897  0.673202  0.599236  1
  Si  Si8  1  0.034632  0.133528  0.747025  1
  Si  Si9  1  0.964865  0.870200  0.251808  1
  Si  Si10  1  0.465167  0.624492  0.249626  1
  Si  Si11  1  0.534560  0.374163  0.748123  1
  Si  Si12  1  0.301358  0.867733  0.749194  1
  Si  Si13  1  0.699152  0.129074  0.250713  1
  Si  Si14  1  0.196330  0.367785  0.250285  1
  Si  Si15  1  0.802533  0.633742  0.749506  1
  Si  Si16  1  0.169100  0.462445  0.545547  1
  Si  Si17  1  0.836170  0.542644  0.456957  1
  Si  Si18  1  0.341310  0.953091  0.457864  1
  Si  Si19  1  0.842435  0.543412  0.046071  1
  Si  Si20  1  0.658245  0.039189  0.545244  1
  Si  Si21  1  0.156666  0.456595  0.952314  1
  Si  Si22  1  0.657276  0.043809  0.953001  1
  Si  Si23  1  0.342003  0.956485  0.045712  1
  Mo  Mo24  1  0.166447  0.498209  0.746167  1
  Mo  Mo25  1  0.836148  0.506526  0.252559  1
  Mo  Mo26  1  0.338830  0.990216  0.252603  1
  Mo  Mo27  1  0.661502  0.004645  0.745869  1
  Mo  Mo28  1  0.335336  0.166398  0.623911  1
  Mo  Mo29  1  0.661857  0.828104  0.376341  1
  Mo  Mo30  1  0.170242  0.665397  0.374684  1
  Mo  Mo31  1  0.664403  0.832226  0.129406  1
  Mo  Mo32  1  0.828339  0.339105  0.624289  1
  Mo  Mo33  1  0.334975  0.166883  0.869219  1
  Mo  Mo34  1  0.832750  0.332634  0.870755  1
  Mo  Mo35  1  0.165698  0.667304  0.128423  1
