# generated using pymatgen
data_Ca6Pr2Zn3Si12Pd
_symmetry_space_group_name_H-M   'P 1'
_cell_length_a   8.21069800
_cell_length_b   8.21069846
_cell_length_c   8.67502800
_cell_angle_alpha   90.00000000
_cell_angle_beta   90.00000000
_cell_angle_gamma   120.00000622
_symmetry_Int_Tables_number   1
_chemical_formula_structural   Ca6Pr2Zn3Si12Pd
_chemical_formula_sum   'Ca6 Pr2 Zn3 Si12 Pd1'
_cell_volume   506.47926567
_cell_formula_units_Z   1
loop_
 _symmetry_equiv_pos_site_id
 _symmetry_equiv_pos_as_xyz
  1  'x, y, z'
loop_
 _atom_site_type_symbol
 _atom_site_label
 _atom_site_symmetry_multiplicity
 _atom_site_fract_x
 _atom_site_fract_y
 _atom_site_fract_z
 _atom_site_occupancy
  Ca  Ca0  1  0.501173  0.498827  0.746257  1
  Ca  Ca1  1  0.501712  0.498288  0.253747  1
  Ca  Ca2  1  0.997655  0.498827  0.746257  1
  Ca  Ca3  1  0.996575  0.498288  0.253747  1
  Ca  Ca4  1  0.501173  0.002345  0.746257  1
  Ca  Ca5  1  0.501712  0.003425  0.253747  1
  Pr  Pr6  1  0.000000  0.000000  0.747772  1
  Pr  Pr7  1  0.000000  0.000000  0.252432  1
  Zn  Zn8  1  0.666667  0.333333  0.997355  1
  Zn  Zn9  1  0.333333  0.666667  0.001689  1
  Zn  Zn10  1  0.333333  0.666667  0.499134  1
  Si  Si11  1  0.834293  0.165707  0.000629  1
  Si  Si12  1  0.165573  0.834427  0.999607  1
  Si  Si13  1  0.331413  0.165707  0.000629  1
  Si  Si14  1  0.162850  0.837150  0.499757  1
  Si  Si15  1  0.668853  0.834427  0.999607  1
  Si  Si16  1  0.832171  0.167829  0.500382  1
  Si  Si17  1  0.834293  0.668587  0.000629  1
  Si  Si18  1  0.674301  0.837150  0.499757  1
  Si  Si19  1  0.165573  0.331147  0.999607  1
  Si  Si20  1  0.335658  0.167829  0.500382  1
  Si  Si21  1  0.162850  0.325699  0.499757  1
  Si  Si22  1  0.832171  0.664342  0.500382  1
  Pd  Pd23  1  0.666667  0.333333  0.500482  1
