# generated using pymatgen
data_Tb9Ho3InCo4Rh
_symmetry_space_group_name_H-M   'P 1'
_cell_length_a   8.33655662
_cell_length_b   8.33678942
_cell_length_c   8.33678881
_cell_angle_alpha   110.89088669
_cell_angle_beta   110.51708486
_cell_angle_gamma   107.03416089
_symmetry_Int_Tables_number   1
_chemical_formula_structural   Tb9Ho3InCo4Rh
_chemical_formula_sum   'Tb9 Ho3 In1 Co4 Rh1'
_cell_volume   445.41521527
_cell_formula_units_Z   1
loop_
 _symmetry_equiv_pos_site_id
 _symmetry_equiv_pos_as_xyz
  1  'x, y, z'
loop_
 _atom_site_type_symbol
 _atom_site_label
 _atom_site_symmetry_multiplicity
 _atom_site_fract_x
 _atom_site_fract_y
 _atom_site_fract_z
 _atom_site_occupancy
  Tb  Tb0  1  0.984688  0.790934  0.193755  1
  Tb  Tb1  1  0.187630  0.295315  0.482687  1
  Tb  Tb2  1  0.812863  0.705360  0.518837  1
  Tb  Tb3  1  0.187630  0.704943  0.892317  1
  Tb  Tb4  1  0.812863  0.294025  0.107502  1
  Tb  Tb5  1  0.313780  0.617684  0.305084  1
  Tb  Tb6  1  0.686027  0.381269  0.694742  1
  Tb  Tb7  1  0.313780  0.008696  0.696095  1
  Tb  Tb8  1  0.686027  0.991285  0.304760  1
  Ho  Ho9  1  0.402653  0.208852  0.193801  1
  Ho  Ho10  1  0.596240  0.790811  0.805429  1
  Ho  Ho11  1  0.014858  0.209166  0.805691  1
  In  In12  1  0.498701  0.500731  0.997970  1
  Co  Co13  1  0.382190  0.000092  0.382098  1
  Co  Co14  1  0.619901  0.999763  0.620138  1
  Co  Co15  1  0.112933  0.612074  0.500859  1
  Co  Co16  1  0.888304  0.388347  0.499957  1
  Rh  Rh17  1  0.998932  0.000656  0.998276  1
