# generated using pymatgen
data_Ho7Lu(MoI4)2
_symmetry_space_group_name_H-M   'P 1'
_cell_length_a   11.31636197
_cell_length_b   11.31055980
_cell_length_c   5.94084900
_cell_angle_alpha   90.37410380
_cell_angle_beta   90.41298479
_cell_angle_gamma   90.01749484
_symmetry_Int_Tables_number   1
_chemical_formula_structural   Ho7Lu(MoI4)2
_chemical_formula_sum   'Ho7 Lu1 Mo2 I8'
_cell_volume   760.35932797
_cell_formula_units_Z   1
loop_
 _symmetry_equiv_pos_site_id
 _symmetry_equiv_pos_as_xyz
  1  'x, y, z'
loop_
 _atom_site_type_symbol
 _atom_site_label
 _atom_site_symmetry_multiplicity
 _atom_site_fract_x
 _atom_site_fract_y
 _atom_site_fract_z
 _atom_site_occupancy
  Ho  Ho0  1  0.794266  0.084529  0.997410  1
  Ho  Ho1  1  0.085402  0.794395  0.497797  1
  Ho  Ho2  1  0.915684  0.205658  0.502404  1
  Ho  Ho3  1  0.794433  0.915344  0.496400  1
  Ho  Ho4  1  0.206304  0.083829  0.503754  1
  Ho  Ho5  1  0.084986  0.205721  0.003569  1
  Ho  Ho6  1  0.915757  0.793968  0.996522  1
  Lu  Lu7  1  0.200699  0.917406  0.002937  1
  Mo  Mo8  1  0.999841  0.000194  0.249663  1
  Mo  Mo9  1  0.000311  0.999743  0.750487  1
  I  I10  1  0.359515  0.848874  0.495143  1
  I  I11  1  0.640463  0.151218  0.503930  1
  I  I12  1  0.152575  0.641705  0.003887  1
  I  I13  1  0.848994  0.359654  0.995980  1
  I  I14  1  0.359422  0.149725  0.011721  1
  I  I15  1  0.640768  0.848266  0.988473  1
  I  I16  1  0.848737  0.640359  0.488403  1
  I  I17  1  0.151843  0.359413  0.511518  1
