# generated using pymatgen
data_Rb2Pu3OF12
_symmetry_space_group_name_H-M   'P 1'
_cell_length_a   11.43898682
_cell_length_b   11.43898583
_cell_length_c   11.43898678
_cell_angle_alpha   42.54406007
_cell_angle_beta   42.54406554
_cell_angle_gamma   42.54406575
_symmetry_Int_Tables_number   1
_chemical_formula_structural   Rb2Pu3OF12
_chemical_formula_sum   'Rb4 Pu6 O2 F24'
_cell_volume   619.69193742
_cell_formula_units_Z   2
loop_
 _symmetry_equiv_pos_site_id
 _symmetry_equiv_pos_as_xyz
  1  'x, y, z'
loop_
 _atom_site_type_symbol
 _atom_site_label
 _atom_site_symmetry_multiplicity
 _atom_site_fract_x
 _atom_site_fract_y
 _atom_site_fract_z
 _atom_site_occupancy
  Rb  Rb0  1  0.000000  0.000000  0.000000  1
  Rb  Rb1  1  0.500000  0.500000  0.500000  1
  Rb  Rb2  1  0.137935  0.137935  0.137935  1
  Rb  Rb3  1  0.862065  0.862065  0.862065  1
  Pu  Pu4  1  0.577603  0.577603  0.033459  1
  Pu  Pu5  1  0.033459  0.577603  0.577603  1
  Pu  Pu6  1  0.577603  0.033459  0.577603  1
  Pu  Pu7  1  0.422397  0.966541  0.422397  1
  Pu  Pu8  1  0.966541  0.422397  0.422397  1
  Pu  Pu9  1  0.422397  0.422397  0.966541  1
  O  O10  1  0.283532  0.283532  0.283532  1
  O  O11  1  0.716468  0.716468  0.716468  1
  F  F12  1  0.365447  0.702484  0.702484  1
  F  F13  1  0.702484  0.365447  0.702484  1
  F  F14  1  0.702484  0.702484  0.365447  1
  F  F15  1  0.634553  0.297516  0.297516  1
  F  F16  1  0.297516  0.634553  0.297516  1
  F  F17  1  0.297516  0.297516  0.634553  1
  F  F18  1  0.088761  0.595401  0.088761  1
  F  F19  1  0.088761  0.088761  0.595401  1
  F  F20  1  0.000000  0.353036  0.646964  1
  F  F21  1  0.353036  0.646964  0.000000  1
  F  F22  1  0.646964  0.000000  0.353036  1
  F  F23  1  0.000000  0.646964  0.353036  1
  F  F24  1  0.646964  0.353036  0.000000  1
  F  F25  1  0.353036  0.000000  0.646964  1
  F  F26  1  0.088838  0.653158  0.653158  1
  F  F27  1  0.653158  0.653158  0.088838  1
  F  F28  1  0.653158  0.088838  0.653158  1
  F  F29  1  0.346842  0.911162  0.346842  1
  F  F30  1  0.911162  0.346842  0.346842  1
  F  F31  1  0.346842  0.346842  0.911162  1
  F  F32  1  0.911239  0.404599  0.911239  1
  F  F33  1  0.404599  0.911239  0.911239  1
  F  F34  1  0.911239  0.911239  0.404599  1
  F  F35  1  0.595401  0.088761  0.088761  1
