# generated using pymatgen
data_KZrScS4
_symmetry_space_group_name_H-M   'P 1'
_cell_length_a   3.77537300
_cell_length_b   6.40994963
_cell_length_c   7.93586740
_cell_angle_alpha   74.91553400
_cell_angle_beta   90.00000000
_cell_angle_gamma   90.00000000
_symmetry_Int_Tables_number   1
_chemical_formula_structural   KZrScS4
_chemical_formula_sum   'K1 Zr1 Sc1 S4'
_cell_volume   185.43025886
_cell_formula_units_Z   1
loop_
 _symmetry_equiv_pos_site_id
 _symmetry_equiv_pos_as_xyz
  1  'x, y, z'
loop_
 _atom_site_type_symbol
 _atom_site_label
 _atom_site_symmetry_multiplicity
 _atom_site_fract_x
 _atom_site_fract_y
 _atom_site_fract_z
 _atom_site_occupancy
  K  K0  1  0.000000  0.500000  0.500000  1
  Zr  Zr1  1  0.000000  0.000000  0.000000  1
  Sc  Sc2  1  0.500000  0.500000  0.000000  1
  S  S3  1  0.500000  0.775932  0.190491  1
  S  S4  1  0.000000  0.271477  0.185126  1
  S  S5  1  0.500000  0.224068  0.809509  1
  S  S6  1  0.000000  0.728523  0.814874  1
