# generated using pymatgen
data_CsRb7(Si2Se5)4
_symmetry_space_group_name_H-M   'P 1'
_cell_length_a   11.68364854
_cell_length_b   11.70765219
_cell_length_c   9.59989954
_cell_angle_alpha   83.44993485
_cell_angle_beta   83.14499335
_cell_angle_gamma   90.40305751
_symmetry_Int_Tables_number   1
_chemical_formula_structural   CsRb7(Si2Se5)4
_chemical_formula_sum   'Cs1 Rb7 Si8 Se20'
_cell_volume   1294.97060558
_cell_formula_units_Z   1
loop_
 _symmetry_equiv_pos_site_id
 _symmetry_equiv_pos_as_xyz
  1  'x, y, z'
loop_
 _atom_site_type_symbol
 _atom_site_label
 _atom_site_symmetry_multiplicity
 _atom_site_fract_x
 _atom_site_fract_y
 _atom_site_fract_z
 _atom_site_occupancy
  Cs  Cs0  1  0.290777  0.027873  0.633653  1
  Rb  Rb1  1  0.716567  0.965792  0.367349  1
  Rb  Rb2  1  0.967863  0.710097  0.868698  1
  Rb  Rb3  1  0.029846  0.291120  0.131380  1
  Rb  Rb4  1  0.539244  0.709392  0.896023  1
  Rb  Rb5  1  0.459511  0.292926  0.104706  1
  Rb  Rb6  1  0.291822  0.458114  0.607097  1
  Rb  Rb7  1  0.709442  0.540358  0.394980  1
  Si  Si8  1  0.635858  0.236819  0.606377  1
  Si  Si9  1  0.365471  0.761994  0.390860  1
  Si  Si10  1  0.767988  0.366135  0.891547  1
  Si  Si11  1  0.229691  0.633519  0.109136  1
  Si  Si12  1  0.766699  0.044452  0.880713  1
  Si  Si13  1  0.233225  0.956354  0.120497  1
  Si  Si14  1  0.959040  0.237567  0.611458  1
  Si  Si15  1  0.040837  0.762918  0.388630  1
  Se  Se16  1  0.749086  0.188792  0.031698  1
  Se  Se17  1  0.247870  0.811179  0.969896  1
  Se  Se18  1  0.812648  0.254291  0.463891  1
  Se  Se19  1  0.188515  0.742362  0.534227  1
  Se  Se20  1  0.616247  0.058404  0.739419  1
  Se  Se21  1  0.386775  0.939187  0.255807  1
  Se  Se22  1  0.945768  0.386056  0.755606  1
  Se  Se23  1  0.051465  0.614814  0.244062  1
  Se  Se24  1  0.618362  0.384829  0.750605  1
  Se  Se25  1  0.380533  0.612863  0.248310  1
  Se  Se26  1  0.504039  0.741507  0.528938  1
  Se  Se27  1  0.499213  0.262537  0.466558  1
  Se  Se28  1  0.250067  0.496752  0.968212  1
  Se  Se29  1  0.746281  0.503684  0.031370  1
  Se  Se30  1  0.747288  0.878125  0.015061  1
  Se  Se31  1  0.251669  0.124181  0.989775  1
  Se  Se32  1  0.124778  0.258272  0.474943  1
  Se  Se33  1  0.874422  0.745123  0.524718  1
  Se  Se34  1  0.944798  0.058658  0.744535  1
  Se  Se35  1  0.056296  0.942954  0.259263  1
