# generated using pymatgen
data_Mn3Fe(CuPd3)3
_symmetry_space_group_name_H-M   'P 1'
_cell_length_a   6.69512285
_cell_length_b   6.69512302
_cell_length_c   6.70726203
_cell_angle_alpha   107.24229435
_cell_angle_beta   107.24229792
_cell_angle_gamma   113.96000020
_symmetry_Int_Tables_number   1
_chemical_formula_structural   Mn3Fe(CuPd3)3
_chemical_formula_sum   'Mn3 Fe1 Cu3 Pd9'
_cell_volume   230.54291175
_cell_formula_units_Z   1
loop_
 _symmetry_equiv_pos_site_id
 _symmetry_equiv_pos_as_xyz
  1  'x, y, z'
loop_
 _atom_site_type_symbol
 _atom_site_label
 _atom_site_symmetry_multiplicity
 _atom_site_fract_x
 _atom_site_fract_y
 _atom_site_fract_z
 _atom_site_occupancy
  Mn  Mn0  1  0.755207  0.755207  0.510412  1
  Mn  Mn1  1  0.244631  0.755219  0.999851  1
  Mn  Mn2  1  0.755219  0.244631  0.999851  1
  Fe  Fe3  1  0.244071  0.244071  0.488143  1
  Cu  Cu4  1  0.499451  0.999935  0.499386  1
  Cu  Cu5  1  0.999935  0.499451  0.499386  1
  Cu  Cu6  1  0.500461  0.500461  0.000923  1
  Pd  Pd7  1  0.509921  0.258703  0.253697  1
  Pd  Pd8  1  0.486031  0.736456  0.746446  1
  Pd  Pd9  1  0.009990  0.260414  0.746446  1
  Pd  Pd10  1  0.260414  0.009990  0.746446  1
  Pd  Pd11  1  0.994993  0.743777  0.253697  1
  Pd  Pd12  1  0.743777  0.994993  0.253697  1
  Pd  Pd13  1  0.258703  0.509921  0.253697  1
  Pd  Pd14  1  0.736456  0.486031  0.746446  1
  Pd  Pd15  1  0.000740  0.000740  0.001480  1
