# generated using pymatgen
data_Ca20In2Ga9Bi
_symmetry_space_group_name_H-M   'P 1'
_cell_length_a   8.11304600
_cell_length_b   8.11304600
_cell_length_c   14.74266200
_cell_angle_alpha   90.00000000
_cell_angle_beta   90.00000000
_cell_angle_gamma   90.00000000
_symmetry_Int_Tables_number   1
_chemical_formula_structural   Ca20In2Ga9Bi
_chemical_formula_sum   'Ca20 In2 Ga9 Bi1'
_cell_volume   970.38435384
_cell_formula_units_Z   1
loop_
 _symmetry_equiv_pos_site_id
 _symmetry_equiv_pos_as_xyz
  1  'x, y, z'
loop_
 _atom_site_type_symbol
 _atom_site_label
 _atom_site_symmetry_multiplicity
 _atom_site_fract_x
 _atom_site_fract_y
 _atom_site_fract_z
 _atom_site_occupancy
  Ca  Ca0  1  0.680521  0.169910  0.107184  1
  Ca  Ca1  1  0.173090  0.676047  0.611331  1
  Ca  Ca2  1  0.319479  0.830090  0.107184  1
  Ca  Ca3  1  0.826910  0.323953  0.611331  1
  Ca  Ca4  1  0.830090  0.680521  0.107184  1
  Ca  Ca5  1  0.323953  0.173090  0.611331  1
  Ca  Ca6  1  0.169910  0.319479  0.107184  1
  Ca  Ca7  1  0.676047  0.826910  0.611331  1
  Ca  Ca8  1  0.830090  0.319479  0.892816  1
  Ca  Ca9  1  0.323953  0.826910  0.388669  1
  Ca  Ca10  1  0.169910  0.680521  0.892816  1
  Ca  Ca11  1  0.676047  0.173090  0.388669  1
  Ca  Ca12  1  0.680521  0.830090  0.892816  1
  Ca  Ca13  1  0.173090  0.323953  0.388669  1
  Ca  Ca14  1  0.319479  0.169910  0.892816  1
  Ca  Ca15  1  0.826910  0.676047  0.388669  1
  Ca  Ca16  1  0.500000  0.500000  0.755886  1
  Ca  Ca17  1  0.000000  0.000000  0.248514  1
  Ca  Ca18  1  0.000000  0.000000  0.751486  1
  Ca  Ca19  1  0.500000  0.500000  0.244114  1
  In  In20  1  0.500000  0.500000  0.000000  1
  In  In21  1  0.000000  0.000000  0.500000  1
  Ga  Ga22  1  0.611166  0.112510  0.750690  1
  Ga  Ga23  1  0.112510  0.611166  0.249310  1
  Ga  Ga24  1  0.887490  0.388834  0.249310  1
  Ga  Ga25  1  0.388834  0.887490  0.750690  1
  Ga  Ga26  1  0.887490  0.611166  0.750690  1
  Ga  Ga27  1  0.388834  0.112510  0.249310  1
  Ga  Ga28  1  0.112510  0.388834  0.750690  1
  Ga  Ga29  1  0.611166  0.887490  0.249310  1
  Ga  Ga30  1  0.000000  0.000000  0.000000  1
  Bi  Bi31  1  0.500000  0.500000  0.500000  1
