# generated using pymatgen
data_Sm3Th5(HgPt2)4
_symmetry_space_group_name_H-M   'P 1'
_cell_length_a   7.89315100
_cell_length_b   7.89315188
_cell_length_c   7.54501700
_cell_angle_alpha   90.00000000
_cell_angle_beta   90.00000000
_cell_angle_gamma   90.59309361
_symmetry_Int_Tables_number   1
_chemical_formula_structural   Sm3Th5(HgPt2)4
_chemical_formula_sum   'Sm3 Th5 Hg4 Pt8'
_cell_volume   470.04325515
_cell_formula_units_Z   1
loop_
 _symmetry_equiv_pos_site_id
 _symmetry_equiv_pos_as_xyz
  1  'x, y, z'
loop_
 _atom_site_type_symbol
 _atom_site_label
 _atom_site_symmetry_multiplicity
 _atom_site_fract_x
 _atom_site_fract_y
 _atom_site_fract_z
 _atom_site_occupancy
  Sm  Sm0  1  0.671689  0.671689  0.500000  1
  Sm  Sm1  1  0.829769  0.169205  0.000000  1
  Sm  Sm2  1  0.169205  0.829769  0.000000  1
  Th  Th3  1  0.676096  0.676096  0.000000  1
  Th  Th4  1  0.331692  0.331692  0.500000  1
  Th  Th5  1  0.823643  0.174450  0.500000  1
  Th  Th6  1  0.324872  0.324872  0.000000  1
  Th  Th7  1  0.174450  0.823643  0.500000  1
  Hg  Hg8  1  0.501042  0.997286  0.752033  1
  Hg  Hg9  1  0.501042  0.997286  0.247967  1
  Hg  Hg10  1  0.997286  0.501042  0.752033  1
  Hg  Hg11  1  0.997286  0.501042  0.247967  1
  Pt  Pt12  1  0.874169  0.874169  0.744608  1
  Pt  Pt13  1  0.130054  0.130054  0.742115  1
  Pt  Pt14  1  0.625595  0.371146  0.754789  1
  Pt  Pt15  1  0.625595  0.371146  0.245211  1
  Pt  Pt16  1  0.371146  0.625595  0.245211  1
  Pt  Pt17  1  0.130054  0.130054  0.257885  1
  Pt  Pt18  1  0.874169  0.874169  0.255392  1
  Pt  Pt19  1  0.371146  0.625595  0.754789  1
