# generated using pymatgen
data_Tb4Dy8AlZnCo4
_symmetry_space_group_name_H-M   'P 1'
_cell_length_a   8.30170155
_cell_length_b   8.30204271
_cell_length_c   8.30170243
_cell_angle_alpha   112.25422793
_cell_angle_beta   109.56402230
_cell_angle_gamma   106.64228983
_symmetry_Int_Tables_number   1
_chemical_formula_structural   Tb4Dy8AlZnCo4
_chemical_formula_sum   'Tb4 Dy8 Al1 Zn1 Co4'
_cell_volume   439.40430093
_cell_formula_units_Z   1
loop_
 _symmetry_equiv_pos_site_id
 _symmetry_equiv_pos_as_xyz
  1  'x, y, z'
loop_
 _atom_site_type_symbol
 _atom_site_label
 _atom_site_symmetry_multiplicity
 _atom_site_fract_x
 _atom_site_fract_y
 _atom_site_fract_z
 _atom_site_occupancy
  Tb  Tb0  1  0.430793  0.233683  0.197094  1
  Tb  Tb1  1  0.569207  0.766317  0.802906  1
  Tb  Tb2  1  0.036588  0.233683  0.802890  1
  Tb  Tb3  1  0.963412  0.766317  0.197110  1
  Dy  Dy4  1  0.180857  0.283561  0.464440  1
  Dy  Dy5  1  0.819143  0.716439  0.535560  1
  Dy  Dy6  1  0.180880  0.716439  0.897296  1
  Dy  Dy7  1  0.819120  0.283561  0.102704  1
  Dy  Dy8  1  0.325859  0.636809  0.310949  1
  Dy  Dy9  1  0.674141  0.363191  0.689051  1
  Dy  Dy10  1  0.325896  0.014865  0.688970  1
  Dy  Dy11  1  0.674104  0.985135  0.311030  1
  Al  Al12  1  0.500000  0.500000  0.000000  1
  Zn  Zn13  1  0.000000  0.000000  0.000000  1
  Co  Co14  1  0.340231  0.000000  0.340231  1
  Co  Co15  1  0.659769  0.000000  0.659769  1
  Co  Co16  1  0.114281  0.614277  0.499996  1
  Co  Co17  1  0.885719  0.385723  0.500004  1
