# generated using pymatgen
data_In12TcIrRu2
_symmetry_space_group_name_H-M   'P 1'
_cell_length_a   7.11769125
_cell_length_b   7.11769122
_cell_length_c   7.40563500
_cell_angle_alpha   90.00000000
_cell_angle_beta   90.00000000
_cell_angle_gamma   90.10393880
_symmetry_Int_Tables_number   1
_chemical_formula_structural   In12TcIrRu2
_chemical_formula_sum   'In12 Tc1 Ir1 Ru2'
_cell_volume   375.18017140
_cell_formula_units_Z   1
loop_
 _symmetry_equiv_pos_site_id
 _symmetry_equiv_pos_as_xyz
  1  'x, y, z'
loop_
 _atom_site_type_symbol
 _atom_site_label
 _atom_site_symmetry_multiplicity
 _atom_site_fract_x
 _atom_site_fract_y
 _atom_site_fract_z
 _atom_site_occupancy
  In  In0  1  0.343494  0.343494  0.262710  1
  In  In1  1  0.159345  0.846170  0.760890  1
  In  In2  1  0.159345  0.846170  0.239110  1
  In  In3  1  0.001586  0.498500  0.000000  1
  In  In4  1  0.846170  0.159345  0.239110  1
  In  In5  1  0.846170  0.159345  0.760890  1
  In  In6  1  0.498500  0.001586  0.000000  1
  In  In7  1  0.653629  0.653629  0.265018  1
  In  In8  1  0.653629  0.653629  0.734982  1
  In  In9  1  0.000715  0.502848  0.500000  1
  In  In10  1  0.343494  0.343494  0.737290  1
  In  In11  1  0.502848  0.000715  0.500000  1
  Tc  Tc12  1  0.150813  0.150813  0.000000  1
  Ir  Ir13  1  0.840101  0.840101  0.000000  1
  Ru  Ru14  1  0.655010  0.345149  0.500000  1
  Ru  Ru15  1  0.345149  0.655010  0.500000  1
