# generated using pymatgen
data_Er4Ga20CuTc5
_symmetry_space_group_name_H-M   'P 1'
_cell_length_a   9.04659900
_cell_length_b   9.04659900
_cell_length_c   6.33117700
_cell_angle_alpha   90.00000000
_cell_angle_beta   90.00000000
_cell_angle_gamma   90.00000000
_symmetry_Int_Tables_number   1
_chemical_formula_structural   Er4Ga20CuTc5
_chemical_formula_sum   'Er4 Ga20 Cu1 Tc5'
_cell_volume   518.14956225
_cell_formula_units_Z   1
loop_
 _symmetry_equiv_pos_site_id
 _symmetry_equiv_pos_as_xyz
  1  'x, y, z'
loop_
 _atom_site_type_symbol
 _atom_site_label
 _atom_site_symmetry_multiplicity
 _atom_site_fract_x
 _atom_site_fract_y
 _atom_site_fract_z
 _atom_site_occupancy
  Er  Er0  1  0.681485  0.184610  0.000000  1
  Er  Er1  1  0.318515  0.815390  0.000000  1
  Er  Er2  1  0.815390  0.681485  0.000000  1
  Er  Er3  1  0.184610  0.318515  0.000000  1
  Ga  Ga4  1  0.938076  0.210502  0.290817  1
  Ga  Ga5  1  0.705194  0.440590  0.292517  1
  Ga  Ga6  1  0.500000  0.000000  0.286842  1
  Ga  Ga7  1  0.559410  0.705194  0.707483  1
  Ga  Ga8  1  0.294806  0.559410  0.707483  1
  Ga  Ga9  1  0.789498  0.938076  0.290817  1
  Ga  Ga10  1  0.938076  0.210502  0.709183  1
  Ga  Ga11  1  0.294806  0.559410  0.292517  1
  Ga  Ga12  1  0.061924  0.789498  0.290817  1
  Ga  Ga13  1  0.705194  0.440590  0.707483  1
  Ga  Ga14  1  0.440590  0.294806  0.707483  1
  Ga  Ga15  1  0.061924  0.789498  0.709183  1
  Ga  Ga16  1  0.210502  0.061924  0.709183  1
  Ga  Ga17  1  0.789498  0.938076  0.709183  1
  Ga  Ga18  1  0.210502  0.061924  0.290817  1
  Ga  Ga19  1  0.000000  0.500000  0.713158  1
  Ga  Ga20  1  0.000000  0.500000  0.286842  1
  Ga  Ga21  1  0.559410  0.705194  0.292517  1
  Ga  Ga22  1  0.440590  0.294806  0.292517  1
  Ga  Ga23  1  0.500000  0.000000  0.713158  1
  Cu  Cu24  1  0.000000  0.000000  0.000000  1
  Tc  Tc25  1  0.682021  0.175954  0.500000  1
  Tc  Tc26  1  0.824046  0.682021  0.500000  1
  Tc  Tc27  1  0.175954  0.317979  0.500000  1
  Tc  Tc28  1  0.317979  0.824046  0.500000  1
  Tc  Tc29  1  0.500000  0.500000  0.000000  1
