# generated using pymatgen
data_Sr8Mg8Si15Ge
_symmetry_space_group_name_H-M   'P 1'
_cell_length_a   4.41955100
_cell_length_b   11.48958442
_cell_length_c   14.48155703
_cell_angle_alpha   89.92577450
_cell_angle_beta   90.00000000
_cell_angle_gamma   90.00000000
_symmetry_Int_Tables_number   1
_chemical_formula_structural   Sr8Mg8Si15Ge
_chemical_formula_sum   'Sr8 Mg8 Si15 Ge1'
_cell_volume   735.35553330
_cell_formula_units_Z   1
loop_
 _symmetry_equiv_pos_site_id
 _symmetry_equiv_pos_as_xyz
  1  'x, y, z'
loop_
 _atom_site_type_symbol
 _atom_site_label
 _atom_site_symmetry_multiplicity
 _atom_site_fract_x
 _atom_site_fract_y
 _atom_site_fract_z
 _atom_site_occupancy
  Sr  Sr0  1  0.250000  0.523835  0.196543  1
  Sr  Sr1  1  0.250000  0.740600  0.938712  1
  Sr  Sr2  1  0.750000  0.258867  0.061379  1
  Sr  Sr3  1  0.750000  0.241319  0.561334  1
  Sr  Sr4  1  0.250000  0.758825  0.438679  1
  Sr  Sr5  1  0.250000  0.976138  0.696024  1
  Sr  Sr6  1  0.750000  0.023896  0.303497  1
  Sr  Sr7  1  0.750000  0.476248  0.803307  1
  Mg  Mg8  1  0.250000  0.441787  0.440280  1
  Mg  Mg9  1  0.750000  0.558223  0.559834  1
  Mg  Mg10  1  0.750000  0.941703  0.060561  1
  Mg  Mg11  1  0.250000  0.059262  0.940938  1
  Mg  Mg12  1  0.250000  0.679649  0.689998  1
  Mg  Mg13  1  0.750000  0.320182  0.309909  1
  Mg  Mg14  1  0.750000  0.181005  0.809610  1
  Mg  Mg15  1  0.250000  0.820094  0.190115  1
  Si  Si16  1  0.250000  0.451928  0.632446  1
  Si  Si17  1  0.750000  0.548003  0.367534  1
  Si  Si18  1  0.250000  0.028692  0.465730  1
  Si  Si19  1  0.250000  0.048101  0.132542  1
  Si  Si20  1  0.250000  0.274088  0.722492  1
  Si  Si21  1  0.750000  0.725762  0.277387  1
  Si  Si22  1  0.750000  0.771366  0.776338  1
  Si  Si23  1  0.250000  0.212535  0.393654  1
  Si  Si24  1  0.750000  0.971375  0.534177  1
  Si  Si25  1  0.750000  0.528795  0.034238  1
  Si  Si26  1  0.250000  0.471273  0.965841  1
  Si  Si27  1  0.250000  0.287605  0.893737  1
  Si  Si28  1  0.750000  0.787429  0.606194  1
  Si  Si29  1  0.750000  0.712384  0.106284  1
  Si  Si30  1  0.250000  0.225786  0.222567  1
  Ge  Ge31  1  0.750000  0.953242  0.868117  1
