# generated using pymatgen
data_Li2Hf3Ni19P12
_symmetry_space_group_name_H-M   'P 1'
_cell_length_a   11.89869800
_cell_length_b   11.89869873
_cell_length_c   3.58060100
_cell_angle_alpha   90.00000000
_cell_angle_beta   90.00000000
_cell_angle_gamma   120.00000354
_symmetry_Int_Tables_number   1
_chemical_formula_structural   Li2Hf3Ni19P12
_chemical_formula_sum   'Li2 Hf3 Ni19 P12'
_cell_volume   439.02116210
_cell_formula_units_Z   1
loop_
 _symmetry_equiv_pos_site_id
 _symmetry_equiv_pos_as_xyz
  1  'x, y, z'
loop_
 _atom_site_type_symbol
 _atom_site_label
 _atom_site_symmetry_multiplicity
 _atom_site_fract_x
 _atom_site_fract_y
 _atom_site_fract_z
 _atom_site_occupancy
  Li  Li0  1  0.666667  0.333333  0.000000  1
  Li  Li1  1  0.333333  0.666667  0.000000  1
  Hf  Hf2  1  0.000000  0.816823  0.500000  1
  Hf  Hf3  1  0.183177  0.183177  0.500000  1
  Hf  Hf4  1  0.816823  0.000000  0.500000  1
  Ni  Ni5  1  0.000000  0.284930  0.500000  1
  Ni  Ni6  1  0.376767  0.180050  0.000000  1
  Ni  Ni7  1  0.803283  0.623233  0.000000  1
  Ni  Ni8  1  0.819950  0.196717  0.000000  1
  Ni  Ni9  1  0.180050  0.376767  0.000000  1
  Ni  Ni10  1  0.196717  0.819950  0.000000  1
  Ni  Ni11  1  0.873243  0.518036  0.500000  1
  Ni  Ni12  1  0.644794  0.126757  0.500000  1
  Ni  Ni13  1  0.481964  0.355206  0.500000  1
  Ni  Ni14  1  0.355206  0.481964  0.500000  1
  Ni  Ni15  1  0.126757  0.644794  0.500000  1
  Ni  Ni16  1  0.518036  0.873243  0.500000  1
  Ni  Ni17  1  0.284930  0.000000  0.500000  1
  Ni  Ni18  1  0.000000  0.450810  0.000000  1
  Ni  Ni19  1  0.549190  0.549190  0.000000  1
  Ni  Ni20  1  0.450810  0.000000  0.000000  1
  Ni  Ni21  1  0.000000  0.000000  0.000000  1
  Ni  Ni22  1  0.623233  0.803283  0.000000  1
  Ni  Ni23  1  0.715070  0.715070  0.500000  1
  P  P24  1  0.681694  0.512422  0.500000  1
  P  P25  1  0.487578  0.169272  0.500000  1
  P  P26  1  0.830728  0.318306  0.500000  1
  P  P27  1  0.318306  0.830728  0.500000  1
  P  P28  1  0.169272  0.487578  0.500000  1
  P  P29  1  0.823698  0.823698  0.000000  1
  P  P30  1  0.176302  0.000000  0.000000  1
  P  P31  1  0.000000  0.640880  0.000000  1
  P  P32  1  0.359120  0.359120  0.000000  1
  P  P33  1  0.640880  0.000000  0.000000  1
  P  P34  1  0.512422  0.681694  0.500000  1
  P  P35  1  0.000000  0.176302  0.000000  1
