# generated using pymatgen
data_Al18Fe2CoPt
_symmetry_space_group_name_H-M   'P 1'
_cell_length_a   6.24639007
_cell_length_b   6.30643327
_cell_length_c   8.66346831
_cell_angle_alpha   89.77762613
_cell_angle_beta   94.86086369
_cell_angle_gamma   89.98244763
_symmetry_Int_Tables_number   1
_chemical_formula_structural   Al18Fe2CoPt
_chemical_formula_sum   'Al18 Fe2 Co1 Pt1'
_cell_volume   340.04511669
_cell_formula_units_Z   1
loop_
 _symmetry_equiv_pos_site_id
 _symmetry_equiv_pos_as_xyz
  1  'x, y, z'
loop_
 _atom_site_type_symbol
 _atom_site_label
 _atom_site_symmetry_multiplicity
 _atom_site_fract_x
 _atom_site_fract_y
 _atom_site_fract_z
 _atom_site_occupancy
  Al  Al0  1  0.998479  0.488028  0.504061  1
  Al  Al1  1  0.996736  0.988746  0.998299  1
  Al  Al2  1  0.609581  0.465927  0.228200  1
  Al  Al3  1  0.413313  0.990424  0.271568  1
  Al  Al4  1  0.414341  0.541631  0.765004  1
  Al  Al5  1  0.592633  0.036488  0.737485  1
  Al  Al6  1  0.892991  0.798136  0.274352  1
  Al  Al7  1  0.083802  0.280182  0.222752  1
  Al  Al8  1  0.083228  0.207459  0.733552  1
  Al  Al9  1  0.916519  0.704858  0.770680  1
  Al  Al10  1  0.620302  0.692631  0.506565  1
  Al  Al11  1  0.386275  0.190048  0.995977  1
  Al  Al12  1  0.394734  0.303102  0.505200  1
  Al  Al13  1  0.603740  0.810706  0.003030  1
  Al  Al14  1  0.781268  0.114470  0.459024  1
  Al  Al15  1  0.216821  0.604541  0.029437  1
  Al  Al16  1  0.213439  0.892332  0.551172  1
  Al  Al17  1  0.783014  0.380892  0.951682  1
  Fe  Fe18  1  0.262495  0.882090  0.832868  1
  Fe  Fe19  1  0.735862  0.381086  0.667222  1
  Co  Co20  1  0.737162  0.120951  0.163634  1
  Pt  Pt21  1  0.263266  0.625268  0.328237  1
