# generated using pymatgen
data_La4Ti5Cr3O20
_symmetry_space_group_name_H-M   'P 1'
_cell_length_a   5.91408400
_cell_length_b   7.79107794
_cell_length_c   8.87134861
_cell_angle_alpha   89.70920706
_cell_angle_beta   90.00000000
_cell_angle_gamma   90.00000000
_symmetry_Int_Tables_number   1
_chemical_formula_structural   La4Ti5Cr3O20
_chemical_formula_sum   'La4 Ti5 Cr3 O20'
_cell_volume   408.76065819
_cell_formula_units_Z   1
loop_
 _symmetry_equiv_pos_site_id
 _symmetry_equiv_pos_as_xyz
  1  'x, y, z'
loop_
 _atom_site_type_symbol
 _atom_site_label
 _atom_site_symmetry_multiplicity
 _atom_site_fract_x
 _atom_site_fract_y
 _atom_site_fract_z
 _atom_site_occupancy
  La  La0  1  0.996375  0.358866  0.675631  1
  La  La1  1  0.996375  0.641134  0.324369  1
  La  La2  1  0.998342  0.855943  0.830764  1
  La  La3  1  0.998342  0.144057  0.169236  1
  Ti  Ti4  1  0.502496  0.121219  0.859734  1
  Ti  Ti5  1  0.502496  0.878781  0.140266  1
  Ti  Ti6  1  0.497808  0.616620  0.642246  1
  Ti  Ti7  1  0.497808  0.383380  0.357754  1
  Ti  Ti8  1  0.240140  0.000000  0.500000  1
  Cr  Cr9  1  0.251071  0.500000  0.000000  1
  Cr  Cr10  1  0.744847  0.000000  0.500000  1
  Cr  Cr11  1  0.749087  0.500000  0.000000  1
  O  O12  1  0.261293  0.902220  0.292496  1
  O  O13  1  0.261293  0.097780  0.707504  1
  O  O14  1  0.742866  0.399952  0.213632  1
  O  O15  1  0.742866  0.600048  0.786368  1
  O  O16  1  0.746196  0.108697  0.726879  1
  O  O17  1  0.746196  0.891303  0.273121  1
  O  O18  1  0.256446  0.598867  0.786677  1
  O  O19  1  0.256446  0.401133  0.213323  1
  O  O20  1  0.500065  0.339210  0.930256  1
  O  O21  1  0.500065  0.660790  0.069744  1
  O  O22  1  0.495868  0.834683  0.575187  1
  O  O23  1  0.495868  0.165317  0.424813  1
  O  O24  1  0.282652  0.000000  0.000000  1
  O  O25  1  0.713092  0.500000  0.500000  1
  O  O26  1  0.710658  0.000000  0.000000  1
  O  O27  1  0.285871  0.500000  0.500000  1
  O  O28  1  0.012734  0.159701  0.447084  1
  O  O29  1  0.012734  0.840299  0.552916  1
  O  O30  1  0.000803  0.659503  0.052534  1
  O  O31  1  0.000803  0.340497  0.947466  1
