# generated using pymatgen
data_BaDyF5
_symmetry_space_group_name_H-M   'P 1'
_cell_length_a   8.45772615
_cell_length_b   8.45772459
_cell_length_c   5.95622734
_cell_angle_alpha   89.24672667
_cell_angle_beta   89.24672480
_cell_angle_gamma   149.37689671
_symmetry_Int_Tables_number   1
_chemical_formula_structural   BaDyF5
_chemical_formula_sum   'Ba2 Dy2 F10'
_cell_volume   216.76473482
_cell_formula_units_Z   2
loop_
 _symmetry_equiv_pos_site_id
 _symmetry_equiv_pos_as_xyz
  1  'x, y, z'
loop_
 _atom_site_type_symbol
 _atom_site_label
 _atom_site_symmetry_multiplicity
 _atom_site_fract_x
 _atom_site_fract_y
 _atom_site_fract_z
 _atom_site_occupancy
  Ba  Ba0  1  0.327278  0.672722  0.750000  1
  Ba  Ba1  1  0.672722  0.327278  0.250000  1
  Dy  Dy2  1  0.073515  0.926485  0.750000  1
  Dy  Dy3  1  0.926485  0.073515  0.250000  1
  F  F4  1  0.740026  0.808632  0.592141  1
  F  F5  1  0.808632  0.740026  0.092141  1
  F  F6  1  0.804728  0.171309  0.012006  1
  F  F7  1  0.617451  0.382549  0.750000  1
  F  F8  1  0.828691  0.195272  0.487994  1
  F  F9  1  0.171309  0.804728  0.512006  1
  F  F10  1  0.382549  0.617451  0.250000  1
  F  F11  1  0.195272  0.828691  0.987994  1
  F  F12  1  0.191368  0.259974  0.907859  1
  F  F13  1  0.259974  0.191368  0.407859  1
