# generated using pymatgen
data_TmAl4(FeRe)4
_symmetry_space_group_name_H-M   'P 1'
_cell_length_a   6.65696341
_cell_length_b   6.65696401
_cell_length_c   6.65696400
_cell_angle_alpha   97.59763792
_cell_angle_beta   97.59762993
_cell_angle_gamma   137.35532593
_symmetry_Int_Tables_number   1
_chemical_formula_structural   TmAl4(FeRe)4
_chemical_formula_sum   'Tm1 Al4 Fe4 Re4'
_cell_volume   186.17081498
_cell_formula_units_Z   1
loop_
 _symmetry_equiv_pos_site_id
 _symmetry_equiv_pos_as_xyz
  1  'x, y, z'
loop_
 _atom_site_type_symbol
 _atom_site_label
 _atom_site_symmetry_multiplicity
 _atom_site_fract_x
 _atom_site_fract_y
 _atom_site_fract_z
 _atom_site_occupancy
  Tm  Tm0  1  0.000000  0.000000  0.000000  1
  Al  Al1  1  0.723008  0.500000  0.223008  1
  Al  Al2  1  0.500000  0.723008  0.223008  1
  Al  Al3  1  0.500000  0.276992  0.776992  1
  Al  Al4  1  0.276992  0.500000  0.776992  1
  Fe  Fe5  1  0.000000  0.000000  0.500000  1
  Fe  Fe6  1  0.500000  0.000000  0.000000  1
  Fe  Fe7  1  0.000000  0.500000  0.000000  1
  Fe  Fe8  1  0.500000  0.500000  0.500000  1
  Re  Re9  1  0.641372  0.000000  0.641372  1
  Re  Re10  1  0.000000  0.641372  0.641372  1
  Re  Re11  1  0.000000  0.358628  0.358628  1
  Re  Re12  1  0.358628  0.000000  0.358628  1
