# generated using pymatgen
data_ScF18
_symmetry_space_group_name_H-M   'P 1'
_cell_length_a   6.11577319
_cell_length_b   8.96245500
_cell_length_c   13.20059680
_cell_angle_alpha   102.01418913
_cell_angle_beta   88.46882043
_cell_angle_gamma   109.69572026
_symmetry_Int_Tables_number   1
_chemical_formula_structural   ScF18
_chemical_formula_sum   'Sc2 F36'
_cell_volume   665.56154932
_cell_formula_units_Z   2
loop_
 _symmetry_equiv_pos_site_id
 _symmetry_equiv_pos_as_xyz
  1  'x, y, z'
loop_
 _atom_site_type_symbol
 _atom_site_label
 _atom_site_symmetry_multiplicity
 _atom_site_fract_x
 _atom_site_fract_y
 _atom_site_fract_z
 _atom_site_occupancy
  Sc  Sc0  1  0.119864  0.961652  0.264645  1
  Sc  Sc1  1  0.880136  0.038348  0.735355  1
  F  F2  1  0.693841  0.631322  0.368211  1
  F  F3  1  0.306159  0.368678  0.631789  1
  F  F4  1  0.042875  0.329854  0.365520  1
  F  F5  1  0.957125  0.670146  0.634480  1
  F  F6  1  0.187574  0.913789  0.966796  1
  F  F7  1  0.812426  0.086211  0.033204  1
  F  F8  1  0.839709  0.914654  0.355681  1
  F  F9  1  0.160291  0.085346  0.644319  1
  F  F10  1  0.077186  0.718562  0.235008  1
  F  F11  1  0.922814  0.281438  0.764992  1
  F  F12  1  0.531063  0.478381  0.378451  1
  F  F13  1  0.468937  0.521619  0.621549  1
  F  F14  1  0.014743  0.052619  0.171769  1
  F  F15  1  0.985257  0.947381  0.828231  1
  F  F16  1  0.134477  0.096102  0.410650  1
  F  F17  1  0.865523  0.903898  0.589350  1
  F  F18  1  0.030242  0.453546  0.315216  1
  F  F19  1  0.969758  0.546454  0.684784  1
  F  F20  1  0.759699  0.726406  0.067954  1
  F  F21  1  0.240301  0.273594  0.932046  1
  F  F22  1  0.828926  0.595267  0.014560  1
  F  F23  1  0.171074  0.404733  0.985440  1
  F  F24  1  0.518676  0.593295  0.855905  1
  F  F25  1  0.481324  0.406705  0.144095  1
  F  F26  1  0.477460  0.047770  0.274312  1
  F  F27  1  0.522540  0.952230  0.725688  1
  F  F28  1  0.271051  0.877081  0.464473  1
  F  F29  1  0.728949  0.122919  0.535527  1
  F  F30  1  0.301681  0.883042  0.050319  1
  F  F31  1  0.698319  0.116958  0.949681  1
  F  F32  1  0.414500  0.814790  0.214426  1
  F  F33  1  0.585500  0.185210  0.785574  1
  F  F34  1  0.619250  0.309355  0.152883  1
  F  F35  1  0.380750  0.690645  0.847117  1
  F  F36  1  0.340924  0.742563  0.471050  1
  F  F37  1  0.659076  0.257437  0.528950  1
