# generated using pymatgen
data_TbY3Fe12(P3Rh2)4
_symmetry_space_group_name_H-M   'P 1'
_cell_length_a   3.77165200
_cell_length_b   10.35553400
_cell_length_c   12.19055600
_cell_angle_alpha   89.99923283
_cell_angle_beta   90.00000000
_cell_angle_gamma   90.00000000
_symmetry_Int_Tables_number   1
_chemical_formula_structural   TbY3Fe12(P3Rh2)4
_chemical_formula_sum   'Tb1 Y3 Fe12 P12 Rh8'
_cell_volume   476.13228160
_cell_formula_units_Z   1
loop_
 _symmetry_equiv_pos_site_id
 _symmetry_equiv_pos_as_xyz
  1  'x, y, z'
loop_
 _atom_site_type_symbol
 _atom_site_label
 _atom_site_symmetry_multiplicity
 _atom_site_fract_x
 _atom_site_fract_y
 _atom_site_fract_z
 _atom_site_occupancy
  Tb  Tb0  1  0.750000  0.080991  0.789153  1
  Y  Y1  1  0.250000  0.580979  0.710841  1
  Y  Y2  1  0.250000  0.919021  0.210841  1
  Y  Y3  1  0.750000  0.419001  0.289159  1
  Fe  Fe4  1  0.250000  0.224275  0.170972  1
  Fe  Fe5  1  0.250000  0.275744  0.670961  1
  Fe  Fe6  1  0.750000  0.775709  0.829037  1
  Fe  Fe7  1  0.750000  0.724279  0.329035  1
  Fe  Fe8  1  0.250000  0.877767  0.697187  1
  Fe  Fe9  1  0.250000  0.622214  0.197205  1
  Fe  Fe10  1  0.750000  0.122220  0.302795  1
  Fe  Fe11  1  0.750000  0.377792  0.802797  1
  Fe  Fe12  1  0.250000  0.459299  0.935267  1
  Fe  Fe13  1  0.250000  0.040701  0.435258  1
  Fe  Fe14  1  0.750000  0.540700  0.064736  1
  Fe  Fe15  1  0.750000  0.959294  0.564721  1
  P  P16  1  0.250000  0.429581  0.112568  1
  P  P17  1  0.250000  0.070408  0.612539  1
  P  P18  1  0.750000  0.570417  0.887434  1
  P  P19  1  0.750000  0.929587  0.387434  1
  P  P20  1  0.250000  0.274270  0.853103  1
  P  P21  1  0.250000  0.225778  0.353100  1
  P  P22  1  0.750000  0.725780  0.146889  1
  P  P23  1  0.750000  0.774235  0.646899  1
  P  P24  1  0.250000  0.606472  0.377982  1
  P  P25  1  0.250000  0.893495  0.877990  1
  P  P26  1  0.750000  0.393520  0.622028  1
  P  P27  1  0.750000  0.106474  0.122020  1
  Rh  Rh28  1  0.250000  0.707297  0.985271  1
  Rh  Rh29  1  0.250000  0.792711  0.485271  1
  Rh  Rh30  1  0.750000  0.292700  0.014726  1
  Rh  Rh31  1  0.750000  0.207291  0.514744  1
  Rh  Rh32  1  0.250000  0.404832  0.479505  1
  Rh  Rh33  1  0.250000  0.095162  0.979548  1
  Rh  Rh34  1  0.750000  0.595166  0.520492  1
  Rh  Rh35  1  0.750000  0.904838  0.020493  1
