# generated using pymatgen
data_LiTb8HgRh2
_symmetry_space_group_name_H-M   'P 1'
_cell_length_a   9.66511327
_cell_length_b   9.66511341
_cell_length_c   9.69013800
_cell_angle_alpha   59.91431403
_cell_angle_beta   59.91431355
_cell_angle_gamma   59.85275762
_symmetry_Int_Tables_number   1
_chemical_formula_structural   LiTb8HgRh2
_chemical_formula_sum   'Li2 Tb16 Hg2 Rh4'
_cell_volume   638.52928609
_cell_formula_units_Z   2
loop_
 _symmetry_equiv_pos_site_id
 _symmetry_equiv_pos_as_xyz
  1  'x, y, z'
loop_
 _atom_site_type_symbol
 _atom_site_label
 _atom_site_symmetry_multiplicity
 _atom_site_fract_x
 _atom_site_fract_y
 _atom_site_fract_z
 _atom_site_occupancy
  Li  Li0  1  0.430169  0.430169  0.423792  1
  Li  Li1  1  0.430169  0.430169  0.715868  1
  Tb  Tb2  1  0.808990  0.808990  0.191010  1
  Tb  Tb3  1  0.813216  0.186622  0.812073  1
  Tb  Tb4  1  0.183770  0.183770  0.816230  1
  Tb  Tb5  1  0.653452  0.041885  0.652332  1
  Tb  Tb6  1  0.065364  0.065364  0.434636  1
  Tb  Tb7  1  0.436857  0.436857  0.063143  1
  Tb  Tb8  1  0.650274  0.650274  0.649176  1
  Tb  Tb9  1  0.813216  0.186622  0.188089  1
  Tb  Tb10  1  0.186622  0.813216  0.812073  1
  Tb  Tb11  1  0.041885  0.653452  0.652332  1
  Tb  Tb12  1  0.435886  0.062250  0.065878  1
  Tb  Tb13  1  0.435886  0.062250  0.435987  1
  Tb  Tb14  1  0.062250  0.435886  0.065878  1
  Tb  Tb15  1  0.650274  0.650274  0.050275  1
  Tb  Tb16  1  0.186622  0.813216  0.188089  1
  Tb  Tb17  1  0.062250  0.435886  0.435987  1
  Hg  Hg18  1  0.409132  0.753268  0.418800  1
  Hg  Hg19  1  0.753268  0.409132  0.418800  1
  Rh  Rh20  1  0.854407  0.425674  0.859960  1
  Rh  Rh21  1  0.855184  0.855184  0.862050  1
  Rh  Rh22  1  0.855184  0.855184  0.427584  1
  Rh  Rh23  1  0.425674  0.854407  0.859960  1
