# generated using pymatgen
data_Lu10Ga3CoTe4
_symmetry_space_group_name_H-M   'P 1'
_cell_length_a   8.46102160
_cell_length_b   8.46102281
_cell_length_c   7.71603214
_cell_angle_alpha   90.58748084
_cell_angle_beta   90.58747743
_cell_angle_gamma   125.74368251
_symmetry_Int_Tables_number   1
_chemical_formula_structural   Lu10Ga3CoTe4
_chemical_formula_sum   'Lu10 Ga3 Co1 Te4'
_cell_volume   448.22126717
_cell_formula_units_Z   1
loop_
 _symmetry_equiv_pos_site_id
 _symmetry_equiv_pos_as_xyz
  1  'x, y, z'
loop_
 _atom_site_type_symbol
 _atom_site_label
 _atom_site_symmetry_multiplicity
 _atom_site_fract_x
 _atom_site_fract_y
 _atom_site_fract_z
 _atom_site_occupancy
  Lu  Lu0  1  0.994649  0.994649  0.005031  1
  Lu  Lu1  1  0.505799  0.505799  0.494077  1
  Lu  Lu2  1  0.809321  0.567709  0.185837  1
  Lu  Lu3  1  0.461315  0.213734  0.835430  1
  Lu  Lu4  1  0.955803  0.714685  0.647978  1
  Lu  Lu5  1  0.265098  0.026041  0.337833  1
  Lu  Lu6  1  0.213734  0.461315  0.835430  1
  Lu  Lu7  1  0.567709  0.809321  0.185837  1
  Lu  Lu8  1  0.026041  0.265098  0.337833  1
  Lu  Lu9  1  0.714685  0.955803  0.647978  1
  Ga  Ga10  1  0.129494  0.129494  0.630492  1
  Ga  Ga11  1  0.629691  0.629691  0.871917  1
  Ga  Ga12  1  0.367916  0.367916  0.126222  1
  Co  Co13  1  0.869274  0.869274  0.377128  1
  Te  Te14  1  0.217279  0.799899  0.992926  1
  Te  Te15  1  0.691199  0.281095  0.497562  1
  Te  Te16  1  0.799899  0.217279  0.992926  1
  Te  Te17  1  0.281095  0.691199  0.497562  1
