# generated using pymatgen
data_Lu4Al18(IrPt)3
_symmetry_space_group_name_H-M   'P 1'
_cell_length_a   7.56466754
_cell_length_b   7.56466807
_cell_length_c   9.35742067
_cell_angle_alpha   89.97825027
_cell_angle_beta   89.97825600
_cell_angle_gamma   119.64634650
_symmetry_Int_Tables_number   1
_chemical_formula_structural   Lu4Al18(IrPt)3
_chemical_formula_sum   'Lu4 Al18 Ir3 Pt3'
_cell_volume   465.37500293
_cell_formula_units_Z   1
loop_
 _symmetry_equiv_pos_site_id
 _symmetry_equiv_pos_as_xyz
  1  'x, y, z'
loop_
 _atom_site_type_symbol
 _atom_site_label
 _atom_site_symmetry_multiplicity
 _atom_site_fract_x
 _atom_site_fract_y
 _atom_site_fract_z
 _atom_site_occupancy
  Lu  Lu0  1  0.995659  0.670844  0.250895  1
  Lu  Lu1  1  0.004467  0.329022  0.749090  1
  Lu  Lu2  1  0.670978  0.995533  0.250910  1
  Lu  Lu3  1  0.329156  0.004341  0.749105  1
  Al  Al4  1  0.125924  0.126578  0.250542  1
  Al  Al5  1  0.873422  0.874076  0.749458  1
  Al  Al6  1  0.999302  0.331912  0.077743  1
  Al  Al7  1  0.000361  0.668628  0.921594  1
  Al  Al8  1  0.997953  0.664875  0.576307  1
  Al  Al9  1  0.335125  0.002047  0.423693  1
  Al  Al10  1  0.995999  0.331262  0.423602  1
  Al  Al11  1  0.668738  0.004001  0.576398  1
  Al  Al12  1  0.668088  0.000698  0.922257  1
  Al  Al13  1  0.331372  0.999639  0.078406  1
  Al  Al14  1  0.332050  0.328878  0.555803  1
  Al  Al15  1  0.671122  0.667950  0.444197  1
  Al  Al16  1  0.670243  0.670425  0.059177  1
  Al  Al17  1  0.329575  0.329757  0.940823  1
  Al  Al18  1  0.339959  0.546525  0.250610  1
  Al  Al19  1  0.659507  0.451583  0.747619  1
  Al  Al20  1  0.548417  0.340493  0.252381  1
  Al  Al21  1  0.453475  0.660041  0.749390  1
  Ir  Ir22  1  0.672372  0.327628  0.500000  1
  Ir  Ir23  1  0.999808  0.000192  0.000000  1
  Ir  Ir24  1  0.000345  0.999655  0.500000  1
  Pt  Pt25  1  0.672347  0.327653  0.000000  1
  Pt  Pt26  1  0.327111  0.672889  0.000000  1
  Pt  Pt27  1  0.327123  0.672877  0.500000  1
