# generated using pymatgen
data_Np2BeAs4
_symmetry_space_group_name_H-M   'P 1'
_cell_length_a   3.92468600
_cell_length_b   3.92468600
_cell_length_c   9.03076900
_cell_angle_alpha   90.00000000
_cell_angle_beta   90.00000000
_cell_angle_gamma   90.00000000
_symmetry_Int_Tables_number   1
_chemical_formula_structural   Np2BeAs4
_chemical_formula_sum   'Np2 Be1 As4'
_cell_volume   139.10238162
_cell_formula_units_Z   1
loop_
 _symmetry_equiv_pos_site_id
 _symmetry_equiv_pos_as_xyz
  1  'x, y, z'
loop_
 _atom_site_type_symbol
 _atom_site_label
 _atom_site_symmetry_multiplicity
 _atom_site_fract_x
 _atom_site_fract_y
 _atom_site_fract_z
 _atom_site_occupancy
  Np  Np0  1  0.500000  0.000000  0.755173  1
  Np  Np1  1  0.000000  0.500000  0.244827  1
  Be  Be2  1  0.500000  0.500000  0.000000  1
  As  As3  1  0.500000  0.000000  0.135867  1
  As  As4  1  0.000000  0.500000  0.864133  1
  As  As5  1  0.500000  0.500000  0.500000  1
  As  As6  1  0.000000  0.000000  0.500000  1
