# generated using pymatgen
data_Tb3Hf(Ni4P3)2
_symmetry_space_group_name_H-M   'P 1'
_cell_length_a   3.82316200
_cell_length_b   10.80511000
_cell_length_c   12.40295100
_cell_angle_alpha   90.00000000
_cell_angle_beta   90.00000000
_cell_angle_gamma   90.00000000
_symmetry_Int_Tables_number   1
_chemical_formula_structural   Tb3Hf(Ni4P3)2
_chemical_formula_sum   'Tb6 Hf2 Ni16 P12'
_cell_volume   512.36201076
_cell_formula_units_Z   2
loop_
 _symmetry_equiv_pos_site_id
 _symmetry_equiv_pos_as_xyz
  1  'x, y, z'
loop_
 _atom_site_type_symbol
 _atom_site_label
 _atom_site_symmetry_multiplicity
 _atom_site_fract_x
 _atom_site_fract_y
 _atom_site_fract_z
 _atom_site_occupancy
  Tb  Tb0  1  0.751900  0.000000  0.474377  1
  Tb  Tb1  1  0.251900  0.500000  0.525623  1
  Tb  Tb2  1  0.251773  0.679961  0.794536  1
  Tb  Tb3  1  0.251773  0.320039  0.794536  1
  Tb  Tb4  1  0.751773  0.820039  0.205464  1
  Tb  Tb5  1  0.751773  0.179961  0.205464  1
  Hf  Hf6  1  0.251678  0.000000  0.847414  1
  Hf  Hf7  1  0.751678  0.500000  0.152586  1
  Ni  Ni8  1  0.751778  0.000000  0.017886  1
  Ni  Ni9  1  0.251778  0.500000  0.982114  1
  Ni  Ni10  1  0.252019  0.200138  0.571234  1
  Ni  Ni11  1  0.252019  0.799862  0.571234  1
  Ni  Ni12  1  0.752019  0.299862  0.428766  1
  Ni  Ni13  1  0.752019  0.700138  0.428766  1
  Ni  Ni14  1  0.251809  0.621289  0.292327  1
  Ni  Ni15  1  0.251809  0.378711  0.292327  1
  Ni  Ni16  1  0.751809  0.878711  0.707673  1
  Ni  Ni17  1  0.751809  0.121289  0.707673  1
  Ni  Ni18  1  0.251707  0.165559  0.010765  1
  Ni  Ni19  1  0.251707  0.834441  0.010765  1
  Ni  Ni20  1  0.751707  0.334441  0.989235  1
  Ni  Ni21  1  0.751707  0.665559  0.989235  1
  Ni  Ni22  1  0.252093  0.000000  0.299379  1
  Ni  Ni23  1  0.752093  0.500000  0.700621  1
  P  P24  1  0.251866  0.187229  0.386143  1
  P  P25  1  0.251866  0.812771  0.386143  1
  P  P26  1  0.751866  0.312771  0.613857  1
  P  P27  1  0.751866  0.687229  0.613857  1
  P  P28  1  0.251788  0.000000  0.121085  1
  P  P29  1  0.751788  0.500000  0.878915  1
  P  P30  1  0.251657  0.660233  0.105035  1
  P  P31  1  0.251657  0.339767  0.105035  1
  P  P32  1  0.751657  0.839767  0.894965  1
  P  P33  1  0.751657  0.160233  0.894965  1
  P  P34  1  0.251901  0.000000  0.642557  1
  P  P35  1  0.751901  0.500000  0.357443  1
