# generated using pymatgen
data_Lu2Pa(P2Rh3)3
_symmetry_space_group_name_H-M   'P 1'
_cell_length_a   3.92563200
_cell_length_b   11.16008500
_cell_length_c   12.70660800
_cell_angle_alpha   90.00000000
_cell_angle_beta   90.00000000
_cell_angle_gamma   90.00000000
_symmetry_Int_Tables_number   1
_chemical_formula_structural   Lu2Pa(P2Rh3)3
_chemical_formula_sum   'Lu4 Pa2 P12 Rh18'
_cell_volume   556.68141138
_cell_formula_units_Z   2
loop_
 _symmetry_equiv_pos_site_id
 _symmetry_equiv_pos_as_xyz
  1  'x, y, z'
loop_
 _atom_site_type_symbol
 _atom_site_label
 _atom_site_symmetry_multiplicity
 _atom_site_fract_x
 _atom_site_fract_y
 _atom_site_fract_z
 _atom_site_occupancy
  Lu  Lu0  1  0.500000  0.814383  0.206096  1
  Lu  Lu1  1  0.500000  0.185617  0.206096  1
  Lu  Lu2  1  0.000000  0.685617  0.793904  1
  Lu  Lu3  1  0.000000  0.314383  0.793904  1
  Pa  Pa4  1  0.000000  0.500000  0.529092  1
  Pa  Pa5  1  0.500000  0.000000  0.470908  1
  P  P6  1  0.500000  0.500000  0.876012  1
  P  P7  1  0.000000  0.000000  0.123988  1
  P  P8  1  0.500000  0.500000  0.352812  1
  P  P9  1  0.000000  0.000000  0.647188  1
  P  P10  1  0.500000  0.313660  0.620943  1
  P  P11  1  0.500000  0.686340  0.620943  1
  P  P12  1  0.000000  0.186340  0.379057  1
  P  P13  1  0.000000  0.813660  0.379057  1
  P  P14  1  0.500000  0.846085  0.893157  1
  P  P15  1  0.500000  0.153915  0.893157  1
  P  P16  1  0.000000  0.653915  0.106843  1
  P  P17  1  0.000000  0.346085  0.106843  1
  Rh  Rh18  1  0.500000  0.500000  0.169299  1
  Rh  Rh19  1  0.000000  0.000000  0.830701  1
  Rh  Rh20  1  0.500000  0.500000  0.698752  1
  Rh  Rh21  1  0.000000  0.000000  0.301248  1
  Rh  Rh22  1  0.000000  0.500000  0.977798  1
  Rh  Rh23  1  0.500000  0.000000  0.022202  1
  Rh  Rh24  1  0.500000  0.333914  0.991514  1
  Rh  Rh25  1  0.500000  0.666086  0.991514  1
  Rh  Rh26  1  0.000000  0.166086  0.008486  1
  Rh  Rh27  1  0.000000  0.833914  0.008486  1
  Rh  Rh28  1  0.500000  0.301017  0.433924  1
  Rh  Rh29  1  0.500000  0.698983  0.433924  1
  Rh  Rh30  1  0.000000  0.198983  0.566076  1
  Rh  Rh31  1  0.000000  0.801017  0.566076  1
  Rh  Rh32  1  0.500000  0.871608  0.711249  1
  Rh  Rh33  1  0.500000  0.128392  0.711249  1
  Rh  Rh34  1  0.000000  0.628392  0.288751  1
  Rh  Rh35  1  0.000000  0.371608  0.288751  1
