# generated using pymatgen
data_MgCdBi3Sb3O14
_symmetry_space_group_name_H-M   'P 1'
_cell_length_a   7.39093953
_cell_length_b   7.39093872
_cell_length_c   7.39094442
_cell_angle_alpha   61.47014580
_cell_angle_beta   61.47008059
_cell_angle_gamma   61.47006969
_symmetry_Int_Tables_number   1
_chemical_formula_structural   MgCdBi3Sb3O14
_chemical_formula_sum   'Mg1 Cd1 Bi3 Sb3 O14'
_cell_volume   294.90856913
_cell_formula_units_Z   1
loop_
 _symmetry_equiv_pos_site_id
 _symmetry_equiv_pos_as_xyz
  1  'x, y, z'
loop_
 _atom_site_type_symbol
 _atom_site_label
 _atom_site_symmetry_multiplicity
 _atom_site_fract_x
 _atom_site_fract_y
 _atom_site_fract_z
 _atom_site_occupancy
  Mg  Mg0  1  0.000000  0.499999  0.000002  1
  Cd  Cd1  1  0.499995  0.999977  0.500027  1
  Bi  Bi2  1  0.000001  0.000005  0.499989  1
  Bi  Bi3  1  0.500008  0.000016  0.999997  1
  Bi  Bi4  1  0.499997  0.500005  0.499984  1
  Sb  Sb5  1  0.499998  0.500006  0.999995  1
  Sb  Sb6  1  0.999997  0.500003  0.500004  1
  Sb  Sb7  1  0.000003  0.999993  0.999999  1
  O  O8  1  0.619741  0.119745  0.619736  1
  O  O9  1  0.380262  0.880265  0.380256  1
  O  O10  1  0.076628  0.178590  0.678591  1
  O  O11  1  0.678589  0.178588  0.076624  1
  O  O12  1  0.678592  0.576629  0.678592  1
  O  O13  1  0.923373  0.821409  0.321410  1
  O  O14  1  0.321407  0.821406  0.923369  1
  O  O15  1  0.321411  0.423374  0.321413  1
  O  O16  1  0.659161  0.583353  0.083366  1
  O  O17  1  0.083364  0.583359  0.659159  1
  O  O18  1  0.083355  0.159163  0.083363  1
  O  O19  1  0.340839  0.416633  0.916646  1
  O  O20  1  0.916643  0.416639  0.340837  1
  O  O21  1  0.916635  0.840841  0.916642  1
