# generated using pymatgen
data_Lu4Ga3SiNi4
_symmetry_space_group_name_H-M   'P 1'
_cell_length_a   4.19585200
_cell_length_b   6.70920843
_cell_length_c   7.22323509
_cell_angle_alpha   90.83127558
_cell_angle_beta   90.00000000
_cell_angle_gamma   90.00000000
_symmetry_Int_Tables_number   1
_chemical_formula_structural   Lu4Ga3SiNi4
_chemical_formula_sum   'Lu4 Ga3 Si1 Ni4'
_cell_volume   203.31877510
_cell_formula_units_Z   1
loop_
 _symmetry_equiv_pos_site_id
 _symmetry_equiv_pos_as_xyz
  1  'x, y, z'
loop_
 _atom_site_type_symbol
 _atom_site_label
 _atom_site_symmetry_multiplicity
 _atom_site_fract_x
 _atom_site_fract_y
 _atom_site_fract_z
 _atom_site_occupancy
  Lu  Lu0  1  0.250000  0.013893  0.796893  1
  Lu  Lu1  1  0.250000  0.509872  0.696973  1
  Lu  Lu2  1  0.750000  0.987679  0.202937  1
  Lu  Lu3  1  0.750000  0.484675  0.299075  1
  Ga  Ga4  1  0.250000  0.684046  0.081089  1
  Ga  Ga5  1  0.750000  0.809157  0.582795  1
  Ga  Ga6  1  0.750000  0.312518  0.918736  1
  Si  Si7  1  0.250000  0.182844  0.418863  1
  Ni  Ni8  1  0.250000  0.809651  0.410768  1
  Ni  Ni9  1  0.250000  0.286715  0.101771  1
  Ni  Ni10  1  0.750000  0.210217  0.579570  1
  Ni  Ni11  1  0.750000  0.708734  0.910530  1
