# generated using pymatgen
data_LaYb6Co4Sn13
_symmetry_space_group_name_H-M   'P 1'
_cell_length_a   11.18395285
_cell_length_b   11.17029763
_cell_length_c   4.60838400
_cell_angle_alpha   90.00000000
_cell_angle_beta   90.00000000
_cell_angle_gamma   89.93587359
_symmetry_Int_Tables_number   1
_chemical_formula_structural   LaYb6Co4Sn13
_chemical_formula_sum   'La1 Yb6 Co4 Sn13'
_cell_volume   575.71621401
_cell_formula_units_Z   1
loop_
 _symmetry_equiv_pos_site_id
 _symmetry_equiv_pos_as_xyz
  1  'x, y, z'
loop_
 _atom_site_type_symbol
 _atom_site_label
 _atom_site_symmetry_multiplicity
 _atom_site_fract_x
 _atom_site_fract_y
 _atom_site_fract_z
 _atom_site_occupancy
  La  La0  1  0.500000  0.000000  0.500000  1
  Yb  Yb1  1  0.000000  0.000000  0.000000  1
  Yb  Yb2  1  0.336670  0.670289  0.500000  1
  Yb  Yb3  1  0.663330  0.329711  0.500000  1
  Yb  Yb4  1  0.328136  0.338234  0.500000  1
  Yb  Yb5  1  0.671864  0.661766  0.500000  1
  Yb  Yb6  1  0.000000  0.500000  0.500000  1
  Co  Co7  1  0.119875  0.724724  0.000000  1
  Co  Co8  1  0.880125  0.275276  0.000000  1
  Co  Co9  1  0.275977  0.119790  0.000000  1
  Co  Co10  1  0.724023  0.880210  0.000000  1
  Sn  Sn11  1  0.282682  0.888658  0.000000  1
  Sn  Sn12  1  0.717318  0.111342  0.000000  1
  Sn  Sn13  1  0.110387  0.282109  0.000000  1
  Sn  Sn14  1  0.889613  0.717891  0.000000  1
  Sn  Sn15  1  0.077095  0.805442  0.500000  1
  Sn  Sn16  1  0.922905  0.194558  0.500000  1
  Sn  Sn17  1  0.192878  0.078101  0.500000  1
  Sn  Sn18  1  0.807122  0.921899  0.500000  1
  Sn  Sn19  1  0.520732  0.782651  0.000000  1
  Sn  Sn20  1  0.479268  0.217349  0.000000  1
  Sn  Sn21  1  0.214114  0.520744  0.000000  1
  Sn  Sn22  1  0.785886  0.479256  0.000000  1
  Sn  Sn23  1  0.500000  0.500000  0.000000  1
