# generated using pymatgen
data_Tb3Er3(AlC3)2
_symmetry_space_group_name_H-M   'P 1'
_cell_length_a   3.56644400
_cell_length_b   7.05552513
_cell_length_c   9.94813820
_cell_angle_alpha   89.86563452
_cell_angle_beta   90.00000000
_cell_angle_gamma   90.00000000
_symmetry_Int_Tables_number   1
_chemical_formula_structural   Tb3Er3(AlC3)2
_chemical_formula_sum   'Tb3 Er3 Al2 C6'
_cell_volume   250.32565888
_cell_formula_units_Z   1
loop_
 _symmetry_equiv_pos_site_id
 _symmetry_equiv_pos_as_xyz
  1  'x, y, z'
loop_
 _atom_site_type_symbol
 _atom_site_label
 _atom_site_symmetry_multiplicity
 _atom_site_fract_x
 _atom_site_fract_y
 _atom_site_fract_z
 _atom_site_occupancy
  Tb  Tb0  1  0.500000  0.509419  0.199107  1
  Tb  Tb1  1  0.000000  0.750507  0.459734  1
  Tb  Tb2  1  0.000000  0.250238  0.540554  1
  Er  Er3  1  0.500000  0.486532  0.800447  1
  Er  Er4  1  0.500000  0.987689  0.200334  1
  Er  Er5  1  0.500000  0.012367  0.799124  1
  Al  Al6  1  0.000000  0.753271  0.003575  1
  Al  Al7  1  0.000000  0.246061  0.994702  1
  C  C8  1  0.500000  0.509542  0.568180  1
  C  C9  1  0.500000  0.491507  0.435462  1
  C  C10  1  0.500000  0.991293  0.566348  1
  C  C11  1  0.500000  0.009218  0.433487  1
  C  C12  1  0.000000  0.752857  0.207150  1
  C  C13  1  0.000000  0.249496  0.791794  1
