# generated using pymatgen
data_Tb16Tl2CdInPd3Rh
_symmetry_space_group_name_H-M   'P 1'
_cell_length_a   9.76048371
_cell_length_b   9.77435844
_cell_length_c   9.80186600
_cell_angle_alpha   59.90686138
_cell_angle_beta   59.85964988
_cell_angle_gamma   59.78808090
_symmetry_Int_Tables_number   1
_chemical_formula_structural   Tb16Tl2CdInPd3Rh
_chemical_formula_sum   'Tb16 Tl2 Cd1 In1 Pd3 Rh1'
_cell_volume   659.00191441
_cell_formula_units_Z   1
loop_
 _symmetry_equiv_pos_site_id
 _symmetry_equiv_pos_as_xyz
  1  'x, y, z'
loop_
 _atom_site_type_symbol
 _atom_site_label
 _atom_site_symmetry_multiplicity
 _atom_site_fract_x
 _atom_site_fract_y
 _atom_site_fract_z
 _atom_site_occupancy
  Tb  Tb0  1  0.810357  0.810189  0.189728  1
  Tb  Tb1  1  0.810632  0.189888  0.809514  1
  Tb  Tb2  1  0.193506  0.184595  0.810949  1
  Tb  Tb3  1  0.644253  0.055065  0.650342  1
  Tb  Tb4  1  0.062662  0.063195  0.437071  1
  Tb  Tb5  1  0.435224  0.438109  0.063332  1
  Tb  Tb6  1  0.644998  0.651373  0.651022  1
  Tb  Tb7  1  0.810632  0.189888  0.189966  1
  Tb  Tb8  1  0.192986  0.811685  0.810664  1
  Tb  Tb9  1  0.061696  0.646554  0.645876  1
  Tb  Tb10  1  0.434603  0.061909  0.065116  1
  Tb  Tb11  1  0.434603  0.061909  0.438371  1
  Tb  Tb12  1  0.061004  0.436748  0.064600  1
  Tb  Tb13  1  0.644998  0.651373  0.052609  1
  Tb  Tb14  1  0.192986  0.811685  0.184665  1
  Tb  Tb15  1  0.061004  0.436748  0.437648  1
  Tl  Tl16  1  0.416041  0.415431  0.412614  1
  Tl  Tl17  1  0.416041  0.415431  0.755915  1
  Cd  Cd18  1  0.419085  0.749553  0.415680  1
  In  In19  1  0.748099  0.419180  0.416359  1
  Pd  Pd20  1  0.858311  0.431533  0.855079  1
  Pd  Pd21  1  0.857972  0.855497  0.854876  1
  Pd  Pd22  1  0.857972  0.855497  0.431656  1
  Rh  Rh23  1  0.430343  0.856962  0.856348  1
