# generated using pymatgen
data_Th2Ga5Ir3
_symmetry_space_group_name_H-M   'P 1'
_cell_length_a   8.66058373
_cell_length_b   8.66058422
_cell_length_c   8.66058450
_cell_angle_alpha   140.61752683
_cell_angle_beta   108.25454201
_cell_angle_gamma   85.05687830
_symmetry_Int_Tables_number   1
_chemical_formula_structural   Th2Ga5Ir3
_chemical_formula_sum   'Th4 Ga10 Ir6'
_cell_volume   378.08519455
_cell_formula_units_Z   2
loop_
 _symmetry_equiv_pos_site_id
 _symmetry_equiv_pos_as_xyz
  1  'x, y, z'
loop_
 _atom_site_type_symbol
 _atom_site_label
 _atom_site_symmetry_multiplicity
 _atom_site_fract_x
 _atom_site_fract_y
 _atom_site_fract_z
 _atom_site_occupancy
  Th  Th0  1  0.864345  0.641158  0.223186  1
  Th  Th1  1  0.135655  0.358842  0.776814  1
  Th  Th2  1  0.417971  0.141158  0.276814  1
  Th  Th3  1  0.582029  0.858842  0.723186  1
  Ga  Ga4  1  0.500000  0.750000  0.250000  1
  Ga  Ga5  1  0.500000  0.250000  0.750000  1
  Ga  Ga6  1  0.205673  0.955673  0.750000  1
  Ga  Ga7  1  0.794327  0.544327  0.750000  1
  Ga  Ga8  1  0.794327  0.044327  0.250000  1
  Ga  Ga9  1  0.205673  0.455673  0.250000  1
  Ga  Ga10  1  0.076012  0.909199  0.166813  1
  Ga  Ga11  1  0.923988  0.090801  0.833187  1
  Ga  Ga12  1  0.742387  0.409199  0.333187  1
  Ga  Ga13  1  0.257613  0.590801  0.666813  1
  Ir  Ir14  1  0.000000  0.750000  0.750000  1
  Ir  Ir15  1  0.000000  0.250000  0.250000  1
  Ir  Ir16  1  0.250157  0.850058  0.400099  1
  Ir  Ir17  1  0.749843  0.149942  0.599901  1
  Ir  Ir18  1  0.449959  0.350058  0.099901  1
  Ir  Ir19  1  0.550041  0.649942  0.900099  1
