# generated using pymatgen
data_CsLi3Tm2S5
_symmetry_space_group_name_H-M   'P 1'
_cell_length_a   3.98923300
_cell_length_b   7.60948335
_cell_length_c   16.73580800
_cell_angle_alpha   90.00000000
_cell_angle_beta   90.00000000
_cell_angle_gamma   74.80396510
_symmetry_Int_Tables_number   1
_chemical_formula_structural   CsLi3Tm2S5
_chemical_formula_sum   'Cs2 Li6 Tm4 S10'
_cell_volume   490.26869143
_cell_formula_units_Z   2
loop_
 _symmetry_equiv_pos_site_id
 _symmetry_equiv_pos_as_xyz
  1  'x, y, z'
loop_
 _atom_site_type_symbol
 _atom_site_label
 _atom_site_symmetry_multiplicity
 _atom_site_fract_x
 _atom_site_fract_y
 _atom_site_fract_z
 _atom_site_occupancy
  Cs  Cs0  1  0.932742  0.134517  0.250000  1
  Cs  Cs1  1  0.067259  0.865483  0.750000  1
  Li  Li2  1  0.420155  0.159692  0.041881  1
  Li  Li3  1  0.645543  0.708913  0.250000  1
  Li  Li4  1  0.420155  0.159692  0.458119  1
  Li  Li5  1  0.579846  0.840308  0.541881  1
  Li  Li6  1  0.354458  0.291087  0.750000  1
  Li  Li7  1  0.579846  0.840308  0.958119  1
  Tm  Tm8  1  0.195770  0.608463  0.094427  1
  Tm  Tm9  1  0.195770  0.608463  0.405572  1
  Tm  Tm10  1  0.804231  0.391537  0.594428  1
  Tm  Tm11  1  0.804231  0.391537  0.905572  1
  S  S12  1  0.823637  0.352726  0.067272  1
  S  S13  1  0.572548  0.854904  0.109000  1
  S  S14  1  0.232768  0.534466  0.250000  1
  S  S15  1  0.572548  0.854904  0.391000  1
  S  S16  1  0.823637  0.352726  0.432728  1
  S  S17  1  0.176365  0.647272  0.567271  1
  S  S18  1  0.427453  0.145096  0.609000  1
  S  S19  1  0.767233  0.465534  0.750000  1
  S  S20  1  0.427453  0.145096  0.891000  1
  S  S21  1  0.176365  0.647272  0.932728  1
