# generated using pymatgen
data_Tb3Co8ReP6
_symmetry_space_group_name_H-M   'P 1'
_cell_length_a   3.72442700
_cell_length_b   10.47877300
_cell_length_c   12.24040900
_cell_angle_alpha   90.00000000
_cell_angle_beta   90.00000000
_cell_angle_gamma   90.00000000
_symmetry_Int_Tables_number   1
_chemical_formula_structural   Tb3Co8ReP6
_chemical_formula_sum   'Tb6 Co16 Re2 P12'
_cell_volume   477.71164529
_cell_formula_units_Z   2
loop_
 _symmetry_equiv_pos_site_id
 _symmetry_equiv_pos_as_xyz
  1  'x, y, z'
loop_
 _atom_site_type_symbol
 _atom_site_label
 _atom_site_symmetry_multiplicity
 _atom_site_fract_x
 _atom_site_fract_y
 _atom_site_fract_z
 _atom_site_occupancy
  Tb  Tb0  1  0.000000  0.500000  0.523913  1
  Tb  Tb1  1  0.500000  0.000000  0.476087  1
  Tb  Tb2  1  0.500000  0.818048  0.206121  1
  Tb  Tb3  1  0.500000  0.181952  0.206121  1
  Tb  Tb4  1  0.000000  0.681952  0.793879  1
  Tb  Tb5  1  0.000000  0.318048  0.793879  1
  Co  Co6  1  0.500000  0.500000  0.702484  1
  Co  Co7  1  0.000000  0.000000  0.297516  1
  Co  Co8  1  0.000000  0.500000  0.987892  1
  Co  Co9  1  0.500000  0.000000  0.012108  1
  Co  Co10  1  0.500000  0.332361  0.990155  1
  Co  Co11  1  0.500000  0.667639  0.990155  1
  Co  Co12  1  0.000000  0.167639  0.009845  1
  Co  Co13  1  0.000000  0.832361  0.009845  1
  Co  Co14  1  0.500000  0.296789  0.430914  1
  Co  Co15  1  0.500000  0.703211  0.430914  1
  Co  Co16  1  0.000000  0.203211  0.569086  1
  Co  Co17  1  0.000000  0.796789  0.569086  1
  Co  Co18  1  0.500000  0.879740  0.708766  1
  Co  Co19  1  0.500000  0.120260  0.708766  1
  Co  Co20  1  0.000000  0.620260  0.291234  1
  Co  Co21  1  0.000000  0.379740  0.291234  1
  Re  Re22  1  0.500000  0.500000  0.155361  1
  Re  Re23  1  0.000000  0.000000  0.844639  1
  P  P24  1  0.500000  0.500000  0.880584  1
  P  P25  1  0.000000  0.000000  0.119416  1
  P  P26  1  0.500000  0.500000  0.348527  1
  P  P27  1  0.000000  0.000000  0.651473  1
  P  P28  1  0.500000  0.311359  0.615836  1
  P  P29  1  0.500000  0.688641  0.615836  1
  P  P30  1  0.000000  0.188641  0.384164  1
  P  P31  1  0.000000  0.811359  0.384164  1
  P  P32  1  0.500000  0.845941  0.892615  1
  P  P33  1  0.500000  0.154059  0.892615  1
  P  P34  1  0.000000  0.654059  0.107385  1
  P  P35  1  0.000000  0.345941  0.107385  1
