# generated using pymatgen
data_Dy3Lu3(Al3Co)8
_symmetry_space_group_name_H-M   'P 1'
_cell_length_a   8.61868400
_cell_length_b   8.61868461
_cell_length_c   9.26102500
_cell_angle_alpha   90.00000000
_cell_angle_beta   90.00000000
_cell_angle_gamma   119.99999764
_symmetry_Int_Tables_number   1
_chemical_formula_structural   Dy3Lu3(Al3Co)8
_chemical_formula_sum   'Dy3 Lu3 Al24 Co8'
_cell_volume   595.76041741
_cell_formula_units_Z   1
loop_
 _symmetry_equiv_pos_site_id
 _symmetry_equiv_pos_as_xyz
  1  'x, y, z'
loop_
 _atom_site_type_symbol
 _atom_site_label
 _atom_site_symmetry_multiplicity
 _atom_site_fract_x
 _atom_site_fract_y
 _atom_site_fract_z
 _atom_site_occupancy
  Dy  Dy0  1  0.806239  0.193761  0.750000  1
  Dy  Dy1  1  0.806239  0.612479  0.750000  1
  Dy  Dy2  1  0.387521  0.193761  0.750000  1
  Lu  Lu3  1  0.196105  0.803895  0.250000  1
  Lu  Lu4  1  0.196105  0.392211  0.250000  1
  Lu  Lu5  1  0.607789  0.803895  0.250000  1
  Al  Al6  1  0.558773  0.441227  0.250000  1
  Al  Al7  1  0.558773  0.117545  0.250000  1
  Al  Al8  1  0.882455  0.441227  0.250000  1
  Al  Al9  1  0.439955  0.560045  0.750000  1
  Al  Al10  1  0.439955  0.879908  0.750000  1
  Al  Al11  1  0.120092  0.560045  0.750000  1
  Al  Al12  1  0.324429  0.162215  0.422408  1
  Al  Al13  1  0.837785  0.162215  0.422408  1
  Al  Al14  1  0.837785  0.675571  0.422408  1
  Al  Al15  1  0.673796  0.836897  0.573857  1
  Al  Al16  1  0.163103  0.836897  0.573857  1
  Al  Al17  1  0.163103  0.326204  0.573857  1
  Al  Al18  1  0.673796  0.836897  0.926143  1
  Al  Al19  1  0.163103  0.836897  0.926143  1
  Al  Al20  1  0.163103  0.326204  0.926143  1
  Al  Al21  1  0.324429  0.162215  0.077592  1
  Al  Al22  1  0.837785  0.162215  0.077592  1
  Al  Al23  1  0.837785  0.675571  0.077592  1
  Al  Al24  1  0.666667  0.333333  0.518257  1
  Al  Al25  1  0.333333  0.666667  0.477201  1
  Al  Al26  1  0.333333  0.666667  0.022799  1
  Al  Al27  1  0.666667  0.333333  0.981743  1
  Al  Al28  1  0.000000  0.000000  0.250000  1
  Al  Al29  1  0.000000  0.000000  0.750000  1
  Co  Co30  1  0.000000  0.000000  0.500103  1
  Co  Co31  1  0.000000  0.000000  0.999897  1
  Co  Co32  1  0.499351  0.500649  0.498247  1
  Co  Co33  1  0.499351  0.998703  0.498247  1
  Co  Co34  1  0.001297  0.500649  0.498247  1
  Co  Co35  1  0.499351  0.500649  0.001753  1
  Co  Co36  1  0.499351  0.998703  0.001753  1
  Co  Co37  1  0.001297  0.500649  0.001753  1
