# generated using pymatgen
data_Al5Fe6CuRh12
_symmetry_space_group_name_H-M   'P 1'
_cell_length_a   4.26749030
_cell_length_b   6.01729200
_cell_length_c   12.77334485
_cell_angle_alpha   90.00000000
_cell_angle_beta   90.04246510
_cell_angle_gamma   90.00000000
_symmetry_Int_Tables_number   1
_chemical_formula_structural   Al5Fe6CuRh12
_chemical_formula_sum   'Al5 Fe6 Cu1 Rh12'
_cell_volume   328.00325064
_cell_formula_units_Z   1
loop_
 _symmetry_equiv_pos_site_id
 _symmetry_equiv_pos_as_xyz
  1  'x, y, z'
loop_
 _atom_site_type_symbol
 _atom_site_label
 _atom_site_symmetry_multiplicity
 _atom_site_fract_x
 _atom_site_fract_y
 _atom_site_fract_z
 _atom_site_occupancy
  Al  Al0  1  0.499720  0.500001  0.166353  1
  Al  Al1  1  0.000108  0.000000  0.332982  1
  Al  Al2  1  0.500000  0.500001  0.500000  1
  Al  Al3  1  0.999892  0.000000  0.667018  1
  Al  Al4  1  0.500278  0.500001  0.833647  1
  Fe  Fe5  1  0.000000  0.500001  0.000000  1
  Fe  Fe6  1  0.499680  0.000000  0.161493  1
  Fe  Fe7  1  0.000130  0.500001  0.332429  1
  Fe  Fe8  1  0.500000  0.000000  0.500000  1
  Fe  Fe9  1  0.999871  0.500001  0.667571  1
  Fe  Fe10  1  0.500319  0.000000  0.838507  1
  Cu  Cu11  1  0.000000  0.000000  0.000000  1
  Rh  Rh12  1  0.500000  0.254124  0.000000  1
  Rh  Rh13  1  0.500000  0.745875  0.000000  1
  Rh  Rh14  1  0.999716  0.251591  0.168879  1
  Rh  Rh15  1  0.999716  0.748411  0.168879  1
  Rh  Rh16  1  0.500134  0.248750  0.333652  1
  Rh  Rh17  1  0.500134  0.751250  0.333652  1
  Rh  Rh18  1  0.000000  0.250807  0.500000  1
  Rh  Rh19  1  0.000000  0.749195  0.500000  1
  Rh  Rh20  1  0.499867  0.248750  0.666347  1
  Rh  Rh21  1  0.499867  0.751250  0.666347  1
  Rh  Rh22  1  0.000285  0.251591  0.831122  1
  Rh  Rh23  1  0.000285  0.748411  0.831122  1
