# generated using pymatgen
data_Nd3In3RuAu2
_symmetry_space_group_name_H-M   'P 1'
_cell_length_a   7.92273700
_cell_length_b   7.92273631
_cell_length_c   4.01412400
_cell_angle_alpha   90.00000000
_cell_angle_beta   90.00000000
_cell_angle_gamma   119.99999871
_symmetry_Int_Tables_number   1
_chemical_formula_structural   Nd3In3RuAu2
_chemical_formula_sum   'Nd3 In3 Ru1 Au2'
_cell_volume   218.20859982
_cell_formula_units_Z   1
loop_
 _symmetry_equiv_pos_site_id
 _symmetry_equiv_pos_as_xyz
  1  'x, y, z'
loop_
 _atom_site_type_symbol
 _atom_site_label
 _atom_site_symmetry_multiplicity
 _atom_site_fract_x
 _atom_site_fract_y
 _atom_site_fract_z
 _atom_site_occupancy
  Nd  Nd0  1  0.000000  0.599603  0.500000  1
  Nd  Nd1  1  0.599603  0.000000  0.500000  1
  Nd  Nd2  1  0.400397  0.400397  0.500000  1
  In  In3  1  0.000000  0.249012  0.000000  1
  In  In4  1  0.249012  0.000000  0.000000  1
  In  In5  1  0.750988  0.750988  0.000000  1
  Ru  Ru6  1  0.000000  0.000000  0.500000  1
  Au  Au7  1  0.666667  0.333333  0.000000  1
  Au  Au8  1  0.333333  0.666667  0.000000  1
