# generated using pymatgen
data_Tb2UCoSn3Ir2
_symmetry_space_group_name_H-M   'P 1'
_cell_length_a   7.47435803
_cell_length_b   7.56244614
_cell_length_c   3.83425700
_cell_angle_alpha   90.00000000
_cell_angle_beta   90.00000000
_cell_angle_gamma   120.39064410
_symmetry_Int_Tables_number   1
_chemical_formula_structural   Tb2UCoSn3Ir2
_chemical_formula_sum   'Tb2 U1 Co1 Sn3 Ir2'
_cell_volume   186.94979626
_cell_formula_units_Z   1
loop_
 _symmetry_equiv_pos_site_id
 _symmetry_equiv_pos_as_xyz
  1  'x, y, z'
loop_
 _atom_site_type_symbol
 _atom_site_label
 _atom_site_symmetry_multiplicity
 _atom_site_fract_x
 _atom_site_fract_y
 _atom_site_fract_z
 _atom_site_occupancy
  Tb  Tb0  1  0.406931  0.407201  0.500000  1
  Tb  Tb1  1  0.593069  0.000270  0.500000  1
  U  U2  1  0.000000  0.588322  0.500000  1
  Co  Co3  1  0.000000  0.980151  0.500000  1
  Sn  Sn4  1  0.739581  0.751093  0.000000  1
  Sn  Sn5  1  0.260419  0.011511  0.000000  1
  Sn  Sn6  1  0.000000  0.236273  0.000000  1
  Ir  Ir7  1  0.699966  0.362571  0.000000  1
  Ir  Ir8  1  0.300034  0.662606  0.000000  1
