# generated using pymatgen
data_NaFeF5
_symmetry_space_group_name_H-M   'P 1'
_cell_length_a   5.56375199
_cell_length_b   5.56375106
_cell_length_c   7.88423341
_cell_angle_alpha   69.15171050
_cell_angle_beta   69.15170888
_cell_angle_gamma   70.76257815
_symmetry_Int_Tables_number   1
_chemical_formula_structural   NaFeF5
_chemical_formula_sum   'Na2 Fe2 F10'
_cell_volume   207.31865210
_cell_formula_units_Z   2
loop_
 _symmetry_equiv_pos_site_id
 _symmetry_equiv_pos_as_xyz
  1  'x, y, z'
loop_
 _atom_site_type_symbol
 _atom_site_label
 _atom_site_symmetry_multiplicity
 _atom_site_fract_x
 _atom_site_fract_y
 _atom_site_fract_z
 _atom_site_occupancy
  Na  Na0  1  0.541137  0.458863  0.250000  1
  Na  Na1  1  0.458863  0.541137  0.750000  1
  Fe  Fe2  1  0.000000  0.000000  0.500000  1
  Fe  Fe3  1  0.000000  0.000000  0.000000  1
  F  F4  1  0.764911  0.796866  0.612105  1
  F  F5  1  0.203134  0.235089  0.887895  1
  F  F6  1  0.235089  0.203134  0.387895  1
  F  F7  1  0.796866  0.764911  0.112105  1
  F  F8  1  0.061860  0.938140  0.750000  1
  F  F9  1  0.938140  0.061860  0.250000  1
  F  F10  1  0.291559  0.731402  0.026238  1
  F  F11  1  0.268598  0.708441  0.473762  1
  F  F12  1  0.708441  0.268598  0.973762  1
  F  F13  1  0.731402  0.291559  0.526238  1
