# generated using pymatgen
data_CaLa4Zn2Sn
_symmetry_space_group_name_H-M   'P 1'
_cell_length_a   8.94559339
_cell_length_b   8.94559318
_cell_length_c   8.94559305
_cell_angle_alpha   122.87736481
_cell_angle_beta   122.87735998
_cell_angle_gamma   85.08456596
_symmetry_Int_Tables_number   1
_chemical_formula_structural   CaLa4Zn2Sn
_chemical_formula_sum   'Ca2 La8 Zn4 Sn2'
_cell_volume   482.23652216
_cell_formula_units_Z   2
loop_
 _symmetry_equiv_pos_site_id
 _symmetry_equiv_pos_as_xyz
  1  'x, y, z'
loop_
 _atom_site_type_symbol
 _atom_site_label
 _atom_site_symmetry_multiplicity
 _atom_site_fract_x
 _atom_site_fract_y
 _atom_site_fract_z
 _atom_site_occupancy
  Ca  Ca0  1  0.000000  0.000000  0.000000  1
  Ca  Ca1  1  0.500000  0.500000  0.000000  1
  La  La2  1  0.307937  0.807937  0.824830  1
  La  La3  1  0.983106  0.483107  0.175169  1
  La  La4  1  0.192062  0.016893  0.499999  1
  La  La5  1  0.516892  0.692061  0.499999  1
  La  La6  1  0.692061  0.192063  0.175169  1
  La  La7  1  0.016893  0.516893  0.824830  1
  La  La8  1  0.483106  0.307937  0.499999  1
  La  La9  1  0.807937  0.983106  0.499999  1
  Zn  Zn10  1  0.631461  0.131462  0.762923  1
  Zn  Zn11  1  0.368537  0.868539  0.237077  1
  Zn  Zn12  1  0.868539  0.631462  0.500001  1
  Zn  Zn13  1  0.131462  0.368539  0.500001  1
  Sn  Sn14  1  0.250000  0.250000  0.000000  1
  Sn  Sn15  1  0.750000  0.750000  0.000000  1
