# generated using pymatgen
data_K4NpO6
_symmetry_space_group_name_H-M   'P 1'
_cell_length_a   7.48271233
_cell_length_b   7.48271257
_cell_length_c   7.48271200
_cell_angle_alpha   89.00718605
_cell_angle_beta   89.00718601
_cell_angle_gamma   89.00718322
_symmetry_Int_Tables_number   1
_chemical_formula_structural   K4NpO6
_chemical_formula_sum   'K8 Np2 O12'
_cell_volume   418.77788212
_cell_formula_units_Z   2
loop_
 _symmetry_equiv_pos_site_id
 _symmetry_equiv_pos_as_xyz
  1  'x, y, z'
loop_
 _atom_site_type_symbol
 _atom_site_label
 _atom_site_symmetry_multiplicity
 _atom_site_fract_x
 _atom_site_fract_y
 _atom_site_fract_z
 _atom_site_occupancy
  K  K0  1  0.750000  0.393771  0.106229  1
  K  K1  1  0.106229  0.750000  0.393771  1
  K  K2  1  0.393771  0.106229  0.750000  1
  K  K3  1  0.250000  0.606229  0.893771  1
  K  K4  1  0.893771  0.250000  0.606229  1
  K  K5  1  0.606229  0.893771  0.250000  1
  K  K6  1  0.250000  0.250000  0.250000  1
  K  K7  1  0.750000  0.750000  0.750000  1
  Np  Np8  1  0.000000  0.000000  0.000000  1
  Np  Np9  1  0.500000  0.500000  0.500000  1
  O  O10  1  0.446234  0.752045  0.573156  1
  O  O11  1  0.573156  0.446234  0.752045  1
  O  O12  1  0.752045  0.573156  0.446234  1
  O  O13  1  0.053766  0.926844  0.747955  1
  O  O14  1  0.747955  0.053766  0.926844  1
  O  O15  1  0.926844  0.747955  0.053766  1
  O  O16  1  0.553766  0.247955  0.426844  1
  O  O17  1  0.426844  0.553766  0.247955  1
  O  O18  1  0.247955  0.426844  0.553766  1
  O  O19  1  0.946234  0.073156  0.252045  1
  O  O20  1  0.073156  0.252045  0.946234  1
  O  O21  1  0.252045  0.946234  0.073156  1
