# generated using pymatgen
data_Yb6TcAuO12
_symmetry_space_group_name_H-M   'P 1'
_cell_length_a   6.41298263
_cell_length_b   6.41298469
_cell_length_c   6.41298300
_cell_angle_alpha   92.85208957
_cell_angle_beta   92.85208154
_cell_angle_gamma   92.85208144
_symmetry_Int_Tables_number   1
_chemical_formula_structural   Yb6TcAuO12
_chemical_formula_sum   'Yb6 Tc1 Au1 O12'
_cell_volume   262.72873134
_cell_formula_units_Z   1
loop_
 _symmetry_equiv_pos_site_id
 _symmetry_equiv_pos_as_xyz
  1  'x, y, z'
loop_
 _atom_site_type_symbol
 _atom_site_label
 _atom_site_symmetry_multiplicity
 _atom_site_fract_x
 _atom_site_fract_y
 _atom_site_fract_z
 _atom_site_occupancy
  Yb  Yb0  1  0.929941  0.427588  0.746316  1
  Yb  Yb1  1  0.746316  0.929941  0.427588  1
  Yb  Yb2  1  0.572412  0.253684  0.070059  1
  Yb  Yb3  1  0.253684  0.070059  0.572412  1
  Yb  Yb4  1  0.070059  0.572412  0.253684  1
  Yb  Yb5  1  0.427588  0.746316  0.929941  1
  Tc  Tc6  1  0.500000  0.500000  0.500000  1
  Au  Au7  1  0.000000  0.000000  0.000000  1
  O  O8  1  0.298167  0.073598  0.927689  1
  O  O9  1  0.073598  0.927689  0.298167  1
  O  O10  1  0.927689  0.298167  0.073598  1
  O  O11  1  0.701833  0.926402  0.072311  1
  O  O12  1  0.926402  0.072311  0.701833  1
  O  O13  1  0.072311  0.701833  0.926402  1
  O  O14  1  0.217176  0.423351  0.545533  1
  O  O15  1  0.423351  0.545533  0.217176  1
  O  O16  1  0.454467  0.782824  0.576649  1
  O  O17  1  0.576649  0.454467  0.782824  1
  O  O18  1  0.782824  0.576649  0.454467  1
  O  O19  1  0.545533  0.217176  0.423351  1
