# generated using pymatgen
data_Nd2Si2Te
_symmetry_space_group_name_H-M   'P 1'
_cell_length_a   4.18630900
_cell_length_b   4.18630967
_cell_length_c   8.30896000
_cell_angle_alpha   90.00000000
_cell_angle_beta   90.00000000
_cell_angle_gamma   119.99998683
_symmetry_Int_Tables_number   1
_chemical_formula_structural   Nd2Si2Te
_chemical_formula_sum   'Nd2 Si2 Te1'
_cell_volume   126.10723088
_cell_formula_units_Z   1
loop_
 _symmetry_equiv_pos_site_id
 _symmetry_equiv_pos_as_xyz
  1  'x, y, z'
loop_
 _atom_site_type_symbol
 _atom_site_label
 _atom_site_symmetry_multiplicity
 _atom_site_fract_x
 _atom_site_fract_y
 _atom_site_fract_z
 _atom_site_occupancy
  Nd  Nd0  1  0.000000  0.000000  0.260299  1
  Nd  Nd1  1  0.000000  0.000000  0.739701  1
  Si  Si2  1  0.333333  0.666667  0.500000  1
  Si  Si3  1  0.666667  0.333333  0.500000  1
  Te  Te4  1  0.666667  0.333333  0.000000  1
