# generated using pymatgen
data_Ho2P7(IrRu5)2
_symmetry_space_group_name_H-M   'P 1'
_cell_length_a   9.39987028
_cell_length_b   9.46125063
_cell_length_c   3.95401200
_cell_angle_alpha   90.00000000
_cell_angle_beta   90.00000000
_cell_angle_gamma   120.13443227
_symmetry_Int_Tables_number   1
_chemical_formula_structural   Ho2P7(IrRu5)2
_chemical_formula_sum   'Ho2 P7 Ir2 Ru10'
_cell_volume   304.12289722
_cell_formula_units_Z   1
loop_
 _symmetry_equiv_pos_site_id
 _symmetry_equiv_pos_as_xyz
  1  'x, y, z'
loop_
 _atom_site_type_symbol
 _atom_site_label
 _atom_site_symmetry_multiplicity
 _atom_site_fract_x
 _atom_site_fract_y
 _atom_site_fract_z
 _atom_site_occupancy
  Ho  Ho0  1  0.668321  0.333710  0.500000  1
  Ho  Ho1  1  0.330469  0.665435  0.000000  1
  P  P2  1  0.600169  0.716695  0.500000  1
  P  P3  1  0.000521  0.000923  0.000000  1
  P  P4  1  0.277977  0.879276  0.500000  1
  P  P5  1  0.113927  0.402246  0.500000  1
  P  P6  1  0.885002  0.576383  0.000000  1
  P  P7  1  0.425255  0.303742  0.000000  1
  P  P8  1  0.697471  0.119317  0.000000  1
  Ir  Ir9  1  0.550980  0.941945  0.500000  1
  Ir  Ir10  1  0.389730  0.446699  0.500000  1
  Ru  Ru11  1  0.914011  0.125921  0.500000  1
  Ru  Ru12  1  0.214564  0.087805  0.500000  1
  Ru  Ru13  1  0.874314  0.790643  0.500000  1
  Ru  Ru14  1  0.726544  0.891959  0.000000  1
  Ru  Ru15  1  0.109268  0.838178  0.000000  1
  Ru  Ru16  1  0.166532  0.271887  0.000000  1
  Ru  Ru17  1  0.431675  0.066715  0.000000  1
  Ru  Ru18  1  0.935785  0.361884  0.000000  1
  Ru  Ru19  1  0.637631  0.570111  0.000000  1
  Ru  Ru20  1  0.049857  0.608524  0.500000  1
