# generated using pymatgen
data_SmYRu2F14
_symmetry_space_group_name_H-M   'P 1'
_cell_length_a   5.59209900
_cell_length_b   8.98899506
_cell_length_c   12.06455879
_cell_angle_alpha   63.59701533
_cell_angle_beta   90.00000000
_cell_angle_gamma   90.00000000
_symmetry_Int_Tables_number   1
_chemical_formula_structural   SmYRu2F14
_chemical_formula_sum   'Sm2 Y2 Ru4 F28'
_cell_volume   543.19339726
_cell_formula_units_Z   2
loop_
 _symmetry_equiv_pos_site_id
 _symmetry_equiv_pos_as_xyz
  1  'x, y, z'
loop_
 _atom_site_type_symbol
 _atom_site_label
 _atom_site_symmetry_multiplicity
 _atom_site_fract_x
 _atom_site_fract_y
 _atom_site_fract_z
 _atom_site_occupancy
  Sm  Sm0  1  0.241122  0.191811  0.231104  1
  Sm  Sm1  1  0.741122  0.808189  0.268896  1
  Y  Y2  1  0.758656  0.811337  0.768450  1
  Y  Y3  1  0.258656  0.188663  0.731550  1
  Ru  Ru4  1  0.755537  0.274486  0.952641  1
  Ru  Ru5  1  0.255537  0.725514  0.547359  1
  Ru  Ru6  1  0.246133  0.728150  0.041002  1
  Ru  Ru7  1  0.746133  0.271850  0.458998  1
  F  F8  1  0.447180  0.705873  0.915615  1
  F  F9  1  0.947180  0.294127  0.584385  1
  F  F10  1  0.555455  0.294889  0.079085  1
  F  F11  1  0.055455  0.705111  0.420915  1
  F  F12  1  0.452059  0.281256  0.547828  1
  F  F13  1  0.952059  0.718744  0.952172  1
  F  F14  1  0.546322  0.715482  0.458024  1
  F  F15  1  0.046322  0.284518  0.041976  1
  F  F16  1  0.765577  0.511280  0.858064  1
  F  F17  1  0.265577  0.488720  0.641936  1
  F  F18  1  0.233335  0.491684  0.136246  1
  F  F19  1  0.733335  0.508316  0.363754  1
  F  F20  1  0.756757  0.039143  0.045704  1
  F  F21  1  0.256757  0.960857  0.454296  1
  F  F22  1  0.245011  0.963453  0.950744  1
  F  F23  1  0.745011  0.036547  0.549256  1
  F  F24  1  0.969521  0.732023  0.641009  1
  F  F25  1  0.469521  0.267977  0.858991  1
  F  F26  1  0.033080  0.269869  0.365466  1
  F  F27  1  0.533080  0.730131  0.134534  1
  F  F28  1  0.049848  0.747925  0.169987  1
  F  F29  1  0.549848  0.252075  0.330013  1
  F  F30  1  0.955672  0.251070  0.826130  1
  F  F31  1  0.455672  0.748930  0.673870  1
  F  F32  1  0.413217  0.968777  0.231266  1
  F  F33  1  0.913217  0.031223  0.268734  1
  F  F34  1  0.575518  0.026115  0.767021  1
  F  F35  1  0.075518  0.973885  0.732979  1
