# generated using pymatgen
data_U2Co2SiNi
_symmetry_space_group_name_H-M   'P 1'
_cell_length_a   5.07876624
_cell_length_b   5.25863379
_cell_length_c   7.58130100
_cell_angle_alpha   90.00000000
_cell_angle_beta   90.00000000
_cell_angle_gamma   121.17863802
_symmetry_Int_Tables_number   1
_chemical_formula_structural   U2Co2SiNi
_chemical_formula_sum   'U4 Co4 Si2 Ni2'
_cell_volume   173.23036205
_cell_formula_units_Z   2
loop_
 _symmetry_equiv_pos_site_id
 _symmetry_equiv_pos_as_xyz
  1  'x, y, z'
loop_
 _atom_site_type_symbol
 _atom_site_label
 _atom_site_symmetry_multiplicity
 _atom_site_fract_x
 _atom_site_fract_y
 _atom_site_fract_z
 _atom_site_occupancy
  U  U0  1  0.311979  0.655990  0.428568  1
  U  U1  1  0.688021  0.344010  0.928568  1
  U  U2  1  0.688021  0.344010  0.571432  1
  U  U3  1  0.311979  0.655990  0.071432  1
  Co  Co4  1  0.175058  0.335453  0.750000  1
  Co  Co5  1  0.824942  0.160394  0.250000  1
  Co  Co6  1  0.824942  0.664547  0.250000  1
  Co  Co7  1  0.175058  0.839606  0.750000  1
  Si  Si8  1  0.000000  0.000000  0.500000  1
  Si  Si9  1  0.000000  0.000000  0.000000  1
  Ni  Ni10  1  0.664945  0.832473  0.750000  1
  Ni  Ni11  1  0.335055  0.167527  0.250000  1
