# generated using pymatgen
data_La5Yb3(InIr)2
_symmetry_space_group_name_H-M   'P 1'
_cell_length_a   10.09574791
_cell_length_b   10.09575917
_cell_length_c   10.09597127
_cell_angle_alpha   60.01586946
_cell_angle_beta   60.01428861
_cell_angle_gamma   60.01439571
_symmetry_Int_Tables_number   1
_chemical_formula_structural   La5Yb3(InIr)2
_chemical_formula_sum   'La10 Yb6 In4 Ir4'
_cell_volume   727.87496632
_cell_formula_units_Z   2
loop_
 _symmetry_equiv_pos_site_id
 _symmetry_equiv_pos_as_xyz
  1  'x, y, z'
loop_
 _atom_site_type_symbol
 _atom_site_label
 _atom_site_symmetry_multiplicity
 _atom_site_fract_x
 _atom_site_fract_y
 _atom_site_fract_z
 _atom_site_occupancy
  La  La0  1  0.804630  0.804603  0.195316  1
  La  La1  1  0.195670  0.805089  0.195671  1
  La  La2  1  0.805126  0.195662  0.195727  1
  La  La3  1  0.195722  0.195685  0.805026  1
  La  La4  1  0.804608  0.195329  0.804618  1
  La  La5  1  0.195340  0.804582  0.804586  1
  La  La6  1  0.651534  0.651551  0.044725  1
  La  La7  1  0.651565  0.044702  0.651543  1
  La  La8  1  0.044686  0.651576  0.651544  1
  La  La9  1  0.651845  0.651922  0.651907  1
  Yb  Yb10  1  0.439783  0.439720  0.060130  1
  Yb  Yb11  1  0.059628  0.440675  0.059615  1
  Yb  Yb12  1  0.440699  0.059589  0.059590  1
  Yb  Yb13  1  0.059646  0.059620  0.440692  1
  Yb  Yb14  1  0.439825  0.060149  0.439671  1
  Yb  Yb15  1  0.060121  0.439777  0.439774  1
  In  In16  1  0.417930  0.417951  0.745714  1
  In  In17  1  0.417944  0.745726  0.417968  1
  In  In18  1  0.745726  0.417949  0.417973  1
  In  In19  1  0.418463  0.418479  0.418476  1
  Ir  Ir20  1  0.860097  0.860152  0.418696  1
  Ir  Ir21  1  0.860127  0.418699  0.860161  1
  Ir  Ir22  1  0.418666  0.860169  0.860216  1
  Ir  Ir23  1  0.860620  0.860643  0.860658  1
