# generated using pymatgen
data_Sr15Ac2Pr3Pt16
_symmetry_space_group_name_H-M   'P 1'
_cell_length_a   7.94477269
_cell_length_b   8.10994645
_cell_length_c   15.63824000
_cell_angle_alpha   90.07285304
_cell_angle_beta   90.16435619
_cell_angle_gamma   90.14175223
_symmetry_Int_Tables_number   1
_chemical_formula_structural   Sr15Ac2Pr3Pt16
_chemical_formula_sum   'Sr15 Ac2 Pr3 Pt16'
_cell_volume   1007.59003891
_cell_formula_units_Z   1
loop_
 _symmetry_equiv_pos_site_id
 _symmetry_equiv_pos_as_xyz
  1  'x, y, z'
loop_
 _atom_site_type_symbol
 _atom_site_label
 _atom_site_symmetry_multiplicity
 _atom_site_fract_x
 _atom_site_fract_y
 _atom_site_fract_z
 _atom_site_occupancy
  Sr  Sr0  1  0.165862  0.327135  0.379434  1
  Sr  Sr1  1  0.334764  0.828827  0.619217  1
  Sr  Sr2  1  0.835576  0.671254  0.881867  1
  Sr  Sr3  1  0.491581  0.323270  0.904128  1
  Sr  Sr4  1  0.990146  0.178911  0.596884  1
  Sr  Sr5  1  0.508705  0.679190  0.401432  1
  Sr  Sr6  1  0.009122  0.821072  0.097037  1
  Sr  Sr7  1  0.508954  0.678461  0.097738  1
  Sr  Sr8  1  0.009646  0.819557  0.404561  1
  Sr  Sr9  1  0.489579  0.315896  0.593984  1
  Sr  Sr10  1  0.989343  0.184256  0.905316  1
  Sr  Sr11  1  0.174223  0.483995  0.749643  1
  Sr  Sr12  1  0.674986  0.017160  0.750922  1
  Sr  Sr13  1  0.829360  0.516300  0.250500  1
  Sr  Sr14  1  0.322940  0.985014  0.250415  1
  Ac  Ac15  1  0.333278  0.833895  0.879569  1
  Ac  Ac16  1  0.831031  0.668592  0.622141  1
  Pr  Pr17  1  0.666669  0.169653  0.374699  1
  Pr  Pr18  1  0.165144  0.329483  0.123266  1
  Pr  Pr19  1  0.664133  0.172471  0.121849  1
  Pt  Pt20  1  0.331908  0.043870  0.041694  1
  Pt  Pt21  1  0.821959  0.458673  0.460768  1
  Pt  Pt22  1  0.676639  0.964030  0.534803  1
  Pt  Pt23  1  0.171836  0.537010  0.965292  1
  Pt  Pt24  1  0.655996  0.975523  0.962039  1
  Pt  Pt25  1  0.146144  0.529073  0.542777  1
  Pt  Pt26  1  0.356756  0.030074  0.454708  1
  Pt  Pt27  1  0.845524  0.455910  0.044822  1
  Pt  Pt28  1  0.542019  0.620417  0.753524  1
  Pt  Pt29  1  0.043052  0.882009  0.749178  1
  Pt  Pt30  1  0.461558  0.373581  0.245757  1
  Pt  Pt31  1  0.951630  0.123645  0.243835  1
  Pt  Pt32  1  0.288442  0.123767  0.753494  1
  Pt  Pt33  1  0.786111  0.377894  0.747058  1
  Pt  Pt34  1  0.708189  0.882947  0.249598  1
  Pt  Pt35  1  0.217199  0.617176  0.246049  1
