# generated using pymatgen
data_Ce6Er2Al7SiRu8
_symmetry_space_group_name_H-M   'P 1'
_cell_length_a   4.05294200
_cell_length_b   7.16285386
_cell_length_c   15.83881931
_cell_angle_alpha   89.83008682
_cell_angle_beta   90.00000000
_cell_angle_gamma   90.00000000
_symmetry_Int_Tables_number   1
_chemical_formula_structural   Ce6Er2Al7SiRu8
_chemical_formula_sum   'Ce6 Er2 Al7 Si1 Ru8'
_cell_volume   459.80890071
_cell_formula_units_Z   1
loop_
 _symmetry_equiv_pos_site_id
 _symmetry_equiv_pos_as_xyz
  1  'x, y, z'
loop_
 _atom_site_type_symbol
 _atom_site_label
 _atom_site_symmetry_multiplicity
 _atom_site_fract_x
 _atom_site_fract_y
 _atom_site_fract_z
 _atom_site_occupancy
  Ce  Ce0  1  0.750000  0.821763  0.437594  1
  Ce  Ce1  1  0.750000  0.456377  0.284827  1
  Ce  Ce2  1  0.750000  0.332813  0.064037  1
  Ce  Ce3  1  0.250000  0.674359  0.938521  1
  Ce  Ce4  1  0.250000  0.046069  0.777944  1
  Ce  Ce5  1  0.250000  0.540731  0.717601  1
  Er  Er6  1  0.750000  0.958895  0.218836  1
  Er  Er7  1  0.250000  0.157026  0.556962  1
  Al  Al8  1  0.750000  0.485513  0.562084  1
  Al  Al9  1  0.750000  0.371596  0.850682  1
  Al  Al10  1  0.750000  0.009944  0.936770  1
  Al  Al11  1  0.750000  0.868828  0.645552  1
  Al  Al12  1  0.250000  0.998696  0.066734  1
  Al  Al13  1  0.250000  0.640876  0.154360  1
  Al  Al14  1  0.250000  0.122156  0.345833  1
  Si  Si15  1  0.250000  0.485177  0.440323  1
  Ru  Ru16  1  0.750000  0.756921  0.814564  1
  Ru  Ru17  1  0.250000  0.244736  0.938599  1
  Ru  Ru18  1  0.750000  0.272531  0.426477  1
  Ru  Ru19  1  0.250000  0.745148  0.327189  1
  Ru  Ru20  1  0.750000  0.765572  0.063546  1
  Ru  Ru21  1  0.750000  0.246230  0.689594  1
  Ru  Ru22  1  0.250000  0.271830  0.179186  1
  Ru  Ru23  1  0.250000  0.726213  0.562189  1
