# generated using pymatgen
data_VHg2O3F
_symmetry_space_group_name_H-M   'P 1'
_cell_length_a   9.20515877
_cell_length_b   9.20515773
_cell_length_c   9.20515832
_cell_angle_alpha   120.67883303
_cell_angle_beta   114.07761533
_cell_angle_gamma   94.69209022
_symmetry_Int_Tables_number   1
_chemical_formula_structural   VHg2O3F
_chemical_formula_sum   'V4 Hg8 O12 F4'
_cell_volume   569.17507877
_cell_formula_units_Z   4
loop_
 _symmetry_equiv_pos_site_id
 _symmetry_equiv_pos_as_xyz
  1  'x, y, z'
loop_
 _atom_site_type_symbol
 _atom_site_label
 _atom_site_symmetry_multiplicity
 _atom_site_fract_x
 _atom_site_fract_y
 _atom_site_fract_z
 _atom_site_occupancy
  V  V0  1  0.698993  0.234785  0.464208  1
  V  V1  1  0.229422  0.265215  0.964208  1
  V  V2  1  0.301007  0.765215  0.535792  1
  V  V3  1  0.770578  0.734785  0.035792  1
  Hg  Hg4  1  0.318647  0.873260  0.985361  1
  Hg  Hg5  1  0.681353  0.666714  0.554614  1
  Hg  Hg6  1  0.318647  0.333286  0.445386  1
  Hg  Hg7  1  0.887899  0.373260  0.054614  1
  Hg  Hg8  1  0.887899  0.833286  0.514639  1
  Hg  Hg9  1  0.112101  0.166714  0.485361  1
  Hg  Hg10  1  0.112101  0.626740  0.945386  1
  Hg  Hg11  1  0.681353  0.126740  0.014639  1
  O  O12  1  0.602053  0.083414  0.207476  1
  O  O13  1  0.092105  0.658419  0.433685  1
  O  O14  1  0.602053  0.394576  0.518640  1
  O  O15  1  0.397947  0.605424  0.481360  1
  O  O16  1  0.775267  0.841581  0.933685  1
  O  O17  1  0.224733  0.158419  0.066315  1
  O  O18  1  0.397947  0.916586  0.792524  1
  O  O19  1  0.124064  0.416586  0.018640  1
  O  O20  1  0.875936  0.583414  0.981360  1
  O  O21  1  0.875936  0.894576  0.292524  1
  O  O22  1  0.124064  0.105424  0.707476  1
  O  O23  1  0.907895  0.341581  0.566315  1
  F  F24  1  0.551109  0.613647  0.937461  1
  F  F25  1  0.323814  0.886353  0.437461  1
  F  F26  1  0.448891  0.386353  0.062539  1
  F  F27  1  0.676186  0.113647  0.562539  1
