# generated using pymatgen
data_DyErFe7Ni5P7
_symmetry_space_group_name_H-M   'P 1'
_cell_length_a   8.99533421
_cell_length_b   9.02970550
_cell_length_c   3.64703000
_cell_angle_alpha   90.00000000
_cell_angle_beta   90.00000000
_cell_angle_gamma   119.78032646
_symmetry_Int_Tables_number   1
_chemical_formula_structural   DyErFe7Ni5P7
_chemical_formula_sum   'Dy1 Er1 Fe7 Ni5 P7'
_cell_volume   257.10939799
_cell_formula_units_Z   1
loop_
 _symmetry_equiv_pos_site_id
 _symmetry_equiv_pos_as_xyz
  1  'x, y, z'
loop_
 _atom_site_type_symbol
 _atom_site_label
 _atom_site_symmetry_multiplicity
 _atom_site_fract_x
 _atom_site_fract_y
 _atom_site_fract_z
 _atom_site_occupancy
  Dy  Dy0  1  0.331689  0.667206  0.500000  1
  Er  Er1  1  0.001459  0.998441  0.000000  1
  Fe  Fe2  1  0.823065  0.213733  0.000000  1
  Fe  Fe3  1  0.784231  0.609108  0.000000  1
  Fe  Fe4  1  0.395409  0.180530  0.000000  1
  Fe  Fe5  1  0.231721  0.946805  0.500000  1
  Fe  Fe6  1  0.886972  0.457892  0.500000  1
  Fe  Fe7  1  0.544716  0.429536  0.500000  1
  Fe  Fe8  1  0.572647  0.119734  0.500000  1
  Ni  Ni9  1  0.098486  0.703889  0.000000  1
  Ni  Ni10  1  0.291377  0.391432  0.000000  1
  Ni  Ni11  1  0.602571  0.898985  0.000000  1
  Ni  Ni12  1  0.054691  0.281279  0.500000  1
  Ni  Ni13  1  0.716204  0.771234  0.500000  1
  P  P14  1  0.070732  0.444628  0.000000  1
  P  P15  1  0.552116  0.624651  0.000000  1
  P  P16  1  0.366901  0.927536  0.000000  1
  P  P17  1  0.781557  0.049430  0.500000  1
  P  P18  1  0.955868  0.736603  0.500000  1
  P  P19  1  0.268193  0.211726  0.500000  1
  P  P20  1  0.669397  0.335620  0.000000  1
