# generated using pymatgen
data_Sm4RuBr6
_symmetry_space_group_name_H-M   'P 1'
_cell_length_a   4.08811500
_cell_length_b   13.82435900
_cell_length_c   14.31907100
_cell_angle_alpha   90.00000000
_cell_angle_beta   90.00000000
_cell_angle_gamma   90.00000000
_symmetry_Int_Tables_number   1
_chemical_formula_structural   Sm4RuBr6
_chemical_formula_sum   'Sm8 Ru2 Br12'
_cell_volume   809.25045075
_cell_formula_units_Z   2
loop_
 _symmetry_equiv_pos_site_id
 _symmetry_equiv_pos_as_xyz
  1  'x, y, z'
loop_
 _atom_site_type_symbol
 _atom_site_label
 _atom_site_symmetry_multiplicity
 _atom_site_fract_x
 _atom_site_fract_y
 _atom_site_fract_z
 _atom_site_occupancy
  Sm  Sm0  1  0.500000  0.108156  0.351151  1
  Sm  Sm1  1  0.500000  0.891844  0.648849  1
  Sm  Sm2  1  0.500000  0.608156  0.148849  1
  Sm  Sm3  1  0.500000  0.391844  0.851151  1
  Sm  Sm4  1  0.000000  0.125985  0.585976  1
  Sm  Sm5  1  0.000000  0.874015  0.414024  1
  Sm  Sm6  1  0.000000  0.625985  0.914024  1
  Sm  Sm7  1  0.000000  0.374015  0.085976  1
  Ru  Ru8  1  0.500000  0.000000  0.500000  1
  Ru  Ru9  1  0.500000  0.500000  0.000000  1
  Br  Br10  1  0.500000  0.237000  0.173630  1
  Br  Br11  1  0.500000  0.763000  0.826370  1
  Br  Br12  1  0.500000  0.737000  0.326370  1
  Br  Br13  1  0.500000  0.263000  0.673630  1
  Br  Br14  1  0.000000  0.248983  0.415072  1
  Br  Br15  1  0.000000  0.751017  0.584928  1
  Br  Br16  1  0.000000  0.748983  0.084928  1
  Br  Br17  1  0.000000  0.251017  0.915072  1
  Br  Br18  1  0.000000  0.999213  0.244539  1
  Br  Br19  1  0.000000  0.000787  0.755461  1
  Br  Br20  1  0.000000  0.499213  0.255461  1
  Br  Br21  1  0.000000  0.500787  0.744539  1
