# generated using pymatgen
data_HfSc2Pt7
_symmetry_space_group_name_H-M   'P 1'
_cell_length_a   10.46744858
_cell_length_b   10.46744662
_cell_length_c   3.98875000
_cell_angle_alpha   90.00000000
_cell_angle_beta   90.00000000
_cell_angle_gamma   157.70124318
_symmetry_Int_Tables_number   1
_chemical_formula_structural   HfSc2Pt7
_chemical_formula_sum   'Hf1 Sc2 Pt7'
_cell_volume   165.82768516
_cell_formula_units_Z   1
loop_
 _symmetry_equiv_pos_site_id
 _symmetry_equiv_pos_as_xyz
  1  'x, y, z'
loop_
 _atom_site_type_symbol
 _atom_site_label
 _atom_site_symmetry_multiplicity
 _atom_site_fract_x
 _atom_site_fract_y
 _atom_site_fract_z
 _atom_site_occupancy
  Hf  Hf0  1  0.000000  0.000000  0.000000  1
  Sc  Sc1  1  0.807730  0.192272  0.000000  1
  Sc  Sc2  1  0.192272  0.807730  0.000000  1
  Pt  Pt3  1  0.597897  0.402104  0.000000  1
  Pt  Pt4  1  0.402104  0.597897  0.000000  1
  Pt  Pt5  1  0.901197  0.098804  0.500001  1
  Pt  Pt6  1  0.699545  0.300457  0.500001  1
  Pt  Pt7  1  0.500001  0.500001  0.500001  1
  Pt  Pt8  1  0.300457  0.699545  0.500001  1
  Pt  Pt9  1  0.098804  0.901197  0.500001  1
