# generated using pymatgen
data_Yb5CrTcN7
_symmetry_space_group_name_H-M   'P 1'
_cell_length_a   5.89516933
_cell_length_b   8.64525154
_cell_length_c   8.59198100
_cell_angle_alpha   115.58320918
_cell_angle_beta   97.48720726
_cell_angle_gamma   88.85544136
_symmetry_Int_Tables_number   1
_chemical_formula_structural   Yb5CrTcN7
_chemical_formula_sum   'Yb10 Cr2 Tc2 N14'
_cell_volume   391.27080160
_cell_formula_units_Z   2
loop_
 _symmetry_equiv_pos_site_id
 _symmetry_equiv_pos_as_xyz
  1  'x, y, z'
loop_
 _atom_site_type_symbol
 _atom_site_label
 _atom_site_symmetry_multiplicity
 _atom_site_fract_x
 _atom_site_fract_y
 _atom_site_fract_z
 _atom_site_occupancy
  Yb  Yb0  1  0.842044  0.604831  0.321292  1
  Yb  Yb1  1  0.262645  0.997480  0.572002  1
  Yb  Yb2  1  0.715818  0.416432  0.858164  1
  Yb  Yb3  1  0.284182  0.583568  0.141836  1
  Yb  Yb4  1  0.398037  0.789197  0.927317  1
  Yb  Yb5  1  0.601963  0.210803  0.072683  1
  Yb  Yb6  1  0.157956  0.395169  0.678708  1
  Yb  Yb7  1  0.892810  0.864319  0.769848  1
  Yb  Yb8  1  0.107190  0.135681  0.230152  1
  Yb  Yb9  1  0.737355  0.002520  0.427998  1
  Cr  Cr10  1  0.122252  0.218024  0.917692  1
  Cr  Cr11  1  0.877748  0.781976  0.082308  1
  Tc  Tc12  1  0.585567  0.351571  0.472546  1
  Tc  Tc13  1  0.414433  0.648429  0.527454  1
  N  N14  1  0.513443  0.546784  0.685930  1
  N  N15  1  0.486557  0.453216  0.314070  1
  N  N16  1  0.129288  0.726463  0.560876  1
  N  N17  1  0.870712  0.273537  0.439124  1
  N  N18  1  0.408592  0.173364  0.461800  1
  N  N19  1  0.591408  0.826636  0.538200  1
  N  N20  1  0.940562  0.142920  0.721240  1
  N  N21  1  0.059438  0.857080  0.278760  1
  N  N22  1  0.235058  0.049017  0.956774  1
  N  N23  1  0.764942  0.950983  0.043226  1
  N  N24  1  0.359600  0.325691  0.898931  1
  N  N25  1  0.972038  0.355043  0.086834  1
  N  N26  1  0.027962  0.644957  0.913166  1
  N  N27  1  0.640400  0.674309  0.101069  1
