# generated using pymatgen
data_Tb16Mg3CdRuPt3
_symmetry_space_group_name_H-M   'P 1'
_cell_length_a   9.79224583
_cell_length_b   9.80779011
_cell_length_c   9.80779085
_cell_angle_alpha   59.52382379
_cell_angle_beta   59.43464338
_cell_angle_gamma   59.43463734
_symmetry_Int_Tables_number   1
_chemical_formula_structural   Tb16Mg3CdRuPt3
_chemical_formula_sum   'Tb16 Mg3 Cd1 Ru1 Pt3'
_cell_volume   657.93784018
_cell_formula_units_Z   1
loop_
 _symmetry_equiv_pos_site_id
 _symmetry_equiv_pos_as_xyz
  1  'x, y, z'
loop_
 _atom_site_type_symbol
 _atom_site_label
 _atom_site_symmetry_multiplicity
 _atom_site_fract_x
 _atom_site_fract_y
 _atom_site_fract_z
 _atom_site_occupancy
  Tb  Tb0  1  0.349788  0.350340  0.350340  1
  Tb  Tb1  1  0.347371  0.348381  0.952937  1
  Tb  Tb2  1  0.347371  0.952937  0.348381  1
  Tb  Tb3  1  0.955190  0.347174  0.347174  1
  Tb  Tb4  1  0.815306  0.187849  0.187849  1
  Tb  Tb5  1  0.188124  0.810199  0.810199  1
  Tb  Tb6  1  0.188861  0.814529  0.188445  1
  Tb  Tb7  1  0.811308  0.187143  0.811465  1
  Tb  Tb8  1  0.188861  0.188445  0.814529  1
  Tb  Tb9  1  0.811308  0.811465  0.187143  1
  Tb  Tb10  1  0.937205  0.565790  0.565790  1
  Tb  Tb11  1  0.561589  0.935821  0.935821  1
  Tb  Tb12  1  0.566716  0.934043  0.566577  1
  Tb  Tb13  1  0.938371  0.560846  0.934192  1
  Tb  Tb14  1  0.566716  0.566577  0.934043  1
  Tb  Tb15  1  0.938371  0.934192  0.560846  1
  Mg  Mg16  1  0.576600  0.579423  0.579423  1
  Mg  Mg17  1  0.576362  0.579167  0.262169  1
  Mg  Mg18  1  0.576362  0.262169  0.579167  1
  Cd  Cd19  1  0.254827  0.580768  0.580768  1
  Ru  Ru20  1  0.143606  0.142648  0.142648  1
  Pt  Pt21  1  0.143881  0.143326  0.573029  1
  Pt  Pt22  1  0.143881  0.573029  0.143326  1
  Pt  Pt23  1  0.572025  0.143740  0.143740  1
