# generated using pymatgen
data_Ho2Zr2Al17SiIr6
_symmetry_space_group_name_H-M   'P 1'
_cell_length_a   7.51320679
_cell_length_b   7.49344759
_cell_length_c   9.31485700
_cell_angle_alpha   90.00000000
_cell_angle_beta   90.00000000
_cell_angle_gamma   119.70087333
_symmetry_Int_Tables_number   1
_chemical_formula_structural   Ho2Zr2Al17SiIr6
_chemical_formula_sum   'Ho2 Zr2 Al17 Si1 Ir6'
_cell_volume   455.52793432
_cell_formula_units_Z   1
loop_
 _symmetry_equiv_pos_site_id
 _symmetry_equiv_pos_as_xyz
  1  'x, y, z'
loop_
 _atom_site_type_symbol
 _atom_site_label
 _atom_site_symmetry_multiplicity
 _atom_site_fract_x
 _atom_site_fract_y
 _atom_site_fract_z
 _atom_site_occupancy
  Ho  Ho0  1  0.674616  0.992893  0.250000  1
  Ho  Ho1  1  0.330002  0.005420  0.750000  1
  Zr  Zr2  1  0.993048  0.674240  0.250000  1
  Zr  Zr3  1  0.005379  0.329709  0.750000  1
  Al  Al4  1  0.875391  0.876781  0.750000  1
  Al  Al5  1  0.999326  0.338381  0.073896  1
  Al  Al6  1  0.999909  0.663554  0.926316  1
  Al  Al7  1  0.999909  0.663554  0.573684  1
  Al  Al8  1  0.334425  0.998890  0.421754  1
  Al  Al9  1  0.999326  0.338381  0.426104  1
  Al  Al10  1  0.667858  0.001033  0.576755  1
  Al  Al11  1  0.667858  0.001033  0.923245  1
  Al  Al12  1  0.334425  0.998890  0.078246  1
  Al  Al13  1  0.330997  0.333214  0.559367  1
  Al  Al14  1  0.666090  0.664057  0.444142  1
  Al  Al15  1  0.666090  0.664057  0.055858  1
  Al  Al16  1  0.330997  0.333214  0.940633  1
  Al  Al17  1  0.329719  0.546813  0.250000  1
  Al  Al18  1  0.667282  0.453339  0.750000  1
  Al  Al19  1  0.552822  0.339706  0.250000  1
  Al  Al20  1  0.447751  0.657733  0.750000  1
  Si  Si21  1  0.129761  0.128092  0.250000  1
  Ir  Ir22  1  0.670181  0.326268  0.000416  1
  Ir  Ir23  1  0.327333  0.671261  0.000944  1
  Ir  Ir24  1  0.327333  0.671261  0.499056  1
  Ir  Ir25  1  0.670181  0.326268  0.499584  1
  Ir  Ir26  1  0.000996  0.000980  0.006808  1
  Ir  Ir27  1  0.000996  0.000980  0.493192  1
