# generated using pymatgen
data_Eu4In2Rh3
_symmetry_space_group_name_H-M   'P 1'
_cell_length_a   7.63020800
_cell_length_b   7.66843579
_cell_length_c   4.32055100
_cell_angle_alpha   90.00000000
_cell_angle_beta   90.00000000
_cell_angle_gamma   119.83523133
_symmetry_Int_Tables_number   1
_chemical_formula_structural   Eu4In2Rh3
_chemical_formula_sum   'Eu4 In2 Rh3'
_cell_volume   219.29645209
_cell_formula_units_Z   1
loop_
 _symmetry_equiv_pos_site_id
 _symmetry_equiv_pos_as_xyz
  1  'x, y, z'
loop_
 _atom_site_type_symbol
 _atom_site_label
 _atom_site_symmetry_multiplicity
 _atom_site_fract_x
 _atom_site_fract_y
 _atom_site_fract_z
 _atom_site_occupancy
  Eu  Eu0  1  0.251553  0.000000  0.000000  1
  Eu  Eu1  1  0.606927  0.000000  0.500000  1
  Eu  Eu2  1  0.412674  0.428699  0.500000  1
  Eu  Eu3  1  0.983976  0.571301  0.500000  1
  In  In4  1  0.001937  0.254535  0.000000  1
  In  In5  1  0.747402  0.745465  0.000000  1
  Rh  Rh6  1  0.678509  0.343639  0.000000  1
  Rh  Rh7  1  0.334870  0.656361  0.000000  1
  Rh  Rh8  1  0.982153  0.000000  0.500000  1
