# generated using pymatgen
data_ErTm7Tc3B24Rh
_symmetry_space_group_name_H-M   'P 1'
_cell_length_a   3.63852900
_cell_length_b   9.08653306
_cell_length_c   11.45718111
_cell_angle_alpha   90.11240598
_cell_angle_beta   90.00000000
_cell_angle_gamma   90.00000000
_symmetry_Int_Tables_number   1
_chemical_formula_structural   ErTm7Tc3B24Rh
_chemical_formula_sum   'Er1 Tm7 Tc3 B24 Rh1'
_cell_volume   378.79217100
_cell_formula_units_Z   1
loop_
 _symmetry_equiv_pos_site_id
 _symmetry_equiv_pos_as_xyz
  1  'x, y, z'
loop_
 _atom_site_type_symbol
 _atom_site_label
 _atom_site_symmetry_multiplicity
 _atom_site_fract_x
 _atom_site_fract_y
 _atom_site_fract_z
 _atom_site_occupancy
  Er  Er0  1  0.500000  0.318043  0.415783  1
  Tm  Tm1  1  0.500000  0.678454  0.591242  1
  Tm  Tm2  1  0.500000  0.177443  0.912829  1
  Tm  Tm3  1  0.500000  0.827108  0.080904  1
  Tm  Tm4  1  0.500000  0.440495  0.128703  1
  Tm  Tm5  1  0.500000  0.557162  0.871151  1
  Tm  Tm6  1  0.500000  0.056088  0.629561  1
  Tm  Tm7  1  0.500000  0.943735  0.369837  1
  Tc  Tc8  1  0.500000  0.138585  0.180197  1
  Tc  Tc9  1  0.500000  0.861367  0.820517  1
  Tc  Tc10  1  0.500000  0.362519  0.678113  1
  B  B11  1  0.000000  0.100944  0.471566  1
  B  B12  1  0.000000  0.895694  0.528070  1
  B  B13  1  0.000000  0.397548  0.972090  1
  B  B14  1  0.000000  0.603571  0.029090  1
  B  B15  1  0.000000  0.130430  0.315489  1
  B  B16  1  0.000000  0.868652  0.684815  1
  B  B17  1  0.000000  0.369506  0.814918  1
  B  B18  1  0.000000  0.631502  0.183473  1
  B  B19  1  0.000000  0.053367  0.066083  1
  B  B20  1  0.000000  0.947541  0.933045  1
  B  B21  1  0.000000  0.446700  0.566306  1
  B  B22  1  0.000000  0.553985  0.434220  1
  B  B23  1  0.000000  0.482546  0.287869  1
  B  B24  1  0.000000  0.518911  0.712372  1
  B  B25  1  0.000000  0.018368  0.787192  1
  B  B26  1  0.000000  0.981900  0.211869  1
  B  B27  1  0.000000  0.249709  0.080794  1
  B  B28  1  0.000000  0.751269  0.919322  1
  B  B29  1  0.000000  0.249694  0.580784  1
  B  B30  1  0.000000  0.749486  0.420652  1
  B  B31  1  0.000000  0.292224  0.235656  1
  B  B32  1  0.000000  0.707754  0.765348  1
  B  B33  1  0.000000  0.207931  0.734774  1
  B  B34  1  0.000000  0.791644  0.264466  1
  Rh  Rh35  1  0.500000  0.638123  0.320900  1
