# generated using pymatgen
data_LuTi(SnRh)2
_symmetry_space_group_name_H-M   'P 1'
_cell_length_a   7.45629500
_cell_length_b   7.45629535
_cell_length_c   7.14144700
_cell_angle_alpha   90.00000000
_cell_angle_beta   90.00000000
_cell_angle_gamma   120.00000290
_symmetry_Int_Tables_number   1
_chemical_formula_structural   LuTi(SnRh)2
_chemical_formula_sum   'Lu3 Ti3 Sn6 Rh6'
_cell_volume   343.84524332
_cell_formula_units_Z   3
loop_
 _symmetry_equiv_pos_site_id
 _symmetry_equiv_pos_as_xyz
  1  'x, y, z'
loop_
 _atom_site_type_symbol
 _atom_site_label
 _atom_site_symmetry_multiplicity
 _atom_site_fract_x
 _atom_site_fract_y
 _atom_site_fract_z
 _atom_site_occupancy
  Lu  Lu0  1  0.599146  0.999947  0.750000  1
  Lu  Lu1  1  0.400801  0.400854  0.750000  1
  Lu  Lu2  1  0.000053  0.599199  0.750000  1
  Ti  Ti3  1  0.610468  0.999800  0.250000  1
  Ti  Ti4  1  0.389332  0.389532  0.250000  1
  Ti  Ti5  1  0.000200  0.610668  0.250000  1
  Sn  Sn6  1  0.274240  0.999751  0.011657  1
  Sn  Sn7  1  0.725511  0.725760  0.488343  1
  Sn  Sn8  1  0.000249  0.274489  0.488343  1
  Sn  Sn9  1  0.000249  0.274489  0.011657  1
  Sn  Sn10  1  0.725511  0.725760  0.011657  1
  Sn  Sn11  1  0.274240  0.999751  0.488343  1
  Rh  Rh12  1  0.666667  0.333333  0.043179  1
  Rh  Rh13  1  0.666667  0.333333  0.456821  1
  Rh  Rh14  1  0.333333  0.666667  0.043015  1
  Rh  Rh15  1  0.333333  0.666667  0.456985  1
  Rh  Rh16  1  0.000000  0.000000  0.750000  1
  Rh  Rh17  1  0.000000  0.000000  0.250000  1
