# generated using pymatgen
data_Yb8Hg4GePd20
_symmetry_space_group_name_H-M   'P 1'
_cell_length_a   8.17277700
_cell_length_b   8.52853200
_cell_length_c   8.49611200
_cell_angle_alpha   90.00000000
_cell_angle_beta   90.00000000
_cell_angle_gamma   90.00000000
_symmetry_Int_Tables_number   1
_chemical_formula_structural   Yb8Hg4GePd20
_chemical_formula_sum   'Yb8 Hg4 Ge1 Pd20'
_cell_volume   592.19421591
_cell_formula_units_Z   1
loop_
 _symmetry_equiv_pos_site_id
 _symmetry_equiv_pos_as_xyz
  1  'x, y, z'
loop_
 _atom_site_type_symbol
 _atom_site_label
 _atom_site_symmetry_multiplicity
 _atom_site_fract_x
 _atom_site_fract_y
 _atom_site_fract_z
 _atom_site_occupancy
  Yb  Yb0  1  0.252361  0.235536  0.252299  1
  Yb  Yb1  1  0.747639  0.764464  0.747701  1
  Yb  Yb2  1  0.747639  0.764464  0.252299  1
  Yb  Yb3  1  0.747639  0.235536  0.747701  1
  Yb  Yb4  1  0.252361  0.235536  0.747701  1
  Yb  Yb5  1  0.252361  0.764464  0.252299  1
  Yb  Yb6  1  0.252361  0.764464  0.747701  1
  Yb  Yb7  1  0.747639  0.235536  0.252299  1
  Hg  Hg8  1  0.260584  0.500000  0.000000  1
  Hg  Hg9  1  0.739416  0.500000  0.000000  1
  Hg  Hg10  1  0.252437  0.500000  0.500000  1
  Hg  Hg11  1  0.747563  0.500000  0.500000  1
  Ge  Ge12  1  0.000000  0.000000  0.000000  1
  Pd  Pd13  1  0.000000  0.255290  0.500000  1
  Pd  Pd14  1  0.500000  0.259443  0.000000  1
  Pd  Pd15  1  0.000000  0.744710  0.500000  1
  Pd  Pd16  1  0.500000  0.740557  0.000000  1
  Pd  Pd17  1  0.500000  0.000000  0.262453  1
  Pd  Pd18  1  0.259091  0.000000  0.500000  1
  Pd  Pd19  1  0.500000  0.000000  0.737547  1
  Pd  Pd20  1  0.740909  0.000000  0.500000  1
  Pd  Pd21  1  0.000000  0.500000  0.257238  1
  Pd  Pd22  1  0.000000  0.500000  0.742762  1
  Pd  Pd23  1  0.500000  0.249810  0.500000  1
  Pd  Pd24  1  0.500000  0.750190  0.500000  1
  Pd  Pd25  1  0.500000  0.500000  0.254487  1
  Pd  Pd26  1  0.500000  0.500000  0.745513  1
  Pd  Pd27  1  0.296034  0.000000  0.000000  1
  Pd  Pd28  1  0.703966  0.000000  0.000000  1
  Pd  Pd29  1  0.000000  0.283374  0.000000  1
  Pd  Pd30  1  0.000000  0.716626  0.000000  1
  Pd  Pd31  1  0.000000  0.000000  0.287212  1
  Pd  Pd32  1  0.000000  0.000000  0.712788  1
