# generated using pymatgen
data_AcTm5(Si3Ru)8
_symmetry_space_group_name_H-M   'P 1'
_cell_length_a   10.12972576
_cell_length_b   10.12972578
_cell_length_c   8.17419709
_cell_angle_alpha   89.95739050
_cell_angle_beta   90.04260600
_cell_angle_gamma   132.47697798
_symmetry_Int_Tables_number   1
_chemical_formula_structural   AcTm5(Si3Ru)8
_chemical_formula_sum   'Ac1 Tm5 Si24 Ru8'
_cell_volume   618.63012033
_cell_formula_units_Z   1
loop_
 _symmetry_equiv_pos_site_id
 _symmetry_equiv_pos_as_xyz
  1  'x, y, z'
loop_
 _atom_site_type_symbol
 _atom_site_label
 _atom_site_symmetry_multiplicity
 _atom_site_fract_x
 _atom_site_fract_y
 _atom_site_fract_z
 _atom_site_occupancy
  Ac  Ac0  1  0.502365  0.002365  0.250000  1
  Tm  Tm1  1  0.000240  0.000341  0.000596  1
  Tm  Tm2  1  0.500341  0.500240  0.499404  1
  Tm  Tm3  1  0.002922  0.502922  0.250000  1
  Tm  Tm4  1  0.998934  0.498934  0.750000  1
  Tm  Tm5  1  0.497772  0.997772  0.750000  1
  Si  Si6  1  0.711423  0.302586  0.993579  1
  Si  Si7  1  0.289404  0.698405  0.994733  1
  Si  Si8  1  0.802586  0.211423  0.506421  1
  Si  Si9  1  0.198405  0.789404  0.505267  1
  Si  Si10  1  0.333188  0.331691  0.167204  1
  Si  Si11  1  0.668662  0.667612  0.833079  1
  Si  Si12  1  0.167612  0.168662  0.666921  1
  Si  Si13  1  0.831691  0.833188  0.332796  1
  Si  Si14  1  0.845754  0.614438  0.005498  1
  Si  Si15  1  0.155166  0.386444  0.995832  1
  Si  Si16  1  0.654961  0.888601  0.511164  1
  Si  Si17  1  0.114438  0.345754  0.494502  1
  Si  Si18  1  0.342734  0.110949  0.504885  1
  Si  Si19  1  0.886444  0.655166  0.504168  1
  Si  Si20  1  0.388601  0.154961  0.988836  1
  Si  Si21  1  0.610949  0.842734  0.995115  1
  Si  Si22  1  0.895720  0.129602  0.271344  1
  Si  Si23  1  0.111019  0.879386  0.728716  1
  Si  Si24  1  0.611852  0.379284  0.770688  1
  Si  Si25  1  0.629602  0.395720  0.228656  1
  Si  Si26  1  0.378350  0.611351  0.227425  1
  Si  Si27  1  0.379386  0.611019  0.771284  1
  Si  Si28  1  0.879284  0.111852  0.729312  1
  Si  Si29  1  0.111351  0.878350  0.272575  1
  Ru  Ru30  1  0.833603  0.171036  0.996438  1
  Ru  Ru31  1  0.166066  0.828923  0.996274  1
  Ru  Ru32  1  0.671036  0.333603  0.503562  1
  Ru  Ru33  1  0.328923  0.666066  0.503726  1
  Ru  Ru34  1  0.126577  0.125576  0.372399  1
  Ru  Ru35  1  0.873108  0.873957  0.626954  1
  Ru  Ru36  1  0.373957  0.373108  0.873046  1
  Ru  Ru37  1  0.625576  0.626577  0.127601  1
