# generated using pymatgen
data_U3Ni(Bi2Rh)2
_symmetry_space_group_name_H-M   'P 1'
_cell_length_a   8.46107161
_cell_length_b   8.46107110
_cell_length_c   8.46107094
_cell_angle_alpha   109.00142353
_cell_angle_beta   109.00142008
_cell_angle_gamma   110.41495819
_symmetry_Int_Tables_number   1
_chemical_formula_structural   U3Ni(Bi2Rh)2
_chemical_formula_sum   'U6 Ni2 Bi8 Rh4'
_cell_volume   466.19286789
_cell_formula_units_Z   2
loop_
 _symmetry_equiv_pos_site_id
 _symmetry_equiv_pos_as_xyz
  1  'x, y, z'
loop_
 _atom_site_type_symbol
 _atom_site_label
 _atom_site_symmetry_multiplicity
 _atom_site_fract_x
 _atom_site_fract_y
 _atom_site_fract_z
 _atom_site_occupancy
  U  U0  1  0.625000  0.375000  0.750000  1
  U  U1  1  0.875000  0.125000  0.250000  1
  U  U2  1  0.377200  0.750000  0.627200  1
  U  U3  1  0.122800  0.250000  0.872800  1
  U  U4  1  0.750000  0.622800  0.372800  1
  U  U5  1  0.250000  0.877200  0.127200  1
  Ni  Ni6  1  0.125000  0.875000  0.750000  1
  Ni  Ni7  1  0.375000  0.625000  0.250000  1
  Bi  Bi8  1  0.830077  0.824211  0.821002  1
  Bi  Bi9  1  0.669923  0.990925  0.494134  1
  Bi  Bi10  1  0.496791  0.675789  0.005866  1
  Bi  Bi11  1  0.324211  0.330077  0.321002  1
  Bi  Bi12  1  0.003209  0.509075  0.678998  1
  Bi  Bi13  1  0.175789  0.996791  0.505866  1
  Bi  Bi14  1  0.009075  0.503209  0.178998  1
  Bi  Bi15  1  0.490925  0.169923  0.994134  1
  Rh  Rh16  1  0.876181  0.750000  0.126181  1
  Rh  Rh17  1  0.623819  0.250000  0.373819  1
  Rh  Rh18  1  0.750000  0.123819  0.873819  1
  Rh  Rh19  1  0.250000  0.376181  0.626181  1
