# generated using pymatgen
data_Dy4Th2OsRu
_symmetry_space_group_name_H-M   'P 1'
_cell_length_a   6.37336600
_cell_length_b   7.26962500
_cell_length_c   9.54023500
_cell_angle_alpha   90.00000000
_cell_angle_beta   90.00000000
_cell_angle_gamma   90.00000000
_symmetry_Int_Tables_number   1
_chemical_formula_structural   Dy4Th2OsRu
_chemical_formula_sum   'Dy8 Th4 Os2 Ru2'
_cell_volume   442.01798492
_cell_formula_units_Z   2
loop_
 _symmetry_equiv_pos_site_id
 _symmetry_equiv_pos_as_xyz
  1  'x, y, z'
loop_
 _atom_site_type_symbol
 _atom_site_label
 _atom_site_symmetry_multiplicity
 _atom_site_fract_x
 _atom_site_fract_y
 _atom_site_fract_z
 _atom_site_occupancy
  Dy  Dy0  1  0.335252  0.675690  0.065176  1
  Dy  Dy1  1  0.164748  0.175690  0.434824  1
  Dy  Dy2  1  0.667086  0.324140  0.567131  1
  Dy  Dy3  1  0.832914  0.824140  0.932869  1
  Dy  Dy4  1  0.667086  0.324140  0.932869  1
  Dy  Dy5  1  0.832914  0.824140  0.567131  1
  Dy  Dy6  1  0.335252  0.675690  0.434824  1
  Dy  Dy7  1  0.164748  0.175690  0.065176  1
  Th  Th8  1  0.848292  0.547911  0.250000  1
  Th  Th9  1  0.651708  0.047911  0.250000  1
  Th  Th10  1  0.150421  0.456380  0.750000  1
  Th  Th11  1  0.349579  0.956380  0.750000  1
  Os  Os12  1  0.961230  0.127081  0.750000  1
  Os  Os13  1  0.538770  0.627081  0.750000  1
  Ru  Ru14  1  0.029223  0.868967  0.250000  1
  Ru  Ru15  1  0.470777  0.368967  0.250000  1
