# generated using pymatgen
data_Sc10(BiSb)3
_symmetry_space_group_name_H-M   'P 1'
_cell_length_a   7.68261744
_cell_length_b   8.89741180
_cell_length_c   11.27829620
_cell_angle_alpha   89.92417106
_cell_angle_beta   90.19137265
_cell_angle_gamma   89.95020993
_symmetry_Int_Tables_number   1
_chemical_formula_structural   Sc10(BiSb)3
_chemical_formula_sum   'Sc20 Bi6 Sb6'
_cell_volume   770.92730308
_cell_formula_units_Z   2
loop_
 _symmetry_equiv_pos_site_id
 _symmetry_equiv_pos_as_xyz
  1  'x, y, z'
loop_
 _atom_site_type_symbol
 _atom_site_label
 _atom_site_symmetry_multiplicity
 _atom_site_fract_x
 _atom_site_fract_y
 _atom_site_fract_z
 _atom_site_occupancy
  Sc  Sc0  1  0.026801  0.250150  0.511675  1
  Sc  Sc1  1  0.973199  0.749850  0.488325  1
  Sc  Sc2  1  0.472878  0.745192  0.011078  1
  Sc  Sc3  1  0.527122  0.254808  0.988922  1
  Sc  Sc4  1  0.356680  0.253314  0.283582  1
  Sc  Sc5  1  0.643320  0.746686  0.716418  1
  Sc  Sc6  1  0.150216  0.747095  0.785521  1
  Sc  Sc7  1  0.849784  0.252905  0.214479  1
  Sc  Sc8  1  0.187818  0.253807  0.781316  1
  Sc  Sc9  1  0.812182  0.746193  0.218684  1
  Sc  Sc10  1  0.317966  0.747170  0.279337  1
  Sc  Sc11  1  0.682034  0.252830  0.720663  1
  Sc  Sc12  1  0.193657  0.064473  0.059303  1
  Sc  Sc13  1  0.806343  0.935527  0.940697  1
  Sc  Sc14  1  0.307363  0.935400  0.559337  1
  Sc  Sc15  1  0.803157  0.562709  0.941872  1
  Sc  Sc16  1  0.692637  0.064600  0.440663  1
  Sc  Sc17  1  0.196843  0.437291  0.058128  1
  Sc  Sc18  1  0.691019  0.436409  0.438089  1
  Sc  Sc19  1  0.308981  0.563591  0.561911  1
  Bi  Bi20  1  0.067153  0.004047  0.325050  1
  Bi  Bi21  1  0.932847  0.995953  0.674950  1
  Bi  Bi22  1  0.433314  0.996208  0.826389  1
  Bi  Bi23  1  0.932656  0.503937  0.674315  1
  Bi  Bi24  1  0.566686  0.003792  0.173611  1
  Bi  Bi25  1  0.067344  0.496063  0.325685  1
  Sb  Sb26  1  0.410172  0.249860  0.539056  1
  Sb  Sb27  1  0.589828  0.750140  0.460944  1
  Sb  Sb28  1  0.088557  0.750000  0.039573  1
  Sb  Sb29  1  0.911443  0.250000  0.960427  1
  Sb  Sb30  1  0.566172  0.495596  0.173265  1
  Sb  Sb31  1  0.433828  0.504404  0.826735  1
