# generated using pymatgen
data_Ba2Al5ZnAg4
_symmetry_space_group_name_H-M   'P 1'
_cell_length_a   7.11347522
_cell_length_b   7.01541404
_cell_length_c   5.55759800
_cell_angle_alpha   90.00000000
_cell_angle_beta   90.00000000
_cell_angle_gamma   104.16955462
_symmetry_Int_Tables_number   1
_chemical_formula_structural   Ba2Al5ZnAg4
_chemical_formula_sum   'Ba2 Al5 Zn1 Ag4'
_cell_volume   268.90812274
_cell_formula_units_Z   1
loop_
 _symmetry_equiv_pos_site_id
 _symmetry_equiv_pos_as_xyz
  1  'x, y, z'
loop_
 _atom_site_type_symbol
 _atom_site_label
 _atom_site_symmetry_multiplicity
 _atom_site_fract_x
 _atom_site_fract_y
 _atom_site_fract_z
 _atom_site_occupancy
  Ba  Ba0  1  0.832410  0.838030  0.000000  1
  Ba  Ba1  1  0.176729  0.172613  0.500000  1
  Al  Al2  1  0.295095  0.702285  0.247228  1
  Al  Al3  1  0.295095  0.702285  0.752772  1
  Al  Al4  1  0.699604  0.288824  0.249808  1
  Al  Al5  1  0.699604  0.288824  0.750192  1
  Al  Al6  1  0.582232  0.577163  0.500000  1
  Zn  Zn7  1  0.416487  0.030410  0.000000  1
  Ag  Ag8  1  0.967650  0.583938  0.500000  1
  Ag  Ag9  1  0.578274  0.962228  0.500000  1
  Ag  Ag10  1  0.022192  0.421904  0.000000  1
  Ag  Ag11  1  0.434626  0.431496  0.000000  1
