# generated using pymatgen
data_Dy12AlZn11C4
_symmetry_space_group_name_H-M   'P 1'
_cell_length_a   9.19627905
_cell_length_b   9.19627864
_cell_length_c   9.15587368
_cell_angle_alpha   59.85390246
_cell_angle_beta   59.85390525
_cell_angle_gamma   60.00000250
_symmetry_Int_Tables_number   1
_chemical_formula_structural   Dy12AlZn11C4
_chemical_formula_sum   'Dy12 Al1 Zn11 C4'
_cell_volume   546.31924506
_cell_formula_units_Z   1
loop_
 _symmetry_equiv_pos_site_id
 _symmetry_equiv_pos_as_xyz
  1  'x, y, z'
loop_
 _atom_site_type_symbol
 _atom_site_label
 _atom_site_symmetry_multiplicity
 _atom_site_fract_x
 _atom_site_fract_y
 _atom_site_fract_z
 _atom_site_occupancy
  Dy  Dy0  1  0.446711  0.446711  0.053232  1
  Dy  Dy1  1  0.053347  0.446711  0.053232  1
  Dy  Dy2  1  0.446711  0.053347  0.053232  1
  Dy  Dy3  1  0.053269  0.053269  0.446867  1
  Dy  Dy4  1  0.446595  0.053269  0.446867  1
  Dy  Dy5  1  0.053269  0.446595  0.446867  1
  Dy  Dy6  1  0.803289  0.803289  0.196768  1
  Dy  Dy7  1  0.196653  0.803289  0.196768  1
  Dy  Dy8  1  0.803289  0.196653  0.196768  1
  Dy  Dy9  1  0.196731  0.196731  0.803133  1
  Dy  Dy10  1  0.803405  0.196731  0.803133  1
  Dy  Dy11  1  0.196731  0.803405  0.803133  1
  Al  Al12  1  0.625000  0.625000  0.125000  1
  Zn  Zn13  1  0.826042  0.826042  0.521875  1
  Zn  Zn14  1  0.827212  0.519957  0.825619  1
  Zn  Zn15  1  0.519957  0.827212  0.825619  1
  Zn  Zn16  1  0.827212  0.827212  0.825619  1
  Zn  Zn17  1  0.423958  0.423958  0.728125  1
  Zn  Zn18  1  0.422788  0.730043  0.424381  1
  Zn  Zn19  1  0.730043  0.422788  0.424381  1
  Zn  Zn20  1  0.422788  0.422788  0.424381  1
  Zn  Zn21  1  0.625000  0.125000  0.625000  1
  Zn  Zn22  1  0.125000  0.625000  0.625000  1
  Zn  Zn23  1  0.625000  0.625000  0.625000  1
  C  C24  1  0.125000  0.125000  0.625000  1
  C  C25  1  0.125000  0.625000  0.125000  1
  C  C26  1  0.625000  0.125000  0.125000  1
  C  C27  1  0.125000  0.125000  0.125000  1
