# generated using pymatgen
data_DyHoSi2O7
_symmetry_space_group_name_H-M   'P 1'
_cell_length_a   4.77845709
_cell_length_b   5.69416996
_cell_length_c   5.69416943
_cell_angle_alpha   105.38225289
_cell_angle_beta   97.18530076
_cell_angle_gamma   97.18530972
_symmetry_Int_Tables_number   1
_chemical_formula_structural   DyHoSi2O7
_chemical_formula_sum   'Dy1 Ho1 Si2 O7'
_cell_volume   146.16908808
_cell_formula_units_Z   1
loop_
 _symmetry_equiv_pos_site_id
 _symmetry_equiv_pos_as_xyz
  1  'x, y, z'
loop_
 _atom_site_type_symbol
 _atom_site_label
 _atom_site_symmetry_multiplicity
 _atom_site_fract_x
 _atom_site_fract_y
 _atom_site_fract_z
 _atom_site_occupancy
  Dy  Dy0  1  0.000000  0.307077  0.692921  1
  Ho  Ho1  1  0.000000  0.692198  0.307800  1
  Si  Si2  1  0.411538  0.218201  0.218151  1
  Si  Si3  1  0.588462  0.781850  0.781800  1
  O  O4  1  0.500001  0.000699  0.999301  1
  O  O5  1  0.220564  0.385599  0.087278  1
  O  O6  1  0.714208  0.381988  0.380996  1
  O  O7  1  0.221088  0.084661  0.384000  1
  O  O8  1  0.779436  0.912722  0.614402  1
  O  O9  1  0.285794  0.619004  0.618012  1
  O  O10  1  0.778912  0.616001  0.915339  1
