# generated using pymatgen
data_DyTm4In4PtRh
_symmetry_space_group_name_H-M   'P 1'
_cell_length_a   3.59635900
_cell_length_b   8.06870780
_cell_length_c   18.08626708
_cell_angle_alpha   90.07673927
_cell_angle_beta   90.00000000
_cell_angle_gamma   90.00000000
_symmetry_Int_Tables_number   1
_chemical_formula_structural   DyTm4In4PtRh
_chemical_formula_sum   'Dy2 Tm8 In8 Pt2 Rh2'
_cell_volume   524.82628316
_cell_formula_units_Z   2
loop_
 _symmetry_equiv_pos_site_id
 _symmetry_equiv_pos_as_xyz
  1  'x, y, z'
loop_
 _atom_site_type_symbol
 _atom_site_label
 _atom_site_symmetry_multiplicity
 _atom_site_fract_x
 _atom_site_fract_y
 _atom_site_fract_z
 _atom_site_occupancy
  Dy  Dy0  1  0.000000  0.000000  0.000000  1
  Dy  Dy1  1  0.000000  0.500000  0.500000  1
  Tm  Tm2  1  0.000000  0.115677  0.412292  1
  Tm  Tm3  1  0.000000  0.884323  0.587708  1
  Tm  Tm4  1  0.000000  0.382791  0.913487  1
  Tm  Tm5  1  0.000000  0.617209  0.086513  1
  Tm  Tm6  1  0.000000  0.240079  0.221454  1
  Tm  Tm7  1  0.000000  0.759921  0.778546  1
  Tm  Tm8  1  0.000000  0.251711  0.720590  1
  Tm  Tm9  1  0.000000  0.748289  0.279410  1
  In  In10  1  0.500000  0.422459  0.351212  1
  In  In11  1  0.500000  0.577541  0.648788  1
  In  In12  1  0.500000  0.074086  0.849987  1
  In  In13  1  0.500000  0.925914  0.150013  1
  In  In14  1  0.500000  0.293749  0.066596  1
  In  In15  1  0.500000  0.706251  0.933404  1
  In  In16  1  0.500000  0.205147  0.567678  1
  In  In17  1  0.500000  0.794853  0.432322  1
  Pt  Pt18  1  0.500000  0.476531  0.803666  1
  Pt  Pt19  1  0.500000  0.523469  0.196334  1
  Rh  Rh20  1  0.500000  0.023297  0.304282  1
  Rh  Rh21  1  0.500000  0.976703  0.695718  1
