# generated using pymatgen
data_CeSm(GaPt)2
_symmetry_space_group_name_H-M   'P 1'
_cell_length_a   4.45494000
_cell_length_b   7.08249402
_cell_length_c   7.83824902
_cell_angle_alpha   89.99212762
_cell_angle_beta   90.00000000
_cell_angle_gamma   90.00000000
_symmetry_Int_Tables_number   1
_chemical_formula_structural   CeSm(GaPt)2
_chemical_formula_sum   'Ce2 Sm2 Ga4 Pt4'
_cell_volume   247.31310396
_cell_formula_units_Z   2
loop_
 _symmetry_equiv_pos_site_id
 _symmetry_equiv_pos_as_xyz
  1  'x, y, z'
loop_
 _atom_site_type_symbol
 _atom_site_label
 _atom_site_symmetry_multiplicity
 _atom_site_fract_x
 _atom_site_fract_y
 _atom_site_fract_z
 _atom_site_occupancy
  Ce  Ce0  1  0.250000  0.983791  0.302497  1
  Ce  Ce1  1  0.250000  0.483741  0.197463  1
  Sm  Sm2  1  0.750000  0.016299  0.700895  1
  Sm  Sm3  1  0.750000  0.516320  0.798849  1
  Ga  Ga4  1  0.250000  0.328937  0.577440  1
  Ga  Ga5  1  0.250000  0.829247  0.922670  1
  Ga  Ga6  1  0.750000  0.671044  0.426143  1
  Ga  Ga7  1  0.750000  0.170408  0.074020  1
  Pt  Pt8  1  0.250000  0.222931  0.903247  1
  Pt  Pt9  1  0.250000  0.723086  0.596632  1
  Pt  Pt10  1  0.750000  0.777308  0.098450  1
  Pt  Pt11  1  0.750000  0.276888  0.401695  1
