# generated using pymatgen
data_TbCeAl4FeNi
_symmetry_space_group_name_H-M   'P 1'
_cell_length_a   5.17532970
_cell_length_b   5.17532811
_cell_length_c   7.08362100
_cell_angle_alpha   90.00000000
_cell_angle_beta   90.00000000
_cell_angle_gamma   132.00043179
_symmetry_Int_Tables_number   1
_chemical_formula_structural   TbCeAl4FeNi
_chemical_formula_sum   'Tb1 Ce1 Al4 Fe1 Ni1'
_cell_volume   140.99435934
_cell_formula_units_Z   1
loop_
 _symmetry_equiv_pos_site_id
 _symmetry_equiv_pos_as_xyz
  1  'x, y, z'
loop_
 _atom_site_type_symbol
 _atom_site_label
 _atom_site_symmetry_multiplicity
 _atom_site_fract_x
 _atom_site_fract_y
 _atom_site_fract_z
 _atom_site_occupancy
  Tb  Tb0  1  0.434562  0.565438  0.750000  1
  Ce  Ce1  1  0.545482  0.454518  0.250000  1
  Al  Al2  1  0.841038  0.158962  0.050833  1
  Al  Al3  1  0.152791  0.847209  0.947244  1
  Al  Al4  1  0.152791  0.847209  0.552756  1
  Al  Al5  1  0.841038  0.158962  0.449167  1
  Fe  Fe6  1  0.317629  0.682371  0.250000  1
  Ni  Ni7  1  0.714670  0.285330  0.750000  1
