# generated using pymatgen
data_Tb9Mg(CoTe)4
_symmetry_space_group_name_H-M   'P 1'
_cell_length_a   7.75640768
_cell_length_b   7.75640643
_cell_length_c   15.04699100
_cell_angle_alpha   90.00000000
_cell_angle_beta   90.00000000
_cell_angle_gamma   150.56126842
_symmetry_Int_Tables_number   1
_chemical_formula_structural   Tb9Mg(CoTe)4
_chemical_formula_sum   'Tb9 Mg1 Co4 Te4'
_cell_volume   444.92602407
_cell_formula_units_Z   1
loop_
 _symmetry_equiv_pos_site_id
 _symmetry_equiv_pos_as_xyz
  1  'x, y, z'
loop_
 _atom_site_type_symbol
 _atom_site_label
 _atom_site_symmetry_multiplicity
 _atom_site_fract_x
 _atom_site_fract_y
 _atom_site_fract_z
 _atom_site_occupancy
  Tb  Tb0  1  0.966537  0.033463  0.131469  1
  Tb  Tb1  1  0.038963  0.961037  0.877082  1
  Tb  Tb2  1  0.038963  0.961037  0.622918  1
  Tb  Tb3  1  0.966537  0.033463  0.368531  1
  Tb  Tb4  1  0.742500  0.257500  0.630004  1
  Tb  Tb5  1  0.253468  0.746532  0.367266  1
  Tb  Tb6  1  0.253468  0.746532  0.132734  1
  Tb  Tb7  1  0.742500  0.257500  0.869996  1
  Tb  Tb8  1  0.395075  0.604925  0.750000  1
  Mg  Mg9  1  0.607279  0.392721  0.250000  1
  Co  Co10  1  0.408746  0.591254  0.250000  1
  Co  Co11  1  0.588459  0.411541  0.750000  1
  Co  Co12  1  0.817039  0.182961  0.250000  1
  Co  Co13  1  0.180507  0.819493  0.750000  1
  Te  Te14  1  0.617616  0.382384  0.037152  1
  Te  Te15  1  0.382363  0.617637  0.964227  1
  Te  Te16  1  0.382363  0.617637  0.535773  1
  Te  Te17  1  0.617616  0.382384  0.462848  1
