# generated using pymatgen
data_Zr2UGa3FeRu2
_symmetry_space_group_name_H-M   'P 1'
_cell_length_a   7.09952135
_cell_length_b   7.09640395
_cell_length_c   3.43390100
_cell_angle_alpha   90.00000000
_cell_angle_beta   90.00000000
_cell_angle_gamma   117.63955662
_symmetry_Int_Tables_number   1
_chemical_formula_structural   Zr2UGa3FeRu2
_chemical_formula_sum   'Zr2 U1 Ga3 Fe1 Ru2'
_cell_volume   153.26104668
_cell_formula_units_Z   1
loop_
 _symmetry_equiv_pos_site_id
 _symmetry_equiv_pos_as_xyz
  1  'x, y, z'
loop_
 _atom_site_type_symbol
 _atom_site_label
 _atom_site_symmetry_multiplicity
 _atom_site_fract_x
 _atom_site_fract_y
 _atom_site_fract_z
 _atom_site_occupancy
  Zr  Zr0  1  0.397622  0.993291  0.500000  1
  Zr  Zr1  1  0.001931  0.398502  0.500000  1
  U  U2  1  0.574126  0.592414  0.500000  1
  Ga  Ga3  1  0.728870  0.014654  0.000000  1
  Ga  Ga4  1  0.022153  0.731946  0.000000  1
  Ga  Ga5  1  0.249361  0.250137  0.000000  1
  Fe  Fe6  1  0.371643  0.666105  0.000000  1
  Ru  Ru7  1  0.666211  0.364002  0.000000  1
  Ru  Ru8  1  0.988085  0.988950  0.500000  1
