# generated using pymatgen
data_Nd3CoSn3Pt2
_symmetry_space_group_name_H-M   'P 1'
_cell_length_a   7.61103700
_cell_length_b   7.61103728
_cell_length_c   4.05105500
_cell_angle_alpha   90.00000000
_cell_angle_beta   90.00000000
_cell_angle_gamma   119.99999445
_symmetry_Int_Tables_number   1
_chemical_formula_structural   Nd3CoSn3Pt2
_chemical_formula_sum   'Nd3 Co1 Sn3 Pt2'
_cell_volume   203.22937322
_cell_formula_units_Z   1
loop_
 _symmetry_equiv_pos_site_id
 _symmetry_equiv_pos_as_xyz
  1  'x, y, z'
loop_
 _atom_site_type_symbol
 _atom_site_label
 _atom_site_symmetry_multiplicity
 _atom_site_fract_x
 _atom_site_fract_y
 _atom_site_fract_z
 _atom_site_occupancy
  Nd  Nd0  1  0.593043  0.593043  0.000000  1
  Nd  Nd1  1  0.406957  0.000000  0.000000  1
  Nd  Nd2  1  0.000000  0.406957  0.000000  1
  Co  Co3  1  0.000000  0.000000  0.000000  1
  Sn  Sn4  1  0.000000  0.757707  0.500000  1
  Sn  Sn5  1  0.242293  0.242293  0.500000  1
  Sn  Sn6  1  0.757707  0.000000  0.500000  1
  Pt  Pt7  1  0.333333  0.666667  0.500000  1
  Pt  Pt8  1  0.666667  0.333333  0.500000  1
