# generated using pymatgen
data_AlSi4Tc3
_symmetry_space_group_name_H-M   'P 1'
_cell_length_a   3.14048300
_cell_length_b   3.14048300
_cell_length_c   10.84821000
_cell_angle_alpha   90.00000000
_cell_angle_beta   90.00000000
_cell_angle_gamma   90.00000000
_symmetry_Int_Tables_number   1
_chemical_formula_structural   AlSi4Tc3
_chemical_formula_sum   'Al1 Si4 Tc3'
_cell_volume   106.99191907
_cell_formula_units_Z   1
loop_
 _symmetry_equiv_pos_site_id
 _symmetry_equiv_pos_as_xyz
  1  'x, y, z'
loop_
 _atom_site_type_symbol
 _atom_site_label
 _atom_site_symmetry_multiplicity
 _atom_site_fract_x
 _atom_site_fract_y
 _atom_site_fract_z
 _atom_site_occupancy
  Al  Al0  1  0.500000  0.500000  0.000000  1
  Si  Si1  1  0.500000  0.500000  0.248426  1
  Si  Si2  1  0.000000  0.000000  0.377142  1
  Si  Si3  1  0.000000  0.000000  0.622858  1
  Si  Si4  1  0.500000  0.500000  0.751574  1
  Tc  Tc5  1  0.000000  0.000000  0.150389  1
  Tc  Tc6  1  0.500000  0.500000  0.500000  1
  Tc  Tc7  1  0.000000  0.000000  0.849611  1
