# generated using pymatgen
data_Y4Al4PdPtRh2
_symmetry_space_group_name_H-M   'P 1'
_cell_length_a   4.35078800
_cell_length_b   6.90639382
_cell_length_c   7.87650247
_cell_angle_alpha   89.84630966
_cell_angle_beta   90.00000000
_cell_angle_gamma   90.00000000
_symmetry_Int_Tables_number   1
_chemical_formula_structural   Y4Al4PdPtRh2
_chemical_formula_sum   'Y4 Al4 Pd1 Pt1 Rh2'
_cell_volume   236.67430591
_cell_formula_units_Z   1
loop_
 _symmetry_equiv_pos_site_id
 _symmetry_equiv_pos_as_xyz
  1  'x, y, z'
loop_
 _atom_site_type_symbol
 _atom_site_label
 _atom_site_symmetry_multiplicity
 _atom_site_fract_x
 _atom_site_fract_y
 _atom_site_fract_z
 _atom_site_occupancy
  Y  Y0  1  0.250000  0.026875  0.320478  1
  Y  Y1  1  0.250000  0.538037  0.180321  1
  Y  Y2  1  0.750000  0.965444  0.680605  1
  Y  Y3  1  0.750000  0.473421  0.818776  1
  Al  Al4  1  0.250000  0.136902  0.935600  1
  Al  Al5  1  0.250000  0.641580  0.562601  1
  Al  Al6  1  0.750000  0.856207  0.062113  1
  Al  Al7  1  0.750000  0.363675  0.438089  1
  Pd  Pd8  1  0.750000  0.228130  0.119015  1
  Pt  Pt9  1  0.250000  0.269980  0.619115  1
  Rh  Rh10  1  0.250000  0.767706  0.881815  1
  Rh  Rh11  1  0.750000  0.732043  0.381470  1
