# generated using pymatgen
data_Y3Lu(Ti4Sn5)2
_symmetry_space_group_name_H-M   'P 1'
_cell_length_a   10.72431033
_cell_length_b   10.73437037
_cell_length_c   10.73436800
_cell_angle_alpha   148.84881447
_cell_angle_beta   131.61087664
_cell_angle_gamma   58.68530397
_symmetry_Int_Tables_number   1
_chemical_formula_structural   Y3Lu(Ti4Sn5)2
_chemical_formula_sum   'Y3 Lu1 Ti8 Sn10'
_cell_volume   474.15686215
_cell_formula_units_Z   1
loop_
 _symmetry_equiv_pos_site_id
 _symmetry_equiv_pos_as_xyz
  1  'x, y, z'
loop_
 _atom_site_type_symbol
 _atom_site_label
 _atom_site_symmetry_multiplicity
 _atom_site_fract_x
 _atom_site_fract_y
 _atom_site_fract_z
 _atom_site_occupancy
  Y  Y0  1  0.257013  0.143456  0.113558  1
  Y  Y1  1  0.744404  0.856741  0.887662  1
  Y  Y2  1  0.029474  0.643359  0.386115  1
  Lu  Lu3  1  0.969364  0.356369  0.612995  1
  Ti  Ti4  1  0.311672  0.560642  0.250354  1
  Ti  Ti5  1  0.689643  0.439387  0.750350  1
  Ti  Ti6  1  0.689643  0.939294  0.250256  1
  Ti  Ti7  1  0.311672  0.061318  0.751030  1
  Ti  Ti8  1  0.675459  0.436626  0.238833  1
  Ti  Ti9  1  0.323889  0.563562  0.760328  1
  Ti  Ti10  1  0.195982  0.936446  0.259536  1
  Ti  Ti11  1  0.803534  0.063400  0.740133  1
  Sn  Sn12  1  0.587138  0.290012  0.297125  1
  Sn  Sn13  1  0.415682  0.710558  0.705124  1
  Sn  Sn14  1  0.994794  0.789816  0.204978  1
  Sn  Sn15  1  0.005432  0.211174  0.794258  1
  Sn  Sn16  1  0.999820  0.249932  0.251061  1
  Sn  Sn17  1  0.999820  0.748758  0.749889  1
  Sn  Sn18  1  0.473723  0.066848  0.406874  1
  Sn  Sn19  1  0.526348  0.933116  0.593234  1
  Sn  Sn20  1  0.659233  0.566732  0.092501  1
  Sn  Sn21  1  0.336262  0.432457  0.903806  1
