# generated using pymatgen
data_Sr4MnSbO8
_symmetry_space_group_name_H-M   'P 1'
_cell_length_a   6.87480118
_cell_length_b   6.87480101
_cell_length_c   5.71653200
_cell_angle_alpha   90.00000000
_cell_angle_beta   90.00000000
_cell_angle_gamma   130.83467283
_symmetry_Int_Tables_number   1
_chemical_formula_structural   Sr4MnSbO8
_chemical_formula_sum   'Sr4 Mn1 Sb1 O8'
_cell_volume   204.41791837
_cell_formula_units_Z   1
loop_
 _symmetry_equiv_pos_site_id
 _symmetry_equiv_pos_as_xyz
  1  'x, y, z'
loop_
 _atom_site_type_symbol
 _atom_site_label
 _atom_site_symmetry_multiplicity
 _atom_site_fract_x
 _atom_site_fract_y
 _atom_site_fract_z
 _atom_site_occupancy
  Sr  Sr0  1  0.642794  0.357206  0.000000  1
  Sr  Sr1  1  0.145852  0.854148  0.500000  1
  Sr  Sr2  1  0.854148  0.145852  0.500000  1
  Sr  Sr3  1  0.357206  0.642794  0.000000  1
  Mn  Mn4  1  0.500000  0.500000  0.500000  1
  Sb  Sb5  1  0.000000  0.000000  0.000000  1
  O  O6  1  0.754814  0.754814  0.755206  1
  O  O7  1  0.245186  0.245186  0.244794  1
  O  O8  1  0.245186  0.245186  0.755206  1
  O  O9  1  0.754814  0.754814  0.244794  1
  O  O10  1  0.837758  0.162242  0.000000  1
  O  O11  1  0.342396  0.657604  0.500000  1
  O  O12  1  0.657604  0.342396  0.500000  1
  O  O13  1  0.162242  0.837758  0.000000  1
