# generated using pymatgen
data_Gd4MgInCu4
_symmetry_space_group_name_H-M   'P 1'
_cell_length_a   7.61578600
_cell_length_b   7.61578600
_cell_length_c   3.79167600
_cell_angle_alpha   90.00000000
_cell_angle_beta   90.00000000
_cell_angle_gamma   90.00000000
_symmetry_Int_Tables_number   1
_chemical_formula_structural   Gd4MgInCu4
_chemical_formula_sum   'Gd4 Mg1 In1 Cu4'
_cell_volume   219.91795268
_cell_formula_units_Z   1
loop_
 _symmetry_equiv_pos_site_id
 _symmetry_equiv_pos_as_xyz
  1  'x, y, z'
loop_
 _atom_site_type_symbol
 _atom_site_label
 _atom_site_symmetry_multiplicity
 _atom_site_fract_x
 _atom_site_fract_y
 _atom_site_fract_z
 _atom_site_occupancy
  Gd  Gd0  1  0.328563  0.177484  0.500001  1
  Gd  Gd1  1  0.822516  0.328563  0.500001  1
  Gd  Gd2  1  0.177484  0.671436  0.500001  1
  Gd  Gd3  1  0.671436  0.822516  0.500001  1
  Mg  Mg4  1  0.000000  0.000000  0.000000  1
  In  In5  1  0.500000  0.500000  0.000000  1
  Cu  Cu6  1  0.621523  0.117757  0.000000  1
  Cu  Cu7  1  0.117757  0.378477  0.000000  1
  Cu  Cu8  1  0.882242  0.621523  0.000000  1
  Cu  Cu9  1  0.378477  0.882242  0.000000  1
