# generated using pymatgen
data_YHo9BiPb5
_symmetry_space_group_name_H-M   'P 1'
_cell_length_a   9.05727900
_cell_length_b   9.05730202
_cell_length_c   6.54906600
_cell_angle_alpha   90.00000000
_cell_angle_beta   90.00000000
_cell_angle_gamma   119.99991956
_symmetry_Int_Tables_number   1
_chemical_formula_structural   YHo9BiPb5
_chemical_formula_sum   'Y1 Ho9 Bi1 Pb5'
_cell_volume   465.27203127
_cell_formula_units_Z   1
loop_
 _symmetry_equiv_pos_site_id
 _symmetry_equiv_pos_as_xyz
  1  'x, y, z'
loop_
 _atom_site_type_symbol
 _atom_site_label
 _atom_site_symmetry_multiplicity
 _atom_site_fract_x
 _atom_site_fract_y
 _atom_site_fract_z
 _atom_site_occupancy
  Y  Y0  1  0.236220  0.000000  0.250000  1
  Ho  Ho1  1  0.331624  0.664575  0.000107  1
  Ho  Ho2  1  0.667050  0.335425  0.499893  1
  Ho  Ho3  1  0.667050  0.335425  0.000107  1
  Ho  Ho4  1  0.331624  0.664575  0.499893  1
  Ho  Ho5  1  0.237318  0.238115  0.750000  1
  Ho  Ho6  1  0.999203  0.761885  0.750000  1
  Ho  Ho7  1  0.003388  0.239792  0.250000  1
  Ho  Ho8  1  0.763596  0.760208  0.250000  1
  Ho  Ho9  1  0.762585  0.000000  0.750000  1
  Bi  Bi10  1  0.606765  0.000000  0.250000  1
  Pb  Pb11  1  0.605564  0.606610  0.750000  1
  Pb  Pb12  1  0.998954  0.393390  0.750000  1
  Pb  Pb13  1  0.999983  0.604865  0.250000  1
  Pb  Pb14  1  0.395118  0.395135  0.250000  1
  Pb  Pb15  1  0.393960  0.000000  0.750000  1
