# generated using pymatgen
data_Dy3PaAl16GaSiIr6
_symmetry_space_group_name_H-M   'P 1'
_cell_length_a   7.56352900
_cell_length_b   7.55798797
_cell_length_c   9.43734900
_cell_angle_alpha   90.00000000
_cell_angle_beta   90.00000000
_cell_angle_gamma   119.46134926
_symmetry_Int_Tables_number   1
_chemical_formula_structural   Dy3PaAl16GaSiIr6
_chemical_formula_sum   'Dy3 Pa1 Al16 Ga1 Si1 Ir6'
_cell_volume   469.72436416
_cell_formula_units_Z   1
loop_
 _symmetry_equiv_pos_site_id
 _symmetry_equiv_pos_as_xyz
  1  'x, y, z'
loop_
 _atom_site_type_symbol
 _atom_site_label
 _atom_site_symmetry_multiplicity
 _atom_site_fract_x
 _atom_site_fract_y
 _atom_site_fract_z
 _atom_site_occupancy
  Dy  Dy0  1  0.004933  0.325862  0.250000  1
  Dy  Dy1  1  0.675083  0.993580  0.750000  1
  Dy  Dy2  1  0.326683  0.004924  0.250000  1
  Pa  Pa3  1  0.995962  0.678331  0.750000  1
  Al  Al4  1  0.001190  0.334722  0.575296  1
  Al  Al5  1  0.998578  0.663899  0.421844  1
  Al  Al6  1  0.998578  0.663899  0.078156  1
  Al  Al7  1  0.341608  0.004816  0.925156  1
  Al  Al8  1  0.001190  0.334722  0.924704  1
  Al  Al9  1  0.664854  0.999301  0.074790  1
  Al  Al10  1  0.664854  0.999301  0.425210  1
  Al  Al11  1  0.341608  0.004816  0.574844  1
  Al  Al12  1  0.333167  0.333352  0.057524  1
  Al  Al13  1  0.661033  0.663639  0.946236  1
  Al  Al14  1  0.661033  0.663639  0.553764  1
  Al  Al15  1  0.333167  0.333352  0.442476  1
  Al  Al16  1  0.335497  0.547014  0.750000  1
  Al  Al17  1  0.660892  0.448310  0.250000  1
  Al  Al18  1  0.547742  0.337527  0.750000  1
  Al  Al19  1  0.448981  0.662720  0.250000  1
  Ga  Ga20  1  0.868257  0.870416  0.250000  1
  Si  Si21  1  0.134113  0.133384  0.750000  1
  Ir  Ir22  1  0.672914  0.329986  0.502334  1
  Ir  Ir23  1  0.326323  0.671258  0.502536  1
  Ir  Ir24  1  0.326323  0.671258  0.997464  1
  Ir  Ir25  1  0.672914  0.329986  0.997666  1
  Ir  Ir26  1  0.001259  0.997993  0.512428  1
  Ir  Ir27  1  0.001259  0.997993  0.987572  1
