# generated using pymatgen
data_Ho2ErMgIr8
_symmetry_space_group_name_H-M   'P 1'
_cell_length_a   5.31864900
_cell_length_b   5.31864862
_cell_length_c   8.64491900
_cell_angle_alpha   90.00000000
_cell_angle_beta   90.00000000
_cell_angle_gamma   119.99999613
_symmetry_Int_Tables_number   1
_chemical_formula_structural   Ho2ErMgIr8
_chemical_formula_sum   'Ho2 Er1 Mg1 Ir8'
_cell_volume   211.78451703
_cell_formula_units_Z   1
loop_
 _symmetry_equiv_pos_site_id
 _symmetry_equiv_pos_as_xyz
  1  'x, y, z'
loop_
 _atom_site_type_symbol
 _atom_site_label
 _atom_site_symmetry_multiplicity
 _atom_site_fract_x
 _atom_site_fract_y
 _atom_site_fract_z
 _atom_site_occupancy
  Ho  Ho0  1  0.333333  0.666667  0.078958  1
  Ho  Ho1  1  0.666667  0.333333  0.558767  1
  Er  Er2  1  0.666667  0.333333  0.929996  1
  Mg  Mg3  1  0.333333  0.666667  0.440718  1
  Ir  Ir4  1  0.000000  0.000000  0.997340  1
  Ir  Ir5  1  0.000000  0.000000  0.497555  1
  Ir  Ir6  1  0.830331  0.660662  0.250453  1
  Ir  Ir7  1  0.170590  0.829410  0.748436  1
  Ir  Ir8  1  0.658820  0.829410  0.748436  1
  Ir  Ir9  1  0.339338  0.169669  0.250453  1
  Ir  Ir10  1  0.830331  0.169669  0.250453  1
  Ir  Ir11  1  0.170590  0.341180  0.748436  1
