# generated using pymatgen
data_Tb3YHfPt3F28
_symmetry_space_group_name_H-M   'P 1'
_cell_length_a   5.60120263
_cell_length_b   8.97089067
_cell_length_c   12.08179003
_cell_angle_alpha   62.37000464
_cell_angle_beta   90.06959593
_cell_angle_gamma   90.08975628
_symmetry_Int_Tables_number   1
_chemical_formula_structural   Tb3YHfPt3F28
_chemical_formula_sum   'Tb3 Y1 Hf1 Pt3 F28'
_cell_volume   537.85114290
_cell_formula_units_Z   1
loop_
 _symmetry_equiv_pos_site_id
 _symmetry_equiv_pos_as_xyz
  1  'x, y, z'
loop_
 _atom_site_type_symbol
 _atom_site_label
 _atom_site_symmetry_multiplicity
 _atom_site_fract_x
 _atom_site_fract_y
 _atom_site_fract_z
 _atom_site_occupancy
  Tb  Tb0  1  0.740212  0.186807  0.735602  1
  Tb  Tb1  1  0.760932  0.182845  0.237660  1
  Tb  Tb2  1  0.240345  0.814238  0.762073  1
  Y  Y3  1  0.258430  0.813147  0.268048  1
  Hf  Hf4  1  0.755389  0.725248  0.043523  1
  Pt  Pt5  1  0.240807  0.272554  0.957252  1
  Pt  Pt6  1  0.259150  0.272604  0.457272  1
  Pt  Pt7  1  0.741428  0.726198  0.543427  1
  F  F8  1  0.934940  0.703597  0.416159  1
  F  F9  1  0.063081  0.295089  0.583880  1
  F  F10  1  0.436969  0.295029  0.084426  1
  F  F11  1  0.543989  0.710929  0.915596  1
  F  F12  1  0.473523  0.731547  0.143518  1
  F  F13  1  0.529871  0.274095  0.864001  1
  F  F14  1  0.969049  0.271947  0.364955  1
  F  F15  1  0.032726  0.726840  0.634403  1
  F  F16  1  0.960165  0.748447  0.172339  1
  F  F17  1  0.051146  0.256690  0.825300  1
  F  F18  1  0.451647  0.256805  0.326034  1
  F  F19  1  0.553073  0.742636  0.675100  1
  F  F20  1  0.774318  0.473865  0.140791  1
  F  F21  1  0.226171  0.519616  0.857911  1
  F  F22  1  0.268765  0.519920  0.359653  1
  F  F23  1  0.730915  0.479115  0.641586  1
  F  F24  1  0.944055  0.277703  0.044144  1
  F  F25  1  0.054280  0.722583  0.951340  1
  F  F26  1  0.442813  0.717622  0.459399  1
  F  F27  1  0.555965  0.281205  0.542536  1
  F  F28  1  0.741890  0.973506  0.450328  1
  F  F29  1  0.259021  0.025341  0.549290  1
  F  F30  1  0.243520  0.025408  0.051385  1
  F  F31  1  0.760189  0.976259  0.941943  1
  F  F32  1  0.584032  0.968115  0.233458  1
  F  F33  1  0.415555  0.031322  0.765708  1
  F  F34  1  0.086256  0.029824  0.269926  1
  F  F35  1  0.915384  0.971301  0.730031  1
