# generated using pymatgen
data_Zr11Ta8Si16W
_symmetry_space_group_name_H-M   'P 1'
_cell_length_a   6.92544826
_cell_length_b   6.92499203
_cell_length_c   12.81072466
_cell_angle_alpha   90.23160858
_cell_angle_beta   89.89200447
_cell_angle_gamma   90.02180531
_symmetry_Int_Tables_number   1
_chemical_formula_structural   Zr11Ta8Si16W
_chemical_formula_sum   'Zr11 Ta8 Si16 W1'
_cell_volume   614.37921371
_cell_formula_units_Z   1
loop_
 _symmetry_equiv_pos_site_id
 _symmetry_equiv_pos_as_xyz
  1  'x, y, z'
loop_
 _atom_site_type_symbol
 _atom_site_label
 _atom_site_symmetry_multiplicity
 _atom_site_fract_x
 _atom_site_fract_y
 _atom_site_fract_z
 _atom_site_occupancy
  Zr  Zr0  1  0.499615  0.350788  0.622327  1
  Zr  Zr1  1  0.502035  0.649293  0.124968  1
  Zr  Zr2  1  0.148108  0.998390  0.874070  1
  Zr  Zr3  1  0.003109  0.655067  0.033840  1
  Zr  Zr4  1  0.997832  0.342631  0.529723  1
  Zr  Zr5  1  0.656242  0.000848  0.968906  1
  Zr  Zr6  1  0.153880  0.498055  0.781412  1
  Zr  Zr7  1  0.843872  0.501313  0.282154  1
  Zr  Zr8  1  0.501761  0.156149  0.220330  1
  Zr  Zr9  1  0.501480  0.843343  0.716550  1
  Zr  Zr10  1  0.341480  0.999982  0.468559  1
  Ta  Ta11  1  0.852251  0.997943  0.374109  1
  Ta  Ta12  1  0.009247  0.154143  0.127626  1
  Ta  Ta13  1  0.992240  0.846756  0.625386  1
  Ta  Ta14  1  0.651971  0.490525  0.875859  1
  Ta  Ta15  1  0.671047  0.673284  0.498316  1
  Ta  Ta16  1  0.826703  0.169274  0.749329  1
  Ta  Ta17  1  0.171717  0.833639  0.251986  1
  Ta  Ta18  1  0.330855  0.326791  0.000875  1
  Si  Si19  1  0.047194  0.702824  0.435910  1
  Si  Si20  1  0.953822  0.299299  0.937177  1
  Si  Si21  1  0.703024  0.044871  0.561676  1
  Si  Si22  1  0.203246  0.454161  0.188894  1
  Si  Si23  1  0.798963  0.546145  0.686141  1
  Si  Si24  1  0.454824  0.199564  0.813827  1
  Si  Si25  1  0.546458  0.799012  0.315243  1
  Si  Si26  1  0.299930  0.955014  0.065161  1
  Si  Si27  1  0.855905  0.788351  0.820828  1
  Si  Si28  1  0.138803  0.213810  0.324278  1
  Si  Si29  1  0.799526  0.867324  0.179229  1
  Si  Si30  1  0.289009  0.641738  0.570228  1
  Si  Si31  1  0.711541  0.356473  0.071699  1
  Si  Si32  1  0.631339  0.296130  0.423871  1
  Si  Si33  1  0.364125  0.700355  0.927060  1
  Si  Si34  1  0.200197  0.135802  0.676266  1
  W  W35  1  0.346652  0.510915  0.376184  1
