# generated using pymatgen
data_Rb3Dy2(BO3)3
_symmetry_space_group_name_H-M   'P 1'
_cell_length_a   8.81202900
_cell_length_b   9.68968200
_cell_length_c   12.37772600
_cell_angle_alpha   90.00000000
_cell_angle_beta   90.00000000
_cell_angle_gamma   90.00000000
_symmetry_Int_Tables_number   1
_chemical_formula_structural   Rb3Dy2(BO3)3
_chemical_formula_sum   'Rb12 Dy8 B12 O36'
_cell_volume   1056.88152654
_cell_formula_units_Z   4
loop_
 _symmetry_equiv_pos_site_id
 _symmetry_equiv_pos_as_xyz
  1  'x, y, z'
loop_
 _atom_site_type_symbol
 _atom_site_label
 _atom_site_symmetry_multiplicity
 _atom_site_fract_x
 _atom_site_fract_y
 _atom_site_fract_z
 _atom_site_occupancy
  Rb  Rb0  1  0.352446  0.358551  0.742745  1
  Rb  Rb1  1  0.203838  0.033383  0.576853  1
  Rb  Rb2  1  0.796162  0.966617  0.076853  1
  Rb  Rb3  1  0.092328  0.694616  0.592862  1
  Rb  Rb4  1  0.147554  0.858551  0.242745  1
  Rb  Rb5  1  0.852446  0.141449  0.742745  1
  Rb  Rb6  1  0.296162  0.533383  0.076853  1
  Rb  Rb7  1  0.907672  0.305384  0.092862  1
  Rb  Rb8  1  0.703838  0.466617  0.576853  1
  Rb  Rb9  1  0.647554  0.641449  0.242745  1
  Rb  Rb10  1  0.592328  0.805384  0.592862  1
  Rb  Rb11  1  0.407672  0.194616  0.092862  1
  Dy  Dy12  1  0.010602  0.508639  0.329829  1
  Dy  Dy13  1  0.643343  0.613590  0.898540  1
  Dy  Dy14  1  0.989398  0.491361  0.829829  1
  Dy  Dy15  1  0.489398  0.008639  0.829829  1
  Dy  Dy16  1  0.356657  0.386410  0.398540  1
  Dy  Dy17  1  0.856657  0.113590  0.398540  1
  Dy  Dy18  1  0.143343  0.886410  0.898540  1
  Dy  Dy19  1  0.510602  0.991361  0.329829  1
  B  B20  1  0.136685  0.174946  0.906315  1
  B  B21  1  0.363315  0.674946  0.406315  1
  B  B22  1  0.169859  0.195996  0.289368  1
  B  B23  1  0.863315  0.825054  0.406315  1
  B  B24  1  0.330141  0.695996  0.789368  1
  B  B25  1  0.669859  0.304004  0.289368  1
  B  B26  1  0.034693  0.348361  0.563874  1
  B  B27  1  0.465307  0.848361  0.063874  1
  B  B28  1  0.965307  0.651639  0.063874  1
  B  B29  1  0.830141  0.804004  0.789368  1
  B  B30  1  0.534693  0.151639  0.563874  1
  B  B31  1  0.636685  0.325054  0.906315  1
  O  O32  1  0.477302  0.905303  0.166638  1
  O  O33  1  0.539650  0.378676  0.275999  1
  O  O34  1  0.381085  0.918320  0.985569  1
  O  O35  1  0.881085  0.581680  0.985569  1
  O  O36  1  0.304726  0.140335  0.332266  1
  O  O37  1  0.250869  0.610288  0.342293  1
  O  O38  1  0.960675  0.227247  0.537455  1
  O  O39  1  0.615949  0.182725  0.906692  1
  O  O40  1  0.618915  0.081680  0.485569  1
  O  O41  1  0.804726  0.359665  0.332266  1
  O  O42  1  0.977302  0.594697  0.166638  1
  O  O43  1  0.953868  0.912635  0.466685  1
  O  O44  1  0.674737  0.162764  0.262247  1
  O  O45  1  0.884051  0.682725  0.406692  1
  O  O46  1  0.460675  0.272753  0.537455  1
  O  O47  1  0.453868  0.587365  0.466685  1
  O  O48  1  0.325263  0.837236  0.762247  1
  O  O49  1  0.546132  0.412635  0.966685  1
  O  O50  1  0.174737  0.337236  0.262247  1
  O  O51  1  0.249131  0.110288  0.842293  1
  O  O52  1  0.046132  0.087365  0.966685  1
  O  O53  1  0.522698  0.094697  0.666638  1
  O  O54  1  0.039650  0.121324  0.275999  1
  O  O55  1  0.118915  0.418320  0.485569  1
  O  O56  1  0.384051  0.817275  0.406692  1
  O  O57  1  0.695274  0.859665  0.832266  1
  O  O58  1  0.825263  0.662764  0.762247  1
  O  O59  1  0.195274  0.640335  0.832266  1
  O  O60  1  0.750869  0.889712  0.342293  1
  O  O61  1  0.960350  0.878676  0.775999  1
  O  O62  1  0.039325  0.772753  0.037455  1
  O  O63  1  0.022698  0.405303  0.666638  1
  O  O64  1  0.115949  0.317275  0.906692  1
  O  O65  1  0.749131  0.389712  0.842293  1
  O  O66  1  0.460350  0.621324  0.775999  1
  O  O67  1  0.539325  0.727247  0.037455  1
