# generated using pymatgen
data_Ho2Er14MgHg3Pd4
_symmetry_space_group_name_H-M   'P 1'
_cell_length_a   9.59705434
_cell_length_b   9.60223142
_cell_length_c   9.61679300
_cell_angle_alpha   59.94982603
_cell_angle_beta   59.93194363
_cell_angle_gamma   59.96490321
_symmetry_Int_Tables_number   1
_chemical_formula_structural   Ho2Er14MgHg3Pd4
_chemical_formula_sum   'Ho2 Er14 Mg1 Hg3 Pd4'
_cell_volume   625.92402207
_cell_formula_units_Z   1
loop_
 _symmetry_equiv_pos_site_id
 _symmetry_equiv_pos_as_xyz
  1  'x, y, z'
loop_
 _atom_site_type_symbol
 _atom_site_label
 _atom_site_symmetry_multiplicity
 _atom_site_fract_x
 _atom_site_fract_y
 _atom_site_fract_z
 _atom_site_occupancy
  Ho  Ho0  1  0.355578  0.353225  0.351042  1
  Ho  Ho1  1  0.355578  0.353225  0.940155  1
  Er  Er2  1  0.358677  0.934667  0.353329  1
  Er  Er3  1  0.921596  0.361214  0.358595  1
  Er  Er4  1  0.810090  0.190107  0.190048  1
  Er  Er5  1  0.186744  0.812973  0.811982  1
  Er  Er6  1  0.186744  0.812973  0.188301  1
  Er  Er7  1  0.810090  0.190107  0.809755  1
  Er  Er8  1  0.187250  0.189093  0.811829  1
  Er  Er9  1  0.810337  0.811203  0.189231  1
  Er  Er10  1  0.933670  0.566145  0.566035  1
  Er  Er11  1  0.565252  0.934459  0.934209  1
  Er  Er12  1  0.565252  0.934459  0.566080  1
  Er  Er13  1  0.933670  0.566145  0.934152  1
  Er  Er14  1  0.566065  0.566254  0.933840  1
  Er  Er15  1  0.934370  0.934577  0.565527  1
  Mg  Mg16  1  0.279738  0.571925  0.574168  1
  Hg  Hg17  1  0.582506  0.588752  0.590420  1
  Hg  Hg18  1  0.582506  0.588752  0.238321  1
  Hg  Hg19  1  0.581957  0.238440  0.589801  1
  Pd  Pd20  1  0.142090  0.146342  0.148815  1
  Pd  Pd21  1  0.142090  0.146342  0.562754  1
  Pd  Pd22  1  0.140406  0.565709  0.146942  1
  Pd  Pd23  1  0.567738  0.142913  0.144674  1
