# generated using pymatgen
data_Tb4Dy8Fe2Br17
_symmetry_space_group_name_H-M   'P 1'
_cell_length_a   9.22213901
_cell_length_b   11.11893472
_cell_length_c   11.15503513
_cell_angle_alpha   93.46423152
_cell_angle_beta   104.75979565
_cell_angle_gamma   113.97943488
_symmetry_Int_Tables_number   1
_chemical_formula_structural   Tb4Dy8Fe2Br17
_chemical_formula_sum   'Tb4 Dy8 Fe2 Br17'
_cell_volume   993.07663589
_cell_formula_units_Z   1
loop_
 _symmetry_equiv_pos_site_id
 _symmetry_equiv_pos_as_xyz
  1  'x, y, z'
loop_
 _atom_site_type_symbol
 _atom_site_label
 _atom_site_symmetry_multiplicity
 _atom_site_fract_x
 _atom_site_fract_y
 _atom_site_fract_z
 _atom_site_occupancy
  Tb  Tb0  1  0.059840  0.514432  0.321092  1
  Tb  Tb1  1  0.983026  0.808852  0.580257  1
  Tb  Tb2  1  0.646614  0.238999  0.285036  1
  Tb  Tb3  1  0.017827  0.190164  0.422286  1
  Dy  Dy4  1  0.226030  0.672255  0.989227  1
  Dy  Dy5  1  0.255371  0.986325  0.889449  1
  Dy  Dy6  1  0.354750  0.760700  0.714139  1
  Dy  Dy7  1  0.943211  0.489266  0.680073  1
  Dy  Dy8  1  0.743562  0.011719  0.109860  1
  Dy  Dy9  1  0.149296  0.287427  0.150085  1
  Dy  Dy10  1  0.771812  0.327358  0.007789  1
  Dy  Dy11  1  0.846080  0.711799  0.850094  1
  Fe  Fe12  1  0.102707  0.738513  0.785561  1
  Fe  Fe13  1  0.896459  0.261645  0.214660  1
  Br  Br14  1  0.790526  0.524602  0.421959  1
  Br  Br15  1  0.648183  0.422607  0.763423  1
  Br  Br16  1  0.847219  0.900748  0.327643  1
  Br  Br17  1  0.325042  0.214631  0.362811  1
  Br  Br18  1  0.153053  0.098968  0.672488  1
  Br  Br19  1  0.584054  0.051001  0.849117  1
  Br  Br20  1  0.764866  0.191504  0.537773  1
  Br  Br21  1  0.550270  0.713104  0.952091  1
  Br  Br22  1  0.351686  0.575824  0.234812  1
  Br  Br23  1  0.210868  0.474804  0.579039  1
  Br  Br24  1  0.055120  0.373020  0.901958  1
  Br  Br25  1  0.449921  0.287181  0.047028  1
  Br  Br26  1  0.000614  0.001012  0.000788  1
  Br  Br27  1  0.239346  0.811422  0.464240  1
  Br  Br28  1  0.417082  0.948692  0.150277  1
  Br  Br29  1  0.672175  0.785146  0.637095  1
  Br  Br30  1  0.943389  0.626281  0.097851  1
