# generated using pymatgen
data_HoHf4Sc5(Co2Si5)4
_symmetry_space_group_name_H-M   'P 1'
_cell_length_a   12.01930425
_cell_length_b   12.01930425
_cell_length_c   3.94673700
_cell_angle_alpha   90.00000000
_cell_angle_beta   90.00000000
_cell_angle_gamma   90.02332960
_symmetry_Int_Tables_number   1
_chemical_formula_structural   HoHf4Sc5(Co2Si5)4
_chemical_formula_sum   'Ho1 Hf4 Sc5 Co8 Si20'
_cell_volume   570.16008256
_cell_formula_units_Z   1
loop_
 _symmetry_equiv_pos_site_id
 _symmetry_equiv_pos_as_xyz
  1  'x, y, z'
loop_
 _atom_site_type_symbol
 _atom_site_label
 _atom_site_symmetry_multiplicity
 _atom_site_fract_x
 _atom_site_fract_y
 _atom_site_fract_z
 _atom_site_occupancy
  Ho  Ho0  1  0.886972  0.386972  0.500000  1
  Hf  Hf1  1  0.675261  0.175261  0.500000  1
  Hf  Hf2  1  0.179984  0.324797  0.500000  1
  Hf  Hf3  1  0.824797  0.679984  0.500000  1
  Hf  Hf4  1  0.322810  0.822810  0.500000  1
  Sc  Sc5  1  0.999786  0.998269  0.000000  1
  Sc  Sc6  1  0.498269  0.499786  0.000000  1
  Sc  Sc7  1  0.386883  0.111670  0.500000  1
  Sc  Sc8  1  0.611670  0.886883  0.500000  1
  Sc  Sc9  1  0.113362  0.613362  0.500000  1
  Co  Co10  1  0.525218  0.254036  0.000000  1
  Co  Co11  1  0.255840  0.473749  0.000000  1
  Co  Co12  1  0.743328  0.527266  0.000000  1
  Co  Co13  1  0.473340  0.744984  0.000000  1
  Co  Co14  1  0.973749  0.755840  0.000000  1
  Co  Co15  1  0.027266  0.243328  0.000000  1
  Co  Co16  1  0.754036  0.025218  0.000000  1
  Co  Co17  1  0.244984  0.973340  0.000000  1
  Si  Si18  1  0.567528  0.067528  0.000000  1
  Si  Si19  1  0.070149  0.432233  0.000000  1
  Si  Si20  1  0.932233  0.570149  0.000000  1
  Si  Si21  1  0.431324  0.931324  0.000000  1
  Si  Si22  1  0.199577  0.154637  0.000000  1
  Si  Si23  1  0.155370  0.800919  0.000000  1
  Si  Si24  1  0.844179  0.196162  0.000000  1
  Si  Si25  1  0.800479  0.845111  0.000000  1
  Si  Si26  1  0.300919  0.655370  0.000000  1
  Si  Si27  1  0.696162  0.344179  0.000000  1
  Si  Si28  1  0.654637  0.699577  0.000000  1
  Si  Si29  1  0.345111  0.300479  0.000000  1
  Si  Si30  1  0.012234  0.159569  0.500000  1
  Si  Si31  1  0.162522  0.995737  0.500000  1
  Si  Si32  1  0.835510  0.000937  0.500000  1
  Si  Si33  1  0.002382  0.835882  0.500000  1
  Si  Si34  1  0.495737  0.662522  0.500000  1
  Si  Si35  1  0.500937  0.335510  0.500000  1
  Si  Si36  1  0.659569  0.512234  0.500000  1
  Si  Si37  1  0.335882  0.502382  0.500000  1
