# generated using pymatgen
data_Li3LaPr2Si2Ge
_symmetry_space_group_name_H-M   'P 1'
_cell_length_a   7.36201699
_cell_length_b   7.32620556
_cell_length_c   4.41220700
_cell_angle_alpha   90.00000000
_cell_angle_beta   90.00000000
_cell_angle_gamma   119.83921285
_symmetry_Int_Tables_number   1
_chemical_formula_structural   Li3LaPr2Si2Ge
_chemical_formula_sum   'Li3 La1 Pr2 Si2 Ge1'
_cell_volume   206.42571220
_cell_formula_units_Z   1
loop_
 _symmetry_equiv_pos_site_id
 _symmetry_equiv_pos_as_xyz
  1  'x, y, z'
loop_
 _atom_site_type_symbol
 _atom_site_label
 _atom_site_symmetry_multiplicity
 _atom_site_fract_x
 _atom_site_fract_y
 _atom_site_fract_z
 _atom_site_occupancy
  Li  Li0  1  0.764894  0.766195  0.500000  1
  Li  Li1  1  0.235106  0.001301  0.500000  1
  Li  Li2  1  0.000000  0.233549  0.500000  1
  La  La3  1  0.000000  0.579064  0.000000  1
  Pr  Pr4  1  0.418632  0.418134  0.000000  1
  Pr  Pr5  1  0.581368  0.999502  0.000000  1
  Si  Si6  1  0.336510  0.667947  0.500000  1
  Si  Si7  1  0.663490  0.331435  0.500000  1
  Ge  Ge8  1  0.000000  0.002874  0.000000  1
