# generated using pymatgen
data_CsBC7
_symmetry_space_group_name_H-M   'P 1'
_cell_length_a   5.07065900
_cell_length_b   5.07112907
_cell_length_c   6.06865600
_cell_angle_alpha   90.00000000
_cell_angle_beta   90.00000000
_cell_angle_gamma   119.99694024
_symmetry_Int_Tables_number   1
_chemical_formula_structural   CsBC7
_chemical_formula_sum   'Cs1 B1 C7'
_cell_volume   135.14675149
_cell_formula_units_Z   1
loop_
 _symmetry_equiv_pos_site_id
 _symmetry_equiv_pos_as_xyz
  1  'x, y, z'
loop_
 _atom_site_type_symbol
 _atom_site_label
 _atom_site_symmetry_multiplicity
 _atom_site_fract_x
 _atom_site_fract_y
 _atom_site_fract_z
 _atom_site_occupancy
  Cs  Cs0  1  0.996363  0.992726  0.500000  1
  B  B1  1  0.167377  0.334756  0.000000  1
  C  C2  1  0.825601  0.163585  0.000000  1
  C  C3  1  0.337986  0.163585  0.000000  1
  C  C4  1  0.665120  0.835731  0.000000  1
  C  C5  1  0.170609  0.835731  0.000000  1
  C  C6  1  0.833657  0.667313  0.000000  1
  C  C7  1  0.337880  0.675761  0.000000  1
  C  C8  1  0.665407  0.330814  0.000000  1
