# generated using pymatgen
data_Er4Bi3As3Rh7
_symmetry_space_group_name_H-M   'P 1'
_cell_length_a   7.47677612
_cell_length_b   7.47677609
_cell_length_c   7.66832200
_cell_angle_alpha   109.99102140
_cell_angle_beta   109.99102129
_cell_angle_gamma   108.94645560
_symmetry_Int_Tables_number   1
_chemical_formula_structural   Er4Bi3As3Rh7
_chemical_formula_sum   'Er4 Bi3 As3 Rh7'
_cell_volume   327.85430123
_cell_formula_units_Z   1
loop_
 _symmetry_equiv_pos_site_id
 _symmetry_equiv_pos_as_xyz
  1  'x, y, z'
loop_
 _atom_site_type_symbol
 _atom_site_label
 _atom_site_symmetry_multiplicity
 _atom_site_fract_x
 _atom_site_fract_y
 _atom_site_fract_z
 _atom_site_occupancy
  Er  Er0  1  0.000000  0.000000  0.554874  1
  Er  Er1  1  0.000000  0.467692  0.984032  1
  Er  Er2  1  0.467692  0.000000  0.984032  1
  Er  Er3  1  0.532308  0.532308  0.516341  1
  Bi  Bi4  1  0.710431  0.710431  0.016210  1
  Bi  Bi5  1  0.289569  0.000000  0.305779  1
  Bi  Bi6  1  0.000000  0.289569  0.305779  1
  As  As7  1  0.342483  0.342483  0.011039  1
  As  As8  1  0.657517  0.000000  0.668555  1
  As  As9  1  0.000000  0.657517  0.668555  1
  Rh  Rh10  1  0.750387  0.250588  0.512059  1
  Rh  Rh11  1  0.749412  0.499799  0.261472  1
  Rh  Rh12  1  0.500201  0.249613  0.761673  1
  Rh  Rh13  1  0.249613  0.500201  0.761673  1
  Rh  Rh14  1  0.250588  0.750387  0.512059  1
  Rh  Rh15  1  0.499799  0.749412  0.261472  1
  Rh  Rh16  1  0.000000  0.000000  0.914400  1
