# generated using pymatgen
data_Y5Er3(Si3Pt)4
_symmetry_space_group_name_H-M   'P 1'
_cell_length_a   8.13245600
_cell_length_b   8.13245644
_cell_length_c   8.15804900
_cell_angle_alpha   90.00000000
_cell_angle_beta   90.00000000
_cell_angle_gamma   119.99999821
_symmetry_Int_Tables_number   1
_chemical_formula_structural   Y5Er3(Si3Pt)4
_chemical_formula_sum   'Y5 Er3 Si12 Pt4'
_cell_volume   467.26195001
_cell_formula_units_Z   1
loop_
 _symmetry_equiv_pos_site_id
 _symmetry_equiv_pos_as_xyz
  1  'x, y, z'
loop_
 _atom_site_type_symbol
 _atom_site_label
 _atom_site_symmetry_multiplicity
 _atom_site_fract_x
 _atom_site_fract_y
 _atom_site_fract_z
 _atom_site_occupancy
  Y  Y0  1  0.000000  0.000000  0.250000  1
  Y  Y1  1  0.000000  0.000000  0.750000  1
  Y  Y2  1  0.498262  0.501738  0.250000  1
  Y  Y3  1  0.498262  0.996525  0.250000  1
  Y  Y4  1  0.003475  0.501738  0.250000  1
  Er  Er5  1  0.501939  0.498061  0.750000  1
  Er  Er6  1  0.996122  0.498061  0.750000  1
  Er  Er7  1  0.501939  0.003878  0.750000  1
  Si  Si8  1  0.834396  0.165604  0.499791  1
  Si  Si9  1  0.834396  0.668794  0.499791  1
  Si  Si10  1  0.331206  0.165604  0.499791  1
  Si  Si11  1  0.834396  0.165604  0.000209  1
  Si  Si12  1  0.834396  0.668794  0.000209  1
  Si  Si13  1  0.331206  0.165604  0.000209  1
  Si  Si14  1  0.165608  0.834392  0.997730  1
  Si  Si15  1  0.668787  0.834392  0.997730  1
  Si  Si16  1  0.165608  0.331213  0.997730  1
  Si  Si17  1  0.165608  0.834392  0.502270  1
  Si  Si18  1  0.668787  0.834392  0.502270  1
  Si  Si19  1  0.165608  0.331213  0.502270  1
  Pt  Pt20  1  0.666667  0.333333  0.500420  1
  Pt  Pt21  1  0.666667  0.333333  0.999580  1
  Pt  Pt22  1  0.333333  0.666667  0.992132  1
  Pt  Pt23  1  0.333333  0.666667  0.507868  1
