# generated using pymatgen
data_La3Mg3CuHgRu
_symmetry_space_group_name_H-M   'P 1'
_cell_length_a   7.92562300
_cell_length_b   7.92562287
_cell_length_c   4.03905900
_cell_angle_alpha   90.00000000
_cell_angle_beta   90.00000000
_cell_angle_gamma   119.99999636
_symmetry_Int_Tables_number   1
_chemical_formula_structural   La3Mg3CuHgRu
_chemical_formula_sum   'La3 Mg3 Cu1 Hg1 Ru1'
_cell_volume   219.72408183
_cell_formula_units_Z   1
loop_
 _symmetry_equiv_pos_site_id
 _symmetry_equiv_pos_as_xyz
  1  'x, y, z'
loop_
 _atom_site_type_symbol
 _atom_site_label
 _atom_site_symmetry_multiplicity
 _atom_site_fract_x
 _atom_site_fract_y
 _atom_site_fract_z
 _atom_site_occupancy
  La  La0  1  0.566634  0.966328  0.000000  1
  La  La1  1  0.033672  0.600305  0.000000  1
  La  La2  1  0.399695  0.433366  0.000000  1
  Mg  Mg3  1  0.237169  0.003474  0.500000  1
  Mg  Mg4  1  0.996526  0.233696  0.500000  1
  Mg  Mg5  1  0.766304  0.762831  0.500000  1
  Cu  Cu6  1  0.000000  0.000000  0.000000  1
  Hg  Hg7  1  0.666667  0.333333  0.500000  1
  Ru  Ru8  1  0.333333  0.666667  0.500000  1
