# generated using pymatgen
data_Hf4ScRe24
_symmetry_space_group_name_H-M   'P 1'
_cell_length_a   8.47150873
_cell_length_b   8.47149922
_cell_length_c   8.47147900
_cell_angle_alpha   109.47143595
_cell_angle_beta   109.47112646
_cell_angle_gamma   109.47084329
_symmetry_Int_Tables_number   1
_chemical_formula_structural   Hf4ScRe24
_chemical_formula_sum   'Hf4 Sc1 Re24'
_cell_volume   468.01498530
_cell_formula_units_Z   1
loop_
 _symmetry_equiv_pos_site_id
 _symmetry_equiv_pos_as_xyz
  1  'x, y, z'
loop_
 _atom_site_type_symbol
 _atom_site_label
 _atom_site_symmetry_multiplicity
 _atom_site_fract_x
 _atom_site_fract_y
 _atom_site_fract_z
 _atom_site_occupancy
  Hf  Hf0  1  0.368879  0.368881  0.368883  1
  Hf  Hf1  1  0.000004  0.631119  0.000007  1
  Hf  Hf2  1  0.631116  0.000008  0.000001  1
  Hf  Hf3  1  0.000008  0.999996  0.631117  1
  Sc  Sc4  1  0.000003  0.000002  0.000006  1
  Re  Re5  1  0.999977  0.396462  0.676997  1
  Re  Re6  1  0.280543  0.603525  0.603538  1
  Re  Re7  1  0.719469  0.322984  0.322984  1
  Re  Re8  1  0.322988  0.719454  0.322990  1
  Re  Re9  1  0.677023  0.000008  0.396476  1
  Re  Re10  1  0.999990  0.677003  0.396462  1
  Re  Re11  1  0.603541  0.603523  0.280547  1
  Re  Re12  1  0.806413  0.806418  0.182652  1
  Re  Re13  1  0.376247  0.193595  0.000010  1
  Re  Re14  1  0.193575  0.376234  0.999994  1
  Re  Re15  1  0.623761  0.817339  0.623764  1
  Re  Re16  1  0.376246  0.000018  0.193596  1
  Re  Re17  1  0.999994  0.376231  0.193593  1
  Re  Re18  1  0.817359  0.623761  0.623768  1
  Re  Re19  1  0.182651  0.806414  0.806409  1
  Re  Re20  1  0.806408  0.182640  0.806405  1
  Re  Re21  1  0.193576  0.999993  0.376234  1
  Re  Re22  1  0.999994  0.193591  0.376234  1
  Re  Re23  1  0.623760  0.623760  0.817350  1
  Re  Re24  1  0.396482  0.000020  0.677020  1
  Re  Re25  1  0.603528  0.280538  0.603511  1
  Re  Re26  1  0.677015  0.396471  0.999996  1
  Re  Re27  1  0.396471  0.677024  0.000008  1
  Re  Re28  1  0.322982  0.322987  0.719449  1
