# generated using pymatgen
data_Ba8LuSc(CuO3)6
_symmetry_space_group_name_H-M   'P 1'
_cell_length_a   8.07508000
_cell_length_b   8.07508000
_cell_length_c   8.07508000
_cell_angle_alpha   90.00000000
_cell_angle_beta   90.00000000
_cell_angle_gamma   90.00000000
_symmetry_Int_Tables_number   1
_chemical_formula_structural   Ba8LuSc(CuO3)6
_chemical_formula_sum   'Ba8 Lu1 Sc1 Cu6 O18'
_cell_volume   526.55107138
_cell_formula_units_Z   1
loop_
 _symmetry_equiv_pos_site_id
 _symmetry_equiv_pos_as_xyz
  1  'x, y, z'
loop_
 _atom_site_type_symbol
 _atom_site_label
 _atom_site_symmetry_multiplicity
 _atom_site_fract_x
 _atom_site_fract_y
 _atom_site_fract_z
 _atom_site_occupancy
  Ba  Ba0  1  0.249107  0.249107  0.249107  1
  Ba  Ba1  1  0.750893  0.750893  0.249107  1
  Ba  Ba2  1  0.750893  0.249107  0.750893  1
  Ba  Ba3  1  0.249107  0.750893  0.750893  1
  Ba  Ba4  1  0.249107  0.750893  0.249107  1
  Ba  Ba5  1  0.750893  0.249107  0.249107  1
  Ba  Ba6  1  0.249107  0.249107  0.750893  1
  Ba  Ba7  1  0.750893  0.750893  0.750893  1
  Lu  Lu8  1  0.500000  0.500000  0.500000  1
  Sc  Sc9  1  0.000000  0.000000  0.000000  1
  Cu  Cu10  1  0.500000  0.000000  0.500000  1
  Cu  Cu11  1  0.500000  0.000000  0.000000  1
  Cu  Cu12  1  0.000000  0.500000  0.000000  1
  Cu  Cu13  1  0.000000  0.000000  0.500000  1
  Cu  Cu14  1  0.500000  0.500000  0.000000  1
  Cu  Cu15  1  0.000000  0.500000  0.500000  1
  O  O16  1  0.000000  0.500000  0.250116  1
  O  O17  1  0.500000  0.500000  0.230017  1
  O  O18  1  0.230017  0.500000  0.500000  1
  O  O19  1  0.500000  0.749884  0.000000  1
  O  O20  1  0.250116  0.000000  0.500000  1
  O  O21  1  0.749884  0.000000  0.500000  1
  O  O22  1  0.500000  0.250116  0.000000  1
  O  O23  1  0.000000  0.000000  0.265651  1
  O  O24  1  0.000000  0.000000  0.734349  1
  O  O25  1  0.000000  0.265651  0.000000  1
  O  O26  1  0.500000  0.769983  0.500000  1
  O  O27  1  0.265651  0.000000  0.000000  1
  O  O28  1  0.734349  0.000000  0.000000  1
  O  O29  1  0.500000  0.230017  0.500000  1
  O  O30  1  0.000000  0.500000  0.749884  1
  O  O31  1  0.500000  0.500000  0.769983  1
  O  O32  1  0.769983  0.500000  0.500000  1
  O  O33  1  0.000000  0.734349  0.000000  1
