# generated using pymatgen
data_ReAgO3F2
_symmetry_space_group_name_H-M   'P 1'
_cell_length_a   10.59877700
_cell_length_b   3.93428290
_cell_length_c   5.79024307
_cell_angle_alpha   69.25303347
_cell_angle_beta   90.00000000
_cell_angle_gamma   90.00000000
_symmetry_Int_Tables_number   1
_chemical_formula_structural   ReAgO3F2
_chemical_formula_sum   'Re2 Ag2 O6 F4'
_cell_volume   225.78820723
_cell_formula_units_Z   2
loop_
 _symmetry_equiv_pos_site_id
 _symmetry_equiv_pos_as_xyz
  1  'x, y, z'
loop_
 _atom_site_type_symbol
 _atom_site_label
 _atom_site_symmetry_multiplicity
 _atom_site_fract_x
 _atom_site_fract_y
 _atom_site_fract_z
 _atom_site_occupancy
  Re  Re0  1  0.250000  0.817236  0.035325  1
  Re  Re1  1  0.750000  0.182764  0.964675  1
  Ag  Ag2  1  0.500000  0.000000  0.500000  1
  Ag  Ag3  1  0.000000  0.000000  0.500000  1
  O  O4  1  0.622717  0.140587  0.164802  1
  O  O5  1  0.377283  0.859413  0.835198  1
  O  O6  1  0.122717  0.859413  0.835198  1
  O  O7  1  0.250000  0.243811  0.071625  1
  O  O8  1  0.750000  0.756189  0.928375  1
  O  O9  1  0.877283  0.140587  0.164802  1
  F  F10  1  0.867672  0.403400  0.676833  1
  F  F11  1  0.132328  0.596600  0.323167  1
  F  F12  1  0.367672  0.596600  0.323167  1
  F  F13  1  0.632328  0.403400  0.676833  1
