# generated using pymatgen
data_HoTm15(CdNi)4
_symmetry_space_group_name_H-M   'P 1'
_cell_length_a   9.41136049
_cell_length_b   9.41136111
_cell_length_c   9.41136016
_cell_angle_alpha   59.98251226
_cell_angle_beta   59.98251349
_cell_angle_gamma   59.98251684
_symmetry_Int_Tables_number   1
_chemical_formula_structural   HoTm15(CdNi)4
_chemical_formula_sum   'Ho1 Tm15 Cd4 Ni4'
_cell_volume   589.20987220
_cell_formula_units_Z   1
loop_
 _symmetry_equiv_pos_site_id
 _symmetry_equiv_pos_as_xyz
  1  'x, y, z'
loop_
 _atom_site_type_symbol
 _atom_site_label
 _atom_site_symmetry_multiplicity
 _atom_site_fract_x
 _atom_site_fract_y
 _atom_site_fract_z
 _atom_site_occupancy
  Ho  Ho0  1  0.347839  0.347839  0.347839  1
  Tm  Tm1  1  0.347823  0.347823  0.956104  1
  Tm  Tm2  1  0.347823  0.956104  0.347823  1
  Tm  Tm3  1  0.956104  0.347823  0.347823  1
  Tm  Tm4  1  0.811486  0.188612  0.188612  1
  Tm  Tm5  1  0.189227  0.811043  0.811043  1
  Tm  Tm6  1  0.188612  0.811486  0.188612  1
  Tm  Tm7  1  0.811043  0.189227  0.811043  1
  Tm  Tm8  1  0.188612  0.188612  0.811486  1
  Tm  Tm9  1  0.811043  0.811043  0.189227  1
  Tm  Tm10  1  0.935929  0.564265  0.564265  1
  Tm  Tm11  1  0.564044  0.936031  0.936031  1
  Tm  Tm12  1  0.564265  0.935929  0.564265  1
  Tm  Tm13  1  0.936031  0.564044  0.936031  1
  Tm  Tm14  1  0.564265  0.564265  0.935929  1
  Tm  Tm15  1  0.936031  0.936031  0.564044  1
  Cd  Cd16  1  0.581700  0.581700  0.581700  1
  Cd  Cd17  1  0.581794  0.581794  0.255417  1
  Cd  Cd18  1  0.581794  0.255417  0.581794  1
  Cd  Cd19  1  0.255417  0.581794  0.581794  1
  Ni  Ni20  1  0.141959  0.141959  0.141959  1
  Ni  Ni21  1  0.141069  0.141069  0.575022  1
  Ni  Ni22  1  0.141069  0.575022  0.141069  1
  Ni  Ni23  1  0.575022  0.141069  0.141069  1
