# generated using pymatgen
data_Tb3DyRuRh3O14
_symmetry_space_group_name_H-M   'P 1'
_cell_length_a   7.27701425
_cell_length_b   7.28495488
_cell_length_c   7.28495497
_cell_angle_alpha   59.38580108
_cell_angle_beta   59.35294798
_cell_angle_gamma   59.35294326
_symmetry_Int_Tables_number   1
_chemical_formula_structural   Tb3DyRuRh3O14
_chemical_formula_sum   'Tb3 Dy1 Ru1 Rh3 O14'
_cell_volume   269.12741626
_cell_formula_units_Z   1
loop_
 _symmetry_equiv_pos_site_id
 _symmetry_equiv_pos_as_xyz
  1  'x, y, z'
loop_
 _atom_site_type_symbol
 _atom_site_label
 _atom_site_symmetry_multiplicity
 _atom_site_fract_x
 _atom_site_fract_y
 _atom_site_fract_z
 _atom_site_occupancy
  Tb  Tb0  1  0.125000  0.125000  0.625000  1
  Tb  Tb1  1  0.125000  0.625000  0.125000  1
  Tb  Tb2  1  0.125000  0.125000  0.125000  1
  Dy  Dy3  1  0.625000  0.125000  0.125000  1
  Ru  Ru4  1  0.625000  0.625000  0.625000  1
  Rh  Rh5  1  0.625000  0.625000  0.125000  1
  Rh  Rh6  1  0.625000  0.125000  0.625000  1
  Rh  Rh7  1  0.125000  0.625000  0.625000  1
  O  O8  1  0.250911  0.249280  0.249280  1
  O  O9  1  0.999089  0.000720  0.000720  1
  O  O10  1  0.286726  0.708987  0.286877  1
  O  O11  1  0.541723  0.956831  0.540118  1
  O  O12  1  0.286726  0.286877  0.708987  1
  O  O13  1  0.708031  0.286557  0.286557  1
  O  O14  1  0.293074  0.709000  0.709000  1
  O  O15  1  0.708277  0.709882  0.293169  1
  O  O16  1  0.708277  0.293169  0.709882  1
  O  O17  1  0.956926  0.541000  0.541000  1
  O  O18  1  0.541969  0.963443  0.963443  1
  O  O19  1  0.963274  0.541013  0.963123  1
  O  O20  1  0.541723  0.540118  0.956831  1
  O  O21  1  0.963274  0.963123  0.541013  1
