# generated using pymatgen
data_Mn4Be2B4Ir7Rh3
_symmetry_space_group_name_H-M   'P 1'
_cell_length_a   9.15890940
_cell_length_b   9.17717140
_cell_length_c   2.87535200
_cell_angle_alpha   90.00000000
_cell_angle_beta   90.00000000
_cell_angle_gamma   90.03395353
_symmetry_Int_Tables_number   1
_chemical_formula_structural   Mn4Be2B4Ir7Rh3
_chemical_formula_sum   'Mn4 Be2 B4 Ir7 Rh3'
_cell_volume   241.68157833
_cell_formula_units_Z   1
loop_
 _symmetry_equiv_pos_site_id
 _symmetry_equiv_pos_as_xyz
  1  'x, y, z'
loop_
 _atom_site_type_symbol
 _atom_site_label
 _atom_site_symmetry_multiplicity
 _atom_site_fract_x
 _atom_site_fract_y
 _atom_site_fract_z
 _atom_site_occupancy
  Mn  Mn0  1  0.677249  0.176950  0.000000  1
  Mn  Mn1  1  0.324012  0.822017  0.000000  1
  Mn  Mn2  1  0.177454  0.322778  0.000000  1
  Mn  Mn3  1  0.823738  0.677822  0.000000  1
  Be  Be4  1  0.000115  0.000179  0.000000  1
  Be  Be5  1  0.499445  0.499816  0.000000  1
  B  B6  1  0.130523  0.631073  0.000000  1
  B  B7  1  0.869383  0.369385  0.000000  1
  B  B8  1  0.630316  0.869616  0.000000  1
  B  B9  1  0.368914  0.130433  0.000000  1
  Ir  Ir10  1  0.794761  0.934246  0.500000  1
  Ir  Ir11  1  0.066802  0.794465  0.500000  1
  Ir  Ir12  1  0.704825  0.433756  0.500000  1
  Ir  Ir13  1  0.933337  0.205612  0.500000  1
  Ir  Ir14  1  0.294375  0.565737  0.500000  1
  Ir  Ir15  1  0.566355  0.705437  0.500000  1
  Ir  Ir16  1  0.433140  0.293766  0.500000  1
  Rh  Rh17  1  0.206154  0.067186  0.500000  1
  Rh  Rh18  1  0.499271  0.999932  0.500000  1
  Rh  Rh19  1  0.999834  0.499793  0.500000  1
