# generated using pymatgen
data_Na8HfP4
_symmetry_space_group_name_H-M   'P 1'
_cell_length_a   9.68131015
_cell_length_b   9.68130995
_cell_length_c   9.68130900
_cell_angle_alpha   59.99999298
_cell_angle_beta   59.99999369
_cell_angle_gamma   59.99999706
_symmetry_Int_Tables_number   1
_chemical_formula_structural   Na8HfP4
_chemical_formula_sum   'Na16 Hf2 P8'
_cell_volume   641.63388062
_cell_formula_units_Z   2
loop_
 _symmetry_equiv_pos_site_id
 _symmetry_equiv_pos_as_xyz
  1  'x, y, z'
loop_
 _atom_site_type_symbol
 _atom_site_label
 _atom_site_symmetry_multiplicity
 _atom_site_fract_x
 _atom_site_fract_y
 _atom_site_fract_z
 _atom_site_occupancy
  Na  Na0  1  0.625000  0.625000  0.125000  1
  Na  Na1  1  0.625000  0.125000  0.625000  1
  Na  Na2  1  0.125000  0.625000  0.625000  1
  Na  Na3  1  0.625000  0.625000  0.625000  1
  Na  Na4  1  0.028664  0.471336  0.471336  1
  Na  Na5  1  0.778664  0.221336  0.221336  1
  Na  Na6  1  0.471336  0.028664  0.471336  1
  Na  Na7  1  0.471336  0.471336  0.028664  1
  Na  Na8  1  0.028664  0.028664  0.471336  1
  Na  Na9  1  0.028664  0.471336  0.028664  1
  Na  Na10  1  0.471336  0.028664  0.028664  1
  Na  Na11  1  0.778664  0.221336  0.778664  1
  Na  Na12  1  0.221336  0.778664  0.221336  1
  Na  Na13  1  0.221336  0.221336  0.778664  1
  Na  Na14  1  0.778664  0.778664  0.221336  1
  Na  Na15  1  0.221336  0.778664  0.778664  1
  Hf  Hf16  1  0.750000  0.750000  0.750000  1
  Hf  Hf17  1  0.500000  0.500000  0.500000  1
  P  P18  1  0.856286  0.856286  0.431145  1
  P  P19  1  0.856286  0.431145  0.856286  1
  P  P20  1  0.393714  0.393714  0.818855  1
  P  P21  1  0.393714  0.818855  0.393714  1
  P  P22  1  0.818855  0.393714  0.393714  1
  P  P23  1  0.856286  0.856286  0.856286  1
  P  P24  1  0.431145  0.856286  0.856286  1
  P  P25  1  0.393714  0.393714  0.393714  1
