# generated using pymatgen
data_Ho11LuSi12Os3Rh
_symmetry_space_group_name_H-M   'P 1'
_cell_length_a   4.17667600
_cell_length_b   10.66586572
_cell_length_c   12.23846400
_cell_angle_alpha   89.90481019
_cell_angle_beta   90.00000000
_cell_angle_gamma   90.00000000
_symmetry_Int_Tables_number   1
_chemical_formula_structural   Ho11LuSi12Os3Rh
_chemical_formula_sum   'Ho11 Lu1 Si12 Os3 Rh1'
_cell_volume   545.19669420
_cell_formula_units_Z   1
loop_
 _symmetry_equiv_pos_site_id
 _symmetry_equiv_pos_as_xyz
  1  'x, y, z'
loop_
 _atom_site_type_symbol
 _atom_site_label
 _atom_site_symmetry_multiplicity
 _atom_site_fract_x
 _atom_site_fract_y
 _atom_site_fract_z
 _atom_site_occupancy
  Ho  Ho0  1  0.250000  0.880504  0.021904  1
  Ho  Ho1  1  0.250000  0.621136  0.519131  1
  Ho  Ho2  1  0.750000  0.119491  0.980744  1
  Ho  Ho3  1  0.750000  0.381699  0.479379  1
  Ho  Ho4  1  0.250000  0.920858  0.602765  1
  Ho  Ho5  1  0.250000  0.579709  0.105482  1
  Ho  Ho6  1  0.750000  0.078693  0.395954  1
  Ho  Ho7  1  0.750000  0.420187  0.895641  1
  Ho  Ho8  1  0.250000  0.662339  0.799887  1
  Ho  Ho9  1  0.750000  0.339480  0.200003  1
  Ho  Ho10  1  0.750000  0.159504  0.698846  1
  Lu  Lu11  1  0.250000  0.837620  0.298766  1
  Si  Si12  1  0.250000  0.011942  0.821960  1
  Si  Si13  1  0.250000  0.489898  0.320787  1
  Si  Si14  1  0.750000  0.988801  0.180520  1
  Si  Si15  1  0.750000  0.509859  0.679612  1
  Si  Si16  1  0.250000  0.248237  0.840377  1
  Si  Si17  1  0.250000  0.251250  0.341778  1
  Si  Si18  1  0.750000  0.751372  0.159511  1
  Si  Si19  1  0.750000  0.748971  0.656001  1
  Si  Si20  1  0.250000  0.204492  0.544069  1
  Si  Si21  1  0.250000  0.296519  0.044813  1
  Si  Si22  1  0.750000  0.799731  0.452886  1
  Si  Si23  1  0.750000  0.698900  0.958196  1
  Os  Os24  1  0.250000  0.390690  0.680672  1
  Os  Os25  1  0.250000  0.108106  0.182516  1
  Os  Os26  1  0.750000  0.611229  0.319107  1
  Rh  Rh27  1  0.750000  0.888790  0.818693  1
