# generated using pymatgen
data_Ta6V3Rh3C2
_symmetry_space_group_name_H-M   'P 1'
_cell_length_a   8.30657425
_cell_length_b   8.30657520
_cell_length_c   8.30657547
_cell_angle_alpha   119.95992712
_cell_angle_beta   120.07954456
_cell_angle_gamma   89.96585200
_symmetry_Int_Tables_number   1
_chemical_formula_structural   Ta6V3Rh3C2
_chemical_formula_sum   'Ta12 V6 Rh6 C4'
_cell_volume   405.15454818
_cell_formula_units_Z   2
loop_
 _symmetry_equiv_pos_site_id
 _symmetry_equiv_pos_as_xyz
  1  'x, y, z'
loop_
 _atom_site_type_symbol
 _atom_site_label
 _atom_site_symmetry_multiplicity
 _atom_site_fract_x
 _atom_site_fract_y
 _atom_site_fract_z
 _atom_site_occupancy
  Ta  Ta0  1  0.068764  0.568764  0.500000  1
  Ta  Ta1  1  0.686602  0.186602  0.500000  1
  Ta  Ta2  1  0.064530  0.181607  0.498226  1
  Ta  Ta3  1  0.683382  0.566304  0.501774  1
  Ta  Ta4  1  0.683382  0.181607  0.117077  1
  Ta  Ta5  1  0.064530  0.566304  0.882923  1
  Ta  Ta6  1  0.437876  0.437876  0.000000  1
  Ta  Ta7  1  0.815276  0.815276  0.000000  1
  Ta  Ta8  1  0.437213  0.811822  0.994441  1
  Ta  Ta9  1  0.817381  0.442773  0.005559  1
  Ta  Ta10  1  0.817381  0.811822  0.374607  1
  Ta  Ta11  1  0.437213  0.442773  0.625393  1
  V  V12  1  0.748302  0.999881  0.748422  1
  V  V13  1  0.251459  0.999881  0.251578  1
  V  V14  1  0.249685  0.500884  0.251198  1
  V  V15  1  0.249685  0.998487  0.748802  1
  V  V16  1  0.126772  0.791980  0.334792  1
  V  V17  1  0.457188  0.791980  0.665208  1
  Rh  Rh18  1  0.456822  0.122446  0.665624  1
  Rh  Rh19  1  0.456822  0.791198  0.334376  1
  Rh  Rh20  1  0.374306  0.207509  0.166797  1
  Rh  Rh21  1  0.040712  0.207509  0.833203  1
  Rh  Rh22  1  0.039466  0.869848  0.830382  1
  Rh  Rh23  1  0.039466  0.209085  0.169618  1
  C  C24  1  0.249589  0.498907  0.750682  1
  C  C25  1  0.748226  0.498907  0.249318  1
  C  C26  1  0.748985  0.999132  0.250147  1
  C  C27  1  0.748985  0.498839  0.749853  1
