# generated using pymatgen
data_Zr4MnB4MoRu10
_symmetry_space_group_name_H-M   'P 1'
_cell_length_a   9.42369000
_cell_length_b   9.42369000
_cell_length_c   3.08858300
_cell_angle_alpha   90.00000000
_cell_angle_beta   90.00000000
_cell_angle_gamma   90.00000000
_symmetry_Int_Tables_number   1
_chemical_formula_structural   Zr4MnB4MoRu10
_chemical_formula_sum   'Zr4 Mn1 B4 Mo1 Ru10'
_cell_volume   274.28449563
_cell_formula_units_Z   1
loop_
 _symmetry_equiv_pos_site_id
 _symmetry_equiv_pos_as_xyz
  1  'x, y, z'
loop_
 _atom_site_type_symbol
 _atom_site_label
 _atom_site_symmetry_multiplicity
 _atom_site_fract_x
 _atom_site_fract_y
 _atom_site_fract_z
 _atom_site_occupancy
  Zr  Zr0  1  0.679681  0.173894  0.000000  1
  Zr  Zr1  1  0.320319  0.826106  0.000000  1
  Zr  Zr2  1  0.173894  0.320319  0.000000  1
  Zr  Zr3  1  0.826106  0.679681  0.000000  1
  Mn  Mn4  1  0.000000  0.000000  0.000000  1
  B  B5  1  0.118857  0.625624  0.000000  1
  B  B6  1  0.881143  0.374376  0.000000  1
  B  B7  1  0.625624  0.881143  0.000000  1
  B  B8  1  0.374376  0.118857  0.000000  1
  Mo  Mo9  1  0.500000  0.500000  0.000000  1
  Ru  Ru10  1  0.214712  0.070519  0.500000  1
  Ru  Ru11  1  0.785288  0.929481  0.500000  1
  Ru  Ru12  1  0.070519  0.785288  0.500000  1
  Ru  Ru13  1  0.716513  0.430302  0.500000  1
  Ru  Ru14  1  0.929481  0.214712  0.500000  1
  Ru  Ru15  1  0.283487  0.569698  0.500000  1
  Ru  Ru16  1  0.569698  0.716513  0.500000  1
  Ru  Ru17  1  0.430302  0.283487  0.500000  1
  Ru  Ru18  1  0.500000  0.000000  0.500000  1
  Ru  Ru19  1  0.000000  0.500000  0.500000  1
