# generated using pymatgen
data_CaSmDy4(Si3Ru)8
_symmetry_space_group_name_H-M   'P 1'
_cell_length_a   10.15644035
_cell_length_b   10.15534415
_cell_length_c   8.14337600
_cell_angle_alpha   90.04717245
_cell_angle_beta   89.95142718
_cell_angle_gamma   132.64122108
_symmetry_Int_Tables_number   1
_chemical_formula_structural   CaSmDy4(Si3Ru)8
_chemical_formula_sum   'Ca1 Sm1 Dy4 Si24 Ru8'
_cell_volume   617.85711665
_cell_formula_units_Z   1
loop_
 _symmetry_equiv_pos_site_id
 _symmetry_equiv_pos_as_xyz
  1  'x, y, z'
loop_
 _atom_site_type_symbol
 _atom_site_label
 _atom_site_symmetry_multiplicity
 _atom_site_fract_x
 _atom_site_fract_y
 _atom_site_fract_z
 _atom_site_occupancy
  Ca  Ca0  1  0.500029  0.500012  0.499903  1
  Sm  Sm1  1  0.502264  0.002338  0.749803  1
  Dy  Dy2  1  0.000033  0.000043  0.000067  1
  Dy  Dy3  1  0.998137  0.498164  0.250204  1
  Dy  Dy4  1  0.497882  0.997765  0.250255  1
  Dy  Dy5  1  0.002353  0.502346  0.749810  1
  Si  Si6  1  0.796629  0.205781  0.498838  1
  Si  Si7  1  0.294256  0.703993  0.001032  1
  Si  Si8  1  0.203670  0.794531  0.498902  1
  Si  Si9  1  0.706054  0.296309  0.001274  1
  Si  Si10  1  0.333596  0.333277  0.831941  1
  Si  Si11  1  0.666594  0.666503  0.167869  1
  Si  Si12  1  0.168444  0.168552  0.334053  1
  Si  Si13  1  0.831342  0.831620  0.666120  1
  Si  Si14  1  0.120808  0.888061  0.728338  1
  Si  Si15  1  0.110881  0.878493  0.271936  1
  Si  Si16  1  0.610536  0.378349  0.229380  1
  Si  Si17  1  0.622359  0.389846  0.770013  1
  Si  Si18  1  0.877912  0.110479  0.271859  1
  Si  Si19  1  0.890042  0.123034  0.728745  1
  Si  Si20  1  0.387992  0.620355  0.770416  1
  Si  Si21  1  0.379137  0.611074  0.229302  1
  Si  Si22  1  0.346394  0.113947  0.504569  1
  Si  Si23  1  0.886354  0.654280  0.494569  1
  Si  Si24  1  0.387733  0.154263  0.006296  1
  Si  Si25  1  0.844660  0.611980  0.994444  1
  Si  Si26  1  0.653092  0.885888  0.493255  1
  Si  Si27  1  0.113865  0.345904  0.505881  1
  Si  Si28  1  0.612112  0.845235  0.995824  1
  Si  Si29  1  0.155538  0.388247  0.005038  1
  Ru  Ru30  1  0.671902  0.330458  0.498667  1
  Ru  Ru31  1  0.168349  0.828903  0.001058  1
  Ru  Ru32  1  0.328009  0.669411  0.499012  1
  Ru  Ru33  1  0.831549  0.171056  0.001314  1
  Ru  Ru34  1  0.125026  0.124908  0.627797  1
  Ru  Ru35  1  0.874647  0.874920  0.372488  1
  Ru  Ru36  1  0.372805  0.372481  0.125345  1
  Ru  Ru37  1  0.627013  0.627190  0.874382  1
