# generated using pymatgen
data_Sm4Zn(Ga2Pt)10
_symmetry_space_group_name_H-M   'P 1'
_cell_length_a   4.18459071
_cell_length_b   11.16888617
_cell_length_c   13.63546585
_cell_angle_alpha   81.36767242
_cell_angle_beta   81.17337676
_cell_angle_gamma   79.20284468
_symmetry_Int_Tables_number   1
_chemical_formula_structural   Sm4Zn(Ga2Pt)10
_chemical_formula_sum   'Sm4 Zn1 Ga20 Pt10'
_cell_volume   613.73504074
_cell_formula_units_Z   1
loop_
 _symmetry_equiv_pos_site_id
 _symmetry_equiv_pos_as_xyz
  1  'x, y, z'
loop_
 _atom_site_type_symbol
 _atom_site_label
 _atom_site_symmetry_multiplicity
 _atom_site_fract_x
 _atom_site_fract_y
 _atom_site_fract_z
 _atom_site_occupancy
  Sm  Sm0  1  0.124840  0.088420  0.661901  1
  Sm  Sm1  1  0.875160  0.911580  0.338099  1
  Sm  Sm2  1  0.774268  0.631804  0.819658  1
  Sm  Sm3  1  0.225732  0.368196  0.180342  1
  Zn  Zn4  1  0.500000  0.500000  0.500000  1
  Ga  Ga5  1  0.008659  0.071748  0.910934  1
  Ga  Ga6  1  0.991341  0.928252  0.089066  1
  Ga  Ga7  1  0.064616  0.671259  0.199509  1
  Ga  Ga8  1  0.935384  0.328741  0.800491  1
  Ga  Ga9  1  0.109418  0.330088  0.451073  1
  Ga  Ga10  1  0.890582  0.669912  0.548927  1
  Ga  Ga11  1  0.202201  0.603984  0.991613  1
  Ga  Ga12  1  0.797799  0.396016  0.008387  1
  Ga  Ga13  1  0.256866  0.783610  0.702660  1
  Ga  Ga14  1  0.743134  0.216390  0.297340  1
  Ga  Ga15  1  0.301979  0.899578  0.496464  1
  Ga  Ga16  1  0.698021  0.100422  0.503536  1
  Ga  Ga17  1  0.386162  0.524778  0.702897  1
  Ga  Ga18  1  0.613838  0.475222  0.297103  1
  Ga  Ga19  1  0.397854  0.203063  0.001228  1
  Ga  Ga20  1  0.602146  0.796937  0.998772  1
  Ga  Ga21  1  0.543282  0.282642  0.630794  1
  Ga  Ga22  1  0.456718  0.717358  0.369206  1
  Ga  Ga23  1  0.634321  0.937768  0.793592  1
  Ga  Ga24  1  0.365679  0.062232  0.206408  1
  Pt  Pt25  1  0.024926  0.566792  0.383355  1
  Pt  Pt26  1  0.975074  0.433208  0.616645  1
  Pt  Pt27  1  0.135903  0.838147  0.890047  1
  Pt  Pt28  1  0.864097  0.161853  0.109953  1
  Pt  Pt29  1  0.242069  0.125866  0.389996  1
  Pt  Pt30  1  0.757931  0.874134  0.610004  1
  Pt  Pt31  1  0.345490  0.416277  0.892744  1
  Pt  Pt32  1  0.654510  0.583723  0.107256  1
  Pt  Pt33  1  0.504919  0.171696  0.818467  1
  Pt  Pt34  1  0.495081  0.828304  0.181533  1
