# generated using pymatgen
data_Gd2Th2C5
_symmetry_space_group_name_H-M   'P 1'
_cell_length_a   3.71032700
_cell_length_b   6.74949100
_cell_length_c   12.38468700
_cell_angle_alpha   90.00000000
_cell_angle_beta   90.00000000
_cell_angle_gamma   90.00000000
_symmetry_Int_Tables_number   1
_chemical_formula_structural   Gd2Th2C5
_chemical_formula_sum   'Gd4 Th4 C10'
_cell_volume   310.14747112
_cell_formula_units_Z   2
loop_
 _symmetry_equiv_pos_site_id
 _symmetry_equiv_pos_as_xyz
  1  'x, y, z'
loop_
 _atom_site_type_symbol
 _atom_site_label
 _atom_site_symmetry_multiplicity
 _atom_site_fract_x
 _atom_site_fract_y
 _atom_site_fract_z
 _atom_site_occupancy
  Gd  Gd0  1  0.500000  0.104720  0.798253  1
  Gd  Gd1  1  0.500000  0.895280  0.201747  1
  Gd  Gd2  1  0.500000  0.604720  0.701747  1
  Gd  Gd3  1  0.500000  0.395280  0.298253  1
  Th  Th4  1  0.000000  0.243187  0.539852  1
  Th  Th5  1  0.000000  0.756813  0.460148  1
  Th  Th6  1  0.000000  0.743187  0.960148  1
  Th  Th7  1  0.000000  0.256813  0.039852  1
  C  C8  1  0.500000  0.500000  0.500000  1
  C  C9  1  0.500000  0.000000  0.000000  1
  C  C10  1  0.000000  0.351834  0.730113  1
  C  C11  1  0.000000  0.648166  0.269887  1
  C  C12  1  0.000000  0.851834  0.769887  1
  C  C13  1  0.000000  0.148166  0.230113  1
  C  C14  1  0.000000  0.399478  0.836133  1
  C  C15  1  0.000000  0.600522  0.163867  1
  C  C16  1  0.000000  0.100522  0.336133  1
  C  C17  1  0.000000  0.899478  0.663867  1
