# generated using pymatgen
data_TiZn11(PtRh)6
_symmetry_space_group_name_H-M   'P 1'
_cell_length_a   4.33135500
_cell_length_b   6.08921500
_cell_length_c   13.01601100
_cell_angle_alpha   89.99924946
_cell_angle_beta   89.99912768
_cell_angle_gamma   89.99960398
_symmetry_Int_Tables_number   1
_chemical_formula_structural   TiZn11(PtRh)6
_chemical_formula_sum   'Ti1 Zn11 Pt6 Rh6'
_cell_volume   343.29145678
_cell_formula_units_Z   1
loop_
 _symmetry_equiv_pos_site_id
 _symmetry_equiv_pos_as_xyz
  1  'x, y, z'
loop_
 _atom_site_type_symbol
 _atom_site_label
 _atom_site_symmetry_multiplicity
 _atom_site_fract_x
 _atom_site_fract_y
 _atom_site_fract_z
 _atom_site_occupancy
  Ti  Ti0  1  0.500000  0.251715  0.999999  1
  Zn  Zn1  1  0.500000  0.752377  0.999999  1
  Zn  Zn2  1  0.000017  0.249620  0.167382  1
  Zn  Zn3  1  0.000018  0.750157  0.169180  1
  Zn  Zn4  1  0.500017  0.250119  0.333629  1
  Zn  Zn5  1  0.500017  0.749266  0.335955  1
  Zn  Zn6  1  0.000000  0.249922  0.499997  1
  Zn  Zn7  1  0.000001  0.749806  0.499997  1
  Zn  Zn8  1  0.499982  0.250118  0.666369  1
  Zn  Zn9  1  0.499981  0.749266  0.664043  1
  Zn  Zn10  1  0.999985  0.249619  0.832615  1
  Zn  Zn11  1  0.999984  0.750156  0.830818  1
  Pt  Pt12  1  0.000001  0.503677  0.999999  1
  Pt  Pt13  1  0.500019  0.998633  0.166234  1
  Pt  Pt14  1  0.000015  0.499000  0.332432  1
  Pt  Pt15  1  0.500001  0.001637  0.499998  1
  Pt  Pt16  1  0.999982  0.499001  0.667565  1
  Pt  Pt17  1  0.499982  0.998630  0.833764  1
  Rh  Rh18  1  0.999997  0.002730  0.999999  1
  Rh  Rh19  1  0.500014  0.498073  0.163023  1
  Rh  Rh20  1  0.000019  0.000299  0.332856  1
  Rh  Rh21  1  0.499999  0.497764  0.499999  1
  Rh  Rh22  1  0.999981  0.000334  0.667176  1
  Rh  Rh23  1  0.499988  0.498068  0.836974  1
