# generated using pymatgen
data_K2LiErSb2
_symmetry_space_group_name_H-M   'P 1'
_cell_length_a   10.89820013
_cell_length_b   10.89820080
_cell_length_c   7.10191300
_cell_angle_alpha   90.00000000
_cell_angle_beta   90.00000000
_cell_angle_gamma   98.70820142
_symmetry_Int_Tables_number   1
_chemical_formula_structural   K2LiErSb2
_chemical_formula_sum   'K8 Li4 Er4 Sb8'
_cell_volume   833.77602447
_cell_formula_units_Z   4
loop_
 _symmetry_equiv_pos_site_id
 _symmetry_equiv_pos_as_xyz
  1  'x, y, z'
loop_
 _atom_site_type_symbol
 _atom_site_label
 _atom_site_symmetry_multiplicity
 _atom_site_fract_x
 _atom_site_fract_y
 _atom_site_fract_z
 _atom_site_occupancy
  K  K0  1  0.569254  0.930746  0.750000  1
  K  K1  1  0.930746  0.569254  0.250000  1
  K  K2  1  0.430746  0.069254  0.250000  1
  K  K3  1  0.069254  0.430746  0.750000  1
  K  K4  1  0.676839  0.323161  0.782949  1
  K  K5  1  0.823161  0.176839  0.282949  1
  K  K6  1  0.323161  0.676839  0.217051  1
  K  K7  1  0.176839  0.823161  0.717051  1
  Li  Li8  1  0.619456  0.619456  0.000000  1
  Li  Li9  1  0.880544  0.880544  0.500000  1
  Li  Li10  1  0.380544  0.380544  0.000000  1
  Li  Li11  1  0.119456  0.119456  0.500000  1
  Er  Er12  1  0.869521  0.869521  0.000000  1
  Er  Er13  1  0.630479  0.630479  0.500000  1
  Er  Er14  1  0.130479  0.130479  0.000000  1
  Er  Er15  1  0.369521  0.369521  0.500000  1
  Sb  Sb16  1  0.351218  0.148782  0.750000  1
  Sb  Sb17  1  0.148782  0.351218  0.250000  1
  Sb  Sb18  1  0.648782  0.851218  0.250000  1
  Sb  Sb19  1  0.851218  0.648782  0.750000  1
  Sb  Sb20  1  0.901332  0.098668  0.759160  1
  Sb  Sb21  1  0.598668  0.401332  0.259160  1
  Sb  Sb22  1  0.098668  0.901332  0.240840  1
  Sb  Sb23  1  0.401332  0.598668  0.740840  1
