# generated using pymatgen
data_Gd3Sc2PPb3
_symmetry_space_group_name_H-M   'P 1'
_cell_length_a   9.10335700
_cell_length_b   9.10335738
_cell_length_c   6.62836600
_cell_angle_alpha   90.00000000
_cell_angle_beta   90.00000000
_cell_angle_gamma   120.00000950
_symmetry_Int_Tables_number   1
_chemical_formula_structural   Gd3Sc2PPb3
_chemical_formula_sum   'Gd6 Sc4 P2 Pb6'
_cell_volume   475.70776270
_cell_formula_units_Z   2
loop_
 _symmetry_equiv_pos_site_id
 _symmetry_equiv_pos_as_xyz
  1  'x, y, z'
loop_
 _atom_site_type_symbol
 _atom_site_label
 _atom_site_symmetry_multiplicity
 _atom_site_fract_x
 _atom_site_fract_y
 _atom_site_fract_z
 _atom_site_occupancy
  Gd  Gd0  1  0.242966  0.000000  0.250000  1
  Gd  Gd1  1  0.757034  0.000000  0.750000  1
  Gd  Gd2  1  0.000000  0.242966  0.250000  1
  Gd  Gd3  1  0.000000  0.757034  0.750000  1
  Gd  Gd4  1  0.242966  0.242966  0.750000  1
  Gd  Gd5  1  0.757034  0.757034  0.250000  1
  Sc  Sc6  1  0.333333  0.666667  0.500000  1
  Sc  Sc7  1  0.666667  0.333333  0.500000  1
  Sc  Sc8  1  0.666667  0.333333  0.000000  1
  Sc  Sc9  1  0.333333  0.666667  0.000000  1
  P  P10  1  0.000000  0.000000  0.000000  1
  P  P11  1  0.000000  0.000000  0.500000  1
  Pb  Pb12  1  0.402597  0.000000  0.750000  1
  Pb  Pb13  1  0.000000  0.402597  0.750000  1
  Pb  Pb14  1  0.402597  0.402597  0.250000  1
  Pb  Pb15  1  0.597403  0.000000  0.250000  1
  Pb  Pb16  1  0.000000  0.597403  0.250000  1
  Pb  Pb17  1  0.597403  0.597403  0.750000  1
