# generated using pymatgen
data_Ho12Tc3Ge
_symmetry_space_group_name_H-M   'P 1'
_cell_length_a   6.25942901
_cell_length_b   7.49030750
_cell_length_c   9.11729000
_cell_angle_alpha   90.00000000
_cell_angle_beta   90.00000000
_cell_angle_gamma   89.74472231
_symmetry_Int_Tables_number   1
_chemical_formula_structural   Ho12Tc3Ge
_chemical_formula_sum   'Ho12 Tc3 Ge1'
_cell_volume   427.46033715
_cell_formula_units_Z   1
loop_
 _symmetry_equiv_pos_site_id
 _symmetry_equiv_pos_as_xyz
  1  'x, y, z'
loop_
 _atom_site_type_symbol
 _atom_site_label
 _atom_site_symmetry_multiplicity
 _atom_site_fract_x
 _atom_site_fract_y
 _atom_site_fract_z
 _atom_site_occupancy
  Ho  Ho0  1  0.333950  0.674823  0.064471  1
  Ho  Ho1  1  0.163302  0.180113  0.434506  1
  Ho  Ho2  1  0.659262  0.311123  0.559056  1
  Ho  Ho3  1  0.848214  0.834108  0.939911  1
  Ho  Ho4  1  0.659262  0.311123  0.940944  1
  Ho  Ho5  1  0.848214  0.834108  0.560089  1
  Ho  Ho6  1  0.333950  0.674823  0.435529  1
  Ho  Ho7  1  0.163302  0.180113  0.065494  1
  Ho  Ho8  1  0.869551  0.541989  0.250000  1
  Ho  Ho9  1  0.622352  0.034633  0.250000  1
  Ho  Ho10  1  0.118046  0.455575  0.750000  1
  Ho  Ho11  1  0.370063  0.971327  0.750000  1
  Tc  Tc12  1  0.038689  0.882005  0.250000  1
  Tc  Tc13  1  0.462348  0.381920  0.250000  1
  Tc  Tc14  1  0.950995  0.117572  0.750000  1
  Ge  Ge15  1  0.558501  0.614646  0.750000  1
