# generated using pymatgen
data_Y8Cd2IrPt
_symmetry_space_group_name_H-M   'P 1'
_cell_length_a   9.69814454
_cell_length_b   9.69814409
_cell_length_c   9.67179300
_cell_angle_alpha   60.08984462
_cell_angle_beta   60.08984615
_cell_angle_gamma   60.23134049
_symmetry_Int_Tables_number   1
_chemical_formula_structural   Y8Cd2IrPt
_chemical_formula_sum   'Y16 Cd4 Ir2 Pt2'
_cell_volume   645.22820182
_cell_formula_units_Z   2
loop_
 _symmetry_equiv_pos_site_id
 _symmetry_equiv_pos_as_xyz
  1  'x, y, z'
loop_
 _atom_site_type_symbol
 _atom_site_label
 _atom_site_symmetry_multiplicity
 _atom_site_fract_x
 _atom_site_fract_y
 _atom_site_fract_z
 _atom_site_occupancy
  Y  Y0  1  0.350984  0.350984  0.346522  1
  Y  Y1  1  0.350984  0.350984  0.951510  1
  Y  Y2  1  0.356182  0.943667  0.350075  1
  Y  Y3  1  0.943667  0.356182  0.350075  1
  Y  Y4  1  0.806324  0.190250  0.191253  1
  Y  Y5  1  0.190250  0.806324  0.812173  1
  Y  Y6  1  0.190250  0.806324  0.191253  1
  Y  Y7  1  0.806324  0.190250  0.812173  1
  Y  Y8  1  0.191908  0.191908  0.808092  1
  Y  Y9  1  0.810892  0.810892  0.189108  1
  Y  Y10  1  0.937726  0.564189  0.561810  1
  Y  Y11  1  0.564189  0.937726  0.936275  1
  Y  Y12  1  0.564189  0.937726  0.561810  1
  Y  Y13  1  0.937726  0.564189  0.936275  1
  Y  Y14  1  0.563356  0.563356  0.936644  1
  Y  Y15  1  0.937238  0.937238  0.562762  1
  Cd  Cd16  1  0.581044  0.581044  0.581501  1
  Cd  Cd17  1  0.581044  0.581044  0.256413  1
  Cd  Cd18  1  0.580815  0.255912  0.581637  1
  Cd  Cd19  1  0.255912  0.580815  0.581637  1
  Ir  Ir20  1  0.140598  0.574438  0.142482  1
  Ir  Ir21  1  0.574438  0.140598  0.142482  1
  Pt  Pt22  1  0.141981  0.141981  0.144448  1
  Pt  Pt23  1  0.141981  0.141981  0.571590  1
