# generated using pymatgen
data_Dy2Tm(Co3P2)3
_symmetry_space_group_name_H-M   'P 1'
_cell_length_a   3.68857400
_cell_length_b   10.50685800
_cell_length_c   12.16297500
_cell_angle_alpha   90.00000000
_cell_angle_beta   90.00000000
_cell_angle_gamma   90.00000000
_symmetry_Int_Tables_number   1
_chemical_formula_structural   Dy2Tm(Co3P2)3
_chemical_formula_sum   'Dy4 Tm2 Co18 P12'
_cell_volume   471.38002769
_cell_formula_units_Z   2
loop_
 _symmetry_equiv_pos_site_id
 _symmetry_equiv_pos_as_xyz
  1  'x, y, z'
loop_
 _atom_site_type_symbol
 _atom_site_label
 _atom_site_symmetry_multiplicity
 _atom_site_fract_x
 _atom_site_fract_y
 _atom_site_fract_z
 _atom_site_occupancy
  Dy  Dy0  1  0.750000  0.250000  0.478604  1
  Dy  Dy1  1  0.250000  0.750000  0.522343  1
  Dy  Dy2  1  0.750000  0.067405  0.205944  1
  Dy  Dy3  1  0.750000  0.432595  0.205944  1
  Tm  Tm4  1  0.250000  0.931991  0.793806  1
  Tm  Tm5  1  0.250000  0.568009  0.793806  1
  Co  Co6  1  0.250000  0.250000  0.841286  1
  Co  Co7  1  0.750000  0.750000  0.158784  1
  Co  Co8  1  0.250000  0.250000  0.296130  1
  Co  Co9  1  0.750000  0.750000  0.704219  1
  Co  Co10  1  0.750000  0.250000  0.012249  1
  Co  Co11  1  0.250000  0.750000  0.985186  1
  Co  Co12  1  0.250000  0.417262  0.004271  1
  Co  Co13  1  0.250000  0.082738  0.004271  1
  Co  Co14  1  0.750000  0.583784  0.993862  1
  Co  Co15  1  0.750000  0.916216  0.993862  1
  Co  Co16  1  0.250000  0.452929  0.570462  1
  Co  Co17  1  0.250000  0.047071  0.570462  1
  Co  Co18  1  0.750000  0.547333  0.431265  1
  Co  Co19  1  0.750000  0.952667  0.431265  1
  Co  Co20  1  0.250000  0.870569  0.290482  1
  Co  Co21  1  0.250000  0.629431  0.290482  1
  Co  Co22  1  0.750000  0.128749  0.710443  1
  Co  Co23  1  0.750000  0.371251  0.710443  1
  P  P24  1  0.250000  0.250000  0.116264  1
  P  P25  1  0.750000  0.750000  0.881711  1
  P  P26  1  0.250000  0.250000  0.656414  1
  P  P27  1  0.750000  0.750000  0.344076  1
  P  P28  1  0.250000  0.439353  0.384472  1
  P  P29  1  0.250000  0.060647  0.384472  1
  P  P30  1  0.750000  0.561031  0.617381  1
  P  P31  1  0.750000  0.938969  0.617381  1
  P  P32  1  0.250000  0.902052  0.106631  1
  P  P33  1  0.250000  0.597948  0.106631  1
  P  P34  1  0.750000  0.096039  0.892348  1
  P  P35  1  0.750000  0.403961  0.892348  1
