# generated using pymatgen
data_DyFeSiHg
_symmetry_space_group_name_H-M   'P 1'
_cell_length_a   9.89899900
_cell_length_b   9.89900081
_cell_length_c   4.02818600
_cell_angle_alpha   90.00000000
_cell_angle_beta   90.00000000
_cell_angle_gamma   156.76592090
_symmetry_Int_Tables_number   1
_chemical_formula_structural   DyFeSiHg
_chemical_formula_sum   'Dy2 Fe2 Si2 Hg2'
_cell_volume   155.71359851
_cell_formula_units_Z   2
loop_
 _symmetry_equiv_pos_site_id
 _symmetry_equiv_pos_as_xyz
  1  'x, y, z'
loop_
 _atom_site_type_symbol
 _atom_site_label
 _atom_site_symmetry_multiplicity
 _atom_site_fract_x
 _atom_site_fract_y
 _atom_site_fract_z
 _atom_site_occupancy
  Dy  Dy0  1  0.639255  0.360745  0.250000  1
  Dy  Dy1  1  0.360745  0.639255  0.750000  1
  Fe  Fe2  1  0.249684  0.750316  0.250000  1
  Fe  Fe3  1  0.750316  0.249684  0.750000  1
  Si  Si4  1  0.805806  0.194194  0.250000  1
  Si  Si5  1  0.194194  0.805806  0.750000  1
  Hg  Hg6  1  0.948092  0.051908  0.250000  1
  Hg  Hg7  1  0.051908  0.948092  0.750000  1
