# generated using pymatgen
data_Ho9ErGa3NiBi2
_symmetry_space_group_name_H-M   'P 1'
_cell_length_a   8.51011871
_cell_length_b   8.51011739
_cell_length_c   8.70110003
_cell_angle_alpha   124.26154701
_cell_angle_beta   124.26142741
_cell_angle_gamma   81.30298839
_symmetry_Int_Tables_number   1
_chemical_formula_structural   Ho9ErGa3NiBi2
_chemical_formula_sum   'Ho9 Er1 Ga3 Ni1 Bi2'
_cell_volume   417.57316064
_cell_formula_units_Z   1
loop_
 _symmetry_equiv_pos_site_id
 _symmetry_equiv_pos_as_xyz
  1  'x, y, z'
loop_
 _atom_site_type_symbol
 _atom_site_label
 _atom_site_symmetry_multiplicity
 _atom_site_fract_x
 _atom_site_fract_y
 _atom_site_fract_z
 _atom_site_occupancy
  Ho  Ho0  1  0.505697  0.503299  0.008997  1
  Ho  Ho1  1  0.015700  0.497912  0.794167  1
  Ho  Ho2  1  0.721562  0.203704  0.205833  1
  Ho  Ho3  1  0.515358  0.706885  0.500029  1
  Ho  Ho4  1  0.195827  0.040919  0.499965  1
  Ho  Ho5  1  0.002128  0.484271  0.205833  1
  Ho  Ho6  1  0.296255  0.778467  0.794167  1
  Ho  Ho7  1  0.459046  0.304137  0.499965  1
  Ho  Ho8  1  0.793145  0.984671  0.500029  1
  Er  Er9  1  0.996695  0.994318  0.991012  1
  Ga  Ga10  1  0.352159  0.855339  0.207498  1
  Ga  Ga11  1  0.644717  0.147775  0.792492  1
  Ga  Ga12  1  0.865335  0.634726  0.500062  1
  Ni  Ni13  1  0.124133  0.375824  0.499957  1
  Bi  Bi14  1  0.756159  0.743914  0.999997  1
  Bi  Bi15  1  0.256084  0.243839  0.999997  1
