# generated using pymatgen
data_La7Nd(CdNi)2
_symmetry_space_group_name_H-M   'P 1'
_cell_length_a   10.02040588
_cell_length_b   10.02040674
_cell_length_c   10.00903700
_cell_angle_alpha   60.03752380
_cell_angle_beta   60.03752098
_cell_angle_gamma   59.92495384
_symmetry_Int_Tables_number   1
_chemical_formula_structural   La7Nd(CdNi)2
_chemical_formula_sum   'La14 Nd2 Cd4 Ni4'
_cell_volume   710.63540207
_cell_formula_units_Z   2
loop_
 _symmetry_equiv_pos_site_id
 _symmetry_equiv_pos_as_xyz
  1  'x, y, z'
loop_
 _atom_site_type_symbol
 _atom_site_label
 _atom_site_symmetry_multiplicity
 _atom_site_fract_x
 _atom_site_fract_y
 _atom_site_fract_z
 _atom_site_occupancy
  La  La0  1  0.347031  0.347031  0.346486  1
  La  La1  1  0.347031  0.347031  0.959450  1
  La  La2  1  0.346486  0.959450  0.347031  1
  La  La3  1  0.959450  0.346486  0.347031  1
  La  La4  1  0.807624  0.192376  0.192376  1
  La  La5  1  0.192376  0.807624  0.807624  1
  La  La6  1  0.192376  0.807624  0.192376  1
  La  La7  1  0.807624  0.192376  0.807624  1
  La  La8  1  0.192181  0.192181  0.807819  1
  La  La9  1  0.807819  0.807819  0.192181  1
  La  La10  1  0.936171  0.563829  0.563829  1
  La  La11  1  0.563829  0.936171  0.936171  1
  La  La12  1  0.563829  0.936171  0.563829  1
  La  La13  1  0.936171  0.563829  0.936171  1
  Nd  Nd14  1  0.561507  0.561507  0.938493  1
  Nd  Nd15  1  0.938493  0.938493  0.561507  1
  Cd  Cd16  1  0.578880  0.578880  0.580121  1
  Cd  Cd17  1  0.578880  0.578880  0.262117  1
  Cd  Cd18  1  0.580121  0.262117  0.578880  1
  Cd  Cd19  1  0.262117  0.580121  0.578880  1
  Ni  Ni20  1  0.141198  0.141198  0.142217  1
  Ni  Ni21  1  0.141198  0.141198  0.575388  1
  Ni  Ni22  1  0.142217  0.575388  0.141198  1
  Ni  Ni23  1  0.575388  0.142217  0.141198  1
