# generated using pymatgen
data_Er11TmIn20
_symmetry_space_group_name_H-M   'P 1'
_cell_length_a   6.46343906
_cell_length_b   10.40393431
_cell_length_c   12.23070395
_cell_angle_alpha   89.97940725
_cell_angle_beta   90.01585897
_cell_angle_gamma   89.99766157
_symmetry_Int_Tables_number   1
_chemical_formula_structural   Er11TmIn20
_chemical_formula_sum   'Er11 Tm1 In20'
_cell_volume   822.45599267
_cell_formula_units_Z   1
loop_
 _symmetry_equiv_pos_site_id
 _symmetry_equiv_pos_as_xyz
  1  'x, y, z'
loop_
 _atom_site_type_symbol
 _atom_site_label
 _atom_site_symmetry_multiplicity
 _atom_site_fract_x
 _atom_site_fract_y
 _atom_site_fract_z
 _atom_site_occupancy
  Er  Er0  1  0.348544  0.749979  0.055961  1
  Er  Er1  1  0.151479  0.749955  0.555913  1
  Er  Er2  1  0.651374  0.250040  0.944055  1
  Er  Er3  1  0.848492  0.250015  0.444114  1
  Er  Er4  1  0.891468  0.494614  0.141917  1
  Er  Er5  1  0.608562  0.005333  0.641913  1
  Er  Er6  1  0.108610  0.994587  0.858113  1
  Er  Er7  1  0.391456  0.505380  0.358078  1
  Er  Er8  1  0.108551  0.505377  0.858045  1
  Er  Er9  1  0.391456  0.994647  0.358097  1
  Er  Er10  1  0.891416  0.005390  0.141879  1
  Tm  Tm11  1  0.608550  0.494744  0.642015  1
  In  In12  1  0.616571  0.749940  0.505175  1
  In  In13  1  0.883296  0.750040  0.005297  1
  In  In14  1  0.383276  0.250059  0.494720  1
  In  In15  1  0.116741  0.249966  0.994776  1
  In  In16  1  0.649292  0.750007  0.246186  1
  In  In17  1  0.850738  0.750084  0.746289  1
  In  In18  1  0.350689  0.249918  0.753843  1
  In  In19  1  0.149315  0.249971  0.253754  1
  In  In20  1  0.128994  0.750059  0.285793  1
  In  In21  1  0.371148  0.749995  0.785783  1
  In  In22  1  0.871050  0.249959  0.714197  1
  In  In23  1  0.628948  0.249989  0.214186  1
  In  In24  1  0.875707  0.543463  0.401270  1
  In  In25  1  0.624134  0.956521  0.901278  1
  In  In26  1  0.124119  0.043427  0.598710  1
  In  In27  1  0.375825  0.456464  0.098751  1
  In  In28  1  0.124239  0.456492  0.598713  1
  In  In29  1  0.375882  0.043509  0.098726  1
  In  In30  1  0.875975  0.956515  0.401180  1
  In  In31  1  0.624103  0.543563  0.901272  1
