# generated using pymatgen
data_La14PdRh5
_symmetry_space_group_name_H-M   'P 1'
_cell_length_a   10.23683400
_cell_length_b   10.23795332
_cell_length_c   6.57258460
_cell_angle_alpha   89.78197037
_cell_angle_beta   90.00000000
_cell_angle_gamma   119.99638344
_symmetry_Int_Tables_number   1
_chemical_formula_structural   La14PdRh5
_chemical_formula_sum   'La14 Pd1 Rh5'
_cell_volume   596.56429377
_cell_formula_units_Z   1
loop_
 _symmetry_equiv_pos_site_id
 _symmetry_equiv_pos_as_xyz
  1  'x, y, z'
loop_
 _atom_site_type_symbol
 _atom_site_label
 _atom_site_symmetry_multiplicity
 _atom_site_fract_x
 _atom_site_fract_y
 _atom_site_fract_z
 _atom_site_occupancy
  La  La0  1  0.335490  0.670981  0.467411  1
  La  La1  1  0.666523  0.333044  0.972916  1
  La  La2  1  0.124748  0.876975  0.242318  1
  La  La3  1  0.752227  0.876975  0.242318  1
  La  La4  1  0.123889  0.247778  0.233890  1
  La  La5  1  0.867511  0.119913  0.741813  1
  La  La6  1  0.252402  0.119913  0.741813  1
  La  La7  1  0.875966  0.751931  0.744388  1
  La  La8  1  0.540676  0.462506  0.438234  1
  La  La9  1  0.921830  0.462506  0.438234  1
  La  La10  1  0.538752  0.077503  0.432767  1
  La  La11  1  0.468868  0.543015  0.940521  1
  La  La12  1  0.074147  0.543015  0.940521  1
  La  La13  1  0.459273  0.918545  0.938958  1
  Pd  Pd14  1  0.187911  0.375822  0.691730  1
  Rh  Rh15  1  0.813357  0.188687  0.196287  1
  Rh  Rh16  1  0.375330  0.188687  0.196287  1
  Rh  Rh17  1  0.811099  0.622198  0.193493  1
  Rh  Rh18  1  0.187453  0.810002  0.695945  1
  Rh  Rh19  1  0.622549  0.810002  0.695945  1
