# generated using pymatgen
data_Ce3Th(SnRu)4
_symmetry_space_group_name_H-M   'P 1'
_cell_length_a   6.34537115
_cell_length_b   6.34537156
_cell_length_c   10.14578370
_cell_angle_alpha   77.48507779
_cell_angle_beta   77.48507564
_cell_angle_gamma   44.60910363
_symmetry_Int_Tables_number   1
_chemical_formula_structural   Ce3Th(SnRu)4
_chemical_formula_sum   'Ce3 Th1 Sn4 Ru4'
_cell_volume   278.90091043
_cell_formula_units_Z   1
loop_
 _symmetry_equiv_pos_site_id
 _symmetry_equiv_pos_as_xyz
  1  'x, y, z'
loop_
 _atom_site_type_symbol
 _atom_site_label
 _atom_site_symmetry_multiplicity
 _atom_site_fract_x
 _atom_site_fract_y
 _atom_site_fract_z
 _atom_site_occupancy
  Ce  Ce0  1  0.865289  0.865289  0.412050  1
  Ce  Ce1  1  0.862805  0.862805  0.915420  1
  Ce  Ce2  1  0.136226  0.136226  0.089950  1
  Th  Th3  1  0.129817  0.129817  0.592641  1
  Sn  Sn4  1  0.420013  0.420013  0.157042  1
  Sn  Sn5  1  0.411840  0.411840  0.657256  1
  Sn  Sn6  1  0.583739  0.583739  0.847330  1
  Sn  Sn7  1  0.587825  0.587825  0.349433  1
  Ru  Ru8  1  0.813405  0.813405  0.156170  1
  Ru  Ru9  1  0.193155  0.193155  0.320307  1
  Ru  Ru10  1  0.189067  0.189067  0.843327  1
  Ru  Ru11  1  0.806818  0.806818  0.659073  1
