# generated using pymatgen
data_TbYbCe4(Cu3Sb4)2
_symmetry_space_group_name_H-M   'P 1'
_cell_length_a   8.42099724
_cell_length_b   8.42099743
_cell_length_c   8.42099837
_cell_angle_alpha   109.79738877
_cell_angle_beta   108.82085787
_cell_angle_gamma   109.79736125
_symmetry_Int_Tables_number   1
_chemical_formula_structural   TbYbCe4(Cu3Sb4)2
_chemical_formula_sum   'Tb1 Yb1 Ce4 Cu6 Sb8'
_cell_volume   459.64957977
_cell_formula_units_Z   1
loop_
 _symmetry_equiv_pos_site_id
 _symmetry_equiv_pos_as_xyz
  1  'x, y, z'
loop_
 _atom_site_type_symbol
 _atom_site_label
 _atom_site_symmetry_multiplicity
 _atom_site_fract_x
 _atom_site_fract_y
 _atom_site_fract_z
 _atom_site_occupancy
  Tb  Tb0  1  0.875000  0.250000  0.125000  1
  Yb  Yb1  1  0.625000  0.750000  0.375000  1
  Ce  Ce2  1  0.249371  0.126425  0.876095  1
  Ce  Ce3  1  0.749670  0.373575  0.622946  1
  Ce  Ce4  1  0.123905  0.873276  0.250330  1
  Ce  Ce5  1  0.377054  0.626724  0.750629  1
  Cu  Cu6  1  0.375000  0.250000  0.625000  1
  Cu  Cu7  1  0.125000  0.750000  0.875000  1
  Cu  Cu8  1  0.252416  0.620428  0.370608  1
  Cu  Cu9  1  0.750180  0.879572  0.131988  1
  Cu  Cu10  1  0.629392  0.381807  0.249820  1
  Cu  Cu11  1  0.868012  0.118193  0.747584  1
  Sb  Sb12  1  0.659870  0.501990  0.000942  1
  Sb  Sb13  1  0.498952  0.998010  0.657880  1
  Sb  Sb14  1  0.002199  0.657194  0.497779  1
  Sb  Sb15  1  0.840585  0.842806  0.845005  1
  Sb  Sb16  1  0.502221  0.004420  0.159415  1
  Sb  Sb17  1  0.154995  0.495580  0.997801  1
  Sb  Sb18  1  0.999058  0.158928  0.501048  1
  Sb  Sb19  1  0.342120  0.341072  0.340130  1
