# generated using pymatgen
data_Dy16MgHg3Ir3Rh
_symmetry_space_group_name_H-M   'P 1'
_cell_length_a   9.62586254
_cell_length_b   9.62168542
_cell_length_c   9.62168707
_cell_angle_alpha   60.00646008
_cell_angle_beta   60.02788572
_cell_angle_gamma   60.02788071
_symmetry_Int_Tables_number   1
_chemical_formula_structural   Dy16MgHg3Ir3Rh
_chemical_formula_sum   'Dy16 Mg1 Hg3 Ir3 Rh1'
_cell_volume   630.42171290
_cell_formula_units_Z   1
loop_
 _symmetry_equiv_pos_site_id
 _symmetry_equiv_pos_as_xyz
  1  'x, y, z'
loop_
 _atom_site_type_symbol
 _atom_site_label
 _atom_site_symmetry_multiplicity
 _atom_site_fract_x
 _atom_site_fract_y
 _atom_site_fract_z
 _atom_site_occupancy
  Dy  Dy0  1  0.349029  0.347436  0.347436  1
  Dy  Dy1  1  0.351365  0.349380  0.952992  1
  Dy  Dy2  1  0.351365  0.952992  0.349380  1
  Dy  Dy3  1  0.942942  0.353290  0.353290  1
  Dy  Dy4  1  0.807525  0.191029  0.191029  1
  Dy  Dy5  1  0.185796  0.811785  0.811785  1
  Dy  Dy6  1  0.187263  0.810662  0.189060  1
  Dy  Dy7  1  0.808215  0.189905  0.809051  1
  Dy  Dy8  1  0.187263  0.189060  0.810662  1
  Dy  Dy9  1  0.808215  0.809051  0.189905  1
  Dy  Dy10  1  0.937819  0.562114  0.562114  1
  Dy  Dy11  1  0.562151  0.937485  0.937485  1
  Dy  Dy12  1  0.561296  0.939153  0.562877  1
  Dy  Dy13  1  0.936347  0.562670  0.938658  1
  Dy  Dy14  1  0.561296  0.562877  0.939153  1
  Dy  Dy15  1  0.936347  0.938658  0.562670  1
  Mg  Mg16  1  0.283579  0.571644  0.571644  1
  Hg  Hg17  1  0.581923  0.586671  0.586671  1
  Hg  Hg18  1  0.582187  0.587226  0.243016  1
  Hg  Hg19  1  0.582187  0.243016  0.587226  1
  Ir  Ir20  1  0.140567  0.143943  0.574317  1
  Ir  Ir21  1  0.140567  0.574317  0.143943  1
  Ir  Ir22  1  0.575154  0.142482  0.142482  1
  Rh  Rh23  1  0.139596  0.143153  0.143153  1
