# generated using pymatgen
data_Ho12InFe4Ag
_symmetry_space_group_name_H-M   'P 1'
_cell_length_a   8.34011608
_cell_length_b   8.34002374
_cell_length_c   8.34011727
_cell_angle_alpha   111.01021670
_cell_angle_beta   110.76047072
_cell_angle_gamma   106.67907573
_symmetry_Int_Tables_number   1
_chemical_formula_structural   Ho12InFe4Ag
_chemical_formula_sum   'Ho12 In1 Fe4 Ag1'
_cell_volume   445.77494253
_cell_formula_units_Z   1
loop_
 _symmetry_equiv_pos_site_id
 _symmetry_equiv_pos_as_xyz
  1  'x, y, z'
loop_
 _atom_site_type_symbol
 _atom_site_label
 _atom_site_symmetry_multiplicity
 _atom_site_fract_x
 _atom_site_fract_y
 _atom_site_fract_z
 _atom_site_occupancy
  Ho  Ho0  1  0.312635  0.613358  0.300723  1
  Ho  Ho1  1  0.687365  0.386642  0.699277  1
  Ho  Ho2  1  0.312613  0.011873  0.699262  1
  Ho  Ho3  1  0.687387  0.988127  0.300738  1
  Ho  Ho4  1  0.188481  0.291342  0.479822  1
  Ho  Ho5  1  0.811519  0.708658  0.520178  1
  Ho  Ho6  1  0.188480  0.708658  0.897138  1
  Ho  Ho7  1  0.811520  0.291342  0.102862  1
  Ho  Ho8  1  0.428086  0.222614  0.205495  1
  Ho  Ho9  1  0.571914  0.777386  0.794505  1
  Ho  Ho10  1  0.017118  0.222614  0.794528  1
  Ho  Ho11  1  0.982882  0.777386  0.205472  1
  In  In12  1  0.500000  0.500000  0.000000  1
  Fe  Fe13  1  0.108044  0.608066  0.500022  1
  Fe  Fe14  1  0.891956  0.391934  0.499978  1
  Fe  Fe15  1  0.384839  0.000000  0.384839  1
  Fe  Fe16  1  0.615161  0.000000  0.615161  1
  Ag  Ag17  1  0.000000  0.000000  0.000000  1
