# generated using pymatgen
data_Nd12MgCo6
_symmetry_space_group_name_H-M   'P 1'
_cell_length_a   8.70914923
_cell_length_b   8.70909360
_cell_length_c   8.70959361
_cell_angle_alpha   109.51197165
_cell_angle_beta   109.34516709
_cell_angle_gamma   109.55671380
_symmetry_Int_Tables_number   1
_chemical_formula_structural   Nd12MgCo6
_chemical_formula_sum   'Nd12 Mg1 Co6'
_cell_volume   508.53685936
_cell_formula_units_Z   1
loop_
 _symmetry_equiv_pos_site_id
 _symmetry_equiv_pos_as_xyz
  1  'x, y, z'
loop_
 _atom_site_type_symbol
 _atom_site_label
 _atom_site_symmetry_multiplicity
 _atom_site_fract_x
 _atom_site_fract_y
 _atom_site_fract_z
 _atom_site_occupancy
  Nd  Nd0  1  0.806415  0.691837  0.498254  1
  Nd  Nd1  1  0.193585  0.308163  0.501746  1
  Nd  Nd2  1  0.193613  0.691870  0.885473  1
  Nd  Nd3  1  0.806387  0.308130  0.114527  1
  Nd  Nd4  1  0.691611  0.498231  0.806620  1
  Nd  Nd5  1  0.308389  0.501769  0.193380  1
  Nd  Nd6  1  0.691613  0.884992  0.193371  1
  Nd  Nd7  1  0.308387  0.115008  0.806629  1
  Nd  Nd8  1  0.498519  0.806734  0.691786  1
  Nd  Nd9  1  0.501481  0.193266  0.308214  1
  Nd  Nd10  1  0.114948  0.806734  0.308214  1
  Nd  Nd11  1  0.885052  0.193266  0.691786  1
  Mg  Mg12  1  0.000000  0.000000  0.000000  1
  Co  Co13  1  0.888825  0.388824  0.500000  1
  Co  Co14  1  0.111175  0.611176  0.500000  1
  Co  Co15  1  0.388621  0.499999  0.888621  1
  Co  Co16  1  0.611379  0.500001  0.111379  1
  Co  Co17  1  0.500001  0.888546  0.388545  1
  Co  Co18  1  0.499999  0.111454  0.611455  1
