# generated using pymatgen
data_CaY3Lu4(B6Ru)4
_symmetry_space_group_name_H-M   'P 1'
_cell_length_a   3.62241000
_cell_length_b   9.07983979
_cell_length_c   11.47820910
_cell_angle_alpha   90.07064428
_cell_angle_beta   90.00000000
_cell_angle_gamma   90.00000000
_symmetry_Int_Tables_number   1
_chemical_formula_structural   CaY3Lu4(B6Ru)4
_chemical_formula_sum   'Ca1 Y3 Lu4 B24 Ru4'
_cell_volume   377.52836892
_cell_formula_units_Z   1
loop_
 _symmetry_equiv_pos_site_id
 _symmetry_equiv_pos_as_xyz
  1  'x, y, z'
loop_
 _atom_site_type_symbol
 _atom_site_label
 _atom_site_symmetry_multiplicity
 _atom_site_fract_x
 _atom_site_fract_y
 _atom_site_fract_z
 _atom_site_occupancy
  Ca  Ca0  1  0.000000  0.178210  0.914322  1
  Y  Y1  1  0.000000  0.321175  0.414802  1
  Y  Y2  1  0.000000  0.678340  0.586085  1
  Y  Y3  1  0.000000  0.823110  0.084759  1
  Lu  Lu4  1  0.000000  0.943981  0.372152  1
  Lu  Lu5  1  0.000000  0.056899  0.629474  1
  Lu  Lu6  1  0.000000  0.442320  0.127931  1
  Lu  Lu7  1  0.000000  0.555833  0.871347  1
  B  B8  1  0.500000  0.554792  0.432280  1
  B  B9  1  0.500000  0.446003  0.566874  1
  B  B10  1  0.500000  0.054452  0.067920  1
  B  B11  1  0.500000  0.945163  0.932206  1
  B  B12  1  0.500000  0.750078  0.418864  1
  B  B13  1  0.500000  0.250508  0.581259  1
  B  B14  1  0.500000  0.249482  0.081823  1
  B  B15  1  0.500000  0.750002  0.918404  1
  B  B16  1  0.500000  0.791503  0.265786  1
  B  B17  1  0.500000  0.209195  0.734047  1
  B  B18  1  0.500000  0.291147  0.234757  1
  B  B19  1  0.500000  0.707765  0.765458  1
  B  B20  1  0.500000  0.630352  0.184306  1
  B  B21  1  0.500000  0.369999  0.814805  1
  B  B22  1  0.500000  0.130212  0.316105  1
  B  B23  1  0.500000  0.869362  0.684908  1
  B  B24  1  0.500000  0.982979  0.213462  1
  B  B25  1  0.500000  0.016770  0.786977  1
  B  B26  1  0.500000  0.482956  0.286592  1
  B  B27  1  0.500000  0.517100  0.712542  1
  B  B28  1  0.500000  0.602219  0.027970  1
  B  B29  1  0.500000  0.398912  0.972251  1
  B  B30  1  0.500000  0.103231  0.472103  1
  B  B31  1  0.500000  0.896653  0.528521  1
  Ru  Ru32  1  0.000000  0.638628  0.320023  1
  Ru  Ru33  1  0.000000  0.362551  0.678477  1
  Ru  Ru34  1  0.000000  0.138682  0.181408  1
  Ru  Ru35  1  0.000000  0.859433  0.819001  1
