# generated using pymatgen
data_Gd3Er2(GeB4)2
_symmetry_space_group_name_H-M   'P 1'
_cell_length_a   7.26481106
_cell_length_b   7.26481000
_cell_length_c   8.19205700
_cell_angle_alpha   90.00000000
_cell_angle_beta   90.00000000
_cell_angle_gamma   89.99273630
_symmetry_Int_Tables_number   1
_chemical_formula_structural   Gd3Er2(GeB4)2
_chemical_formula_sum   'Gd6 Er4 Ge4 B16'
_cell_volume   432.35605590
_cell_formula_units_Z   2
loop_
 _symmetry_equiv_pos_site_id
 _symmetry_equiv_pos_as_xyz
  1  'x, y, z'
loop_
 _atom_site_type_symbol
 _atom_site_label
 _atom_site_symmetry_multiplicity
 _atom_site_fract_x
 _atom_site_fract_y
 _atom_site_fract_z
 _atom_site_occupancy
  Gd  Gd0  1  0.680834  0.180980  0.222765  1
  Gd  Gd1  1  0.319020  0.819166  0.777235  1
  Gd  Gd2  1  0.319020  0.819166  0.222765  1
  Gd  Gd3  1  0.819457  0.680543  0.221147  1
  Gd  Gd4  1  0.819457  0.680543  0.778853  1
  Gd  Gd5  1  0.680834  0.180980  0.777235  1
  Er  Er6  1  0.180961  0.319039  0.782160  1
  Er  Er7  1  0.180961  0.319039  0.217840  1
  Er  Er8  1  0.999946  0.999553  0.500000  1
  Er  Er9  1  0.500447  0.500054  0.500000  1
  Ge  Ge10  1  0.122077  0.618125  0.500000  1
  Ge  Ge11  1  0.881875  0.377923  0.500000  1
  Ge  Ge12  1  0.375925  0.124075  0.500000  1
  Ge  Ge13  1  0.618508  0.881492  0.500000  1
  B  B14  1  0.172706  0.040797  0.000000  1
  B  B15  1  0.828631  0.960839  0.000000  1
  B  B16  1  0.961340  0.172762  0.000000  1
  B  B17  1  0.327238  0.538660  0.000000  1
  B  B18  1  0.040145  0.828553  0.000000  1
  B  B19  1  0.671447  0.459855  0.000000  1
  B  B20  1  0.539161  0.671369  0.000000  1
  B  B21  1  0.459203  0.327294  0.000000  1
  B  B22  1  0.090875  0.589995  0.000000  1
  B  B23  1  0.910005  0.409125  0.000000  1
  B  B24  1  0.409089  0.090911  0.000000  1
  B  B25  1  0.591029  0.908971  0.000000  1
  B  B26  1  0.000919  0.001014  0.160283  1
  B  B27  1  0.000919  0.001014  0.839717  1
  B  B28  1  0.498986  0.499081  0.839717  1
  B  B29  1  0.498986  0.499081  0.160283  1
