# generated using pymatgen
data_Pr7Tm13Si16
_symmetry_space_group_name_H-M   'P 1'
_cell_length_a   7.72452351
_cell_length_b   7.73145124
_cell_length_c   14.20001645
_cell_angle_alpha   90.00077392
_cell_angle_beta   90.18359321
_cell_angle_gamma   90.02869020
_symmetry_Int_Tables_number   1
_chemical_formula_structural   Pr7Tm13Si16
_chemical_formula_sum   'Pr7 Tm13 Si16'
_cell_volume   848.04575461
_cell_formula_units_Z   1
loop_
 _symmetry_equiv_pos_site_id
 _symmetry_equiv_pos_as_xyz
  1  'x, y, z'
loop_
 _atom_site_type_symbol
 _atom_site_label
 _atom_site_symmetry_multiplicity
 _atom_site_fract_x
 _atom_site_fract_y
 _atom_site_fract_z
 _atom_site_occupancy
  Pr  Pr0  1  0.645126  0.993091  0.960166  1
  Pr  Pr1  1  0.858080  0.491416  0.291413  1
  Pr  Pr2  1  0.142379  0.510147  0.789990  1
  Pr  Pr3  1  0.993223  0.645265  0.041354  1
  Pr  Pr4  1  0.007265  0.352547  0.538100  1
  Pr  Pr5  1  0.509611  0.145297  0.212324  1
  Pr  Pr6  1  0.490220  0.858166  0.708344  1
  Tm  Tm7  1  0.318701  0.319289  0.000901  1
  Tm  Tm8  1  0.681762  0.680687  0.499387  1
  Tm  Tm9  1  0.815727  0.182888  0.748750  1
  Tm  Tm10  1  0.184820  0.819099  0.250705  1
  Tm  Tm11  1  0.138780  0.993700  0.874872  1
  Tm  Tm12  1  0.861588  0.003991  0.375020  1
  Tm  Tm13  1  0.640148  0.507204  0.875483  1
  Tm  Tm14  1  0.358747  0.492095  0.376495  1
  Tm  Tm15  1  0.006252  0.862792  0.623879  1
  Tm  Tm16  1  0.995861  0.140259  0.127466  1
  Tm  Tm17  1  0.489362  0.357760  0.621649  1
  Tm  Tm18  1  0.506632  0.640414  0.124975  1
  Tm  Tm19  1  0.363237  0.001504  0.456588  1
  Si  Si20  1  0.291596  0.939359  0.062410  1
  Si  Si21  1  0.704733  0.058516  0.559661  1
  Si  Si22  1  0.787393  0.561519  0.686945  1
  Si  Si23  1  0.212124  0.436907  0.189136  1
  Si  Si24  1  0.066262  0.712297  0.437827  1
  Si  Si25  1  0.937028  0.290414  0.938768  1
  Si  Si26  1  0.436126  0.211888  0.812026  1
  Si  Si27  1  0.560074  0.790790  0.313341  1
  Si  Si28  1  0.200960  0.153359  0.690087  1
  Si  Si29  1  0.795562  0.850331  0.188386  1
  Si  Si30  1  0.706194  0.350053  0.062458  1
  Si  Si31  1  0.296862  0.655620  0.559416  1
  Si  Si32  1  0.848097  0.796815  0.810189  1
  Si  Si33  1  0.154420  0.198954  0.317235  1
  Si  Si34  1  0.644924  0.289520  0.435484  1
  Si  Si35  1  0.350118  0.706041  0.938769  1
