# generated using pymatgen
data_Ho13Lu4(ThIr4)3
_symmetry_space_group_name_H-M   'P 1'
_cell_length_a   10.95454705
_cell_length_b   10.89450152
_cell_length_c   6.30738264
_cell_angle_alpha   90.05497655
_cell_angle_beta   89.83106142
_cell_angle_gamma   89.82155734
_symmetry_Int_Tables_number   1
_chemical_formula_structural   Ho13Lu4(ThIr4)3
_chemical_formula_sum   'Ho13 Lu4 Th3 Ir12'
_cell_volume   752.74307683
_cell_formula_units_Z   1
loop_
 _symmetry_equiv_pos_site_id
 _symmetry_equiv_pos_as_xyz
  1  'x, y, z'
loop_
 _atom_site_type_symbol
 _atom_site_label
 _atom_site_symmetry_multiplicity
 _atom_site_fract_x
 _atom_site_fract_y
 _atom_site_fract_z
 _atom_site_occupancy
  Ho  Ho0  1  0.707848  0.908555  0.376585  1
  Ho  Ho1  1  0.590949  0.784227  0.879166  1
  Ho  Ho2  1  0.590108  0.212610  0.378516  1
  Ho  Ho3  1  0.417635  0.784266  0.377859  1
  Ho  Ho4  1  0.411662  0.216374  0.878401  1
  Ho  Ho5  1  0.208693  0.415142  0.621531  1
  Ho  Ho6  1  0.208272  0.587275  0.121610  1
  Ho  Ho7  1  0.790710  0.414236  0.120696  1
  Ho  Ho8  1  0.791576  0.586701  0.621128  1
  Ho  Ho9  1  0.912374  0.709320  0.120482  1
  Ho  Ho10  1  0.915580  0.292031  0.617490  1
  Ho  Ho11  1  0.083441  0.707501  0.618962  1
  Ho  Ho12  1  0.084507  0.293295  0.115295  1
  Lu  Lu13  1  0.995046  0.998489  0.502270  1
  Lu  Lu14  1  0.000050  0.999742  0.003313  1
  Lu  Lu15  1  0.500020  0.499930  0.006948  1
  Lu  Lu16  1  0.501968  0.498709  0.507240  1
  Th  Th17  1  0.290995  0.092834  0.378613  1
  Th  Th18  1  0.290226  0.906125  0.877972  1
  Th  Th19  1  0.709307  0.089656  0.879721  1
  Ir  Ir20  1  0.849175  0.154094  0.244171  1
  Ir  Ir21  1  0.845258  0.849753  0.752694  1
  Ir  Ir22  1  0.152969  0.149731  0.747133  1
  Ir  Ir23  1  0.153572  0.849578  0.250429  1
  Ir  Ir24  1  0.653521  0.347316  0.753814  1
  Ir  Ir25  1  0.653111  0.649204  0.254055  1
  Ir  Ir26  1  0.346657  0.349757  0.255823  1
  Ir  Ir27  1  0.347750  0.652056  0.754398  1
  Ir  Ir28  1  0.497825  0.000637  0.117271  1
  Ir  Ir29  1  0.500504  0.998737  0.621086  1
  Ir  Ir30  1  0.999397  0.500963  0.873221  1
  Ir  Ir31  1  0.999295  0.501156  0.372106  1
