# generated using pymatgen
data_Zr4CdFeN
_symmetry_space_group_name_H-M   'P 1'
_cell_length_a   8.86916422
_cell_length_b   8.86833245
_cell_length_c   8.86770900
_cell_angle_alpha   59.99937501
_cell_angle_beta   60.00269366
_cell_angle_gamma   60.00512128
_symmetry_Int_Tables_number   1
_chemical_formula_structural   Zr4CdFeN
_chemical_formula_sum   'Zr16 Cd4 Fe4 N4'
_cell_volume   493.22455784
_cell_formula_units_Z   4
loop_
 _symmetry_equiv_pos_site_id
 _symmetry_equiv_pos_as_xyz
  1  'x, y, z'
loop_
 _atom_site_type_symbol
 _atom_site_label
 _atom_site_symmetry_multiplicity
 _atom_site_fract_x
 _atom_site_fract_y
 _atom_site_fract_z
 _atom_site_occupancy
  Zr  Zr0  1  0.047973  0.650761  0.650616  1
  Zr  Zr1  1  0.650528  0.047833  0.650859  1
  Zr  Zr2  1  0.650462  0.650929  0.047929  1
  Zr  Zr3  1  0.650499  0.650863  0.650695  1
  Zr  Zr4  1  0.819034  0.819073  0.180924  1
  Zr  Zr5  1  0.181243  0.180620  0.819073  1
  Zr  Zr6  1  0.819012  0.180882  0.819035  1
  Zr  Zr7  1  0.181168  0.819089  0.180677  1
  Zr  Zr8  1  0.181204  0.819025  0.819012  1
  Zr  Zr9  1  0.818999  0.180922  0.181068  1
  Zr  Zr10  1  0.433107  0.433271  0.066823  1
  Zr  Zr11  1  0.066904  0.066928  0.433082  1
  Zr  Zr12  1  0.433103  0.066832  0.433259  1
  Zr  Zr13  1  0.066903  0.433089  0.066922  1
  Zr  Zr14  1  0.066943  0.433062  0.433052  1
  Zr  Zr15  1  0.433128  0.066794  0.066790  1
  Cd  Cd16  1  0.747020  0.417661  0.417686  1
  Cd  Cd17  1  0.417617  0.746970  0.417716  1
  Cd  Cd18  1  0.417624  0.417704  0.746961  1
  Cd  Cd19  1  0.417583  0.417693  0.417718  1
  Fe  Fe20  1  0.433135  0.855597  0.855649  1
  Fe  Fe21  1  0.855598  0.433278  0.855582  1
  Fe  Fe22  1  0.855583  0.855573  0.433299  1
  Fe  Fe23  1  0.855620  0.855552  0.855567  1
  N  N24  1  0.620846  0.126388  0.126393  1
  N  N25  1  0.126389  0.620862  0.126379  1
  N  N26  1  0.126392  0.126377  0.620856  1
  N  N27  1  0.126378  0.126374  0.126380  1
