# generated using pymatgen
data_LaY11MnFeI17
_symmetry_space_group_name_H-M   'P 1'
_cell_length_a   9.72783765
_cell_length_b   11.82510985
_cell_length_c   11.72815178
_cell_angle_alpha   74.13291413
_cell_angle_beta   75.43648712
_cell_angle_gamma   65.70465720
_symmetry_Int_Tables_number   1
_chemical_formula_structural   LaY11MnFeI17
_chemical_formula_sum   'La1 Y11 Mn1 Fe1 I17'
_cell_volume   1167.83533785
_cell_formula_units_Z   1
loop_
 _symmetry_equiv_pos_site_id
 _symmetry_equiv_pos_as_xyz
  1  'x, y, z'
loop_
 _atom_site_type_symbol
 _atom_site_label
 _atom_site_symmetry_multiplicity
 _atom_site_fract_x
 _atom_site_fract_y
 _atom_site_fract_z
 _atom_site_occupancy
  La  La0  1  0.155198  0.715053  0.155416  1
  Y  Y1  1  0.453281  0.487656  0.323304  1
  Y  Y2  1  0.553710  0.670210  0.008732  1
  Y  Y3  1  0.273842  0.985249  0.107148  1
  Y  Y4  1  0.856877  0.288381  0.846426  1
  Y  Y5  1  0.411841  0.242242  0.719243  1
  Y  Y6  1  0.721239  0.026371  0.888982  1
  Y  Y7  1  0.552055  0.498862  0.679338  1
  Y  Y8  1  0.456868  0.327340  0.981733  1
  Y  Y9  1  0.576811  0.756591  0.277929  1
  Y  Y10  1  0.814932  0.192897  0.591689  1
  Y  Y11  1  0.174177  0.810961  0.418526  1
  Mn  Mn12  1  0.348172  0.735657  0.208311  1
  Fe  Fe13  1  0.634294  0.262397  0.786211  1
  I  I14  1  0.054675  0.102465  0.327599  1
  I  I15  1  0.466550  0.947219  0.842461  1
  I  I16  1  0.430483  0.810265  0.533840  1
  I  I17  1  0.571404  0.186658  0.462288  1
  I  I18  1  0.834700  0.713186  0.048174  1
  I  I19  1  0.235821  0.407361  0.240737  1
  I  I20  1  0.691666  0.370626  0.103123  1
  I  I21  1  0.532693  0.047338  0.160508  1
  I  I22  1  0.743306  0.475123  0.413010  1
  I  I23  1  0.880287  0.788705  0.379932  1
  I  I24  1  0.948846  0.898273  0.676206  1
  I  I25  1  0.159779  0.289958  0.956063  1
  I  I26  1  0.319572  0.630083  0.891074  1
  I  I27  1  0.998400  0.007383  0.999333  1
  I  I28  1  0.114788  0.216576  0.631713  1
  I  I29  1  0.778518  0.581239  0.759290  1
  I  I30  1  0.255216  0.527671  0.581658  1
