# generated using pymatgen
data_In2Ag(SeO3)4
_symmetry_space_group_name_H-M   'P 1'
_cell_length_a   4.93162700
_cell_length_b   8.96105047
_cell_length_c   16.34800903
_cell_angle_alpha   71.57658518
_cell_angle_beta   90.00000000
_cell_angle_gamma   90.00000000
_symmetry_Int_Tables_number   1
_chemical_formula_structural   In2Ag(SeO3)4
_chemical_formula_sum   'In4 Ag2 Se8 O24'
_cell_volume   685.43203902
_cell_formula_units_Z   2
loop_
 _symmetry_equiv_pos_site_id
 _symmetry_equiv_pos_as_xyz
  1  'x, y, z'
loop_
 _atom_site_type_symbol
 _atom_site_label
 _atom_site_symmetry_multiplicity
 _atom_site_fract_x
 _atom_site_fract_y
 _atom_site_fract_z
 _atom_site_occupancy
  In  In0  1  0.547142  0.155991  0.782439  1
  In  In1  1  0.952858  0.155991  0.282439  1
  In  In2  1  0.452858  0.844009  0.217561  1
  In  In3  1  0.047142  0.844009  0.717561  1
  Ag  Ag4  1  0.000000  0.000000  0.000000  1
  Ag  Ag5  1  0.500000  0.000000  0.500000  1
  Se  Se6  1  0.575774  0.795282  0.882319  1
  Se  Se7  1  0.924226  0.795282  0.382319  1
  Se  Se8  1  0.424226  0.204718  0.117681  1
  Se  Se9  1  0.075774  0.204718  0.617681  1
  Se  Se10  1  0.023094  0.345372  0.864644  1
  Se  Se11  1  0.476906  0.345372  0.364644  1
  Se  Se12  1  0.976906  0.654628  0.135356  1
  Se  Se13  1  0.523094  0.654628  0.635356  1
  O  O14  1  0.770261  0.353785  0.789538  1
  O  O15  1  0.729739  0.353785  0.289538  1
  O  O16  1  0.229739  0.646215  0.210462  1
  O  O17  1  0.270261  0.646215  0.710462  1
  O  O18  1  0.831656  0.723309  0.835269  1
  O  O19  1  0.668344  0.723309  0.335269  1
  O  O20  1  0.168344  0.276691  0.164731  1
  O  O21  1  0.331656  0.276691  0.664731  1
  O  O22  1  0.219297  0.186331  0.861390  1
  O  O23  1  0.280703  0.186331  0.361390  1
  O  O24  1  0.780703  0.813669  0.138610  1
  O  O25  1  0.719297  0.813669  0.638610  1
  O  O26  1  0.706403  0.966014  0.897470  1
  O  O27  1  0.793597  0.966014  0.397470  1
  O  O28  1  0.293597  0.033986  0.102530  1
  O  O29  1  0.206403  0.033986  0.602530  1
  O  O30  1  0.377549  0.911067  0.794966  1
  O  O31  1  0.122451  0.911067  0.294966  1
  O  O32  1  0.622451  0.088933  0.205034  1
  O  O33  1  0.877549  0.088933  0.705034  1
  O  O34  1  0.877080  0.246788  0.963272  1
  O  O35  1  0.622920  0.246788  0.463272  1
  O  O36  1  0.122920  0.753212  0.036728  1
  O  O37  1  0.377080  0.753212  0.536728  1
