# generated using pymatgen
data_Ce3Y(Ta3Ge4)2
_symmetry_space_group_name_H-M   'P 1'
_cell_length_a   7.08801300
_cell_length_b   7.21079368
_cell_length_c   13.63925163
_cell_angle_alpha   90.07530151
_cell_angle_beta   90.00000000
_cell_angle_gamma   90.00000000
_symmetry_Int_Tables_number   1
_chemical_formula_structural   Ce3Y(Ta3Ge4)2
_chemical_formula_sum   'Ce6 Y2 Ta12 Ge16'
_cell_volume   697.10426820
_cell_formula_units_Z   2
loop_
 _symmetry_equiv_pos_site_id
 _symmetry_equiv_pos_as_xyz
  1  'x, y, z'
loop_
 _atom_site_type_symbol
 _atom_site_label
 _atom_site_symmetry_multiplicity
 _atom_site_fract_x
 _atom_site_fract_y
 _atom_site_fract_z
 _atom_site_occupancy
  Ce  Ce0  1  0.497146  0.669720  0.593144  1
  Ce  Ce1  1  0.997146  0.830280  0.906856  1
  Ce  Ce2  1  0.504184  0.326938  0.093517  1
  Ce  Ce3  1  0.004184  0.173062  0.406483  1
  Ce  Ce4  1  0.504646  0.329042  0.408345  1
  Ce  Ce5  1  0.004646  0.170958  0.091655  1
  Y  Y6  1  0.494119  0.672999  0.904606  1
  Y  Y7  1  0.994119  0.827001  0.595394  1
  Ta  Ta8  1  0.655899  0.168626  0.626748  1
  Ta  Ta9  1  0.155899  0.331374  0.873252  1
  Ta  Ta10  1  0.339988  0.833230  0.126507  1
  Ta  Ta11  1  0.839988  0.666770  0.373493  1
  Ta  Ta12  1  0.341805  0.832551  0.373629  1
  Ta  Ta13  1  0.841805  0.667449  0.126371  1
  Ta  Ta14  1  0.662508  0.166678  0.874068  1
  Ta  Ta15  1  0.162508  0.333322  0.625932  1
  Ta  Ta16  1  0.834454  0.488439  0.751035  1
  Ta  Ta17  1  0.334454  0.011561  0.748965  1
  Ta  Ta18  1  0.165450  0.510232  0.249465  1
  Ta  Ta19  1  0.665450  0.989768  0.250535  1
  Ge  Ge20  1  0.674406  0.956253  0.457260  1
  Ge  Ge21  1  0.174406  0.543747  0.042740  1
  Ge  Ge22  1  0.330482  0.043141  0.954611  1
  Ge  Ge23  1  0.830482  0.456859  0.545389  1
  Ge  Ge24  1  0.322872  0.040674  0.544482  1
  Ge  Ge25  1  0.822872  0.459326  0.955518  1
  Ge  Ge26  1  0.671375  0.954021  0.043316  1
  Ge  Ge27  1  0.171375  0.545979  0.456684  1
  Ge  Ge28  1  0.460506  0.375410  0.751494  1
  Ge  Ge29  1  0.960506  0.124590  0.748506  1
  Ge  Ge30  1  0.539758  0.624687  0.249678  1
  Ge  Ge31  1  0.039758  0.875313  0.250322  1
  Ge  Ge32  1  0.692720  0.862033  0.750439  1
  Ge  Ge33  1  0.192720  0.637967  0.749561  1
  Ge  Ge34  1  0.307681  0.136670  0.250201  1
  Ge  Ge35  1  0.807681  0.363330  0.249799  1
