# generated using pymatgen
data_Er2Co12GeP6
_symmetry_space_group_name_H-M   'P 1'
_cell_length_a   9.05378000
_cell_length_b   9.05377995
_cell_length_c   3.56967600
_cell_angle_alpha   90.00000000
_cell_angle_beta   90.00000000
_cell_angle_gamma   119.99999287
_symmetry_Int_Tables_number   1
_chemical_formula_structural   Er2Co12GeP6
_chemical_formula_sum   'Er2 Co12 Ge1 P6'
_cell_volume   253.40742414
_cell_formula_units_Z   1
loop_
 _symmetry_equiv_pos_site_id
 _symmetry_equiv_pos_as_xyz
  1  'x, y, z'
loop_
 _atom_site_type_symbol
 _atom_site_label
 _atom_site_symmetry_multiplicity
 _atom_site_fract_x
 _atom_site_fract_y
 _atom_site_fract_z
 _atom_site_occupancy
  Er  Er0  1  0.666667  0.333333  0.500000  1
  Er  Er1  1  0.333333  0.666667  0.000000  1
  Co  Co2  1  0.125983  0.838127  0.000000  1
  Co  Co3  1  0.386776  0.438699  0.500000  1
  Co  Co4  1  0.712144  0.874017  0.000000  1
  Co  Co5  1  0.561301  0.948077  0.500000  1
  Co  Co6  1  0.246839  0.109148  0.500000  1
  Co  Co7  1  0.862309  0.753161  0.500000  1
  Co  Co8  1  0.890852  0.137691  0.500000  1
  Co  Co9  1  0.938415  0.375123  0.000000  1
  Co  Co10  1  0.624877  0.563291  0.000000  1
  Co  Co11  1  0.436709  0.061585  0.000000  1
  Co  Co12  1  0.051923  0.613224  0.500000  1
  Co  Co13  1  0.161873  0.287856  0.000000  1
  Ge  Ge14  1  0.000000  0.000000  0.000000  1
  P  P15  1  0.596459  0.708745  0.500000  1
  P  P16  1  0.706958  0.113490  0.000000  1
  P  P17  1  0.886510  0.593468  0.000000  1
  P  P18  1  0.406532  0.293042  0.000000  1
  P  P19  1  0.291255  0.887714  0.500000  1
  P  P20  1  0.112286  0.403541  0.500000  1
