# generated using pymatgen
data_TbSm6FeI12
_symmetry_space_group_name_H-M   'P 1'
_cell_length_a   9.91647069
_cell_length_b   9.85784869
_cell_length_c   9.93668973
_cell_angle_alpha   106.82645865
_cell_angle_beta   106.86000964
_cell_angle_gamma   106.81942097
_symmetry_Int_Tables_number   1
_chemical_formula_structural   TbSm6FeI12
_chemical_formula_sum   'Tb1 Sm6 Fe1 I12'
_cell_volume   812.56649277
_cell_formula_units_Z   1
loop_
 _symmetry_equiv_pos_site_id
 _symmetry_equiv_pos_as_xyz
  1  'x, y, z'
loop_
 _atom_site_type_symbol
 _atom_site_label
 _atom_site_symmetry_multiplicity
 _atom_site_fract_x
 _atom_site_fract_y
 _atom_site_fract_z
 _atom_site_occupancy
  Tb  Tb0  1  0.708661  0.978761  0.906677  1
  Sm  Sm1  1  0.499388  0.500829  0.500049  1
  Sm  Sm2  1  0.087963  0.280652  0.020198  1
  Sm  Sm3  1  0.021319  0.093241  0.295044  1
  Sm  Sm4  1  0.297349  0.021180  0.094825  1
  Sm  Sm5  1  0.910148  0.719003  0.979235  1
  Sm  Sm6  1  0.979243  0.906554  0.704901  1
  Fe  Fe7  1  0.000816  0.999546  0.000087  1
  I  I8  1  0.460099  0.385257  0.159386  1
  I  I9  1  0.158019  0.461257  0.381557  1
  I  I10  1  0.384249  0.158552  0.462359  1
  I  I11  1  0.539797  0.619941  0.841229  1
  I  I12  1  0.840349  0.538453  0.618267  1
  I  I13  1  0.616517  0.844475  0.542491  1
  I  I14  1  0.771039  0.314184  0.926625  1
  I  I15  1  0.925789  0.771346  0.318269  1
  I  I16  1  0.323358  0.928074  0.774142  1
  I  I17  1  0.224091  0.679076  0.071445  1
  I  I18  1  0.073302  0.228468  0.681590  1
  I  I19  1  0.678505  0.071151  0.221625  1
