# generated using pymatgen
data_Nd10Mg(GaRu2)3
_symmetry_space_group_name_H-M   'P 1'
_cell_length_a   8.61976364
_cell_length_b   8.61976245
_cell_length_c   8.53909100
_cell_angle_alpha   109.28175622
_cell_angle_beta   109.28175344
_cell_angle_gamma   109.66002430
_symmetry_Int_Tables_number   1
_chemical_formula_structural   Nd10Mg(GaRu2)3
_chemical_formula_sum   'Nd10 Mg1 Ga3 Ru6'
_cell_volume   489.54265528
_cell_formula_units_Z   1
loop_
 _symmetry_equiv_pos_site_id
 _symmetry_equiv_pos_as_xyz
  1  'x, y, z'
loop_
 _atom_site_type_symbol
 _atom_site_label
 _atom_site_symmetry_multiplicity
 _atom_site_fract_x
 _atom_site_fract_y
 _atom_site_fract_z
 _atom_site_occupancy
  Nd  Nd0  1  0.244684  0.675239  0.429180  1
  Nd  Nd1  1  0.750732  0.810042  0.064641  1
  Nd  Nd2  1  0.430556  0.255316  0.684496  1
  Nd  Nd3  1  0.689958  0.440692  0.254599  1
  Nd  Nd4  1  0.059309  0.749268  0.813908  1
  Nd  Nd5  1  0.824761  0.069445  0.753940  1
  Nd  Nd6  1  0.219809  0.215416  0.216890  1
  Nd  Nd7  1  0.500001  0.000000  0.292509  1
  Nd  Nd8  1  0.284584  0.504394  0.001475  1
  Nd  Nd9  1  0.995607  0.280191  0.497083  1
  Mg  Mg10  1  0.500001  0.000000  0.908611  1
  Ga  Ga11  1  0.588701  0.590770  0.588718  1
  Ga  Ga12  1  0.909230  0.497932  0.997949  1
  Ga  Ga13  1  0.002069  0.911299  0.500019  1
  Ru  Ru14  1  0.240331  0.128018  0.868604  1
  Ru  Ru15  1  0.747012  0.380271  0.628600  1
  Ru  Ru16  1  0.887689  0.259671  0.128275  1
  Ru  Ru17  1  0.119728  0.866740  0.248330  1
  Ru  Ru18  1  0.633259  0.752988  0.381587  1
  Ru  Ru19  1  0.371981  0.612310  0.740588  1
