# generated using pymatgen
data_Ho5Er4Tm3Os4
_symmetry_space_group_name_H-M   'P 1'
_cell_length_a   7.37754633
_cell_length_b   8.95186926
_cell_length_c   6.27040440
_cell_angle_alpha   89.97204766
_cell_angle_beta   89.95847153
_cell_angle_gamma   89.98605784
_symmetry_Int_Tables_number   1
_chemical_formula_structural   Ho5Er4Tm3Os4
_chemical_formula_sum   'Ho5 Er4 Tm3 Os4'
_cell_volume   414.11508266
_cell_formula_units_Z   1
loop_
 _symmetry_equiv_pos_site_id
 _symmetry_equiv_pos_as_xyz
  1  'x, y, z'
loop_
 _atom_site_type_symbol
 _atom_site_label
 _atom_site_symmetry_multiplicity
 _atom_site_fract_x
 _atom_site_fract_y
 _atom_site_fract_z
 _atom_site_occupancy
  Ho  Ho0  1  0.039993  0.250513  0.630276  1
  Ho  Ho1  1  0.959957  0.749479  0.369873  1
  Ho  Ho2  1  0.460062  0.749428  0.130120  1
  Ho  Ho3  1  0.540072  0.250408  0.869717  1
  Ho  Ho4  1  0.174868  0.062870  0.166977  1
  Er  Er5  1  0.825086  0.937077  0.832840  1
  Er  Er6  1  0.325427  0.936929  0.666864  1
  Er  Er7  1  0.825366  0.562575  0.833095  1
  Er  Er8  1  0.674662  0.062947  0.333228  1
  Tm  Tm9  1  0.174488  0.437532  0.167002  1
  Tm  Tm10  1  0.674481  0.437186  0.333224  1
  Tm  Tm11  1  0.325542  0.562700  0.666744  1
  Os  Os12  1  0.383011  0.250783  0.460054  1
  Os  Os13  1  0.617058  0.749807  0.540136  1
  Os  Os14  1  0.117345  0.749245  0.959427  1
  Os  Os15  1  0.882583  0.250521  0.040422  1
