# generated using pymatgen
data_H9F5
_symmetry_space_group_name_H-M   'P 1'
_cell_length_a   3.92113241
_cell_length_b   5.43179671
_cell_length_c   7.32271872
_cell_angle_alpha   102.91928353
_cell_angle_beta   89.50749450
_cell_angle_gamma   108.65874914
_symmetry_Int_Tables_number   1
_chemical_formula_structural   H9F5
_chemical_formula_sum   'H9 F5'
_cell_volume   143.69224434
_cell_formula_units_Z   1
loop_
 _symmetry_equiv_pos_site_id
 _symmetry_equiv_pos_as_xyz
  1  'x, y, z'
loop_
 _atom_site_type_symbol
 _atom_site_label
 _atom_site_symmetry_multiplicity
 _atom_site_fract_x
 _atom_site_fract_y
 _atom_site_fract_z
 _atom_site_occupancy
  H  H0  1  0.193263  0.843823  0.486751  1
  H  H1  1  0.877849  0.453614  0.381402  1
  H  H2  1  0.689935  0.141552  0.937500  1
  H  H3  1  0.396372  0.700973  0.110671  1
  H  H4  1  0.230032  0.740817  0.121902  1
  H  H5  1  0.173605  0.103486  0.922709  1
  H  H6  1  0.673784  0.095622  0.424903  1
  H  H7  1  0.213305  0.477973  0.718128  1
  H  H8  1  0.067016  0.533294  0.753946  1
  F  F9  1  0.872853  0.643062  0.410027  1
  F  F10  1  0.910414  0.994683  0.884065  1
  F  F11  1  0.522113  0.250583  0.978296  1
  F  F12  1  0.416180  0.995442  0.544545  1
  F  F13  1  0.866531  0.189525  0.348477  1
