# generated using pymatgen
data_GeBi3Te10
_symmetry_space_group_name_H-M   'P 1'
_cell_length_a   23.74640576
_cell_length_b   23.74640468
_cell_length_c   3.12325200
_cell_angle_alpha   90.00000000
_cell_angle_beta   90.00000000
_cell_angle_gamma   166.24752284
_symmetry_Int_Tables_number   1
_chemical_formula_structural   GeBi3Te10
_chemical_formula_sum   'Ge1 Bi3 Te10'
_cell_volume   418.68066714
_cell_formula_units_Z   1
loop_
 _symmetry_equiv_pos_site_id
 _symmetry_equiv_pos_as_xyz
  1  'x, y, z'
loop_
 _atom_site_type_symbol
 _atom_site_label
 _atom_site_symmetry_multiplicity
 _atom_site_fract_x
 _atom_site_fract_y
 _atom_site_fract_z
 _atom_site_occupancy
  Ge  Ge0  1  0.111485  0.888515  0.750000  1
  Bi  Bi1  1  0.678313  0.321687  0.250000  1
  Bi  Bi2  1  0.319084  0.680916  0.750000  1
  Bi  Bi3  1  0.887711  0.112289  0.250000  1
  Te  Te4  1  0.612687  0.387313  0.250000  1
  Te  Te5  1  0.386670  0.613330  0.750000  1
  Te  Te6  1  0.820762  0.179238  0.250000  1
  Te  Te7  1  0.175596  0.824404  0.750000  1
  Te  Te8  1  0.956874  0.043126  0.750000  1
  Te  Te9  1  0.048691  0.951309  0.250000  1
  Te  Te10  1  0.542526  0.457474  0.750000  1
  Te  Te11  1  0.461207  0.538793  0.250000  1
  Te  Te12  1  0.746761  0.253239  0.750000  1
  Te  Te13  1  0.251632  0.748368  0.250000  1
