# generated using pymatgen
data_Hf18Re3NiMo5Ir
_symmetry_space_group_name_H-M   'P 1'
_cell_length_a   8.69868400
_cell_length_b   8.69770000
_cell_length_c   8.50825200
_cell_angle_alpha   90.00000000
_cell_angle_beta   90.00000000
_cell_angle_gamma   120.00248540
_symmetry_Int_Tables_number   1
_chemical_formula_structural   Hf18Re3NiMo5Ir
_chemical_formula_sum   'Hf18 Re3 Ni1 Mo5 Ir1'
_cell_volume   557.46560509
_cell_formula_units_Z   1
loop_
 _symmetry_equiv_pos_site_id
 _symmetry_equiv_pos_as_xyz
  1  'x, y, z'
loop_
 _atom_site_type_symbol
 _atom_site_label
 _atom_site_symmetry_multiplicity
 _atom_site_fract_x
 _atom_site_fract_y
 _atom_site_fract_z
 _atom_site_occupancy
  Hf  Hf0  1  0.196370  0.803411  0.444291  1
  Hf  Hf1  1  0.197095  0.393735  0.445481  1
  Hf  Hf2  1  0.606738  0.803005  0.446188  1
  Hf  Hf3  1  0.799992  0.199364  0.558061  1
  Hf  Hf4  1  0.800584  0.601515  0.557445  1
  Hf  Hf5  1  0.399380  0.199591  0.556335  1
  Hf  Hf6  1  0.799992  0.199364  0.941939  1
  Hf  Hf7  1  0.800584  0.601515  0.942555  1
  Hf  Hf8  1  0.399380  0.199591  0.943665  1
  Hf  Hf9  1  0.196370  0.803411  0.055709  1
  Hf  Hf10  1  0.197095  0.393735  0.054519  1
  Hf  Hf11  1  0.606738  0.803005  0.053812  1
  Hf  Hf12  1  0.542870  0.457810  0.250000  1
  Hf  Hf13  1  0.541564  0.085406  0.250000  1
  Hf  Hf14  1  0.914343  0.458632  0.250000  1
  Hf  Hf15  1  0.459700  0.543049  0.750000  1
  Hf  Hf16  1  0.459291  0.916557  0.750000  1
  Hf  Hf17  1  0.083339  0.541984  0.750000  1
  Re  Re18  1  0.888185  0.775303  0.250000  1
  Re  Re19  1  0.225278  0.111848  0.250000  1
  Re  Re20  1  0.775666  0.887395  0.750000  1
  Ni  Ni21  1  0.666502  0.333568  0.750000  1
  Mo  Mo22  1  0.888903  0.110753  0.250000  1
  Mo  Mo23  1  0.109869  0.888500  0.750000  1
  Mo  Mo24  1  0.110441  0.221994  0.750000  1
  Mo  Mo25  1  0.999794  0.999528  0.499406  1
  Mo  Mo26  1  0.999794  0.999528  0.000594  1
  Ir  Ir27  1  0.334144  0.666902  0.250000  1
