# generated using pymatgen
data_ErNb(NiSn)2
_symmetry_space_group_name_H-M   'P 1'
_cell_length_a   7.60882252
_cell_length_b   7.60882259
_cell_length_c   7.60882332
_cell_angle_alpha   33.18963950
_cell_angle_beta   33.18963839
_cell_angle_gamma   33.18964227
_symmetry_Int_Tables_number   1
_chemical_formula_structural   ErNb(NiSn)2
_chemical_formula_sum   'Er1 Nb1 Ni2 Sn2'
_cell_volume   117.50668218
_cell_formula_units_Z   1
loop_
 _symmetry_equiv_pos_site_id
 _symmetry_equiv_pos_as_xyz
  1  'x, y, z'
loop_
 _atom_site_type_symbol
 _atom_site_label
 _atom_site_symmetry_multiplicity
 _atom_site_fract_x
 _atom_site_fract_y
 _atom_site_fract_z
 _atom_site_occupancy
  Er  Er0  1  0.999740  0.999740  0.999740  1
  Nb  Nb1  1  0.501748  0.501748  0.501748  1
  Ni  Ni2  1  0.129837  0.129837  0.129837  1
  Ni  Ni3  1  0.618095  0.618095  0.618095  1
  Sn  Sn4  1  0.753618  0.753618  0.753618  1
  Sn  Sn5  1  0.246960  0.246960  0.246960  1
