# generated using pymatgen
data_Th4Zn3Si4Pd
_symmetry_space_group_name_H-M   'P 1'
_cell_length_a   4.19183700
_cell_length_b   4.19183733
_cell_length_c   16.83482200
_cell_angle_alpha   90.00000000
_cell_angle_beta   90.00000000
_cell_angle_gamma   119.99998951
_symmetry_Int_Tables_number   1
_chemical_formula_structural   Th4Zn3Si4Pd
_chemical_formula_sum   'Th4 Zn3 Si4 Pd1'
_cell_volume   256.18164737
_cell_formula_units_Z   1
loop_
 _symmetry_equiv_pos_site_id
 _symmetry_equiv_pos_as_xyz
  1  'x, y, z'
loop_
 _atom_site_type_symbol
 _atom_site_label
 _atom_site_symmetry_multiplicity
 _atom_site_fract_x
 _atom_site_fract_y
 _atom_site_fract_z
 _atom_site_occupancy
  Th  Th0  1  0.333333  0.666667  0.121279  1
  Th  Th1  1  0.333333  0.666667  0.625207  1
  Th  Th2  1  0.333333  0.666667  0.374793  1
  Th  Th3  1  0.333333  0.666667  0.878721  1
  Zn  Zn4  1  0.666667  0.333333  0.500000  1
  Zn  Zn5  1  0.000000  0.000000  0.248305  1
  Zn  Zn6  1  0.000000  0.000000  0.751695  1
  Si  Si7  1  0.666667  0.333333  0.249332  1
  Si  Si8  1  0.666667  0.333333  0.750668  1
  Si  Si9  1  0.000000  0.000000  0.500000  1
  Si  Si10  1  0.666667  0.333333  0.000000  1
  Pd  Pd11  1  0.000000  0.000000  0.000000  1
