# generated using pymatgen
data_HfNb4Co19P12
_symmetry_space_group_name_H-M   'P 1'
_cell_length_a   11.72507900
_cell_length_b   11.72507901
_cell_length_c   3.57451700
_cell_angle_alpha   90.00000000
_cell_angle_beta   90.00000000
_cell_angle_gamma   120.00000279
_symmetry_Int_Tables_number   1
_chemical_formula_structural   HfNb4Co19P12
_chemical_formula_sum   'Hf1 Nb4 Co19 P12'
_cell_volume   425.57836511
_cell_formula_units_Z   1
loop_
 _symmetry_equiv_pos_site_id
 _symmetry_equiv_pos_as_xyz
  1  'x, y, z'
loop_
 _atom_site_type_symbol
 _atom_site_label
 _atom_site_symmetry_multiplicity
 _atom_site_fract_x
 _atom_site_fract_y
 _atom_site_fract_z
 _atom_site_occupancy
  Hf  Hf0  1  0.333333  0.666667  0.500000  1
  Nb  Nb1  1  0.666667  0.333333  0.500000  1
  Nb  Nb2  1  0.818959  0.999576  0.000000  1
  Nb  Nb3  1  0.000424  0.819384  0.000000  1
  Nb  Nb4  1  0.180616  0.181041  0.000000  1
  Co  Co5  1  0.626315  0.804153  0.500000  1
  Co  Co6  1  0.195847  0.822162  0.500000  1
  Co  Co7  1  0.177838  0.373685  0.500000  1
  Co  Co8  1  0.378090  0.181346  0.500000  1
  Co  Co9  1  0.803256  0.621910  0.500000  1
  Co  Co10  1  0.818654  0.196744  0.500000  1
  Co  Co11  1  0.282411  0.001331  0.000000  1
  Co  Co12  1  0.998669  0.281079  0.000000  1
  Co  Co13  1  0.718921  0.717589  0.000000  1
  Co  Co14  1  0.451989  0.996478  0.500000  1
  Co  Co15  1  0.003522  0.455511  0.500000  1
  Co  Co16  1  0.544489  0.548011  0.500000  1
  Co  Co17  1  0.517675  0.870939  0.000000  1
  Co  Co18  1  0.129061  0.646736  0.000000  1
  Co  Co19  1  0.353264  0.482325  0.000000  1
  Co  Co20  1  0.482781  0.355683  0.000000  1
  Co  Co21  1  0.872901  0.517219  0.000000  1
  Co  Co22  1  0.644317  0.127099  0.000000  1
  Co  Co23  1  0.000000  0.000000  0.500000  1
  P  P24  1  0.177396  0.001847  0.500000  1
  P  P25  1  0.998153  0.175549  0.500000  1
  P  P26  1  0.824451  0.822604  0.500000  1
  P  P27  1  0.517958  0.681375  0.000000  1
  P  P28  1  0.318625  0.836583  0.000000  1
  P  P29  1  0.163417  0.482042  0.000000  1
  P  P30  1  0.484469  0.166518  0.000000  1
  P  P31  1  0.682050  0.515531  0.000000  1
  P  P32  1  0.833482  0.317950  0.000000  1
  P  P33  1  0.641208  0.999450  0.500000  1
  P  P34  1  0.000550  0.641757  0.500000  1
  P  P35  1  0.358243  0.358792  0.500000  1
