# generated using pymatgen
data_Sr3Pd2Pt7
_symmetry_space_group_name_H-M   'P 1'
_cell_length_a   9.50573043
_cell_length_b   9.50573021
_cell_length_c   9.50573017
_cell_angle_alpha   33.82937802
_cell_angle_beta   33.82937780
_cell_angle_gamma   33.82937997
_symmetry_Int_Tables_number   1
_chemical_formula_structural   Sr3Pd2Pt7
_chemical_formula_sum   'Sr3 Pd2 Pt7'
_cell_volume   237.23054923
_cell_formula_units_Z   1
loop_
 _symmetry_equiv_pos_site_id
 _symmetry_equiv_pos_as_xyz
  1  'x, y, z'
loop_
 _atom_site_type_symbol
 _atom_site_label
 _atom_site_symmetry_multiplicity
 _atom_site_fract_x
 _atom_site_fract_y
 _atom_site_fract_z
 _atom_site_occupancy
  Sr  Sr0  1  0.358989  0.358989  0.358989  1
  Sr  Sr1  1  0.500000  0.500000  0.500000  1
  Sr  Sr2  1  0.641011  0.641011  0.641011  1
  Pd  Pd3  1  0.167967  0.167967  0.167967  1
  Pd  Pd4  1  0.832033  0.832033  0.832033  1
  Pt  Pt5  1  0.000000  0.000000  0.000000  1
  Pt  Pt6  1  0.582114  0.084575  0.084577  1
  Pt  Pt7  1  0.084575  0.582114  0.084577  1
  Pt  Pt8  1  0.915424  0.915424  0.417886  1
  Pt  Pt9  1  0.084576  0.084576  0.582114  1
  Pt  Pt10  1  0.915425  0.417886  0.915423  1
  Pt  Pt11  1  0.417886  0.915425  0.915423  1
