# generated using pymatgen
data_KHo2TmS5
_symmetry_space_group_name_H-M   'P 1'
_cell_length_a   3.92119600
_cell_length_b   11.81236100
_cell_length_c   21.03826600
_cell_angle_alpha   90.00000000
_cell_angle_beta   90.00000000
_cell_angle_gamma   90.00000000
_symmetry_Int_Tables_number   1
_chemical_formula_structural   KHo2TmS5
_chemical_formula_sum   'K4 Ho8 Tm4 S20'
_cell_volume   974.46266366
_cell_formula_units_Z   4
loop_
 _symmetry_equiv_pos_site_id
 _symmetry_equiv_pos_as_xyz
  1  'x, y, z'
loop_
 _atom_site_type_symbol
 _atom_site_label
 _atom_site_symmetry_multiplicity
 _atom_site_fract_x
 _atom_site_fract_y
 _atom_site_fract_z
 _atom_site_occupancy
  K  K0  1  0.249953  0.833705  0.109917  1
  K  K1  1  0.750047  0.166295  0.890083  1
  K  K2  1  0.750047  0.333705  0.390083  1
  K  K3  1  0.249953  0.666295  0.609917  1
  Ho  Ho4  1  0.749995  0.813443  0.833056  1
  Ho  Ho5  1  0.250005  0.186557  0.166944  1
  Ho  Ho6  1  0.250005  0.313443  0.666944  1
  Ho  Ho7  1  0.749995  0.686557  0.333056  1
  Ho  Ho8  1  0.249985  0.972236  0.699895  1
  Ho  Ho9  1  0.750015  0.027764  0.300105  1
  Ho  Ho10  1  0.750015  0.472236  0.800105  1
  Ho  Ho11  1  0.249985  0.527764  0.199895  1
  Tm  Tm12  1  0.749998  0.385905  0.049495  1
  Tm  Tm13  1  0.250002  0.614095  0.950505  1
  Tm  Tm14  1  0.250002  0.885905  0.450505  1
  Tm  Tm15  1  0.749998  0.114095  0.549495  1
  S  S16  1  0.249998  0.955418  0.570452  1
  S  S17  1  0.750002  0.044582  0.429548  1
  S  S18  1  0.750002  0.455418  0.929548  1
  S  S19  1  0.249998  0.544582  0.070452  1
  S  S20  1  0.750001  0.767078  0.959246  1
  S  S21  1  0.249999  0.232922  0.040754  1
  S  S22  1  0.249999  0.267078  0.540754  1
  S  S23  1  0.750001  0.732922  0.459246  1
  S  S24  1  0.249997  0.967605  0.829801  1
  S  S25  1  0.750003  0.032395  0.170199  1
  S  S26  1  0.750003  0.467605  0.670199  1
  S  S27  1  0.249997  0.532395  0.329801  1
  S  S28  1  0.749997  0.140744  0.679841  1
  S  S29  1  0.250003  0.859256  0.320159  1
  S  S30  1  0.250003  0.640744  0.820159  1
  S  S31  1  0.749997  0.359256  0.179841  1
  S  S32  1  0.749982  0.679499  0.203446  1
  S  S33  1  0.250018  0.320501  0.796554  1
  S  S34  1  0.250018  0.179499  0.296554  1
  S  S35  1  0.749982  0.820501  0.703446  1
