# generated using pymatgen
data_PrU5(Cu2S7)2
_symmetry_space_group_name_H-M   'P 1'
_cell_length_a   9.75503314
_cell_length_b   9.75267741
_cell_length_c   5.73596116
_cell_angle_alpha   89.62200654
_cell_angle_beta   89.94192530
_cell_angle_gamma   120.41779799
_symmetry_Int_Tables_number   1
_chemical_formula_structural   PrU5(Cu2S7)2
_chemical_formula_sum   'Pr1 U5 Cu4 S14'
_cell_volume   470.57693202
_cell_formula_units_Z   1
loop_
 _symmetry_equiv_pos_site_id
 _symmetry_equiv_pos_as_xyz
  1  'x, y, z'
loop_
 _atom_site_type_symbol
 _atom_site_label
 _atom_site_symmetry_multiplicity
 _atom_site_fract_x
 _atom_site_fract_y
 _atom_site_fract_z
 _atom_site_occupancy
  Pr  Pr0  1  0.225179  0.847049  0.034585  1
  U  U1  1  0.148454  0.379300  0.027801  1
  U  U2  1  0.848358  0.620164  0.530804  1
  U  U3  1  0.619200  0.772064  0.026406  1
  U  U4  1  0.771537  0.151303  0.533940  1
  U  U5  1  0.379536  0.231361  0.531231  1
  Cu  Cu6  1  0.668200  0.335616  0.149005  1
  Cu  Cu7  1  0.334283  0.665142  0.648541  1
  Cu  Cu8  1  0.000056  0.001011  0.500229  1
  Cu  Cu9  1  0.998819  0.000153  0.001077  1
  S  S10  1  0.665886  0.333024  0.751480  1
  S  S11  1  0.569638  0.486775  0.284717  1
  S  S12  1  0.151345  0.894083  0.522862  1
  S  S13  1  0.517633  0.086415  0.290314  1
  S  S14  1  0.433512  0.514119  0.784232  1
  S  S15  1  0.496172  0.917874  0.775867  1
  S  S16  1  0.846832  0.108101  0.016179  1
  S  S17  1  0.076210  0.555855  0.772527  1
  S  S18  1  0.739913  0.846384  0.510572  1
  S  S19  1  0.339648  0.657713  0.253528  1
  S  S20  1  0.919511  0.434573  0.281188  1
  S  S21  1  0.259782  0.163716  0.016614  1
  S  S22  1  0.108515  0.261455  0.512291  1
  S  S23  1  0.881782  0.736748  0.010411  1
