# generated using pymatgen
data_Tb3YbNi13C4
_symmetry_space_group_name_H-M   'P 1'
_cell_length_a   8.35543832
_cell_length_b   8.35543851
_cell_length_c   3.85883800
_cell_angle_alpha   90.00000000
_cell_angle_beta   90.00000000
_cell_angle_gamma   91.14451112
_symmetry_Int_Tables_number   1
_chemical_formula_structural   Tb3YbNi13C4
_chemical_formula_sum   'Tb3 Yb1 Ni13 C4'
_cell_volume   269.34466611
_cell_formula_units_Z   1
loop_
 _symmetry_equiv_pos_site_id
 _symmetry_equiv_pos_as_xyz
  1  'x, y, z'
loop_
 _atom_site_type_symbol
 _atom_site_label
 _atom_site_symmetry_multiplicity
 _atom_site_fract_x
 _atom_site_fract_y
 _atom_site_fract_z
 _atom_site_occupancy
  Tb  Tb0  1  0.812641  0.187359  0.500000  1
  Tb  Tb1  1  0.345698  0.348622  0.500000  1
  Tb  Tb2  1  0.651378  0.654302  0.500000  1
  Yb  Yb3  1  0.191854  0.808146  0.500000  1
  Ni  Ni4  1  0.000558  0.999442  0.000000  1
  Ni  Ni5  1  0.215656  0.571060  0.000000  1
  Ni  Ni6  1  0.784403  0.431757  0.000000  1
  Ni  Ni7  1  0.428940  0.784344  0.000000  1
  Ni  Ni8  1  0.568243  0.215597  0.000000  1
  Ni  Ni9  1  0.998453  0.501606  0.500000  1
  Ni  Ni10  1  0.498394  0.001547  0.500000  1
  Ni  Ni11  1  0.073045  0.290706  0.000000  1
  Ni  Ni12  1  0.926065  0.710354  0.000000  1
  Ni  Ni13  1  0.709294  0.926955  0.000000  1
  Ni  Ni14  1  0.289646  0.073935  0.000000  1
  Ni  Ni15  1  0.124335  0.116542  0.500000  1
  Ni  Ni16  1  0.883458  0.875665  0.500000  1
  C  C17  1  0.000766  0.501759  0.000000  1
  C  C18  1  0.498241  0.999234  0.000000  1
  C  C19  1  0.442486  0.557514  0.000000  1
  C  C20  1  0.556447  0.443553  0.000000  1
