# generated using pymatgen
data_Yb8HoPd6
_symmetry_space_group_name_H-M   'P 1'
_cell_length_a   7.56454333
_cell_length_b   7.56454428
_cell_length_c   7.56454300
_cell_angle_alpha   70.78803591
_cell_angle_beta   70.78802482
_cell_angle_gamma   70.78803387
_symmetry_Int_Tables_number   1
_chemical_formula_structural   Yb8HoPd6
_chemical_formula_sum   'Yb8 Ho1 Pd6'
_cell_volume   373.97135445
_cell_formula_units_Z   1
loop_
 _symmetry_equiv_pos_site_id
 _symmetry_equiv_pos_as_xyz
  1  'x, y, z'
loop_
 _atom_site_type_symbol
 _atom_site_label
 _atom_site_symmetry_multiplicity
 _atom_site_fract_x
 _atom_site_fract_y
 _atom_site_fract_z
 _atom_site_occupancy
  Yb  Yb0  1  0.796961  0.796961  0.796961  1
  Yb  Yb1  1  0.203039  0.203039  0.203039  1
  Yb  Yb2  1  0.331293  0.603042  0.844136  1
  Yb  Yb3  1  0.844136  0.331293  0.603042  1
  Yb  Yb4  1  0.603042  0.844136  0.331293  1
  Yb  Yb5  1  0.668707  0.396958  0.155864  1
  Yb  Yb6  1  0.155864  0.668707  0.396958  1
  Yb  Yb7  1  0.396958  0.155864  0.668707  1
  Ho  Ho8  1  0.000000  0.000000  0.000000  1
  Pd  Pd9  1  0.152735  0.955663  0.597411  1
  Pd  Pd10  1  0.597411  0.152735  0.955663  1
  Pd  Pd11  1  0.955663  0.597411  0.152735  1
  Pd  Pd12  1  0.847265  0.044337  0.402589  1
  Pd  Pd13  1  0.402589  0.847265  0.044337  1
  Pd  Pd14  1  0.044337  0.402589  0.847265  1
