# generated using pymatgen
data_HoEr2Nb(Co4P3)2
_symmetry_space_group_name_H-M   'P 1'
_cell_length_a   3.69779100
_cell_length_b   10.61755000
_cell_length_c   12.31012300
_cell_angle_alpha   90.00000000
_cell_angle_beta   90.00000000
_cell_angle_gamma   90.00000000
_symmetry_Int_Tables_number   1
_chemical_formula_structural   HoEr2Nb(Co4P3)2
_chemical_formula_sum   'Ho2 Er4 Nb2 Co16 P12'
_cell_volume   483.31365820
_cell_formula_units_Z   2
loop_
 _symmetry_equiv_pos_site_id
 _symmetry_equiv_pos_as_xyz
  1  'x, y, z'
loop_
 _atom_site_type_symbol
 _atom_site_label
 _atom_site_symmetry_multiplicity
 _atom_site_fract_x
 _atom_site_fract_y
 _atom_site_fract_z
 _atom_site_occupancy
  Ho  Ho0  1  0.000000  0.500000  0.526345  1
  Ho  Ho1  1  0.500000  0.000000  0.473655  1
  Er  Er2  1  0.500000  0.820142  0.205180  1
  Er  Er3  1  0.500000  0.179858  0.205180  1
  Er  Er4  1  0.000000  0.679858  0.794820  1
  Er  Er5  1  0.000000  0.320142  0.794820  1
  Nb  Nb6  1  0.500000  0.500000  0.157024  1
  Nb  Nb7  1  0.000000  0.000000  0.842976  1
  Co  Co8  1  0.000000  0.500000  0.985444  1
  Co  Co9  1  0.500000  0.000000  0.014556  1
  Co  Co10  1  0.500000  0.295270  0.432376  1
  Co  Co11  1  0.500000  0.704730  0.432376  1
  Co  Co12  1  0.000000  0.204730  0.567624  1
  Co  Co13  1  0.000000  0.795270  0.567624  1
  Co  Co14  1  0.500000  0.876959  0.704475  1
  Co  Co15  1  0.500000  0.123041  0.704475  1
  Co  Co16  1  0.000000  0.623041  0.295525  1
  Co  Co17  1  0.000000  0.376959  0.295525  1
  Co  Co18  1  0.500000  0.332424  0.991333  1
  Co  Co19  1  0.500000  0.667576  0.991333  1
  Co  Co20  1  0.000000  0.167576  0.008667  1
  Co  Co21  1  0.000000  0.832424  0.008667  1
  Co  Co22  1  0.500000  0.500000  0.701960  1
  Co  Co23  1  0.000000  0.000000  0.298040  1
  P  P24  1  0.500000  0.311281  0.615822  1
  P  P25  1  0.500000  0.688719  0.615822  1
  P  P26  1  0.000000  0.188719  0.384178  1
  P  P27  1  0.000000  0.811281  0.384178  1
  P  P28  1  0.500000  0.500000  0.881352  1
  P  P29  1  0.000000  0.000000  0.118648  1
  P  P30  1  0.500000  0.840975  0.892865  1
  P  P31  1  0.500000  0.159025  0.892865  1
  P  P32  1  0.000000  0.659025  0.107135  1
  P  P33  1  0.000000  0.340975  0.107135  1
  P  P34  1  0.500000  0.500000  0.356140  1
  P  P35  1  0.000000  0.000000  0.643860  1
