# generated using pymatgen
data_Dy2YEr2Re2C7
_symmetry_space_group_name_H-M   'P 1'
_cell_length_a   8.32949046
_cell_length_b   8.30031910
_cell_length_c   3.41053000
_cell_angle_alpha   90.00000000
_cell_angle_beta   90.00000000
_cell_angle_gamma   122.51821067
_symmetry_Int_Tables_number   1
_chemical_formula_structural   Dy2YEr2Re2C7
_chemical_formula_sum   'Dy2 Y1 Er2 Re2 C7'
_cell_volume   198.82744026
_cell_formula_units_Z   1
loop_
 _symmetry_equiv_pos_site_id
 _symmetry_equiv_pos_as_xyz
  1  'x, y, z'
loop_
 _atom_site_type_symbol
 _atom_site_label
 _atom_site_symmetry_multiplicity
 _atom_site_fract_x
 _atom_site_fract_y
 _atom_site_fract_z
 _atom_site_occupancy
  Dy  Dy0  1  0.075666  0.332773  0.500000  1
  Dy  Dy1  1  0.924334  0.667227  0.500000  1
  Y  Y2  1  0.500000  0.500000  0.000000  1
  Er  Er3  1  0.662264  0.923481  0.500000  1
  Er  Er4  1  0.337736  0.076519  0.500000  1
  Re  Re5  1  0.715424  0.285072  0.000000  1
  Re  Re6  1  0.284576  0.714928  0.000000  1
  C  C7  1  0.627660  0.373064  0.500000  1
  C  C8  1  0.372340  0.626936  0.500000  1
  C  C9  1  0.000000  0.000000  0.000000  1
  C  C10  1  0.172056  0.167252  0.000000  1
  C  C11  1  0.827944  0.832748  0.000000  1
  C  C12  1  0.000000  0.500000  0.000000  1
  C  C13  1  0.500000  0.000000  0.000000  1
