# generated using pymatgen
data_LaNd5(GaPd5)2
_symmetry_space_group_name_H-M   'P 1'
_cell_length_a   8.52071559
_cell_length_b   8.52071550
_cell_length_c   8.52071446
_cell_angle_alpha   127.99185326
_cell_angle_beta   126.24247068
_cell_angle_gamma   78.06785370
_symmetry_Int_Tables_number   1
_chemical_formula_structural   LaNd5(GaPd5)2
_chemical_formula_sum   'La1 Nd5 Ga2 Pd10'
_cell_volume   381.00100263
_cell_formula_units_Z   1
loop_
 _symmetry_equiv_pos_site_id
 _symmetry_equiv_pos_as_xyz
  1  'x, y, z'
loop_
 _atom_site_type_symbol
 _atom_site_label
 _atom_site_symmetry_multiplicity
 _atom_site_fract_x
 _atom_site_fract_y
 _atom_site_fract_z
 _atom_site_occupancy
  La  La0  1  0.623632  0.750000  0.873632  1
  Nd  Nd1  1  0.820261  0.049989  0.770272  1
  Nd  Nd2  1  0.220282  0.450011  0.770272  1
  Nd  Nd3  1  0.180467  0.950480  0.229987  1
  Nd  Nd4  1  0.378744  0.250000  0.128744  1
  Nd  Nd5  1  0.779509  0.549520  0.229987  1
  Ga  Ga6  1  0.220635  0.750000  0.470635  1
  Ga  Ga7  1  0.778120  0.250000  0.528120  1
  Pd  Pd8  1  0.831969  0.605668  0.644151  1
  Pd  Pd9  1  0.538483  0.312182  0.644151  1
  Pd  Pd10  1  0.460912  0.105527  0.772770  1
  Pd  Pd11  1  0.831969  0.187818  0.226301  1
  Pd  Pd12  1  0.167243  0.394473  0.355385  1
  Pd  Pd13  1  0.460912  0.688142  0.355385  1
  Pd  Pd14  1  0.538483  0.894332  0.226301  1
  Pd  Pd15  1  0.167243  0.811858  0.772770  1
  Pd  Pd16  1  0.000569  0.000714  0.501283  1
  Pd  Pd17  1  0.000569  0.499286  0.999855  1
