# generated using pymatgen
data_Er3TmGa12Co
_symmetry_space_group_name_H-M   'P 1'
_cell_length_a   7.37784648
_cell_length_b   7.37784568
_cell_length_c   7.37784621
_cell_angle_alpha   109.45753147
_cell_angle_beta   109.45752971
_cell_angle_gamma   109.45753539
_symmetry_Int_Tables_number   1
_chemical_formula_structural   Er3TmGa12Co
_chemical_formula_sum   'Er3 Tm1 Ga12 Co1'
_cell_volume   309.30489574
_cell_formula_units_Z   1
loop_
 _symmetry_equiv_pos_site_id
 _symmetry_equiv_pos_as_xyz
  1  'x, y, z'
loop_
 _atom_site_type_symbol
 _atom_site_label
 _atom_site_symmetry_multiplicity
 _atom_site_fract_x
 _atom_site_fract_y
 _atom_site_fract_z
 _atom_site_occupancy
  Er  Er0  1  0.000000  0.500000  0.000000  1
  Er  Er1  1  0.000000  0.000000  0.500000  1
  Er  Er2  1  0.500000  0.000000  0.000000  1
  Tm  Tm3  1  0.500000  0.500000  0.500000  1
  Ga  Ga4  1  0.749965  0.250035  0.500000  1
  Ga  Ga5  1  0.000075  0.281732  0.281732  1
  Ga  Ga6  1  0.281732  0.281732  0.000075  1
  Ga  Ga7  1  0.718268  0.999925  0.718268  1
  Ga  Ga8  1  0.500000  0.250035  0.749965  1
  Ga  Ga9  1  0.749965  0.500000  0.250035  1
  Ga  Ga10  1  0.250035  0.749965  0.500000  1
  Ga  Ga11  1  0.250035  0.500000  0.749965  1
  Ga  Ga12  1  0.281732  0.000075  0.281732  1
  Ga  Ga13  1  0.500000  0.749965  0.250035  1
  Ga  Ga14  1  0.718268  0.718268  0.999925  1
  Ga  Ga15  1  0.999925  0.718268  0.718268  1
  Co  Co16  1  0.000000  0.000000  0.000000  1
