# generated using pymatgen
data_Ti3MnAl3Rh5
_symmetry_space_group_name_H-M   'P 1'
_cell_length_a   4.30077700
_cell_length_b   6.13881400
_cell_length_c   12.80044000
_cell_angle_alpha   90.00000000
_cell_angle_beta   89.99991975
_cell_angle_gamma   90.00000000
_symmetry_Int_Tables_number   1
_chemical_formula_structural   Ti3MnAl3Rh5
_chemical_formula_sum   'Ti6 Mn2 Al6 Rh10'
_cell_volume   337.95299348
_cell_formula_units_Z   2
loop_
 _symmetry_equiv_pos_site_id
 _symmetry_equiv_pos_as_xyz
  1  'x, y, z'
loop_
 _atom_site_type_symbol
 _atom_site_label
 _atom_site_symmetry_multiplicity
 _atom_site_fract_x
 _atom_site_fract_y
 _atom_site_fract_z
 _atom_site_occupancy
  Ti  Ti0  1  0.000018  0.500000  0.986464  1
  Ti  Ti1  1  0.499937  0.000000  0.163437  1
  Ti  Ti2  1  0.999939  0.500000  0.333316  1
  Ti  Ti3  1  0.499995  0.000000  0.503239  1
  Ti  Ti4  1  0.000063  0.500000  0.680254  1
  Ti  Ti5  1  0.500058  0.000000  0.833344  1
  Mn  Mn6  1  0.000035  0.252960  0.833316  1
  Mn  Mn7  1  0.000035  0.747040  0.833316  1
  Al  Al8  1  0.000005  0.000000  0.992072  1
  Al  Al9  1  0.499961  0.500000  0.164892  1
  Al  Al10  1  0.999948  0.000000  0.333325  1
  Al  Al11  1  0.499996  0.500000  0.501793  1
  Al  Al12  1  0.000042  0.000000  0.674633  1
  Al  Al13  1  0.500045  0.500000  0.833317  1
  Rh  Rh14  1  0.500004  0.250050  0.000421  1
  Rh  Rh15  1  0.500004  0.749950  0.000421  1
  Rh  Rh16  1  0.999953  0.249511  0.166732  1
  Rh  Rh17  1  0.999953  0.750489  0.166732  1
  Rh  Rh18  1  0.499957  0.250153  0.333317  1
  Rh  Rh19  1  0.499957  0.749847  0.333317  1
  Rh  Rh20  1  0.999998  0.249483  0.499912  1
  Rh  Rh21  1  0.999998  0.750517  0.499912  1
  Rh  Rh22  1  0.500049  0.250055  0.666257  1
  Rh  Rh23  1  0.500049  0.749945  0.666257  1
