# generated using pymatgen
data_Y3Lu5(CoAg)2
_symmetry_space_group_name_H-M   'P 1'
_cell_length_a   9.29011647
_cell_length_b   9.29011672
_cell_length_c   9.29011700
_cell_angle_alpha   60.00000255
_cell_angle_beta   60.00000166
_cell_angle_gamma   60.00000611
_symmetry_Int_Tables_number   1
_chemical_formula_structural   Y3Lu5(CoAg)2
_chemical_formula_sum   'Y6 Lu10 Co4 Ag4'
_cell_volume   566.95494626
_cell_formula_units_Z   2
loop_
 _symmetry_equiv_pos_site_id
 _symmetry_equiv_pos_as_xyz
  1  'x, y, z'
loop_
 _atom_site_type_symbol
 _atom_site_label
 _atom_site_symmetry_multiplicity
 _atom_site_fract_x
 _atom_site_fract_y
 _atom_site_fract_z
 _atom_site_occupancy
  Y  Y0  1  0.939166  0.560834  0.560834  1
  Y  Y1  1  0.560834  0.939166  0.939166  1
  Y  Y2  1  0.560834  0.939166  0.560834  1
  Y  Y3  1  0.939166  0.560834  0.939166  1
  Y  Y4  1  0.560834  0.560834  0.939166  1
  Y  Y5  1  0.939166  0.939166  0.560834  1
  Lu  Lu6  1  0.347560  0.347560  0.347560  1
  Lu  Lu7  1  0.347560  0.347560  0.957319  1
  Lu  Lu8  1  0.347560  0.957319  0.347560  1
  Lu  Lu9  1  0.957319  0.347560  0.347560  1
  Lu  Lu10  1  0.812706  0.187294  0.187294  1
  Lu  Lu11  1  0.187294  0.812706  0.812706  1
  Lu  Lu12  1  0.187294  0.812706  0.187294  1
  Lu  Lu13  1  0.812706  0.187294  0.812706  1
  Lu  Lu14  1  0.187294  0.187294  0.812706  1
  Lu  Lu15  1  0.812706  0.812706  0.187294  1
  Co  Co16  1  0.141310  0.141310  0.141310  1
  Co  Co17  1  0.141310  0.141310  0.576071  1
  Co  Co18  1  0.141310  0.576071  0.141310  1
  Co  Co19  1  0.576071  0.141310  0.141310  1
  Ag  Ag20  1  0.580460  0.580460  0.580460  1
  Ag  Ag21  1  0.580460  0.580460  0.258620  1
  Ag  Ag22  1  0.580460  0.258620  0.580460  1
  Ag  Ag23  1  0.258620  0.580460  0.580460  1
