# generated using pymatgen
data_Er2Tm6B24Ir3Rh
_symmetry_space_group_name_H-M   'P 1'
_cell_length_a   3.61239000
_cell_length_b   9.11735570
_cell_length_c   11.45888982
_cell_angle_alpha   90.04407259
_cell_angle_beta   89.99996413
_cell_angle_gamma   90.00002844
_symmetry_Int_Tables_number   1
_chemical_formula_structural   Er2Tm6B24Ir3Rh
_chemical_formula_sum   'Er2 Tm6 B24 Ir3 Rh1'
_cell_volume   377.40351856
_cell_formula_units_Z   1
loop_
 _symmetry_equiv_pos_site_id
 _symmetry_equiv_pos_as_xyz
  1  'x, y, z'
loop_
 _atom_site_type_symbol
 _atom_site_label
 _atom_site_symmetry_multiplicity
 _atom_site_fract_x
 _atom_site_fract_y
 _atom_site_fract_z
 _atom_site_occupancy
  Er  Er0  1  0.500006  0.322841  0.413088  1
  Er  Er1  1  0.500026  0.677642  0.585801  1
  Tm  Tm2  1  0.499999  0.178652  0.913489  1
  Tm  Tm3  1  0.499995  0.821248  0.087486  1
  Tm  Tm4  1  0.499996  0.445158  0.126179  1
  Tm  Tm5  1  0.500000  0.555423  0.874827  1
  Tm  Tm6  1  0.499999  0.055473  0.625350  1
  Tm  Tm7  1  0.499998  0.943418  0.374026  1
  B  B8  1  0.999998  0.108850  0.470144  1
  B  B9  1  0.000001  0.890868  0.529672  1
  B  B10  1  0.999998  0.390468  0.970282  1
  B  B11  1  0.999998  0.609829  0.029922  1
  B  B12  1  0.000001  0.132241  0.315927  1
  B  B13  1  0.000003  0.867644  0.683704  1
  B  B14  1  0.999997  0.367408  0.816584  1
  B  B15  1  0.999998  0.633066  0.183608  1
  B  B16  1  0.000003  0.053621  0.065689  1
  B  B17  1  0.000005  0.946529  0.934332  1
  B  B18  1  0.000002  0.446236  0.565766  1
  B  B19  1  0.000001  0.553526  0.434301  1
  B  B20  1  0.999995  0.481985  0.286930  1
  B  B21  1  0.000001  0.517968  0.713454  1
  B  B22  1  0.000000  0.018384  0.786943  1
  B  B23  1  0.999997  0.981626  0.213073  1
  B  B24  1  0.999997  0.250256  0.078958  1
  B  B25  1  0.000002  0.749875  0.921114  1
  B  B26  1  0.999998  0.250012  0.579174  1
  B  B27  1  0.000000  0.749672  0.420532  1
  B  B28  1  0.000000  0.294300  0.235036  1
  B  B29  1  0.000004  0.705987  0.764962  1
  B  B30  1  0.999998  0.205674  0.735362  1
  B  B31  1  0.999993  0.794392  0.264084  1
  Ir  Ir32  1  0.499999  0.138796  0.178194  1
  Ir  Ir33  1  0.500002  0.861489  0.821504  1
  Ir  Ir34  1  0.499999  0.360212  0.680203  1
  Rh  Rh35  1  0.499991  0.639231  0.320299  1
