# generated using pymatgen
data_NaSr2GaP3
_symmetry_space_group_name_H-M   'P 1'
_cell_length_a   8.14518710
_cell_length_b   8.14518429
_cell_length_c   11.57577606
_cell_angle_alpha   76.62456489
_cell_angle_beta   76.62451461
_cell_angle_gamma   67.76577999
_symmetry_Int_Tables_number   1
_chemical_formula_structural   NaSr2GaP3
_chemical_formula_sum   'Na4 Sr8 Ga4 P12'
_cell_volume   682.72372719
_cell_formula_units_Z   4
loop_
 _symmetry_equiv_pos_site_id
 _symmetry_equiv_pos_as_xyz
  1  'x, y, z'
loop_
 _atom_site_type_symbol
 _atom_site_label
 _atom_site_symmetry_multiplicity
 _atom_site_fract_x
 _atom_site_fract_y
 _atom_site_fract_z
 _atom_site_occupancy
  Na  Na0  1  0.296576  0.703424  0.000000  1
  Na  Na1  1  0.356467  0.356466  0.231860  1
  Na  Na2  1  0.643533  0.643534  0.768140  1
  Na  Na3  1  0.703424  0.296576  0.000000  1
  Sr  Sr4  1  0.747758  0.193891  0.685571  1
  Sr  Sr5  1  0.252242  0.806109  0.314429  1
  Sr  Sr6  1  0.193891  0.747759  0.685571  1
  Sr  Sr7  1  0.500000  0.000000  0.500000  1
  Sr  Sr8  1  0.806109  0.252241  0.314429  1
  Sr  Sr9  1  0.000000  0.500000  0.000000  1
  Sr  Sr10  1  0.500000  0.000000  0.000000  1
  Sr  Sr11  1  0.000000  0.500000  0.500000  1
  Ga  Ga12  1  0.694461  0.694461  0.270036  1
  Ga  Ga13  1  0.090280  0.090280  0.880656  1
  Ga  Ga14  1  0.909720  0.909720  0.119344  1
  Ga  Ga15  1  0.305539  0.305539  0.729964  1
  P  P16  1  0.020834  0.611134  0.230100  1
  P  P17  1  0.588931  0.588931  0.135096  1
  P  P18  1  0.979166  0.388866  0.769900  1
  P  P19  1  0.086971  0.086971  0.487428  1
  P  P20  1  0.585224  0.585224  0.492010  1
  P  P21  1  0.908962  0.908962  0.904873  1
  P  P22  1  0.091038  0.091038  0.095127  1
  P  P23  1  0.411069  0.411069  0.864904  1
  P  P24  1  0.611134  0.020833  0.230101  1
  P  P25  1  0.913029  0.913029  0.512572  1
  P  P26  1  0.388866  0.979167  0.769899  1
  P  P27  1  0.414776  0.414776  0.507990  1
