# generated using pymatgen
data_Nd3ThHgRu
_symmetry_space_group_name_H-M   'P 1'
_cell_length_a   9.90149730
_cell_length_b   9.90149771
_cell_length_c   9.90149700
_cell_angle_alpha   59.99999902
_cell_angle_beta   59.99999768
_cell_angle_gamma   59.99999980
_symmetry_Int_Tables_number   1
_chemical_formula_structural   Nd3ThHgRu
_chemical_formula_sum   'Nd12 Th4 Hg4 Ru4'
_cell_volume   686.41634392
_cell_formula_units_Z   4
loop_
 _symmetry_equiv_pos_site_id
 _symmetry_equiv_pos_as_xyz
  1  'x, y, z'
loop_
 _atom_site_type_symbol
 _atom_site_label
 _atom_site_symmetry_multiplicity
 _atom_site_fract_x
 _atom_site_fract_y
 _atom_site_fract_z
 _atom_site_occupancy
  Nd  Nd0  1  0.808664  0.191336  0.191336  1
  Nd  Nd1  1  0.191336  0.808664  0.808664  1
  Nd  Nd2  1  0.191336  0.808664  0.191336  1
  Nd  Nd3  1  0.808664  0.191336  0.808664  1
  Nd  Nd4  1  0.191336  0.191336  0.808664  1
  Nd  Nd5  1  0.808664  0.808664  0.191336  1
  Nd  Nd6  1  0.939362  0.560638  0.560638  1
  Nd  Nd7  1  0.560638  0.939362  0.939362  1
  Nd  Nd8  1  0.560638  0.939362  0.560638  1
  Nd  Nd9  1  0.939362  0.560638  0.939362  1
  Nd  Nd10  1  0.560638  0.560638  0.939362  1
  Nd  Nd11  1  0.939362  0.939362  0.560638  1
  Th  Th12  1  0.346179  0.346179  0.346179  1
  Th  Th13  1  0.346179  0.346179  0.961465  1
  Th  Th14  1  0.346179  0.961465  0.346179  1
  Th  Th15  1  0.961465  0.346179  0.346179  1
  Hg  Hg16  1  0.583412  0.583412  0.583412  1
  Hg  Hg17  1  0.583412  0.583412  0.249763  1
  Hg  Hg18  1  0.583412  0.249763  0.583412  1
  Hg  Hg19  1  0.249763  0.583412  0.583412  1
  Ru  Ru20  1  0.145372  0.145372  0.145372  1
  Ru  Ru21  1  0.145372  0.145372  0.563881  1
  Ru  Ru22  1  0.145372  0.563881  0.145372  1
  Ru  Ru23  1  0.563881  0.145372  0.145372  1
