# generated using pymatgen
data_BaHoZn3FeO7
_symmetry_space_group_name_H-M   'P 1'
_cell_length_a   6.40115800
_cell_length_b   6.40115848
_cell_length_c   10.48725100
_cell_angle_alpha   90.00000000
_cell_angle_beta   90.00000000
_cell_angle_gamma   119.99999750
_symmetry_Int_Tables_number   1
_chemical_formula_structural   BaHoZn3FeO7
_chemical_formula_sum   'Ba2 Ho2 Zn6 Fe2 O14'
_cell_volume   372.14263807
_cell_formula_units_Z   2
loop_
 _symmetry_equiv_pos_site_id
 _symmetry_equiv_pos_as_xyz
  1  'x, y, z'
loop_
 _atom_site_type_symbol
 _atom_site_label
 _atom_site_symmetry_multiplicity
 _atom_site_fract_x
 _atom_site_fract_y
 _atom_site_fract_z
 _atom_site_occupancy
  Ba  Ba0  1  0.666667  0.333333  0.979381  1
  Ba  Ba1  1  0.333333  0.666667  0.479381  1
  Ho  Ho2  1  0.666667  0.333333  0.632674  1
  Ho  Ho3  1  0.333333  0.666667  0.132674  1
  Zn  Zn4  1  0.171775  0.828225  0.817163  1
  Zn  Zn5  1  0.656449  0.828225  0.817163  1
  Zn  Zn6  1  0.171775  0.343551  0.817163  1
  Zn  Zn7  1  0.828225  0.171775  0.317163  1
  Zn  Zn8  1  0.343551  0.171775  0.317163  1
  Zn  Zn9  1  0.828225  0.656449  0.317163  1
  Fe  Fe10  1  0.000000  0.000000  0.068265  1
  Fe  Fe11  1  0.000000  0.000000  0.568265  1
  O  O12  1  0.507933  0.492067  0.765011  1
  O  O13  1  0.984134  0.492067  0.765011  1
  O  O14  1  0.507933  0.015866  0.765011  1
  O  O15  1  0.492067  0.507933  0.265011  1
  O  O16  1  0.015866  0.507933  0.265011  1
  O  O17  1  0.492067  0.984134  0.265011  1
  O  O18  1  0.161857  0.838143  0.009812  1
  O  O19  1  0.676287  0.838143  0.009812  1
  O  O20  1  0.161857  0.323713  0.009812  1
  O  O21  1  0.838143  0.161857  0.509812  1
  O  O22  1  0.323713  0.161857  0.509812  1
  O  O23  1  0.838143  0.676287  0.509812  1
  O  O24  1  0.000000  0.000000  0.252724  1
  O  O25  1  0.000000  0.000000  0.752724  1
