# generated using pymatgen
data_Y24Tc7P
_symmetry_space_group_name_H-M   'P 1'
_cell_length_a   6.28076896
_cell_length_b   9.24433500
_cell_length_c   14.96918970
_cell_angle_alpha   90.00000000
_cell_angle_beta   89.92078592
_cell_angle_gamma   90.00000000
_symmetry_Int_Tables_number   1
_chemical_formula_structural   Y24Tc7P
_chemical_formula_sum   'Y24 Tc7 P1'
_cell_volume   869.13326173
_cell_formula_units_Z   1
loop_
 _symmetry_equiv_pos_site_id
 _symmetry_equiv_pos_as_xyz
  1  'x, y, z'
loop_
 _atom_site_type_symbol
 _atom_site_label
 _atom_site_symmetry_multiplicity
 _atom_site_fract_x
 _atom_site_fract_y
 _atom_site_fract_z
 _atom_site_occupancy
  Y  Y0  1  0.531640  0.750000  0.354439  1
  Y  Y1  1  0.033445  0.250000  0.146250  1
  Y  Y2  1  0.469311  0.250000  0.646693  1
  Y  Y3  1  0.960320  0.750000  0.854306  1
  Y  Y4  1  0.775311  0.750000  0.108871  1
  Y  Y5  1  0.271779  0.250000  0.390853  1
  Y  Y6  1  0.221523  0.250000  0.889864  1
  Y  Y7  1  0.738286  0.750000  0.606835  1
  Y  Y8  1  0.448776  0.934548  0.792372  1
  Y  Y9  1  0.934369  0.068236  0.710604  1
  Y  Y10  1  0.560626  0.434441  0.211172  1
  Y  Y11  1  0.061757  0.565905  0.287127  1
  Y  Y12  1  0.560626  0.065559  0.211172  1
  Y  Y13  1  0.061757  0.934095  0.287127  1
  Y  Y14  1  0.448776  0.565452  0.792372  1
  Y  Y15  1  0.934369  0.431764  0.710604  1
  Y  Y16  1  0.234219  0.936940  0.531801  1
  Y  Y17  1  0.740292  0.065396  0.966774  1
  Y  Y18  1  0.752456  0.434723  0.464362  1
  Y  Y19  1  0.255306  0.564820  0.035493  1
  Y  Y20  1  0.752456  0.065277  0.464362  1
  Y  Y21  1  0.255306  0.935180  0.035493  1
  Y  Y22  1  0.234219  0.563060  0.531801  1
  Y  Y23  1  0.740292  0.434604  0.966774  1
  Tc  Tc24  1  0.931077  0.750000  0.440487  1
  Tc  Tc25  1  0.424819  0.250000  0.058605  1
  Tc  Tc26  1  0.071020  0.250000  0.561790  1
  Tc  Tc27  1  0.567265  0.750000  0.940711  1
  Tc  Tc28  1  0.353743  0.750000  0.184193  1
  Tc  Tc29  1  0.852080  0.250000  0.315591  1
  Tc  Tc30  1  0.650248  0.250000  0.815545  1
  P  P31  1  0.172531  0.750000  0.685560  1
