# generated using pymatgen
data_LiSm2Si(PPd4)5
_symmetry_space_group_name_H-M   'P 1'
_cell_length_a   8.65995186
_cell_length_b   8.65981968
_cell_length_c   8.65981700
_cell_angle_alpha   60.00108830
_cell_angle_beta   59.99952617
_cell_angle_gamma   59.99951806
_symmetry_Int_Tables_number   1
_chemical_formula_structural   LiSm2Si(PPd4)5
_chemical_formula_sum   'Li1 Sm2 Si1 P5 Pd20'
_cell_volume   459.21755120
_cell_formula_units_Z   1
loop_
 _symmetry_equiv_pos_site_id
 _symmetry_equiv_pos_as_xyz
  1  'x, y, z'
loop_
 _atom_site_type_symbol
 _atom_site_label
 _atom_site_symmetry_multiplicity
 _atom_site_fract_x
 _atom_site_fract_y
 _atom_site_fract_z
 _atom_site_occupancy
  Li  Li0  1  0.999838  0.000162  0.000162  1
  Sm  Sm1  1  0.250190  0.249810  0.249810  1
  Sm  Sm2  1  0.750190  0.749810  0.749810  1
  Si  Si3  1  0.738788  0.261212  0.261212  1
  P  P4  1  0.260132  0.739869  0.739868  1
  P  P5  1  0.260994  0.739006  0.259909  1
  P  P6  1  0.740091  0.259909  0.739006  1
  P  P7  1  0.260994  0.259909  0.739006  1
  P  P8  1  0.740091  0.739006  0.259909  1
  Pd  Pd9  1  0.384573  0.386095  0.386095  1
  Pd  Pd10  1  0.614006  0.614274  0.614273  1
  Pd  Pd11  1  0.385727  0.385995  0.842552  1
  Pd  Pd12  1  0.385727  0.842552  0.385994  1
  Pd  Pd13  1  0.613904  0.615428  0.156763  1
  Pd  Pd14  1  0.613905  0.156763  0.615427  1
  Pd  Pd15  1  0.843237  0.386095  0.386095  1
  Pd  Pd16  1  0.157448  0.614273  0.614273  1
  Pd  Pd17  1  0.344307  0.000420  0.000420  1
  Pd  Pd18  1  0.654852  0.000420  0.000421  1
  Pd  Pd19  1  0.999580  0.345147  0.655693  1
  Pd  Pd20  1  0.999580  0.655693  0.345148  1
  Pd  Pd21  1  0.001592  0.345951  0.998409  1
  Pd  Pd22  1  0.654048  0.998409  0.345952  1
  Pd  Pd23  1  0.999964  0.654680  0.000037  1
  Pd  Pd24  1  0.345320  0.000036  0.654681  1
  Pd  Pd25  1  0.001591  0.998409  0.345951  1
  Pd  Pd26  1  0.999964  0.000036  0.654680  1
  Pd  Pd27  1  0.654048  0.345952  0.998409  1
  Pd  Pd28  1  0.345320  0.654680  0.000036  1
