# generated using pymatgen
data_Zr6AlFeTe
_symmetry_space_group_name_H-M   'P 1'
_cell_length_a   7.87069000
_cell_length_b   7.87069008
_cell_length_c   3.49083300
_cell_angle_alpha   90.00000000
_cell_angle_beta   90.00000000
_cell_angle_gamma   120.00000807
_symmetry_Int_Tables_number   1
_chemical_formula_structural   Zr6AlFeTe
_chemical_formula_sum   'Zr6 Al1 Fe1 Te1'
_cell_volume   187.27736418
_cell_formula_units_Z   1
loop_
 _symmetry_equiv_pos_site_id
 _symmetry_equiv_pos_as_xyz
  1  'x, y, z'
loop_
 _atom_site_type_symbol
 _atom_site_label
 _atom_site_symmetry_multiplicity
 _atom_site_fract_x
 _atom_site_fract_y
 _atom_site_fract_z
 _atom_site_occupancy
  Zr  Zr0  1  0.600509  0.004553  0.000000  1
  Zr  Zr1  1  0.404043  0.399491  0.000000  1
  Zr  Zr2  1  0.995447  0.595957  0.000000  1
  Zr  Zr3  1  0.993957  0.241566  0.500000  1
  Zr  Zr4  1  0.758434  0.752391  0.500000  1
  Zr  Zr5  1  0.247609  0.006043  0.500000  1
  Al  Al6  1  0.666667  0.333333  0.500000  1
  Fe  Fe7  1  0.000000  0.000000  0.000000  1
  Te  Te8  1  0.333333  0.666667  0.500000  1
