# generated using pymatgen
data_Ho4TmCdAu4
_symmetry_space_group_name_H-M   'P 1'
_cell_length_a   7.98158700
_cell_length_b   7.98158700
_cell_length_c   3.79930100
_cell_angle_alpha   90.00000000
_cell_angle_beta   90.00000000
_cell_angle_gamma   90.00000000
_symmetry_Int_Tables_number   1
_chemical_formula_structural   Ho4TmCdAu4
_chemical_formula_sum   'Ho4 Tm1 Cd1 Au4'
_cell_volume   242.03724764
_cell_formula_units_Z   1
loop_
 _symmetry_equiv_pos_site_id
 _symmetry_equiv_pos_as_xyz
  1  'x, y, z'
loop_
 _atom_site_type_symbol
 _atom_site_label
 _atom_site_symmetry_multiplicity
 _atom_site_fract_x
 _atom_site_fract_y
 _atom_site_fract_z
 _atom_site_occupancy
  Ho  Ho0  1  0.686773  0.138937  0.500000  1
  Ho  Ho1  1  0.313227  0.861063  0.500000  1
  Ho  Ho2  1  0.138937  0.313227  0.500000  1
  Ho  Ho3  1  0.861063  0.686773  0.500000  1
  Tm  Tm4  1  0.500000  0.500000  0.000000  1
  Cd  Cd5  1  0.000000  0.000000  0.000000  1
  Au  Au6  1  0.146559  0.619382  0.000000  1
  Au  Au7  1  0.853441  0.380618  0.000000  1
  Au  Au8  1  0.619382  0.853441  0.000000  1
  Au  Au9  1  0.380618  0.146559  0.000000  1
