# generated using pymatgen
data_TbCePRh6
_symmetry_space_group_name_H-M   'P 1'
_cell_length_a   5.98628485
_cell_length_b   5.98628467
_cell_length_c   5.98628400
_cell_angle_alpha   60.00000368
_cell_angle_beta   60.00000470
_cell_angle_gamma   59.99999892
_symmetry_Int_Tables_number   1
_chemical_formula_structural   TbCePRh6
_chemical_formula_sum   'Tb1 Ce1 P1 Rh6'
_cell_volume   151.69004710
_cell_formula_units_Z   1
loop_
 _symmetry_equiv_pos_site_id
 _symmetry_equiv_pos_as_xyz
  1  'x, y, z'
loop_
 _atom_site_type_symbol
 _atom_site_label
 _atom_site_symmetry_multiplicity
 _atom_site_fract_x
 _atom_site_fract_y
 _atom_site_fract_z
 _atom_site_occupancy
  Tb  Tb0  1  0.750000  0.750000  0.750000  1
  Ce  Ce1  1  0.250000  0.250000  0.250000  1
  P  P2  1  0.000000  0.000000  0.000000  1
  Rh  Rh3  1  0.734056  0.265945  0.265945  1
  Rh  Rh4  1  0.265945  0.734056  0.265945  1
  Rh  Rh5  1  0.734055  0.734055  0.265946  1
  Rh  Rh6  1  0.265945  0.265945  0.734056  1
  Rh  Rh7  1  0.734055  0.265946  0.734055  1
  Rh  Rh8  1  0.265946  0.734055  0.734055  1
