# generated using pymatgen
data_Ba5Ce(BiPb4)2
_symmetry_space_group_name_H-M   'P 1'
_cell_length_a   9.44467991
_cell_length_b   9.44468099
_cell_length_c   9.44468100
_cell_angle_alpha   120.62295941
_cell_angle_beta   120.62295624
_cell_angle_gamma   88.92435022
_symmetry_Int_Tables_number   1
_chemical_formula_structural   Ba5Ce(BiPb4)2
_chemical_formula_sum   'Ba5 Ce1 Bi2 Pb8'
_cell_volume   590.00425480
_cell_formula_units_Z   1
loop_
 _symmetry_equiv_pos_site_id
 _symmetry_equiv_pos_as_xyz
  1  'x, y, z'
loop_
 _atom_site_type_symbol
 _atom_site_label
 _atom_site_symmetry_multiplicity
 _atom_site_fract_x
 _atom_site_fract_y
 _atom_site_fract_z
 _atom_site_occupancy
  Ba  Ba0  1  0.750000  0.750000  0.000000  1
  Ba  Ba1  1  0.159889  0.659889  0.819780  1
  Ba  Ba2  1  0.840111  0.340111  0.180220  1
  Ba  Ba3  1  0.659889  0.840111  0.500000  1
  Ba  Ba4  1  0.340111  0.159889  0.500000  1
  Ce  Ce5  1  0.250000  0.250000  0.000000  1
  Bi  Bi6  1  0.016459  0.016459  0.000000  1
  Bi  Bi7  1  0.483541  0.483541  0.000000  1
  Pb  Pb8  1  0.836967  0.327408  0.789430  1
  Pb  Pb9  1  0.172592  0.663033  0.210570  1
  Pb  Pb10  1  0.537978  0.047539  0.210570  1
  Pb  Pb11  1  0.327408  0.537978  0.490440  1
  Pb  Pb12  1  0.962022  0.172592  0.509560  1
  Pb  Pb13  1  0.452461  0.962022  0.789430  1
  Pb  Pb14  1  0.663033  0.452461  0.490440  1
  Pb  Pb15  1  0.047539  0.836967  0.509560  1
