# generated using pymatgen
data_Th8NiSe17
_symmetry_space_group_name_H-M   'P 1'
_cell_length_a   8.45846383
_cell_length_b   8.45846349
_cell_length_c   11.18247073
_cell_angle_alpha   80.06602478
_cell_angle_beta   80.06602355
_cell_angle_gamma   64.44459974
_symmetry_Int_Tables_number   1
_chemical_formula_structural   Th8NiSe17
_chemical_formula_sum   'Th8 Ni1 Se17'
_cell_volume   706.61953648
_cell_formula_units_Z   1
loop_
 _symmetry_equiv_pos_site_id
 _symmetry_equiv_pos_as_xyz
  1  'x, y, z'
loop_
 _atom_site_type_symbol
 _atom_site_label
 _atom_site_symmetry_multiplicity
 _atom_site_fract_x
 _atom_site_fract_y
 _atom_site_fract_z
 _atom_site_occupancy
  Th  Th0  1  0.816672  0.302795  0.294211  1
  Th  Th1  1  0.302795  0.816672  0.294211  1
  Th  Th2  1  0.183328  0.697205  0.705789  1
  Th  Th3  1  0.697205  0.183328  0.705789  1
  Th  Th4  1  0.202305  0.202305  0.547361  1
  Th  Th5  1  0.797695  0.797695  0.452639  1
  Th  Th6  1  0.682794  0.682794  0.979453  1
  Th  Th7  1  0.317206  0.317206  0.020547  1
  Ni  Ni8  1  0.000000  0.000000  0.000000  1
  Se  Se9  1  0.821763  0.432308  0.532506  1
  Se  Se10  1  0.432308  0.821763  0.532506  1
  Se  Se11  1  0.178237  0.567692  0.467494  1
  Se  Se12  1  0.567692  0.178237  0.467494  1
  Se  Se13  1  0.946892  0.320879  0.027763  1
  Se  Se14  1  0.320879  0.946892  0.027763  1
  Se  Se15  1  0.053108  0.679121  0.972237  1
  Se  Se16  1  0.679121  0.053108  0.972237  1
  Se  Se17  1  0.211395  0.211395  0.279871  1
  Se  Se18  1  0.788605  0.788605  0.720129  1
  Se  Se19  1  0.054215  0.054215  0.778066  1
  Se  Se20  1  0.945785  0.945785  0.221934  1
  Se  Se21  1  0.301054  0.301054  0.755792  1
  Se  Se22  1  0.698946  0.698946  0.244208  1
  Se  Se23  1  0.519169  0.519169  0.831485  1
  Se  Se24  1  0.480831  0.480831  0.168515  1
  Se  Se25  1  0.000000  0.000000  0.500000  1
