# generated using pymatgen
data_Th8RuPb4Au7
_symmetry_space_group_name_H-M   'P 1'
_cell_length_a   8.06923496
_cell_length_b   8.06923453
_cell_length_c   7.88613000
_cell_angle_alpha   90.16127438
_cell_angle_beta   90.16126727
_cell_angle_gamma   90.17668948
_symmetry_Int_Tables_number   1
_chemical_formula_structural   Th8RuPb4Au7
_chemical_formula_sum   'Th8 Ru1 Pb4 Au7'
_cell_volume   513.47950703
_cell_formula_units_Z   1
loop_
 _symmetry_equiv_pos_site_id
 _symmetry_equiv_pos_as_xyz
  1  'x, y, z'
loop_
 _atom_site_type_symbol
 _atom_site_label
 _atom_site_symmetry_multiplicity
 _atom_site_fract_x
 _atom_site_fract_y
 _atom_site_fract_z
 _atom_site_occupancy
  Th  Th0  1  0.179192  0.179192  0.011654  1
  Th  Th1  1  0.835549  0.835549  0.998270  1
  Th  Th2  1  0.655813  0.329676  0.490750  1
  Th  Th3  1  0.329676  0.655813  0.490750  1
  Th  Th4  1  0.668278  0.318919  0.007312  1
  Th  Th5  1  0.318919  0.668278  0.007312  1
  Th  Th6  1  0.821886  0.821886  0.499793  1
  Th  Th7  1  0.188118  0.188118  0.491125  1
  Ru  Ru8  1  0.370911  0.370911  0.244080  1
  Pb  Pb9  1  0.498654  0.003706  0.250172  1
  Pb  Pb10  1  0.498492  0.994910  0.749978  1
  Pb  Pb11  1  0.003706  0.498654  0.250172  1
  Pb  Pb12  1  0.994910  0.498492  0.749978  1
  Au  Au13  1  0.625749  0.625749  0.761448  1
  Au  Au14  1  0.626782  0.626782  0.235487  1
  Au  Au15  1  0.876601  0.128832  0.737839  1
  Au  Au16  1  0.876064  0.125743  0.262080  1
  Au  Au17  1  0.376126  0.376126  0.761880  1
  Au  Au18  1  0.125743  0.876064  0.262080  1
  Au  Au19  1  0.128832  0.876601  0.737839  1
