# generated using pymatgen
data_ErTm6Sn23Ru6
_symmetry_space_group_name_H-M   'P 1'
_cell_length_a   9.82035300
_cell_length_b   9.82035360
_cell_length_c   10.04725900
_cell_angle_alpha   90.00000000
_cell_angle_beta   90.00000000
_cell_angle_gamma   120.00000808
_symmetry_Int_Tables_number   1
_chemical_formula_structural   ErTm6Sn23Ru6
_chemical_formula_sum   'Er1 Tm6 Sn23 Ru6'
_cell_volume   839.13612670
_cell_formula_units_Z   1
loop_
 _symmetry_equiv_pos_site_id
 _symmetry_equiv_pos_as_xyz
  1  'x, y, z'
loop_
 _atom_site_type_symbol
 _atom_site_label
 _atom_site_symmetry_multiplicity
 _atom_site_fract_x
 _atom_site_fract_y
 _atom_site_fract_z
 _atom_site_occupancy
  Er  Er0  1  0.000000  0.000000  0.000000  1
  Tm  Tm1  1  0.485609  0.514391  0.302564  1
  Tm  Tm2  1  0.514391  0.485609  0.697436  1
  Tm  Tm3  1  0.485609  0.971219  0.302564  1
  Tm  Tm4  1  0.514391  0.028781  0.697436  1
  Tm  Tm5  1  0.028781  0.514391  0.302564  1
  Tm  Tm6  1  0.971219  0.485609  0.697436  1
  Sn  Sn7  1  0.118810  0.881190  0.273983  1
  Sn  Sn8  1  0.881190  0.118810  0.726017  1
  Sn  Sn9  1  0.118810  0.237621  0.273983  1
  Sn  Sn10  1  0.881190  0.762379  0.726017  1
  Sn  Sn11  1  0.762379  0.881190  0.273983  1
  Sn  Sn12  1  0.237621  0.118810  0.726017  1
  Sn  Sn13  1  0.779682  0.220318  0.463204  1
  Sn  Sn14  1  0.220318  0.779682  0.536796  1
  Sn  Sn15  1  0.779682  0.559364  0.463204  1
  Sn  Sn16  1  0.220318  0.440636  0.536796  1
  Sn  Sn17  1  0.440636  0.220318  0.463204  1
  Sn  Sn18  1  0.559364  0.779682  0.536796  1
  Sn  Sn19  1  0.348866  0.000000  0.000000  1
  Sn  Sn20  1  0.651134  0.000000  0.000000  1
  Sn  Sn21  1  0.000000  0.348866  0.000000  1
  Sn  Sn22  1  0.000000  0.651134  0.000000  1
  Sn  Sn23  1  0.651134  0.651134  0.000000  1
  Sn  Sn24  1  0.348866  0.348866  0.000000  1
  Sn  Sn25  1  0.333333  0.666667  0.130686  1
  Sn  Sn26  1  0.666667  0.333333  0.869314  1
  Sn  Sn27  1  0.333333  0.666667  0.822825  1
  Sn  Sn28  1  0.666667  0.333333  0.177175  1
  Sn  Sn29  1  0.000000  0.000000  0.500000  1
  Ru  Ru30  1  0.829559  0.170441  0.202726  1
  Ru  Ru31  1  0.170441  0.829559  0.797274  1
  Ru  Ru32  1  0.829559  0.659119  0.202726  1
  Ru  Ru33  1  0.170441  0.340881  0.797274  1
  Ru  Ru34  1  0.340881  0.170441  0.202726  1
  Ru  Ru35  1  0.659119  0.829559  0.797274  1
