# generated using pymatgen
data_Zr3CoSiAsIr3
_symmetry_space_group_name_H-M   'P 1'
_cell_length_a   6.48805000
_cell_length_b   6.48805040
_cell_length_c   4.03233500
_cell_angle_alpha   90.00000000
_cell_angle_beta   90.00000000
_cell_angle_gamma   120.00000818
_symmetry_Int_Tables_number   1
_chemical_formula_structural   Zr3CoSiAsIr3
_chemical_formula_sum   'Zr3 Co1 Si1 As1 Ir3'
_cell_volume   146.99941417
_cell_formula_units_Z   1
loop_
 _symmetry_equiv_pos_site_id
 _symmetry_equiv_pos_as_xyz
  1  'x, y, z'
loop_
 _atom_site_type_symbol
 _atom_site_label
 _atom_site_symmetry_multiplicity
 _atom_site_fract_x
 _atom_site_fract_y
 _atom_site_fract_z
 _atom_site_occupancy
  Zr  Zr0  1  0.005749  0.610401  0.500000  1
  Zr  Zr1  1  0.389599  0.395348  0.500000  1
  Zr  Zr2  1  0.604652  0.994251  0.500000  1
  Co  Co3  1  0.000000  0.000000  0.500000  1
  Si  Si4  1  0.333333  0.666667  0.000000  1
  As  As5  1  0.666667  0.333333  0.000000  1
  Ir  Ir6  1  0.235898  0.992532  0.000000  1
  Ir  Ir7  1  0.756634  0.764102  0.000000  1
  Ir  Ir8  1  0.007468  0.243366  0.000000  1
