# generated using pymatgen
data_PuAgF6
_symmetry_space_group_name_H-M   'P 1'
_cell_length_a   5.71824434
_cell_length_b   5.72323382
_cell_length_c   11.32682378
_cell_angle_alpha   75.47629131
_cell_angle_beta   75.32324104
_cell_angle_gamma   59.53126661
_symmetry_Int_Tables_number   1
_chemical_formula_structural   PuAgF6
_chemical_formula_sum   'Pu2 Ag2 F12'
_cell_volume   305.73249872
_cell_formula_units_Z   2
loop_
 _symmetry_equiv_pos_site_id
 _symmetry_equiv_pos_as_xyz
  1  'x, y, z'
loop_
 _atom_site_type_symbol
 _atom_site_label
 _atom_site_symmetry_multiplicity
 _atom_site_fract_x
 _atom_site_fract_y
 _atom_site_fract_z
 _atom_site_occupancy
  Pu  Pu0  1  0.246628  0.255804  0.249998  1
  Pu  Pu1  1  0.753372  0.744196  0.750002  1
  Ag  Ag2  1  0.500000  0.500000  0.500000  1
  Ag  Ag3  1  0.000000  0.000000  0.000000  1
  F  F4  1  0.240033  0.495879  0.362945  1
  F  F5  1  0.759967  0.504121  0.637055  1
  F  F6  1  0.891623  0.254347  0.362099  1
  F  F7  1  0.108377  0.745653  0.637901  1
  F  F8  1  0.601020  0.256395  0.137096  1
  F  F9  1  0.398980  0.743605  0.862904  1
  F  F10  1  0.251837  0.016635  0.136779  1
  F  F11  1  0.748163  0.983365  0.863221  1
  F  F12  1  0.996366  0.392986  0.861141  1
  F  F13  1  0.003634  0.607014  0.138859  1
  F  F14  1  0.513510  0.094467  0.638014  1
  F  F15  1  0.486490  0.905533  0.361986  1
