# generated using pymatgen
data_Yb19Cd5In3N7
_symmetry_space_group_name_H-M   'P 1'
_cell_length_a   10.30075918
_cell_length_b   10.30075917
_cell_length_c   10.28050907
_cell_angle_alpha   60.24983111
_cell_angle_beta   60.24983306
_cell_angle_gamma   60.26896061
_symmetry_Int_Tables_number   1
_chemical_formula_structural   Yb19Cd5In3N7
_chemical_formula_sum   'Yb19 Cd5 In3 N7'
_cell_volume   775.79940309
_cell_formula_units_Z   1
loop_
 _symmetry_equiv_pos_site_id
 _symmetry_equiv_pos_as_xyz
  1  'x, y, z'
loop_
 _atom_site_type_symbol
 _atom_site_label
 _atom_site_symmetry_multiplicity
 _atom_site_fract_x
 _atom_site_fract_y
 _atom_site_fract_z
 _atom_site_occupancy
  Yb  Yb0  1  0.175126  0.499744  0.825286  1
  Yb  Yb1  1  0.499738  0.824911  0.174769  1
  Yb  Yb2  1  0.825446  0.174760  0.499544  1
  Yb  Yb3  1  0.166001  0.834552  0.164500  1
  Yb  Yb4  1  0.824911  0.499738  0.174769  1
  Yb  Yb5  1  0.174760  0.825446  0.499544  1
  Yb  Yb6  1  0.165076  0.165076  0.835141  1
  Yb  Yb7  1  0.176344  0.499091  0.498721  1
  Yb  Yb8  1  0.834954  0.834954  0.164853  1
  Yb  Yb9  1  0.834749  0.165279  0.835109  1
  Yb  Yb10  1  0.499711  0.825381  0.499775  1
  Yb  Yb11  1  0.499969  0.499969  0.500093  1
  Yb  Yb12  1  0.499620  0.499620  0.175740  1
  Yb  Yb13  1  0.165279  0.834749  0.835109  1
  Yb  Yb14  1  0.499744  0.175126  0.825286  1
  Yb  Yb15  1  0.499091  0.176344  0.498721  1
  Yb  Yb16  1  0.825381  0.499711  0.499775  1
  Yb  Yb17  1  0.834552  0.166001  0.164500  1
  Yb  Yb18  1  0.500199  0.500199  0.824695  1
  Cd  Cd19  1  0.173919  0.173919  0.477782  1
  Cd  Cd20  1  0.827343  0.519447  0.826734  1
  Cd  Cd21  1  0.478882  0.174299  0.173604  1
  Cd  Cd22  1  0.174299  0.478882  0.173604  1
  Cd  Cd23  1  0.519447  0.827343  0.826734  1
  In  In24  1  0.174401  0.174401  0.175445  1
  In  In25  1  0.825287  0.825287  0.826113  1
  In  In26  1  0.825350  0.825350  0.523492  1
  N  N27  1  0.672165  0.328799  0.671887  1
  N  N28  1  0.671234  0.328437  0.328028  1
  N  N29  1  0.328799  0.672165  0.671887  1
  N  N30  1  0.328437  0.671234  0.328028  1
  N  N31  1  0.328008  0.328008  0.671568  1
  N  N32  1  0.672134  0.672134  0.328448  1
  N  N33  1  0.999643  0.999643  0.000718  1
