# generated using pymatgen
data_La2RhPbAu
_symmetry_space_group_name_H-M   'P 1'
_cell_length_a   8.11702900
_cell_length_b   8.11895600
_cell_length_c   3.76983800
_cell_angle_alpha   90.00000000
_cell_angle_beta   90.00000000
_cell_angle_gamma   90.00000000
_symmetry_Int_Tables_number   1
_chemical_formula_structural   La2RhPbAu
_chemical_formula_sum   'La4 Rh2 Pb2 Au2'
_cell_volume   248.43911482
_cell_formula_units_Z   2
loop_
 _symmetry_equiv_pos_site_id
 _symmetry_equiv_pos_as_xyz
  1  'x, y, z'
loop_
 _atom_site_type_symbol
 _atom_site_label
 _atom_site_symmetry_multiplicity
 _atom_site_fract_x
 _atom_site_fract_y
 _atom_site_fract_z
 _atom_site_occupancy
  La  La0  1  0.689017  0.179706  0.500000  1
  La  La1  1  0.156752  0.323052  0.500000  1
  La  La2  1  0.810983  0.679706  0.500000  1
  La  La3  1  0.343248  0.823052  0.500000  1
  Rh  Rh4  1  0.626615  0.867656  0.000000  1
  Rh  Rh5  1  0.873385  0.367656  0.000000  1
  Pb  Pb6  1  0.992316  0.004163  0.000000  1
  Pb  Pb7  1  0.507684  0.504163  0.000000  1
  Au  Au8  1  0.381288  0.125424  0.000000  1
  Au  Au9  1  0.118712  0.625424  0.000000  1
