# generated using pymatgen
data_Ac2ScBiO7
_symmetry_space_group_name_H-M   'P 1'
_cell_length_a   7.91982050
_cell_length_b   7.84363472
_cell_length_c   7.84363400
_cell_angle_alpha   59.66960005
_cell_angle_beta   59.67817182
_cell_angle_gamma   59.67816669
_symmetry_Int_Tables_number   1
_chemical_formula_structural   Ac2ScBiO7
_chemical_formula_sum   'Ac4 Sc2 Bi2 O14'
_cell_volume   341.99490114
_cell_formula_units_Z   2
loop_
 _symmetry_equiv_pos_site_id
 _symmetry_equiv_pos_as_xyz
  1  'x, y, z'
loop_
 _atom_site_type_symbol
 _atom_site_label
 _atom_site_symmetry_multiplicity
 _atom_site_fract_x
 _atom_site_fract_y
 _atom_site_fract_z
 _atom_site_occupancy
  Ac  Ac0  1  0.625000  0.125000  0.125000  1
  Ac  Ac1  1  0.125000  0.125000  0.125000  1
  Ac  Ac2  1  0.125000  0.625000  0.125000  1
  Ac  Ac3  1  0.125000  0.125000  0.625000  1
  Sc  Sc4  1  0.625000  0.625000  0.125000  1
  Sc  Sc5  1  0.625000  0.125000  0.625000  1
  Bi  Bi6  1  0.625000  0.625000  0.625000  1
  Bi  Bi7  1  0.125000  0.625000  0.625000  1
  O  O8  1  0.705986  0.294014  0.294014  1
  O  O9  1  0.709362  0.702906  0.295212  1
  O  O10  1  0.292520  0.702906  0.295212  1
  O  O11  1  0.000332  0.999668  0.999668  1
  O  O12  1  0.709362  0.295212  0.702906  1
  O  O13  1  0.957247  0.542753  0.542753  1
  O  O14  1  0.292753  0.707247  0.707247  1
  O  O15  1  0.540638  0.954788  0.547094  1
  O  O16  1  0.249668  0.250332  0.250332  1
  O  O17  1  0.957480  0.547094  0.954788  1
  O  O18  1  0.540638  0.547094  0.954788  1
  O  O19  1  0.957480  0.954788  0.547094  1
  O  O20  1  0.544014  0.955986  0.955986  1
  O  O21  1  0.292520  0.295212  0.702906  1
