# generated using pymatgen
data_BaAl2CuAu2
_symmetry_space_group_name_H-M   'P 1'
_cell_length_a   5.48342400
_cell_length_b   6.90352200
_cell_length_c   13.28523100
_cell_angle_alpha   90.00000000
_cell_angle_beta   90.00000000
_cell_angle_gamma   90.00000000
_symmetry_Int_Tables_number   1
_chemical_formula_structural   BaAl2CuAu2
_chemical_formula_sum   'Ba4 Al8 Cu4 Au8'
_cell_volume   502.91159873
_cell_formula_units_Z   4
loop_
 _symmetry_equiv_pos_site_id
 _symmetry_equiv_pos_as_xyz
  1  'x, y, z'
loop_
 _atom_site_type_symbol
 _atom_site_label
 _atom_site_symmetry_multiplicity
 _atom_site_fract_x
 _atom_site_fract_y
 _atom_site_fract_z
 _atom_site_occupancy
  Ba  Ba0  1  0.250000  0.622045  0.914271  1
  Ba  Ba1  1  0.250000  0.877955  0.414271  1
  Ba  Ba2  1  0.750000  0.377955  0.085729  1
  Ba  Ba3  1  0.750000  0.122045  0.585729  1
  Al  Al4  1  0.998255  0.114573  0.846534  1
  Al  Al5  1  0.501745  0.385427  0.346534  1
  Al  Al6  1  0.498255  0.885427  0.153466  1
  Al  Al7  1  0.001745  0.614573  0.653466  1
  Al  Al8  1  0.001745  0.885427  0.153466  1
  Al  Al9  1  0.498255  0.614573  0.653466  1
  Al  Al10  1  0.501745  0.114573  0.846534  1
  Al  Al11  1  0.998255  0.385427  0.346534  1
  Cu  Cu12  1  0.250000  0.312814  0.713010  1
  Cu  Cu13  1  0.250000  0.187186  0.213010  1
  Cu  Cu14  1  0.750000  0.687186  0.286990  1
  Cu  Cu15  1  0.750000  0.812814  0.786990  1
  Au  Au16  1  0.250000  0.915737  0.709141  1
  Au  Au17  1  0.250000  0.584263  0.209141  1
  Au  Au18  1  0.750000  0.084263  0.290859  1
  Au  Au19  1  0.750000  0.415737  0.790859  1
  Au  Au20  1  0.250000  0.393310  0.513702  1
  Au  Au21  1  0.250000  0.106690  0.013702  1
  Au  Au22  1  0.750000  0.606690  0.486298  1
  Au  Au23  1  0.750000  0.893310  0.986298  1
