# generated using pymatgen
data_Rb4Ba2HfP4
_symmetry_space_group_name_H-M   'P 1'
_cell_length_a   10.66682742
_cell_length_b   10.66682724
_cell_length_c   8.03055225
_cell_angle_alpha   88.36742209
_cell_angle_beta   88.36742243
_cell_angle_gamma   119.64589212
_symmetry_Int_Tables_number   1
_chemical_formula_structural   Rb4Ba2HfP4
_chemical_formula_sum   'Rb8 Ba4 Hf2 P8'
_cell_volume   792.84180652
_cell_formula_units_Z   2
loop_
 _symmetry_equiv_pos_site_id
 _symmetry_equiv_pos_as_xyz
  1  'x, y, z'
loop_
 _atom_site_type_symbol
 _atom_site_label
 _atom_site_symmetry_multiplicity
 _atom_site_fract_x
 _atom_site_fract_y
 _atom_site_fract_z
 _atom_site_occupancy
  Rb  Rb0  1  0.059206  0.526900  0.612654  1
  Rb  Rb1  1  0.526900  0.059206  0.112654  1
  Rb  Rb2  1  0.276856  0.132647  0.825562  1
  Rb  Rb3  1  0.872692  0.733462  0.764342  1
  Rb  Rb4  1  0.860138  0.142552  0.798686  1
  Rb  Rb5  1  0.733462  0.872692  0.264342  1
  Rb  Rb6  1  0.132647  0.276856  0.325562  1
  Rb  Rb7  1  0.142552  0.860138  0.298686  1
  Ba  Ba8  1  0.465017  0.930323  0.602825  1
  Ba  Ba9  1  0.465088  0.525153  0.619417  1
  Ba  Ba10  1  0.930323  0.465017  0.102825  1
  Ba  Ba11  1  0.525153  0.465088  0.119417  1
  Hf  Hf12  1  0.666192  0.335929  0.511271  1
  Hf  Hf13  1  0.335929  0.666192  0.011271  1
  P  P14  1  0.672233  0.357796  0.828006  1
  P  P15  1  0.357796  0.672233  0.328006  1
  P  P16  1  0.588253  0.786413  0.874325  1
  P  P17  1  0.208198  0.405511  0.925741  1
  P  P18  1  0.201038  0.788404  0.905918  1
  P  P19  1  0.405511  0.208198  0.425741  1
  P  P20  1  0.786413  0.588253  0.374325  1
  P  P21  1  0.788404  0.201038  0.405918  1
