# generated using pymatgen
data_Nd4Ga3CoTe2
_symmetry_space_group_name_H-M   'P 1'
_cell_length_a   4.26817800
_cell_length_b   4.26817700
_cell_length_c   16.62665100
_cell_angle_alpha   90.00000000
_cell_angle_beta   90.00000000
_cell_angle_gamma   119.99999224
_symmetry_Int_Tables_number   1
_chemical_formula_structural   Nd4Ga3CoTe2
_chemical_formula_sum   'Nd4 Ga3 Co1 Te2'
_cell_volume   262.31334815
_cell_formula_units_Z   1
loop_
 _symmetry_equiv_pos_site_id
 _symmetry_equiv_pos_as_xyz
  1  'x, y, z'
loop_
 _atom_site_type_symbol
 _atom_site_label
 _atom_site_symmetry_multiplicity
 _atom_site_fract_x
 _atom_site_fract_y
 _atom_site_fract_z
 _atom_site_occupancy
  Nd  Nd0  1  0.000000  0.000000  0.115977  1
  Nd  Nd1  1  0.000000  0.000000  0.884986  1
  Nd  Nd2  1  0.000000  0.000000  0.626865  1
  Nd  Nd3  1  0.000000  0.000000  0.372789  1
  Ga  Ga4  1  0.333333  0.666667  0.516434  1
  Ga  Ga5  1  0.666667  0.333333  0.482888  1
  Ga  Ga6  1  0.666667  0.333333  0.001087  1
  Co  Co7  1  0.333333  0.666667  0.999411  1
  Te  Te8  1  0.333333  0.666667  0.246542  1
  Te  Te9  1  0.666667  0.333333  0.753020  1
