# generated using pymatgen
data_YErWO6
_symmetry_space_group_name_H-M   'P 1'
_cell_length_a   5.39657800
_cell_length_b   7.69639487
_cell_length_c   11.42336719
_cell_angle_alpha   75.59073783
_cell_angle_beta   90.00000000
_cell_angle_gamma   90.00000000
_symmetry_Int_Tables_number   1
_chemical_formula_structural   YErWO6
_chemical_formula_sum   'Y4 Er4 W4 O24'
_cell_volume   459.53523829
_cell_formula_units_Z   4
loop_
 _symmetry_equiv_pos_site_id
 _symmetry_equiv_pos_as_xyz
  1  'x, y, z'
loop_
 _atom_site_type_symbol
 _atom_site_label
 _atom_site_symmetry_multiplicity
 _atom_site_fract_x
 _atom_site_fract_y
 _atom_site_fract_z
 _atom_site_occupancy
  Y  Y0  1  0.683853  0.500000  0.250000  1
  Y  Y1  1  0.316147  0.500000  0.750000  1
  Y  Y2  1  0.741382  0.000000  0.250000  1
  Y  Y3  1  0.258618  0.000000  0.750000  1
  Er  Er4  1  0.183263  0.206370  0.421896  1
  Er  Er5  1  0.183263  0.793630  0.078104  1
  Er  Er6  1  0.816737  0.793630  0.578104  1
  Er  Er7  1  0.816737  0.206370  0.921896  1
  W  W8  1  0.255889  0.276151  0.114573  1
  W  W9  1  0.255889  0.723849  0.385427  1
  W  W10  1  0.744111  0.723849  0.885427  1
  W  W11  1  0.744111  0.276151  0.614573  1
  O  O12  1  0.456072  0.208902  0.273512  1
  O  O13  1  0.456072  0.791098  0.226488  1
  O  O14  1  0.543928  0.791098  0.726488  1
  O  O15  1  0.543928  0.208902  0.773512  1
  O  O16  1  0.046511  0.059694  0.103354  1
  O  O17  1  0.046511  0.940306  0.396646  1
  O  O18  1  0.953489  0.940306  0.896646  1
  O  O19  1  0.953489  0.059694  0.603354  1
  O  O20  1  0.981502  0.288602  0.229123  1
  O  O21  1  0.981502  0.711398  0.270877  1
  O  O22  1  0.018498  0.711398  0.770877  1
  O  O23  1  0.018498  0.288602  0.729123  1
  O  O24  1  0.850979  0.364803  0.451355  1
  O  O25  1  0.850979  0.635197  0.048645  1
  O  O26  1  0.149021  0.635197  0.548645  1
  O  O27  1  0.149021  0.364803  0.951355  1
  O  O28  1  0.641196  0.510583  0.613945  1
  O  O29  1  0.641196  0.489417  0.886055  1
  O  O30  1  0.358804  0.489417  0.386055  1
  O  O31  1  0.358804  0.510583  0.113945  1
  O  O32  1  0.463883  0.155312  0.568126  1
  O  O33  1  0.463883  0.844688  0.931874  1
  O  O34  1  0.536117  0.844688  0.431874  1
  O  O35  1  0.536117  0.155312  0.068126  1
