# generated using pymatgen
data_Nd2Th5Se12
_symmetry_space_group_name_H-M   'P 1'
_cell_length_a   4.13689300
_cell_length_b   11.78608284
_cell_length_c   11.77022149
_cell_angle_alpha   120.25291187
_cell_angle_beta   90.00000000
_cell_angle_gamma   90.00000000
_symmetry_Int_Tables_number   1
_chemical_formula_structural   Nd2Th5Se12
_chemical_formula_sum   'Nd2 Th5 Se12'
_cell_volume   495.73158504
_cell_formula_units_Z   1
loop_
 _symmetry_equiv_pos_site_id
 _symmetry_equiv_pos_as_xyz
  1  'x, y, z'
loop_
 _atom_site_type_symbol
 _atom_site_label
 _atom_site_symmetry_multiplicity
 _atom_site_fract_x
 _atom_site_fract_y
 _atom_site_fract_z
 _atom_site_occupancy
  Nd  Nd0  1  0.750000  0.993537  0.993476  1
  Nd  Nd1  1  0.750000  0.721391  0.570058  1
  Th  Th2  1  0.750000  0.429388  0.152492  1
  Th  Th3  1  0.750000  0.851073  0.280679  1
  Th  Th4  1  0.250000  0.287951  0.440736  1
  Th  Th5  1  0.250000  0.559837  0.844803  1
  Th  Th6  1  0.250000  0.154235  0.713218  1
  Se  Se7  1  0.750000  0.007783  0.751071  1
  Se  Se8  1  0.750000  0.244728  0.251694  1
  Se  Se9  1  0.750000  0.744820  0.996368  1
  Se  Se10  1  0.250000  0.995060  0.215081  1
  Se  Se11  1  0.250000  0.789397  0.788467  1
  Se  Se12  1  0.250000  0.220500  0.005346  1
  Se  Se13  1  0.750000  0.375165  0.861732  1
  Se  Se14  1  0.750000  0.140248  0.513284  1
  Se  Se15  1  0.750000  0.485808  0.626092  1
  Se  Se16  1  0.250000  0.615489  0.140531  1
  Se  Se17  1  0.250000  0.861611  0.473340  1
  Se  Se18  1  0.250000  0.521978  0.381534  1
