# generated using pymatgen
data_Li6Lu2PaN6
_symmetry_space_group_name_H-M   'P 1'
_cell_length_a   5.95564500
_cell_length_b   5.95564623
_cell_length_c   5.46755000
_cell_angle_alpha   90.00000000
_cell_angle_beta   90.00000000
_cell_angle_gamma   119.99999871
_symmetry_Int_Tables_number   1
_chemical_formula_structural   Li6Lu2PaN6
_chemical_formula_sum   'Li6 Lu2 Pa1 N6'
_cell_volume   167.95042065
_cell_formula_units_Z   1
loop_
 _symmetry_equiv_pos_site_id
 _symmetry_equiv_pos_as_xyz
  1  'x, y, z'
loop_
 _atom_site_type_symbol
 _atom_site_label
 _atom_site_symmetry_multiplicity
 _atom_site_fract_x
 _atom_site_fract_y
 _atom_site_fract_z
 _atom_site_occupancy
  Li  Li0  1  0.991824  0.659955  0.608694  1
  Li  Li1  1  0.340045  0.331869  0.608694  1
  Li  Li2  1  0.668131  0.008176  0.608694  1
  Li  Li3  1  0.008176  0.340045  0.391306  1
  Li  Li4  1  0.659955  0.668131  0.391306  1
  Li  Li5  1  0.331869  0.991824  0.391306  1
  Lu  Lu6  1  0.333333  0.666667  0.995143  1
  Lu  Lu7  1  0.666667  0.333333  0.004857  1
  Pa  Pa8  1  0.000000  0.000000  0.000000  1
  N  N9  1  0.999696  0.674368  0.226775  1
  N  N10  1  0.325632  0.325328  0.226775  1
  N  N11  1  0.674672  0.000304  0.226775  1
  N  N12  1  0.000304  0.325632  0.773225  1
  N  N13  1  0.674368  0.674672  0.773225  1
  N  N14  1  0.325328  0.999696  0.773225  1
