# generated using pymatgen
data_DyTh3(ReC2)2
_symmetry_space_group_name_H-M   'P 1'
_cell_length_a   5.32650600
_cell_length_b   6.68547400
_cell_length_c   10.01188600
_cell_angle_alpha   90.00000000
_cell_angle_beta   90.00000000
_cell_angle_gamma   90.00000000
_symmetry_Int_Tables_number   1
_chemical_formula_structural   DyTh3(ReC2)2
_chemical_formula_sum   'Dy2 Th6 Re4 C8'
_cell_volume   356.52543678
_cell_formula_units_Z   2
loop_
 _symmetry_equiv_pos_site_id
 _symmetry_equiv_pos_as_xyz
  1  'x, y, z'
loop_
 _atom_site_type_symbol
 _atom_site_label
 _atom_site_symmetry_multiplicity
 _atom_site_fract_x
 _atom_site_fract_y
 _atom_site_fract_z
 _atom_site_occupancy
  Dy  Dy0  1  0.250000  0.319377  0.446124  1
  Dy  Dy1  1  0.750000  0.180623  0.946124  1
  Th  Th2  1  0.250000  0.468748  0.781152  1
  Th  Th3  1  0.750000  0.031252  0.281152  1
  Th  Th4  1  0.250000  0.975237  0.718762  1
  Th  Th5  1  0.750000  0.524763  0.218762  1
  Th  Th6  1  0.250000  0.815512  0.047930  1
  Th  Th7  1  0.750000  0.684488  0.547930  1
  Re  Re8  1  0.250000  0.272322  0.137381  1
  Re  Re9  1  0.750000  0.227678  0.637381  1
  Re  Re10  1  0.250000  0.771094  0.363260  1
  Re  Re11  1  0.750000  0.728906  0.863260  1
  C  C12  1  0.250000  0.170163  0.948249  1
  C  C13  1  0.750000  0.833099  0.052537  1
  C  C14  1  0.250000  0.666901  0.552537  1
  C  C15  1  0.750000  0.329837  0.448249  1
  C  C16  1  0.250000  0.038297  0.261141  1
  C  C17  1  0.750000  0.461703  0.761141  1
  C  C18  1  0.250000  0.533184  0.243463  1
  C  C19  1  0.750000  0.966816  0.743463  1
