# generated using pymatgen
data_Sr9Yb2Mn5O21
_symmetry_space_group_name_H-M   'P 1'
_cell_length_a   9.70608414
_cell_length_b   9.70608353
_cell_length_c   13.40521000
_cell_angle_alpha   68.77529392
_cell_angle_beta   68.77529531
_cell_angle_gamma   60.00000173
_symmetry_Int_Tables_number   1
_chemical_formula_structural   Sr9Yb2Mn5O21
_chemical_formula_sum   'Sr18 Yb4 Mn10 O42'
_cell_volume   993.53884243
_cell_formula_units_Z   2
loop_
 _symmetry_equiv_pos_site_id
 _symmetry_equiv_pos_as_xyz
  1  'x, y, z'
loop_
 _atom_site_type_symbol
 _atom_site_label
 _atom_site_symmetry_multiplicity
 _atom_site_fract_x
 _atom_site_fract_y
 _atom_site_fract_z
 _atom_site_occupancy
  Sr  Sr0  1  0.928951  0.571049  0.250000  1
  Sr  Sr1  1  0.571049  0.250000  0.250000  1
  Sr  Sr2  1  0.250000  0.928951  0.250000  1
  Sr  Sr3  1  0.428951  0.750000  0.750000  1
  Sr  Sr4  1  0.750000  0.071049  0.750000  1
  Sr  Sr5  1  0.071049  0.428951  0.750000  1
  Sr  Sr6  1  0.994795  0.276042  0.090161  1
  Sr  Sr7  1  0.276042  0.639003  0.090161  1
  Sr  Sr8  1  0.639003  0.994795  0.090161  1
  Sr  Sr9  1  0.494795  0.139003  0.590161  1
  Sr  Sr10  1  0.139003  0.776042  0.590161  1
  Sr  Sr11  1  0.776042  0.494795  0.590161  1
  Sr  Sr12  1  0.005205  0.723958  0.909839  1
  Sr  Sr13  1  0.723958  0.360997  0.909839  1
  Sr  Sr14  1  0.360997  0.005205  0.909839  1
  Sr  Sr15  1  0.505205  0.860997  0.409839  1
  Sr  Sr16  1  0.860997  0.223958  0.409839  1
  Sr  Sr17  1  0.223958  0.505205  0.409839  1
  Yb  Yb18  1  0.858257  0.858257  0.425229  1
  Yb  Yb19  1  0.358257  0.358257  0.925229  1
  Yb  Yb20  1  0.141743  0.141743  0.574771  1
  Yb  Yb21  1  0.641743  0.641743  0.074771  1
  Mn  Mn22  1  0.714911  0.714911  0.855265  1
  Mn  Mn23  1  0.214911  0.214911  0.355265  1
  Mn  Mn24  1  0.285089  0.285089  0.144735  1
  Mn  Mn25  1  0.785089  0.785089  0.644735  1
  Mn  Mn26  1  0.568796  0.568796  0.293612  1
  Mn  Mn27  1  0.068796  0.068796  0.793612  1
  Mn  Mn28  1  0.431204  0.431204  0.706388  1
  Mn  Mn29  1  0.931204  0.931204  0.206388  1
  Mn  Mn30  1  0.500000  0.500000  0.500000  1
  Mn  Mn31  1  0.000000  0.000000  0.000000  1
  O  O32  1  0.766219  0.445694  0.211072  1
  O  O33  1  0.445694  0.577016  0.211072  1
  O  O34  1  0.577016  0.766219  0.211072  1
  O  O35  1  0.266219  0.077016  0.711072  1
  O  O36  1  0.077016  0.945694  0.711072  1
  O  O37  1  0.945694  0.266219  0.711072  1
  O  O38  1  0.233781  0.554306  0.788928  1
  O  O39  1  0.554306  0.422984  0.788928  1
  O  O40  1  0.422984  0.233781  0.788928  1
  O  O41  1  0.733781  0.922984  0.288928  1
  O  O42  1  0.922984  0.054306  0.288928  1
  O  O43  1  0.054306  0.733781  0.288928  1
  O  O44  1  0.401557  0.098443  0.250000  1
  O  O45  1  0.098443  0.250000  0.250000  1
  O  O46  1  0.250000  0.401557  0.250000  1
  O  O47  1  0.901557  0.750000  0.750000  1
  O  O48  1  0.750000  0.598443  0.750000  1
  O  O49  1  0.598443  0.901557  0.750000  1
  O  O50  1  0.977328  0.645313  0.558544  1
  O  O51  1  0.645313  0.818815  0.558544  1
  O  O52  1  0.818815  0.977328  0.558544  1
  O  O53  1  0.477328  0.318815  0.058544  1
  O  O54  1  0.318815  0.145313  0.058544  1
  O  O55  1  0.145313  0.477328  0.058544  1
  O  O56  1  0.022672  0.354687  0.441456  1
  O  O57  1  0.354687  0.181185  0.441456  1
  O  O58  1  0.181185  0.022672  0.441456  1
  O  O59  1  0.522672  0.681185  0.941456  1
  O  O60  1  0.681185  0.854687  0.941456  1
  O  O61  1  0.854687  0.522672  0.941456  1
  O  O62  1  0.550699  0.367510  0.403284  1
  O  O63  1  0.367510  0.678506  0.403284  1
  O  O64  1  0.678506  0.550699  0.403284  1
  O  O65  1  0.050699  0.178506  0.903284  1
  O  O66  1  0.178506  0.867510  0.903284  1
  O  O67  1  0.867510  0.050699  0.903284  1
  O  O68  1  0.449301  0.632490  0.596716  1
  O  O69  1  0.632490  0.321494  0.596716  1
  O  O70  1  0.321494  0.449301  0.596716  1
  O  O71  1  0.949301  0.821494  0.096716  1
  O  O72  1  0.821494  0.132490  0.096716  1
  O  O73  1  0.132490  0.949301  0.096716  1
