# generated using pymatgen
data_TbHo3Ga18Co5Pd
_symmetry_space_group_name_H-M   'P 1'
_cell_length_a   7.40885161
_cell_length_b   7.40718268
_cell_length_c   9.42998380
_cell_angle_alpha   89.85414809
_cell_angle_beta   89.83735857
_cell_angle_gamma   119.54994863
_symmetry_Int_Tables_number   1
_chemical_formula_structural   TbHo3Ga18Co5Pd
_chemical_formula_sum   'Tb1 Ho3 Ga18 Co5 Pd1'
_cell_volume   450.18501585
_cell_formula_units_Z   1
loop_
 _symmetry_equiv_pos_site_id
 _symmetry_equiv_pos_as_xyz
  1  'x, y, z'
loop_
 _atom_site_type_symbol
 _atom_site_label
 _atom_site_symmetry_multiplicity
 _atom_site_fract_x
 _atom_site_fract_y
 _atom_site_fract_z
 _atom_site_occupancy
  Tb  Tb0  1  0.326724  0.002488  0.748622  1
  Ho  Ho1  1  0.002535  0.326597  0.748536  1
  Ho  Ho2  1  0.673683  0.997570  0.251417  1
  Ho  Ho3  1  0.997360  0.673523  0.251353  1
  Ga  Ga4  1  0.656024  0.999598  0.924222  1
  Ga  Ga5  1  0.335820  0.998085  0.427269  1
  Ga  Ga6  1  0.997702  0.335727  0.427858  1
  Ga  Ga7  1  0.344814  0.000307  0.077077  1
  Ga  Ga8  1  0.998885  0.654537  0.924202  1
  Ga  Ga9  1  0.000054  0.344495  0.076535  1
  Ga  Ga10  1  0.332992  0.333400  0.556080  1
  Ga  Ga11  1  0.343502  0.343833  0.937499  1
  Ga  Ga12  1  0.656952  0.656831  0.063654  1
  Ga  Ga13  1  0.667199  0.667115  0.442617  1
  Ga  Ga14  1  0.869008  0.869453  0.741809  1
  Ga  Ga15  1  0.130686  0.130836  0.258171  1
  Ga  Ga16  1  0.336004  0.554702  0.251666  1
  Ga  Ga17  1  0.554879  0.336166  0.251754  1
  Ga  Ga18  1  0.664580  0.446121  0.748400  1
  Ga  Ga19  1  0.445708  0.663353  0.748382  1
  Ga  Ga20  1  0.664971  0.002133  0.571299  1
  Ga  Ga21  1  0.001133  0.663618  0.571334  1
  Co  Co22  1  0.328853  0.671214  0.000397  1
  Co  Co23  1  0.670688  0.329039  0.499937  1
  Co  Co24  1  0.670693  0.328749  0.000446  1
  Co  Co25  1  0.328986  0.671086  0.499867  1
  Co  Co26  1  0.999691  0.999765  0.499371  1
  Pd  Pd27  1  0.999872  0.999661  0.000226  1
