# generated using pymatgen
data_Ce8Be(CuSi4)3
_symmetry_space_group_name_H-M   'P 1'
_cell_length_a   8.01902900
_cell_length_b   8.01902977
_cell_length_c   8.45371000
_cell_angle_alpha   90.00000000
_cell_angle_beta   90.00000000
_cell_angle_gamma   119.99999272
_symmetry_Int_Tables_number   1
_chemical_formula_structural   Ce8Be(CuSi4)3
_chemical_formula_sum   'Ce8 Be1 Cu3 Si12'
_cell_volume   470.78391771
_cell_formula_units_Z   1
loop_
 _symmetry_equiv_pos_site_id
 _symmetry_equiv_pos_as_xyz
  1  'x, y, z'
loop_
 _atom_site_type_symbol
 _atom_site_label
 _atom_site_symmetry_multiplicity
 _atom_site_fract_x
 _atom_site_fract_y
 _atom_site_fract_z
 _atom_site_occupancy
  Ce  Ce0  1  0.000000  0.000000  0.249450  1
  Ce  Ce1  1  0.000000  0.000000  0.750476  1
  Ce  Ce2  1  0.498925  0.501075  0.248151  1
  Ce  Ce3  1  0.498925  0.997850  0.248151  1
  Ce  Ce4  1  0.002150  0.501075  0.248151  1
  Ce  Ce5  1  0.498395  0.501605  0.751918  1
  Ce  Ce6  1  0.498395  0.996789  0.751918  1
  Ce  Ce7  1  0.003211  0.501605  0.751918  1
  Be  Be8  1  0.333333  0.666667  0.000553  1
  Cu  Cu9  1  0.333333  0.666667  0.498897  1
  Cu  Cu10  1  0.666667  0.333333  0.502078  1
  Cu  Cu11  1  0.666667  0.333333  0.998492  1
  Si  Si12  1  0.168282  0.831718  0.499494  1
  Si  Si13  1  0.168282  0.336565  0.499494  1
  Si  Si14  1  0.663435  0.831718  0.499494  1
  Si  Si15  1  0.831361  0.168639  0.499897  1
  Si  Si16  1  0.831361  0.662721  0.499897  1
  Si  Si17  1  0.337279  0.168639  0.499897  1
  Si  Si18  1  0.832050  0.167950  0.999962  1
  Si  Si19  1  0.832050  0.664100  0.999962  1
  Si  Si20  1  0.335900  0.167950  0.999962  1
  Si  Si21  1  0.172709  0.827291  0.000597  1
  Si  Si22  1  0.172709  0.345418  0.000597  1
  Si  Si23  1  0.654582  0.827291  0.000597  1
