# generated using pymatgen
data_Ho16Zn3InRh4
_symmetry_space_group_name_H-M   'P 1'
_cell_length_a   9.50865903
_cell_length_b   9.49589622
_cell_length_c   9.50865900
_cell_angle_alpha   59.95552636
_cell_angle_beta   59.99999664
_cell_angle_gamma   59.95552949
_symmetry_Int_Tables_number   1
_chemical_formula_structural   Ho16Zn3InRh4
_chemical_formula_sum   'Ho16 Zn3 In1 Rh4'
_cell_volume   606.69056409
_cell_formula_units_Z   1
loop_
 _symmetry_equiv_pos_site_id
 _symmetry_equiv_pos_as_xyz
  1  'x, y, z'
loop_
 _atom_site_type_symbol
 _atom_site_label
 _atom_site_symmetry_multiplicity
 _atom_site_fract_x
 _atom_site_fract_y
 _atom_site_fract_z
 _atom_site_occupancy
  Ho  Ho0  1  0.190093  0.180479  0.814714  1
  Ho  Ho1  1  0.602332  0.603364  0.191972  1
  Ho  Ho2  1  0.440010  0.060102  0.440010  1
  Ho  Ho3  1  0.440131  0.440520  0.059674  1
  Ho  Ho4  1  0.814714  0.180479  0.814714  1
  Ho  Ho5  1  0.185550  0.813937  0.185550  1
  Ho  Ho6  1  0.440010  0.060102  0.059878  1
  Ho  Ho7  1  0.185550  0.813937  0.814962  1
  Ho  Ho8  1  0.059674  0.440520  0.059674  1
  Ho  Ho9  1  0.814962  0.813937  0.185550  1
  Ho  Ho10  1  0.191972  0.603364  0.602332  1
  Ho  Ho11  1  0.059674  0.440520  0.440131  1
  Ho  Ho12  1  0.059878  0.060102  0.440010  1
  Ho  Ho13  1  0.814714  0.180479  0.190093  1
  Ho  Ho14  1  0.603794  0.188618  0.603794  1
  Ho  Ho15  1  0.602332  0.603364  0.602332  1
  Zn  Zn16  1  0.830219  0.833079  0.830219  1
  Zn  Zn17  1  0.830219  0.833079  0.506483  1
  Zn  Zn18  1  0.506483  0.833079  0.830219  1
  In  In19  1  0.828063  0.515813  0.828063  1
  Rh  Rh20  1  0.392921  0.821237  0.392921  1
  Rh  Rh21  1  0.393631  0.393296  0.393631  1
  Rh  Rh22  1  0.819443  0.393296  0.393631  1
  Rh  Rh23  1  0.393631  0.393296  0.819443  1
