# generated using pymatgen
data_Ba2Fe2CoN3
_symmetry_space_group_name_H-M   'P 1'
_cell_length_a   6.77876319
_cell_length_b   6.77876284
_cell_length_c   6.59621581
_cell_angle_alpha   87.68184545
_cell_angle_beta   87.68184002
_cell_angle_gamma   118.10010745
_symmetry_Int_Tables_number   1
_chemical_formula_structural   Ba2Fe2CoN3
_chemical_formula_sum   'Ba4 Fe4 Co2 N6'
_cell_volume   266.55018807
_cell_formula_units_Z   2
loop_
 _symmetry_equiv_pos_site_id
 _symmetry_equiv_pos_as_xyz
  1  'x, y, z'
loop_
 _atom_site_type_symbol
 _atom_site_label
 _atom_site_symmetry_multiplicity
 _atom_site_fract_x
 _atom_site_fract_y
 _atom_site_fract_z
 _atom_site_occupancy
  Ba  Ba0  1  0.838430  0.674406  0.901374  1
  Ba  Ba1  1  0.325594  0.161570  0.598626  1
  Ba  Ba2  1  0.161570  0.325594  0.098626  1
  Ba  Ba3  1  0.674406  0.838430  0.401374  1
  Fe  Fe4  1  0.554386  0.150960  0.105706  1
  Fe  Fe5  1  0.445614  0.849040  0.894294  1
  Fe  Fe6  1  0.849040  0.445614  0.394294  1
  Fe  Fe7  1  0.150960  0.554386  0.605706  1
  Co  Co8  1  0.800162  0.199838  0.750000  1
  Co  Co9  1  0.199838  0.800162  0.250000  1
  N  N10  1  0.384241  0.615759  0.750000  1
  N  N11  1  0.615759  0.384241  0.250000  1
  N  N12  1  0.026697  0.723002  0.487787  1
  N  N13  1  0.723002  0.026697  0.987787  1
  N  N14  1  0.973303  0.276998  0.512213  1
  N  N15  1  0.276998  0.973303  0.012213  1
