# generated using pymatgen
data_Ce5HoFe3(Co5P4)3
_symmetry_space_group_name_H-M   'P 1'
_cell_length_a   3.74680600
_cell_length_b   10.53330700
_cell_length_c   12.29730100
_cell_angle_alpha   90.00000000
_cell_angle_beta   90.00000000
_cell_angle_gamma   90.00000000
_symmetry_Int_Tables_number   1
_chemical_formula_structural   Ce5HoFe3(Co5P4)3
_chemical_formula_sum   'Ce5 Ho1 Fe3 Co15 P12'
_cell_volume   485.32845234
_cell_formula_units_Z   1
loop_
 _symmetry_equiv_pos_site_id
 _symmetry_equiv_pos_as_xyz
  1  'x, y, z'
loop_
 _atom_site_type_symbol
 _atom_site_label
 _atom_site_symmetry_multiplicity
 _atom_site_fract_x
 _atom_site_fract_y
 _atom_site_fract_z
 _atom_site_occupancy
  Ce  Ce0  1  0.500000  0.000000  0.478004  1
  Ce  Ce1  1  0.500000  0.817532  0.207134  1
  Ce  Ce2  1  0.500000  0.182468  0.207134  1
  Ce  Ce3  1  0.000000  0.679565  0.792683  1
  Ce  Ce4  1  0.000000  0.320435  0.792683  1
  Ho  Ho5  1  0.000000  0.500000  0.517608  1
  Fe  Fe6  1  0.000000  0.500000  0.988066  1
  Fe  Fe7  1  0.500000  0.500000  0.156371  1
  Fe  Fe8  1  0.000000  0.000000  0.843857  1
  Co  Co9  1  0.500000  0.000000  0.013908  1
  Co  Co10  1  0.500000  0.300112  0.430011  1
  Co  Co11  1  0.500000  0.699888  0.430011  1
  Co  Co12  1  0.000000  0.202197  0.569860  1
  Co  Co13  1  0.000000  0.797803  0.569860  1
  Co  Co14  1  0.500000  0.878371  0.710043  1
  Co  Co15  1  0.500000  0.121629  0.710043  1
  Co  Co16  1  0.000000  0.620946  0.288511  1
  Co  Co17  1  0.000000  0.379054  0.288511  1
  Co  Co18  1  0.500000  0.331064  0.996090  1
  Co  Co19  1  0.500000  0.668936  0.996090  1
  Co  Co20  1  0.000000  0.165895  0.004089  1
  Co  Co21  1  0.000000  0.834105  0.004089  1
  Co  Co22  1  0.500000  0.500000  0.706150  1
  Co  Co23  1  0.000000  0.000000  0.297285  1
  P  P24  1  0.500000  0.311880  0.612933  1
  P  P25  1  0.500000  0.688120  0.612933  1
  P  P26  1  0.000000  0.193861  0.386777  1
  P  P27  1  0.000000  0.806139  0.386777  1
  P  P28  1  0.500000  0.500000  0.888763  1
  P  P29  1  0.000000  0.000000  0.114582  1
  P  P30  1  0.500000  0.847918  0.893956  1
  P  P31  1  0.500000  0.152082  0.893956  1
  P  P32  1  0.000000  0.652382  0.104741  1
  P  P33  1  0.000000  0.347618  0.104741  1
  P  P34  1  0.500000  0.500000  0.341576  1
  P  P35  1  0.000000  0.000000  0.660175  1
