# generated using pymatgen
data_Pr2Ge2Pt3Rh
_symmetry_space_group_name_H-M   'P 1'
_cell_length_a   9.73576189
_cell_length_b   9.73576069
_cell_length_c   4.17700200
_cell_angle_alpha   90.00000000
_cell_angle_beta   90.00000000
_cell_angle_gamma   155.82072714
_symmetry_Int_Tables_number   1
_chemical_formula_structural   Pr2Ge2Pt3Rh
_chemical_formula_sum   'Pr2 Ge2 Pt3 Rh1'
_cell_volume   162.16498514
_cell_formula_units_Z   1
loop_
 _symmetry_equiv_pos_site_id
 _symmetry_equiv_pos_as_xyz
  1  'x, y, z'
loop_
 _atom_site_type_symbol
 _atom_site_label
 _atom_site_symmetry_multiplicity
 _atom_site_fract_x
 _atom_site_fract_y
 _atom_site_fract_z
 _atom_site_occupancy
  Pr  Pr0  1  0.101168  0.898832  0.750000  1
  Pr  Pr1  1  0.898337  0.101663  0.250000  1
  Ge  Ge2  1  0.324698  0.675302  0.750000  1
  Ge  Ge3  1  0.675395  0.324605  0.250000  1
  Pt  Pt4  1  0.545218  0.454782  0.250000  1
  Pt  Pt5  1  0.454860  0.545140  0.750000  1
  Pt  Pt6  1  0.250417  0.749583  0.250000  1
  Rh  Rh7  1  0.749907  0.250093  0.750000  1
