# generated using pymatgen
data_La2CdCuIr
_symmetry_space_group_name_H-M   'P 1'
_cell_length_a   7.76411800
_cell_length_b   7.84160000
_cell_length_c   3.98858600
_cell_angle_alpha   90.00000000
_cell_angle_beta   90.00000000
_cell_angle_gamma   90.00000000
_symmetry_Int_Tables_number   1
_chemical_formula_structural   La2CdCuIr
_chemical_formula_sum   'La4 Cd2 Cu2 Ir2'
_cell_volume   242.83751104
_cell_formula_units_Z   2
loop_
 _symmetry_equiv_pos_site_id
 _symmetry_equiv_pos_as_xyz
  1  'x, y, z'
loop_
 _atom_site_type_symbol
 _atom_site_label
 _atom_site_symmetry_multiplicity
 _atom_site_fract_x
 _atom_site_fract_y
 _atom_site_fract_z
 _atom_site_occupancy
  La  La0  1  0.825744  0.687458  0.500000  1
  La  La1  1  0.325744  0.812542  0.500000  1
  La  La2  1  0.675718  0.153460  0.500000  1
  La  La3  1  0.175718  0.346540  0.500000  1
  Cd  Cd4  1  0.006737  0.008596  0.000000  1
  Cd  Cd5  1  0.506737  0.491404  0.000000  1
  Cu  Cu6  1  0.870489  0.381266  0.000000  1
  Cu  Cu7  1  0.370489  0.118734  0.000000  1
  Ir  Ir8  1  0.621311  0.884036  0.000000  1
  Ir  Ir9  1  0.121311  0.615964  0.000000  1
