# generated using pymatgen
data_Tb12NiPd2Rh
_symmetry_space_group_name_H-M   'P 1'
_cell_length_a   6.43345956
_cell_length_b   7.04595279
_cell_length_c   9.63885200
_cell_angle_alpha   90.00000000
_cell_angle_beta   90.00000000
_cell_angle_gamma   90.16026249
_symmetry_Int_Tables_number   1
_chemical_formula_structural   Tb12NiPd2Rh
_chemical_formula_sum   'Tb12 Ni1 Pd2 Rh1'
_cell_volume   436.92602841
_cell_formula_units_Z   1
loop_
 _symmetry_equiv_pos_site_id
 _symmetry_equiv_pos_as_xyz
  1  'x, y, z'
loop_
 _atom_site_type_symbol
 _atom_site_label
 _atom_site_symmetry_multiplicity
 _atom_site_fract_x
 _atom_site_fract_y
 _atom_site_fract_z
 _atom_site_occupancy
  Tb  Tb0  1  0.322231  0.683339  0.061434  1
  Tb  Tb1  1  0.171140  0.175702  0.439760  1
  Tb  Tb2  1  0.670252  0.328872  0.564345  1
  Tb  Tb3  1  0.820026  0.812123  0.937367  1
  Tb  Tb4  1  0.670252  0.328872  0.935655  1
  Tb  Tb5  1  0.820026  0.812123  0.562633  1
  Tb  Tb6  1  0.322231  0.683339  0.438566  1
  Tb  Tb7  1  0.171140  0.175702  0.060240  1
  Tb  Tb8  1  0.870316  0.533632  0.250000  1
  Tb  Tb9  1  0.637717  0.025592  0.250000  1
  Tb  Tb10  1  0.144035  0.478125  0.750000  1
  Tb  Tb11  1  0.373959  0.964232  0.750000  1
  Ni  Ni12  1  0.562933  0.613281  0.750000  1
  Pd  Pd13  1  0.442328  0.388700  0.250000  1
  Pd  Pd14  1  0.942686  0.108721  0.750000  1
  Rh  Rh15  1  0.058727  0.887648  0.250000  1
