# generated using pymatgen
data_Ac5Si2Ir
_symmetry_space_group_name_H-M   'P 1'
_cell_length_a   8.57408400
_cell_length_b   9.28728800
_cell_length_c   13.10397700
_cell_angle_alpha   90.00000000
_cell_angle_beta   90.00000000
_cell_angle_gamma   90.00000000
_symmetry_Int_Tables_number   1
_chemical_formula_structural   Ac5Si2Ir
_chemical_formula_sum   'Ac20 Si8 Ir4'
_cell_volume   1043.46952398
_cell_formula_units_Z   4
loop_
 _symmetry_equiv_pos_site_id
 _symmetry_equiv_pos_as_xyz
  1  'x, y, z'
loop_
 _atom_site_type_symbol
 _atom_site_label
 _atom_site_symmetry_multiplicity
 _atom_site_fract_x
 _atom_site_fract_y
 _atom_site_fract_z
 _atom_site_occupancy
  Ac  Ac0  1  0.676949  0.750000  0.712942  1
  Ac  Ac1  1  0.323051  0.250000  0.287058  1
  Ac  Ac2  1  0.176949  0.250000  0.787058  1
  Ac  Ac3  1  0.823051  0.750000  0.212942  1
  Ac  Ac4  1  0.152681  0.750000  0.805362  1
  Ac  Ac5  1  0.847319  0.250000  0.194638  1
  Ac  Ac6  1  0.652681  0.250000  0.694638  1
  Ac  Ac7  1  0.347319  0.750000  0.305362  1
  Ac  Ac8  1  0.546259  0.750000  0.999623  1
  Ac  Ac9  1  0.453741  0.250000  0.000377  1
  Ac  Ac10  1  0.046259  0.250000  0.500377  1
  Ac  Ac11  1  0.953741  0.750000  0.499623  1
  Ac  Ac12  1  0.825503  0.463356  0.916453  1
  Ac  Ac13  1  0.174497  0.536644  0.083547  1
  Ac  Ac14  1  0.325503  0.536644  0.583547  1
  Ac  Ac15  1  0.174497  0.963356  0.083547  1
  Ac  Ac16  1  0.674497  0.463356  0.416453  1
  Ac  Ac17  1  0.825503  0.036644  0.916453  1
  Ac  Ac18  1  0.674497  0.036644  0.416453  1
  Ac  Ac19  1  0.325503  0.963356  0.583547  1
  Si  Si20  1  0.955442  0.003165  0.674620  1
  Si  Si21  1  0.044558  0.996835  0.325380  1
  Si  Si22  1  0.455442  0.996835  0.825380  1
  Si  Si23  1  0.044558  0.503165  0.325380  1
  Si  Si24  1  0.544558  0.003165  0.174620  1
  Si  Si25  1  0.955442  0.496835  0.674620  1
  Si  Si26  1  0.544558  0.496835  0.174620  1
  Si  Si27  1  0.455442  0.503165  0.825380  1
  Ir  Ir28  1  0.921302  0.750000  0.988978  1
  Ir  Ir29  1  0.078698  0.250000  0.011022  1
  Ir  Ir30  1  0.421302  0.250000  0.511022  1
  Ir  Ir31  1  0.578698  0.750000  0.488978  1
