# generated using pymatgen
data_Sb12IrOs2Pd
_symmetry_space_group_name_H-M   'P 1'
_cell_length_a   8.15155189
_cell_length_b   8.14980632
_cell_length_c   8.18038639
_cell_angle_alpha   109.29664777
_cell_angle_beta   109.60597594
_cell_angle_gamma   109.33981324
_symmetry_Int_Tables_number   1
_chemical_formula_structural   Sb12IrOs2Pd
_chemical_formula_sum   'Sb12 Ir1 Os2 Pd1'
_cell_volume   419.22875974
_cell_formula_units_Z   1
loop_
 _symmetry_equiv_pos_site_id
 _symmetry_equiv_pos_as_xyz
  1  'x, y, z'
loop_
 _atom_site_type_symbol
 _atom_site_label
 _atom_site_symmetry_multiplicity
 _atom_site_fract_x
 _atom_site_fract_y
 _atom_site_fract_z
 _atom_site_occupancy
  Sb  Sb0  1  0.843593  0.652376  0.501857  1
  Sb  Sb1  1  0.844041  0.335053  0.178868  1
  Sb  Sb2  1  0.155959  0.664947  0.821132  1
  Sb  Sb3  1  0.335418  0.490992  0.154649  1
  Sb  Sb4  1  0.156407  0.347624  0.498143  1
  Sb  Sb5  1  0.655538  0.811391  0.148742  1
  Sb  Sb6  1  0.189415  0.842313  0.338162  1
  Sb  Sb7  1  0.664582  0.509008  0.845351  1
  Sb  Sb8  1  0.810585  0.157687  0.661838  1
  Sb  Sb9  1  0.344462  0.188609  0.851258  1
  Sb  Sb10  1  0.506804  0.846033  0.663699  1
  Sb  Sb11  1  0.493196  0.153967  0.336301  1
  Ir  Ir12  1  0.500000  0.500000  0.500000  1
  Os  Os13  1  0.000000  0.500000  0.000000  1
  Os  Os14  1  0.500000  0.000000  0.000000  1
  Pd  Pd15  1  0.000000  0.000000  0.500000  1
