# generated using pymatgen
data_Tb3Dy4Y(B6Os)4
_symmetry_space_group_name_H-M   'P 1'
_cell_length_a   3.66491500
_cell_length_b   9.17294604
_cell_length_c   11.55115000
_cell_angle_alpha   90.00570551
_cell_angle_beta   90.00000000
_cell_angle_gamma   90.00000000
_symmetry_Int_Tables_number   1
_chemical_formula_structural   Tb3Dy4Y(B6Os)4
_chemical_formula_sum   'Tb3 Dy4 Y1 B24 Os4'
_cell_volume   388.32733884
_cell_formula_units_Z   1
loop_
 _symmetry_equiv_pos_site_id
 _symmetry_equiv_pos_as_xyz
  1  'x, y, z'
loop_
 _atom_site_type_symbol
 _atom_site_label
 _atom_site_symmetry_multiplicity
 _atom_site_fract_x
 _atom_site_fract_y
 _atom_site_fract_z
 _atom_site_occupancy
  Tb  Tb0  1  0.000000  0.322650  0.413958  1
  Tb  Tb1  1  0.000000  0.677348  0.586069  1
  Tb  Tb2  1  0.000000  0.822690  0.086019  1
  Dy  Dy3  1  0.000000  0.944182  0.372866  1
  Dy  Dy4  1  0.000000  0.055867  0.627146  1
  Dy  Dy5  1  0.000000  0.444129  0.127049  1
  Dy  Dy6  1  0.000000  0.555802  0.872917  1
  Y  Y7  1  0.000000  0.177513  0.914024  1
  B  B8  1  0.500000  0.554277  0.432720  1
  B  B9  1  0.500000  0.445706  0.567296  1
  B  B10  1  0.500000  0.054216  0.067198  1
  B  B11  1  0.500000  0.945794  0.932803  1
  B  B12  1  0.500000  0.748046  0.419614  1
  B  B13  1  0.500000  0.251943  0.580407  1
  B  B14  1  0.500000  0.247984  0.080286  1
  B  B15  1  0.500000  0.752006  0.919611  1
  B  B16  1  0.500000  0.790952  0.266683  1
  B  B17  1  0.500000  0.208950  0.733371  1
  B  B18  1  0.500000  0.290959  0.233253  1
  B  B19  1  0.500000  0.709072  0.766705  1
  B  B20  1  0.500000  0.632093  0.185422  1
  B  B21  1  0.500000  0.367833  0.814598  1
  B  B22  1  0.500000  0.132120  0.314544  1
  B  B23  1  0.500000  0.867936  0.685464  1
  B  B24  1  0.500000  0.984212  0.213034  1
  B  B25  1  0.500000  0.015949  0.786964  1
  B  B26  1  0.500000  0.484188  0.286910  1
  B  B27  1  0.500000  0.515775  0.713107  1
  B  B28  1  0.500000  0.608674  0.030008  1
  B  B29  1  0.500000  0.391033  0.969905  1
  B  B30  1  0.500000  0.108590  0.470029  1
  B  B31  1  0.500000  0.891438  0.529994  1
  Os  Os32  1  0.000000  0.637872  0.321261  1
  Os  Os33  1  0.000000  0.362100  0.678742  1
  Os  Os34  1  0.000000  0.137877  0.178697  1
  Os  Os35  1  0.000000  0.862227  0.821327  1
