# generated using pymatgen
data_Y5Er3Ti11Si16Pd
_symmetry_space_group_name_H-M   'P 1'
_cell_length_a   7.05148057
_cell_length_b   7.05040847
_cell_length_c   12.87830740
_cell_angle_alpha   90.10361368
_cell_angle_beta   89.88362293
_cell_angle_gamma   89.73539402
_symmetry_Int_Tables_number   1
_chemical_formula_structural   Y5Er3Ti11Si16Pd
_chemical_formula_sum   'Y5 Er3 Ti11 Si16 Pd1'
_cell_volume   640.24638445
_cell_formula_units_Z   1
loop_
 _symmetry_equiv_pos_site_id
 _symmetry_equiv_pos_as_xyz
  1  'x, y, z'
loop_
 _atom_site_type_symbol
 _atom_site_label
 _atom_site_symmetry_multiplicity
 _atom_site_fract_x
 _atom_site_fract_y
 _atom_site_fract_z
 _atom_site_occupancy
  Y  Y0  1  0.340155  0.003564  0.466938  1
  Y  Y1  1  0.497206  0.841139  0.717679  1
  Y  Y2  1  0.501330  0.158354  0.214278  1
  Y  Y3  1  0.841324  0.497149  0.282357  1
  Y  Y4  1  0.158307  0.501326  0.785641  1
  Er  Er5  1  0.656717  0.999697  0.968232  1
  Er  Er6  1  0.002465  0.340855  0.533287  1
  Er  Er7  1  0.999750  0.656739  0.031770  1
  Ti  Ti8  1  0.175069  0.826698  0.248860  1
  Ti  Ti9  1  0.826824  0.175231  0.751043  1
  Ti  Ti10  1  0.673285  0.672755  0.500011  1
  Ti  Ti11  1  0.148401  0.005564  0.876706  1
  Ti  Ti12  1  0.494182  0.653394  0.123838  1
  Ti  Ti13  1  0.507869  0.350007  0.626457  1
  Ti  Ti14  1  0.653440  0.494195  0.876112  1
  Ti  Ti15  1  0.349876  0.507599  0.373657  1
  Ti  Ti16  1  0.850147  0.993075  0.374713  1
  Ti  Ti17  1  0.005489  0.148437  0.123289  1
  Ti  Ti18  1  0.992972  0.850062  0.625397  1
  Si  Si19  1  0.201814  0.133124  0.684845  1
  Si  Si20  1  0.372974  0.711248  0.932616  1
  Si  Si21  1  0.631758  0.294900  0.433647  1
  Si  Si22  1  0.711274  0.372997  0.067381  1
  Si  Si23  1  0.293958  0.630023  0.566598  1
  Si  Si24  1  0.797199  0.867897  0.182654  1
  Si  Si25  1  0.132212  0.202741  0.314934  1
  Si  Si26  1  0.867947  0.797180  0.817337  1
  Si  Si27  1  0.285928  0.943977  0.064302  1
  Si  Si28  1  0.547148  0.791039  0.314691  1
  Si  Si29  1  0.451725  0.209303  0.813858  1
  Si  Si30  1  0.791720  0.546541  0.684885  1
  Si  Si31  1  0.209324  0.451778  0.186110  1
  Si  Si32  1  0.709661  0.048337  0.564985  1
  Si  Si33  1  0.943977  0.285888  0.935685  1
  Si  Si34  1  0.047456  0.708096  0.435229  1
  Pd  Pd35  1  0.329119  0.329089  0.999980  1
