# generated using pymatgen
data_Y3HoSi3Rh4
_symmetry_space_group_name_H-M   'P 1'
_cell_length_a   10.72494173
_cell_length_b   10.72494093
_cell_length_c   7.70937508
_cell_angle_alpha   71.34695525
_cell_angle_beta   71.34695854
_cell_angle_gamma   29.74069253
_symmetry_Int_Tables_number   1
_chemical_formula_structural   Y3HoSi3Rh4
_chemical_formula_sum   'Y6 Ho2 Si6 Rh8'
_cell_volume   415.11828815
_cell_formula_units_Z   2
loop_
 _symmetry_equiv_pos_site_id
 _symmetry_equiv_pos_as_xyz
  1  'x, y, z'
loop_
 _atom_site_type_symbol
 _atom_site_label
 _atom_site_symmetry_multiplicity
 _atom_site_fract_x
 _atom_site_fract_y
 _atom_site_fract_z
 _atom_site_occupancy
  Y  Y0  1  0.791138  0.548183  0.600349  1
  Y  Y1  1  0.451817  0.208862  0.899651  1
  Y  Y2  1  0.209277  0.450907  0.399815  1
  Y  Y3  1  0.549093  0.790723  0.100185  1
  Y  Y4  1  0.791269  0.073385  0.168161  1
  Y  Y5  1  0.926615  0.208731  0.331839  1
  Ho  Ho6  1  0.209908  0.925960  0.832095  1
  Ho  Ho7  1  0.074040  0.790092  0.667905  1
  Si  Si8  1  0.954099  0.702242  0.055436  1
  Si  Si9  1  0.297758  0.045901  0.444564  1
  Si  Si10  1  0.046324  0.297915  0.944236  1
  Si  Si11  1  0.702085  0.953676  0.555764  1
  Si  Si12  1  0.633101  0.366899  0.750000  1
  Si  Si13  1  0.366934  0.633066  0.250000  1
  Rh  Rh14  1  0.576555  0.298119  0.521710  1
  Rh  Rh15  1  0.701881  0.423445  0.978290  1
  Rh  Rh16  1  0.420150  0.703647  0.481350  1
  Rh  Rh17  1  0.296353  0.579850  0.018650  1
  Rh  Rh18  1  0.630046  0.927993  0.308729  1
  Rh  Rh19  1  0.072007  0.369954  0.191271  1
  Rh  Rh20  1  0.370186  0.070638  0.691751  1
  Rh  Rh21  1  0.929362  0.629814  0.808249  1
