# generated using pymatgen
data_Dy8TmLu3Ga20
_symmetry_space_group_name_H-M   'P 1'
_cell_length_a   6.05065900
_cell_length_b   9.56397200
_cell_length_c   11.56540401
_cell_angle_alpha   90.00000000
_cell_angle_beta   90.00453170
_cell_angle_gamma   90.00000000
_symmetry_Int_Tables_number   1
_chemical_formula_structural   Dy8TmLu3Ga20
_chemical_formula_sum   'Dy8 Tm1 Lu3 Ga20'
_cell_volume   669.27065188
_cell_formula_units_Z   1
loop_
 _symmetry_equiv_pos_site_id
 _symmetry_equiv_pos_as_xyz
  1  'x, y, z'
loop_
 _atom_site_type_symbol
 _atom_site_label
 _atom_site_symmetry_multiplicity
 _atom_site_fract_x
 _atom_site_fract_y
 _atom_site_fract_z
 _atom_site_occupancy
  Dy  Dy0  1  0.890702  0.506139  0.350998  1
  Dy  Dy1  1  0.609238  0.993967  0.850735  1
  Dy  Dy2  1  0.109401  0.006394  0.649023  1
  Dy  Dy3  1  0.390340  0.493666  0.149062  1
  Dy  Dy4  1  0.109401  0.493606  0.649023  1
  Dy  Dy5  1  0.390340  0.006334  0.149062  1
  Dy  Dy6  1  0.890702  0.993861  0.350998  1
  Dy  Dy7  1  0.609238  0.506033  0.850735  1
  Tm  Tm8  1  0.850008  0.750000  0.074891  1
  Lu  Lu9  1  0.650243  0.750000  0.574868  1
  Lu  Lu10  1  0.150159  0.250000  0.924952  1
  Lu  Lu11  1  0.349916  0.250000  0.424992  1
  Ga  Ga12  1  0.876725  0.053739  0.089647  1
  Ga  Ga13  1  0.623189  0.446735  0.589539  1
  Ga  Ga14  1  0.123272  0.552999  0.910272  1
  Ga  Ga15  1  0.376924  0.946856  0.410556  1
  Ga  Ga16  1  0.123272  0.947001  0.910272  1
  Ga  Ga17  1  0.376924  0.553144  0.410556  1
  Ga  Ga18  1  0.876725  0.446261  0.089647  1
  Ga  Ga19  1  0.623189  0.053265  0.589539  1
  Ga  Ga20  1  0.166970  0.750000  0.254609  1
  Ga  Ga21  1  0.333999  0.750000  0.753942  1
  Ga  Ga22  1  0.834118  0.250000  0.745747  1
  Ga  Ga23  1  0.666056  0.250000  0.245875  1
  Ga  Ga24  1  0.378394  0.750000  0.001037  1
  Ga  Ga25  1  0.120551  0.750000  0.501305  1
  Ga  Ga26  1  0.620187  0.250000  0.998838  1
  Ga  Ga27  1  0.879489  0.250000  0.498880  1
  Ga  Ga28  1  0.604193  0.750000  0.299597  1
  Ga  Ga29  1  0.895890  0.750000  0.798727  1
  Ga  Ga30  1  0.396012  0.250000  0.701053  1
  Ga  Ga31  1  0.104233  0.250000  0.201023  1
