# generated using pymatgen
data_CoAgF34
_symmetry_space_group_name_H-M   'P 1'
_cell_length_a   8.61158270
_cell_length_b   8.27727461
_cell_length_c   10.03894055
_cell_angle_alpha   81.66075668
_cell_angle_beta   88.53024347
_cell_angle_gamma   65.41436153
_symmetry_Int_Tables_number   1
_chemical_formula_structural   CoAgF34
_chemical_formula_sum   'Co1 Ag1 F34'
_cell_volume   643.34694873
_cell_formula_units_Z   1
loop_
 _symmetry_equiv_pos_site_id
 _symmetry_equiv_pos_as_xyz
  1  'x, y, z'
loop_
 _atom_site_type_symbol
 _atom_site_label
 _atom_site_symmetry_multiplicity
 _atom_site_fract_x
 _atom_site_fract_y
 _atom_site_fract_z
 _atom_site_occupancy
  Co  Co0  1  0.134398  0.748114  0.242809  1
  Ag  Ag1  1  0.867177  0.251382  0.751713  1
  F  F2  1  0.605346  0.212372  0.489856  1
  F  F3  1  0.390508  0.782218  0.517384  1
  F  F4  1  0.829041  0.677735  0.721699  1
  F  F5  1  0.162996  0.309103  0.279807  1
  F  F6  1  0.093444  0.754227  0.872910  1
  F  F7  1  0.900979  0.241379  0.129778  1
  F  F8  1  0.563995  0.148924  0.375827  1
  F  F9  1  0.436681  0.853138  0.623757  1
  F  F10  1  0.634960  0.336948  0.679524  1
  F  F11  1  0.345351  0.671651  0.304925  1
  F  F12  1  0.942412  0.057478  0.644884  1
  F  F13  1  0.067831  0.925550  0.337463  1
  F  F14  1  0.914636  0.397352  0.601743  1
  F  F15  1  0.094500  0.615362  0.379765  1
  F  F16  1  0.843625  0.819947  0.629386  1
  F  F17  1  0.146530  0.186066  0.387527  1
  F  F18  1  0.796952  0.449155  0.855139  1
  F  F19  1  0.198718  0.568621  0.148876  1
  F  F20  1  0.215703  0.691016  0.773679  1
  F  F21  1  0.785622  0.311943  0.231870  1
  F  F22  1  0.925705  0.822228  0.178366  1
  F  F23  1  0.096833  0.166902  0.825857  1
  F  F24  1  0.818618  0.104126  0.899121  1
  F  F25  1  0.177279  0.882084  0.108323  1
  F  F26  1  0.482296  0.591952  0.999159  1
  F  F27  1  0.513441  0.408967  0.001904  1
  F  F28  1  0.464169  0.088837  0.862313  1
  F  F29  1  0.540471  0.910107  0.137645  1
  F  F30  1  0.284807  0.261257  0.602448  1
  F  F31  1  0.720869  0.746475  0.401223  1
  F  F32  1  0.260293  0.407599  0.671327  1
  F  F33  1  0.746053  0.602080  0.329469  1
  F  F34  1  0.548522  0.904750  0.846579  1
  F  F35  1  0.449230  0.092954  0.155943  1
