# generated using pymatgen
data_Sr8Mg8Si15Sn
_symmetry_space_group_name_H-M   'P 1'
_cell_length_a   4.44123200
_cell_length_b   11.56572393
_cell_length_c   14.55496112
_cell_angle_alpha   89.76689751
_cell_angle_beta   90.00000000
_cell_angle_gamma   90.00000000
_symmetry_Int_Tables_number   1
_chemical_formula_structural   Sr8Mg8Si15Sn
_chemical_formula_sum   'Sr8 Mg8 Si15 Sn1'
_cell_volume   747.62486537
_cell_formula_units_Z   1
loop_
 _symmetry_equiv_pos_site_id
 _symmetry_equiv_pos_as_xyz
  1  'x, y, z'
loop_
 _atom_site_type_symbol
 _atom_site_label
 _atom_site_symmetry_multiplicity
 _atom_site_fract_x
 _atom_site_fract_y
 _atom_site_fract_z
 _atom_site_occupancy
  Sr  Sr0  1  0.250000  0.524014  0.197291  1
  Sr  Sr1  1  0.250000  0.735865  0.939063  1
  Sr  Sr2  1  0.750000  0.262038  0.062838  1
  Sr  Sr3  1  0.750000  0.240562  0.560407  1
  Sr  Sr4  1  0.250000  0.759276  0.437381  1
  Sr  Sr5  1  0.250000  0.974777  0.691385  1
  Sr  Sr6  1  0.750000  0.025267  0.304665  1
  Sr  Sr7  1  0.750000  0.476479  0.802569  1
  Mg  Mg8  1  0.250000  0.441454  0.440272  1
  Mg  Mg9  1  0.750000  0.557544  0.558341  1
  Mg  Mg10  1  0.750000  0.941740  0.068042  1
  Mg  Mg11  1  0.250000  0.068065  0.949367  1
  Mg  Mg12  1  0.250000  0.676826  0.685933  1
  Mg  Mg13  1  0.750000  0.320304  0.310437  1
  Mg  Mg14  1  0.750000  0.188393  0.807775  1
  Mg  Mg15  1  0.250000  0.818925  0.191089  1
  Si  Si16  1  0.250000  0.451887  0.630331  1
  Si  Si17  1  0.750000  0.546846  0.367229  1
  Si  Si18  1  0.250000  0.027786  0.463521  1
  Si  Si19  1  0.250000  0.049022  0.137160  1
  Si  Si20  1  0.250000  0.276893  0.721687  1
  Si  Si21  1  0.750000  0.724136  0.277793  1
  Si  Si22  1  0.750000  0.760035  0.771244  1
  Si  Si23  1  0.250000  0.213374  0.394414  1
  Si  Si24  1  0.750000  0.971246  0.533721  1
  Si  Si25  1  0.750000  0.529417  0.034455  1
  Si  Si26  1  0.250000  0.471513  0.966095  1
  Si  Si27  1  0.250000  0.290253  0.893579  1
  Si  Si28  1  0.750000  0.785148  0.602188  1
  Si  Si29  1  0.750000  0.711840  0.107466  1
  Si  Si30  1  0.250000  0.227043  0.224211  1
  Sn  Sn31  1  0.750000  0.952032  0.868049  1
