# generated using pymatgen
data_Na2MnTeO6
_symmetry_space_group_name_H-M   'P 1'
_cell_length_a   5.20241500
_cell_length_b   5.20241427
_cell_length_c   10.78299100
_cell_angle_alpha   90.00000000
_cell_angle_beta   90.00000000
_cell_angle_gamma   119.99999827
_symmetry_Int_Tables_number   1
_chemical_formula_structural   Na2MnTeO6
_chemical_formula_sum   'Na4 Mn2 Te2 O12'
_cell_volume   252.74339081
_cell_formula_units_Z   2
loop_
 _symmetry_equiv_pos_site_id
 _symmetry_equiv_pos_as_xyz
  1  'x, y, z'
loop_
 _atom_site_type_symbol
 _atom_site_label
 _atom_site_symmetry_multiplicity
 _atom_site_fract_x
 _atom_site_fract_y
 _atom_site_fract_z
 _atom_site_occupancy
  Na  Na0  1  0.666667  0.333333  0.959707  1
  Na  Na1  1  0.666667  0.333333  0.540293  1
  Na  Na2  1  0.333333  0.666667  0.459707  1
  Na  Na3  1  0.333333  0.666667  0.040293  1
  Mn  Mn4  1  0.333333  0.666667  0.750000  1
  Mn  Mn5  1  0.666667  0.333333  0.250000  1
  Te  Te6  1  0.000000  0.000000  0.250000  1
  Te  Te7  1  0.000000  0.000000  0.750000  1
  O  O8  1  0.946343  0.663152  0.148079  1
  O  O9  1  0.336848  0.283192  0.148079  1
  O  O10  1  0.716808  0.053657  0.148079  1
  O  O11  1  0.336848  0.053657  0.351921  1
  O  O12  1  0.716808  0.663152  0.351921  1
  O  O13  1  0.946343  0.283192  0.351921  1
  O  O14  1  0.053657  0.336848  0.851921  1
  O  O15  1  0.663152  0.716808  0.851921  1
  O  O16  1  0.053657  0.716808  0.648079  1
  O  O17  1  0.283192  0.336848  0.648079  1
  O  O18  1  0.663152  0.946343  0.648079  1
  O  O19  1  0.283192  0.946343  0.851921  1
