# generated using pymatgen
data_Dy10Si5Te
_symmetry_space_group_name_H-M   'P 1'
_cell_length_a   8.51777800
_cell_length_b   8.57146764
_cell_length_c   6.32725400
_cell_angle_alpha   90.00000000
_cell_angle_beta   90.00000000
_cell_angle_gamma   119.79301181
_symmetry_Int_Tables_number   1
_chemical_formula_structural   Dy10Si5Te
_chemical_formula_sum   'Dy10 Si5 Te1'
_cell_volume   400.89391445
_cell_formula_units_Z   1
loop_
 _symmetry_equiv_pos_site_id
 _symmetry_equiv_pos_as_xyz
  1  'x, y, z'
loop_
 _atom_site_type_symbol
 _atom_site_label
 _atom_site_symmetry_multiplicity
 _atom_site_fract_x
 _atom_site_fract_y
 _atom_site_fract_z
 _atom_site_occupancy
  Dy  Dy0  1  0.985880  0.745031  0.750000  1
  Dy  Dy1  1  0.999674  0.245095  0.250000  1
  Dy  Dy2  1  0.754579  0.754905  0.250000  1
  Dy  Dy3  1  0.764831  0.000000  0.750000  1
  Dy  Dy4  1  0.240849  0.254969  0.750000  1
  Dy  Dy5  1  0.241859  0.000000  0.250000  1
  Dy  Dy6  1  0.675512  0.344402  0.003562  1
  Dy  Dy7  1  0.331108  0.655598  0.496438  1
  Dy  Dy8  1  0.331108  0.655598  0.003562  1
  Dy  Dy9  1  0.675512  0.344402  0.496438  1
  Si  Si10  1  0.393395  0.390631  0.250000  1
  Si  Si11  1  0.002764  0.609369  0.250000  1
  Si  Si12  1  0.999416  0.394564  0.750000  1
  Si  Si13  1  0.604852  0.605436  0.750000  1
  Si  Si14  1  0.607066  0.000000  0.250000  1
  Te  Te15  1  0.391596  0.000000  0.750000  1
