# generated using pymatgen
data_Ba2LiNdO4
_symmetry_space_group_name_H-M   'P 1'
_cell_length_a   12.33393400
_cell_length_b   3.67980600
_cell_length_c   12.12121000
_cell_angle_alpha   90.00000000
_cell_angle_beta   90.00000000
_cell_angle_gamma   90.00000000
_symmetry_Int_Tables_number   1
_chemical_formula_structural   Ba2LiNdO4
_chemical_formula_sum   'Ba8 Li4 Nd4 O16'
_cell_volume   550.13910781
_cell_formula_units_Z   4
loop_
 _symmetry_equiv_pos_site_id
 _symmetry_equiv_pos_as_xyz
  1  'x, y, z'
loop_
 _atom_site_type_symbol
 _atom_site_label
 _atom_site_symmetry_multiplicity
 _atom_site_fract_x
 _atom_site_fract_y
 _atom_site_fract_z
 _atom_site_occupancy
  Ba  Ba0  1  0.638103  0.499999  0.072914  1
  Ba  Ba1  1  0.095749  0.000000  0.118602  1
  Ba  Ba2  1  0.595749  0.000000  0.381398  1
  Ba  Ba3  1  0.138104  0.499999  0.427086  1
  Ba  Ba4  1  0.861896  0.000000  0.572914  1
  Ba  Ba5  1  0.404250  0.499999  0.618601  1
  Ba  Ba6  1  0.904250  0.499999  0.881398  1
  Ba  Ba7  1  0.361895  0.000000  0.927085  1
  Li  Li8  1  0.844052  0.000000  0.090591  1
  Li  Li9  1  0.344052  0.000000  0.409409  1
  Li  Li10  1  0.655948  0.499999  0.590590  1
  Li  Li11  1  0.155947  0.499999  0.909409  1
  Nd  Nd12  1  0.358126  0.499999  0.207027  1
  Nd  Nd13  1  0.858127  0.499999  0.292972  1
  Nd  Nd14  1  0.141873  0.000000  0.707028  1
  Nd  Nd15  1  0.641873  0.000000  0.792971  1
  O  O16  1  0.244243  0.499999  0.046999  1
  O  O17  1  0.929143  0.499999  0.109366  1
  O  O18  1  0.468189  0.000000  0.136599  1
  O  O19  1  0.748214  0.000000  0.218727  1
  O  O20  1  0.248214  0.000000  0.281272  1
  O  O21  1  0.968189  0.000000  0.363400  1
  O  O22  1  0.429142  0.499999  0.390633  1
  O  O23  1  0.744243  0.499999  0.453000  1
  O  O24  1  0.255756  0.000000  0.546999  1
  O  O25  1  0.570857  0.000000  0.609367  1
  O  O26  1  0.031810  0.499999  0.636599  1
  O  O27  1  0.751785  0.499999  0.718728  1
  O  O28  1  0.251786  0.499999  0.781272  1
  O  O29  1  0.531809  0.499999  0.863400  1
  O  O30  1  0.070857  0.000000  0.890633  1
  O  O31  1  0.755756  0.000000  0.953000  1
