# generated using pymatgen
data_Eu2SiPt8
_symmetry_space_group_name_H-M   'P 1'
_cell_length_a   4.30023700
_cell_length_b   9.34541074
_cell_length_c   9.34541032
_cell_angle_alpha   145.75070416
_cell_angle_beta   90.00000000
_cell_angle_gamma   90.00000000
_symmetry_Int_Tables_number   1
_chemical_formula_structural   Eu2SiPt8
_chemical_formula_sum   'Eu2 Si1 Pt8'
_cell_volume   211.36798733
_cell_formula_units_Z   1
loop_
 _symmetry_equiv_pos_site_id
 _symmetry_equiv_pos_as_xyz
  1  'x, y, z'
loop_
 _atom_site_type_symbol
 _atom_site_label
 _atom_site_symmetry_multiplicity
 _atom_site_fract_x
 _atom_site_fract_y
 _atom_site_fract_z
 _atom_site_occupancy
  Eu  Eu0  1  0.500000  0.615457  0.372624  1
  Eu  Eu1  1  0.500000  0.372624  0.615457  1
  Si  Si2  1  0.000000  0.225435  0.225435  1
  Pt  Pt3  1  0.000000  0.885765  0.107411  1
  Pt  Pt4  1  0.500000  0.789734  0.192165  1
  Pt  Pt5  1  0.000000  0.990015  0.490211  1
  Pt  Pt6  1  0.000000  0.640086  0.640086  1
  Pt  Pt7  1  0.500000  0.192165  0.789734  1
  Pt  Pt8  1  0.000000  0.107411  0.885765  1
  Pt  Pt9  1  0.000000  0.490211  0.990015  1
  Pt  Pt10  1  0.500000  0.004680  0.004680  1
