# generated using pymatgen
data_Ca2Re7Si4W
_symmetry_space_group_name_H-M   'P 1'
_cell_length_a   7.04455495
_cell_length_b   7.75690514
_cell_length_c   4.21684000
_cell_angle_alpha   90.00000000
_cell_angle_beta   90.00000000
_cell_angle_gamma   89.94312413
_symmetry_Int_Tables_number   1
_chemical_formula_structural   Ca2Re7Si4W
_chemical_formula_sum   'Ca2 Re7 Si4 W1'
_cell_volume   230.42465734
_cell_formula_units_Z   1
loop_
 _symmetry_equiv_pos_site_id
 _symmetry_equiv_pos_as_xyz
  1  'x, y, z'
loop_
 _atom_site_type_symbol
 _atom_site_label
 _atom_site_symmetry_multiplicity
 _atom_site_fract_x
 _atom_site_fract_y
 _atom_site_fract_z
 _atom_site_occupancy
  Ca  Ca0  1  0.500324  0.498754  0.000000  1
  Ca  Ca1  1  0.998429  0.000169  0.500000  1
  Re  Re2  1  0.154801  0.612263  0.500000  1
  Re  Re3  1  0.080391  0.340200  0.000000  1
  Re  Re4  1  0.923464  0.656879  0.000000  1
  Re  Re5  1  0.418953  0.841195  0.500000  1
  Re  Re6  1  0.580361  0.162702  0.500000  1
  Re  Re7  1  0.343998  0.113753  0.000000  1
  Re  Re8  1  0.846598  0.387194  0.500000  1
  Si  Si9  1  0.227044  0.814261  0.000000  1
  Si  Si10  1  0.774756  0.188597  0.000000  1
  Si  Si11  1  0.727998  0.685173  0.500000  1
  Si  Si12  1  0.272571  0.312669  0.500000  1
  W  W13  1  0.650314  0.886189  0.000000  1
