# generated using pymatgen
data_La6TlHgI6
_symmetry_space_group_name_H-M   'P 1'
_cell_length_a   11.29372948
_cell_length_b   11.29372936
_cell_length_c   11.00355100
_cell_angle_alpha   109.41835866
_cell_angle_beta   109.41835846
_cell_angle_gamma   110.61935173
_symmetry_Int_Tables_number   1
_chemical_formula_structural   La6TlHgI6
_chemical_formula_sum   'La12 Tl2 Hg2 I12'
_cell_volume   1066.16041982
_cell_formula_units_Z   2
loop_
 _symmetry_equiv_pos_site_id
 _symmetry_equiv_pos_as_xyz
  1  'x, y, z'
loop_
 _atom_site_type_symbol
 _atom_site_label
 _atom_site_symmetry_multiplicity
 _atom_site_fract_x
 _atom_site_fract_y
 _atom_site_fract_z
 _atom_site_occupancy
  La  La0  1  0.484739  0.492059  0.243733  1
  La  La1  1  0.748325  0.241006  0.256267  1
  La  La2  1  0.747266  0.006252  0.492595  1
  La  La3  1  0.245328  0.486343  0.492595  1
  La  La4  1  0.258994  0.751675  0.243733  1
  La  La5  1  0.013657  0.254672  0.007405  1
  La  La6  1  0.007941  0.015261  0.256267  1
  La  La7  1  0.493748  0.752734  0.007405  1
  La  La8  1  0.490816  0.240816  0.481632  1
  La  La9  1  0.005326  0.494674  0.750000  1
  La  La10  1  0.259184  0.009184  0.018368  1
  La  La11  1  0.244674  0.255326  0.750000  1
  Tl  Tl12  1  0.000861  0.250861  0.501721  1
  Tl  Tl13  1  0.249139  0.499139  0.998279  1
  Hg  Hg14  1  0.249696  0.250304  0.250000  1
  Hg  Hg15  1  0.500304  0.999696  0.250000  1
  I  I16  1  0.250127  0.757893  0.741347  1
  I  I17  1  0.516545  0.508780  0.758653  1
  I  I18  1  0.985274  0.742078  0.992882  1
  I  I19  1  0.742107  0.249873  0.758653  1
  I  I20  1  0.991220  0.983455  0.741347  1
  I  I21  1  0.249198  0.992392  0.507118  1
  I  I22  1  0.757922  0.514726  0.507118  1
  I  I23  1  0.507608  0.250802  0.992882  1
  I  I24  1  0.756921  0.743079  0.250000  1
  I  I25  1  0.741780  0.991780  0.983560  1
  I  I26  1  0.993079  0.506921  0.250000  1
  I  I27  1  0.508220  0.758220  0.516440  1
