# generated using pymatgen
data_Dy3HoMgCd3Pt4
_symmetry_space_group_name_H-M   'P 1'
_cell_length_a   4.11899600
_cell_length_b   7.20923808
_cell_length_c   8.80507531
_cell_angle_alpha   89.76030957
_cell_angle_beta   90.00000000
_cell_angle_gamma   90.00000000
_symmetry_Int_Tables_number   1
_chemical_formula_structural   Dy3HoMgCd3Pt4
_chemical_formula_sum   'Dy3 Ho1 Mg1 Cd3 Pt4'
_cell_volume   261.46286309
_cell_formula_units_Z   1
loop_
 _symmetry_equiv_pos_site_id
 _symmetry_equiv_pos_as_xyz
  1  'x, y, z'
loop_
 _atom_site_type_symbol
 _atom_site_label
 _atom_site_symmetry_multiplicity
 _atom_site_fract_x
 _atom_site_fract_y
 _atom_site_fract_z
 _atom_site_occupancy
  Dy  Dy0  1  0.250000  0.457054  0.178298  1
  Dy  Dy1  1  0.750000  0.045018  0.676382  1
  Dy  Dy2  1  0.750000  0.549087  0.824253  1
  Ho  Ho3  1  0.250000  0.950775  0.324184  1
  Mg  Mg4  1  0.750000  0.132077  0.057502  1
  Cd  Cd5  1  0.250000  0.361049  0.561710  1
  Cd  Cd6  1  0.250000  0.867532  0.938429  1
  Cd  Cd7  1  0.750000  0.632507  0.439580  1
  Pt  Pt8  1  0.250000  0.266527  0.879583  1
  Pt  Pt9  1  0.250000  0.765227  0.629842  1
  Pt  Pt10  1  0.750000  0.742173  0.131363  1
  Pt  Pt11  1  0.750000  0.230975  0.358872  1
