# generated using pymatgen
data_Tb4LuP12Ru19
_symmetry_space_group_name_H-M   'P 1'
_cell_length_a   12.54692400
_cell_length_b   12.54467643
_cell_length_c   3.97736300
_cell_angle_alpha   90.00000000
_cell_angle_beta   90.00000000
_cell_angle_gamma   120.00593219
_symmetry_Int_Tables_number   1
_chemical_formula_structural   Tb4LuP12Ru19
_chemical_formula_sum   'Tb4 Lu1 P12 Ru19'
_cell_volume   542.12149655
_cell_formula_units_Z   1
loop_
 _symmetry_equiv_pos_site_id
 _symmetry_equiv_pos_as_xyz
  1  'x, y, z'
loop_
 _atom_site_type_symbol
 _atom_site_label
 _atom_site_symmetry_multiplicity
 _atom_site_fract_x
 _atom_site_fract_y
 _atom_site_fract_z
 _atom_site_occupancy
  Tb  Tb0  1  0.999932  0.183388  0.500000  1
  Tb  Tb1  1  0.816543  0.816612  0.500000  1
  Tb  Tb2  1  0.666327  0.333474  0.000000  1
  Tb  Tb3  1  0.332852  0.666526  0.000000  1
  Lu  Lu4  1  0.182553  0.000000  0.500000  1
  P  P5  1  0.000795  0.816069  0.000000  1
  P  P6  1  0.184726  0.183931  0.000000  1
  P  P7  1  0.815936  0.000000  0.000000  1
  P  P8  1  0.693639  0.171475  0.500000  1
  P  P9  1  0.829215  0.523211  0.500000  1
  P  P10  1  0.477433  0.306081  0.500000  1
  P  P11  1  0.171353  0.693919  0.500000  1
  P  P12  1  0.522165  0.828525  0.500000  1
  P  P13  1  0.306004  0.476789  0.500000  1
  P  P14  1  0.000028  0.373187  0.000000  1
  P  P15  1  0.626841  0.626813  0.000000  1
  P  P16  1  0.372572  0.000000  0.000000  1
  Ru  Ru17  1  0.000779  0.555410  0.000000  1
  Ru  Ru18  1  0.445368  0.444590  0.000000  1
  Ru  Ru19  1  0.554407  0.000000  0.000000  1
  Ru  Ru20  1  0.000908  0.718043  0.500000  1
  Ru  Ru21  1  0.282865  0.281957  0.500000  1
  Ru  Ru22  1  0.716704  0.000000  0.500000  1
  Ru  Ru23  1  0.807634  0.184963  0.000000  1
  Ru  Ru24  1  0.815622  0.623382  0.000000  1
  Ru  Ru25  1  0.375313  0.190054  0.000000  1
  Ru  Ru26  1  0.185259  0.809946  0.000000  1
  Ru  Ru27  1  0.622671  0.815037  0.000000  1
  Ru  Ru28  1  0.192240  0.376618  0.000000  1
  Ru  Ru29  1  0.874391  0.366514  0.500000  1
  Ru  Ru30  1  0.634189  0.508307  0.500000  1
  Ru  Ru31  1  0.491376  0.125677  0.500000  1
  Ru  Ru32  1  0.365699  0.874323  0.500000  1
  Ru  Ru33  1  0.507877  0.633486  0.500000  1
  Ru  Ru34  1  0.125881  0.491693  0.500000  1
  Ru  Ru35  1  0.001906  0.000000  0.000000  1
