# generated using pymatgen
data_Ba2Sr7Ca(InSb3)4
_symmetry_space_group_name_H-M   'P 1'
_cell_length_a   4.79797300
_cell_length_b   12.85060112
_cell_length_c   14.88683415
_cell_angle_alpha   89.98402653
_cell_angle_beta   90.00000000
_cell_angle_gamma   90.00000000
_symmetry_Int_Tables_number   1
_chemical_formula_structural   Ba2Sr7Ca(InSb3)4
_chemical_formula_sum   'Ba2 Sr7 Ca1 In4 Sb12'
_cell_volume   917.87507408
_cell_formula_units_Z   1
loop_
 _symmetry_equiv_pos_site_id
 _symmetry_equiv_pos_as_xyz
  1  'x, y, z'
loop_
 _atom_site_type_symbol
 _atom_site_label
 _atom_site_symmetry_multiplicity
 _atom_site_fract_x
 _atom_site_fract_y
 _atom_site_fract_z
 _atom_site_occupancy
  Ba  Ba0  1  0.000000  0.671428  0.977525  1
  Ba  Ba1  1  0.000000  0.826486  0.477647  1
  Sr  Sr2  1  0.000000  0.411163  0.748753  1
  Sr  Sr3  1  0.000000  0.914677  0.746326  1
  Sr  Sr4  1  0.000000  0.583214  0.249272  1
  Sr  Sr5  1  0.000000  0.177968  0.520118  1
  Sr  Sr6  1  0.000000  0.091406  0.251721  1
  Sr  Sr7  1  0.000000  0.999878  0.000709  1
  Sr  Sr8  1  0.000000  0.324384  0.019806  1
  Ca  Ca9  1  0.000000  0.499868  0.500404  1
  In  In10  1  0.500000  0.667844  0.783729  1
  In  In11  1  0.500000  0.175251  0.714391  1
  In  In12  1  0.500000  0.827021  0.288672  1
  In  In13  1  0.500000  0.329495  0.219268  1
  Sb  Sb14  1  0.500000  0.983391  0.595662  1
  Sb  Sb15  1  0.500000  0.853698  0.896685  1
  Sb  Sb16  1  0.000000  0.659372  0.673828  1
  Sb  Sb17  1  0.500000  0.469899  0.905081  1
  Sb  Sb18  1  0.500000  0.639426  0.402396  1
  Sb  Sb19  1  0.500000  0.152502  0.097387  1
  Sb  Sb20  1  0.500000  0.028636  0.405356  1
  Sb  Sb21  1  0.000000  0.164789  0.825076  1
  Sb  Sb22  1  0.000000  0.837729  0.180252  1
  Sb  Sb23  1  0.500000  0.518083  0.096347  1
  Sb  Sb24  1  0.500000  0.354204  0.592334  1
  Sb  Sb25  1  0.000000  0.338188  0.331262  1
