# generated using pymatgen
data_Er3Tm9Rh4
_symmetry_space_group_name_H-M   'P 1'
_cell_length_a   6.25484607
_cell_length_b   7.11074008
_cell_length_c   9.25402400
_cell_angle_alpha   90.00000000
_cell_angle_beta   90.00000000
_cell_angle_gamma   89.98253583
_symmetry_Int_Tables_number   1
_chemical_formula_structural   Er3Tm9Rh4
_chemical_formula_sum   'Er3 Tm9 Rh4'
_cell_volume   411.58736294
_cell_formula_units_Z   1
loop_
 _symmetry_equiv_pos_site_id
 _symmetry_equiv_pos_as_xyz
  1  'x, y, z'
loop_
 _atom_site_type_symbol
 _atom_site_label
 _atom_site_symmetry_multiplicity
 _atom_site_fract_x
 _atom_site_fract_y
 _atom_site_fract_z
 _atom_site_occupancy
  Er  Er0  1  0.367636  0.533970  0.250000  1
  Er  Er1  1  0.632665  0.465964  0.750000  1
  Er  Er2  1  0.132444  0.033858  0.250000  1
  Tm  Tm3  1  0.673278  0.178390  0.063060  1
  Tm  Tm4  1  0.172950  0.321450  0.936735  1
  Tm  Tm5  1  0.827032  0.678669  0.436903  1
  Tm  Tm6  1  0.326630  0.821621  0.563338  1
  Tm  Tm7  1  0.326630  0.821621  0.936662  1
  Tm  Tm8  1  0.827032  0.678669  0.063097  1
  Tm  Tm9  1  0.172950  0.321450  0.563265  1
  Tm  Tm10  1  0.673278  0.178390  0.436940  1
  Tm  Tm11  1  0.867327  0.965807  0.750000  1
  Rh  Rh12  1  0.051971  0.615947  0.750000  1
  Rh  Rh13  1  0.552316  0.884406  0.250000  1
  Rh  Rh14  1  0.448120  0.115454  0.750000  1
  Rh  Rh15  1  0.947739  0.384335  0.250000  1
