# generated using pymatgen
data_Tb16Lu4(Ir3Ru)3
_symmetry_space_group_name_H-M   'P 1'
_cell_length_a   10.85204100
_cell_length_b   10.85204100
_cell_length_c   6.40571300
_cell_angle_alpha   90.00000000
_cell_angle_beta   90.00000000
_cell_angle_gamma   90.00000000
_symmetry_Int_Tables_number   1
_chemical_formula_structural   Tb16Lu4(Ir3Ru)3
_chemical_formula_sum   'Tb16 Lu4 Ir9 Ru3'
_cell_volume   754.38028243
_cell_formula_units_Z   1
loop_
 _symmetry_equiv_pos_site_id
 _symmetry_equiv_pos_as_xyz
  1  'x, y, z'
loop_
 _atom_site_type_symbol
 _atom_site_label
 _atom_site_symmetry_multiplicity
 _atom_site_fract_x
 _atom_site_fract_y
 _atom_site_fract_z
 _atom_site_occupancy
  Tb  Tb0  1  0.292204  0.086539  0.378103  1
  Tb  Tb1  1  0.292226  0.913559  0.878226  1
  Tb  Tb2  1  0.707774  0.086441  0.878226  1
  Tb  Tb3  1  0.707796  0.913461  0.378103  1
  Tb  Tb4  1  0.586441  0.792226  0.878226  1
  Tb  Tb5  1  0.586539  0.207796  0.378103  1
  Tb  Tb6  1  0.413461  0.792204  0.378103  1
  Tb  Tb7  1  0.413559  0.207774  0.878226  1
  Tb  Tb8  1  0.209011  0.413075  0.622807  1
  Tb  Tb9  1  0.208930  0.586845  0.120733  1
  Tb  Tb10  1  0.791070  0.413155  0.120733  1
  Tb  Tb11  1  0.790989  0.586925  0.622807  1
  Tb  Tb12  1  0.913155  0.708930  0.120733  1
  Tb  Tb13  1  0.913075  0.290989  0.622807  1
  Tb  Tb14  1  0.086925  0.709011  0.622807  1
  Tb  Tb15  1  0.086845  0.291070  0.120733  1
  Lu  Lu16  1  0.000000  0.000000  0.500066  1
  Lu  Lu17  1  0.000000  0.000000  0.999834  1
  Lu  Lu18  1  0.500000  0.500000  0.999834  1
  Lu  Lu19  1  0.500000  0.500000  0.500066  1
  Ir  Ir20  1  0.850297  0.150024  0.250128  1
  Ir  Ir21  1  0.850064  0.849953  0.749909  1
  Ir  Ir22  1  0.149936  0.150047  0.749909  1
  Ir  Ir23  1  0.149703  0.849976  0.250128  1
  Ir  Ir24  1  0.650047  0.350064  0.749909  1
  Ir  Ir25  1  0.650024  0.649703  0.250128  1
  Ir  Ir26  1  0.349976  0.350297  0.250128  1
  Ir  Ir27  1  0.349953  0.649936  0.749909  1
  Ir  Ir28  1  0.000000  0.500000  0.378101  1
  Ru  Ru29  1  0.500000  0.000000  0.122305  1
  Ru  Ru30  1  0.500000  0.000000  0.622118  1
  Ru  Ru31  1  0.000000  0.500000  0.878049  1
