# generated using pymatgen
data_Tb8Hf12Si15Ir
_symmetry_space_group_name_H-M   'P 1'
_cell_length_a   7.30299276
_cell_length_b   7.31025994
_cell_length_c   13.45126854
_cell_angle_alpha   89.81349672
_cell_angle_beta   89.92620421
_cell_angle_gamma   90.08948299
_symmetry_Int_Tables_number   1
_chemical_formula_structural   Tb8Hf12Si15Ir
_chemical_formula_sum   'Tb8 Hf12 Si15 Ir1'
_cell_volume   718.11457250
_cell_formula_units_Z   1
loop_
 _symmetry_equiv_pos_site_id
 _symmetry_equiv_pos_as_xyz
  1  'x, y, z'
loop_
 _atom_site_type_symbol
 _atom_site_label
 _atom_site_symmetry_multiplicity
 _atom_site_fract_x
 _atom_site_fract_y
 _atom_site_fract_z
 _atom_site_occupancy
  Tb  Tb0  1  0.995764  0.346509  0.214711  1
  Tb  Tb1  1  0.004221  0.655363  0.714604  1
  Tb  Tb2  1  0.157855  0.494529  0.463599  1
  Tb  Tb3  1  0.503550  0.842678  0.034213  1
  Tb  Tb4  1  0.844155  0.502852  0.965144  1
  Tb  Tb5  1  0.496105  0.157404  0.535287  1
  Tb  Tb6  1  0.343523  0.997014  0.785124  1
  Tb  Tb7  1  0.657500  0.000433  0.284522  1
  Hf  Hf8  1  0.174922  0.175214  0.998710  1
  Hf  Hf9  1  0.826969  0.825754  0.500376  1
  Hf  Hf10  1  0.325525  0.668075  0.252678  1
  Hf  Hf11  1  0.674171  0.325275  0.750220  1
  Hf  Hf12  1  0.153906  0.004598  0.373526  1
  Hf  Hf13  1  0.850138  0.004040  0.874689  1
  Hf  Hf14  1  0.503830  0.650618  0.625547  1
  Hf  Hf15  1  0.351107  0.495911  0.873839  1
  Hf  Hf16  1  0.494406  0.346921  0.126790  1
  Hf  Hf17  1  0.645932  0.501850  0.378548  1
  Hf  Hf18  1  0.996979  0.148828  0.626247  1
  Hf  Hf19  1  0.000647  0.848773  0.124329  1
  Si  Si20  1  0.638081  0.705263  0.818357  1
  Si  Si21  1  0.204865  0.862307  0.566785  1
  Si  Si22  1  0.137622  0.795225  0.932831  1
  Si  Si23  1  0.796418  0.137095  0.066100  1
  Si  Si24  1  0.861158  0.199859  0.435534  1
  Si  Si25  1  0.295792  0.362365  0.683312  1
  Si  Si26  1  0.703846  0.639023  0.182612  1
  Si  Si27  1  0.290986  0.045446  0.183691  1
  Si  Si28  1  0.705432  0.951440  0.685668  1
  Si  Si29  1  0.452080  0.797565  0.438023  1
  Si  Si30  1  0.205873  0.550302  0.061747  1
  Si  Si31  1  0.548119  0.204892  0.935255  1
  Si  Si32  1  0.795096  0.451325  0.566175  1
  Si  Si33  1  0.047846  0.295577  0.814581  1
  Si  Si34  1  0.949424  0.709022  0.313950  1
  Ir  Ir35  1  0.366156  0.300655  0.312678  1
