# generated using pymatgen
data_Sm4Dy4Re3B24Os
_symmetry_space_group_name_H-M   'P 1'
_cell_length_a   3.71048000
_cell_length_b   9.23102605
_cell_length_c   11.65281310
_cell_angle_alpha   90.06329988
_cell_angle_beta   90.00000000
_cell_angle_gamma   90.00000000
_symmetry_Int_Tables_number   1
_chemical_formula_structural   Sm4Dy4Re3B24Os
_chemical_formula_sum   'Sm4 Dy4 Re3 B24 Os1'
_cell_volume   399.12652170
_cell_formula_units_Z   1
loop_
 _symmetry_equiv_pos_site_id
 _symmetry_equiv_pos_as_xyz
  1  'x, y, z'
loop_
 _atom_site_type_symbol
 _atom_site_label
 _atom_site_symmetry_multiplicity
 _atom_site_fract_x
 _atom_site_fract_y
 _atom_site_fract_z
 _atom_site_occupancy
  Sm  Sm0  1  0.000000  0.322155  0.414227  1
  Sm  Sm1  1  0.000000  0.677197  0.587459  1
  Sm  Sm2  1  0.000000  0.824393  0.084748  1
  Sm  Sm3  1  0.000000  0.176792  0.913474  1
  Dy  Dy4  1  0.000000  0.942616  0.369552  1
  Dy  Dy5  1  0.000000  0.056617  0.629767  1
  Dy  Dy6  1  0.000000  0.442626  0.130270  1
  Dy  Dy7  1  0.000000  0.556962  0.870410  1
  Re  Re8  1  0.000000  0.361742  0.678852  1
  Re  Re9  1  0.000000  0.138823  0.180224  1
  Re  Re10  1  0.000000  0.861253  0.820325  1
  B  B11  1  0.500000  0.554730  0.431493  1
  B  B12  1  0.500000  0.445974  0.568251  1
  B  B13  1  0.500000  0.054110  0.068124  1
  B  B14  1  0.500000  0.945965  0.931637  1
  B  B15  1  0.500000  0.748522  0.417060  1
  B  B16  1  0.500000  0.250735  0.582546  1
  B  B17  1  0.500000  0.249171  0.082694  1
  B  B18  1  0.500000  0.751234  0.917434  1
  B  B19  1  0.500000  0.790227  0.266398  1
  B  B20  1  0.500000  0.208817  0.733408  1
  B  B21  1  0.500000  0.290961  0.233956  1
  B  B22  1  0.500000  0.708657  0.766618  1
  B  B23  1  0.500000  0.630850  0.186779  1
  B  B24  1  0.500000  0.369722  0.813199  1
  B  B25  1  0.500000  0.130664  0.313962  1
  B  B26  1  0.500000  0.869210  0.686419  1
  B  B27  1  0.500000  0.984003  0.212482  1
  B  B28  1  0.500000  0.016220  0.787084  1
  B  B29  1  0.500000  0.484737  0.287648  1
  B  B30  1  0.500000  0.516628  0.712615  1
  B  B31  1  0.500000  0.600178  0.028309  1
  B  B32  1  0.500000  0.400039  0.972545  1
  B  B33  1  0.500000  0.099375  0.471940  1
  B  B34  1  0.500000  0.899357  0.527644  1
  Os  Os35  1  0.000000  0.638736  0.320446  1
