# generated using pymatgen
data_SrZn2H8Ru
_symmetry_space_group_name_H-M   'P 1'
_cell_length_a   4.77749500
_cell_length_b   4.77749500
_cell_length_c   10.15049400
_cell_angle_alpha   90.00000000
_cell_angle_beta   90.00000000
_cell_angle_gamma   90.00000000
_symmetry_Int_Tables_number   1
_chemical_formula_structural   SrZn2H8Ru
_chemical_formula_sum   'Sr2 Zn4 H16 Ru2'
_cell_volume   231.67952880
_cell_formula_units_Z   2
loop_
 _symmetry_equiv_pos_site_id
 _symmetry_equiv_pos_as_xyz
  1  'x, y, z'
loop_
 _atom_site_type_symbol
 _atom_site_label
 _atom_site_symmetry_multiplicity
 _atom_site_fract_x
 _atom_site_fract_y
 _atom_site_fract_z
 _atom_site_occupancy
  Sr  Sr0  1  0.500000  0.000000  0.000000  1
  Sr  Sr1  1  0.000000  0.500000  0.500000  1
  Zn  Zn2  1  0.500000  0.000000  0.635053  1
  Zn  Zn3  1  0.000000  0.500000  0.135053  1
  Zn  Zn4  1  0.500000  0.000000  0.364947  1
  Zn  Zn5  1  0.000000  0.500000  0.864947  1
  H  H6  1  0.251759  0.251759  0.750000  1
  H  H7  1  0.748241  0.748241  0.750000  1
  H  H8  1  0.748241  0.251759  0.250000  1
  H  H9  1  0.251759  0.748241  0.250000  1
  H  H10  1  0.748241  0.748241  0.250000  1
  H  H11  1  0.251759  0.251759  0.250000  1
  H  H12  1  0.251759  0.748241  0.750000  1
  H  H13  1  0.748241  0.251759  0.750000  1
  H  H14  1  0.500000  0.252985  0.500000  1
  H  H15  1  0.500000  0.747015  0.500000  1
  H  H16  1  0.747015  0.500000  0.000000  1
  H  H17  1  0.252985  0.500000  0.000000  1
  H  H18  1  0.000000  0.000000  0.584180  1
  H  H19  1  0.000000  0.000000  0.084180  1
  H  H20  1  0.000000  0.000000  0.415820  1
  H  H21  1  0.000000  0.000000  0.915820  1
  Ru  Ru22  1  0.000000  0.000000  0.750000  1
  Ru  Ru23  1  0.000000  0.000000  0.250000  1
