# generated using pymatgen
data_Eu3ThCdIr
_symmetry_space_group_name_H-M   'P 1'
_cell_length_a   10.21876518
_cell_length_b   10.21876622
_cell_length_c   10.21876500
_cell_angle_alpha   60.00000071
_cell_angle_beta   59.99999733
_cell_angle_gamma   60.00000347
_symmetry_Int_Tables_number   1
_chemical_formula_structural   Eu3ThCdIr
_chemical_formula_sum   'Eu12 Th4 Cd4 Ir4'
_cell_volume   754.53658477
_cell_formula_units_Z   4
loop_
 _symmetry_equiv_pos_site_id
 _symmetry_equiv_pos_as_xyz
  1  'x, y, z'
loop_
 _atom_site_type_symbol
 _atom_site_label
 _atom_site_symmetry_multiplicity
 _atom_site_fract_x
 _atom_site_fract_y
 _atom_site_fract_z
 _atom_site_occupancy
  Eu  Eu0  1  0.805466  0.194534  0.194534  1
  Eu  Eu1  1  0.194534  0.805466  0.805466  1
  Eu  Eu2  1  0.194534  0.805466  0.194534  1
  Eu  Eu3  1  0.805466  0.194534  0.805466  1
  Eu  Eu4  1  0.194534  0.194534  0.805466  1
  Eu  Eu5  1  0.805466  0.805466  0.194534  1
  Eu  Eu6  1  0.941125  0.558875  0.558875  1
  Eu  Eu7  1  0.558875  0.941125  0.941125  1
  Eu  Eu8  1  0.558875  0.941125  0.558875  1
  Eu  Eu9  1  0.941125  0.558875  0.941125  1
  Eu  Eu10  1  0.558875  0.558875  0.941125  1
  Eu  Eu11  1  0.941125  0.941125  0.558875  1
  Th  Th12  1  0.342616  0.342616  0.342616  1
  Th  Th13  1  0.342616  0.342616  0.972151  1
  Th  Th14  1  0.342616  0.972151  0.342616  1
  Th  Th15  1  0.972151  0.342616  0.342616  1
  Cd  Cd16  1  0.578048  0.578048  0.578048  1
  Cd  Cd17  1  0.578048  0.578048  0.265856  1
  Cd  Cd18  1  0.578048  0.265856  0.578048  1
  Cd  Cd19  1  0.265856  0.578048  0.578048  1
  Ir  Ir20  1  0.147248  0.147248  0.147248  1
  Ir  Ir21  1  0.147248  0.147248  0.558258  1
  Ir  Ir22  1  0.147248  0.558258  0.147248  1
  Ir  Ir23  1  0.558258  0.147248  0.147248  1
