# generated using pymatgen
data_TbEr15Cd3InPd4
_symmetry_space_group_name_H-M   'P 1'
_cell_length_a   9.61956083
_cell_length_b   9.61956010
_cell_length_c   9.61956004
_cell_angle_alpha   60.10850821
_cell_angle_beta   60.10851669
_cell_angle_gamma   60.10850834
_symmetry_Int_Tables_number   1
_chemical_formula_structural   TbEr15Cd3InPd4
_chemical_formula_sum   'Tb1 Er15 Cd3 In1 Pd4'
_cell_volume   630.98216639
_cell_formula_units_Z   1
loop_
 _symmetry_equiv_pos_site_id
 _symmetry_equiv_pos_as_xyz
  1  'x, y, z'
loop_
 _atom_site_type_symbol
 _atom_site_label
 _atom_site_symmetry_multiplicity
 _atom_site_fract_x
 _atom_site_fract_y
 _atom_site_fract_z
 _atom_site_occupancy
  Tb  Tb0  1  0.351153  0.351153  0.351153  1
  Er  Er1  1  0.356513  0.356513  0.935110  1
  Er  Er2  1  0.356513  0.935110  0.356513  1
  Er  Er3  1  0.935110  0.356513  0.356513  1
  Er  Er4  1  0.811207  0.189354  0.189354  1
  Er  Er5  1  0.190760  0.810224  0.810224  1
  Er  Er6  1  0.189354  0.811207  0.189354  1
  Er  Er7  1  0.810224  0.190760  0.810224  1
  Er  Er8  1  0.189354  0.189354  0.811207  1
  Er  Er9  1  0.810224  0.810224  0.190760  1
  Er  Er10  1  0.935185  0.567436  0.567436  1
  Er  Er11  1  0.565097  0.935660  0.935660  1
  Er  Er12  1  0.567436  0.935185  0.567436  1
  Er  Er13  1  0.935660  0.565097  0.935660  1
  Er  Er14  1  0.567436  0.567436  0.935185  1
  Er  Er15  1  0.935660  0.935660  0.565097  1
  Cd  Cd16  1  0.581015  0.581015  0.251090  1
  Cd  Cd17  1  0.581015  0.251090  0.581015  1
  Cd  Cd18  1  0.251090  0.581015  0.581015  1
  In  In19  1  0.582620  0.582620  0.582620  1
  Pd  Pd20  1  0.145961  0.145961  0.145961  1
  Pd  Pd21  1  0.141501  0.141501  0.568409  1
  Pd  Pd22  1  0.141501  0.568409  0.141501  1
  Pd  Pd23  1  0.568409  0.141501  0.141501  1
