# generated using pymatgen
data_Mg3Al(GaPd5)2
_symmetry_space_group_name_H-M   'P 1'
_cell_length_a   4.11947100
_cell_length_b   5.53638379
_cell_length_c   10.76231730
_cell_angle_alpha   90.54379593
_cell_angle_beta   90.00000000
_cell_angle_gamma   90.00000000
_symmetry_Int_Tables_number   1
_chemical_formula_structural   Mg3Al(GaPd5)2
_chemical_formula_sum   'Mg3 Al1 Ga2 Pd10'
_cell_volume   245.44481924
_cell_formula_units_Z   1
loop_
 _symmetry_equiv_pos_site_id
 _symmetry_equiv_pos_as_xyz
  1  'x, y, z'
loop_
 _atom_site_type_symbol
 _atom_site_label
 _atom_site_symmetry_multiplicity
 _atom_site_fract_x
 _atom_site_fract_y
 _atom_site_fract_z
 _atom_site_occupancy
  Mg  Mg0  1  0.000000  0.827639  0.641923  1
  Mg  Mg1  1  0.000000  0.329520  0.859058  1
  Mg  Mg2  1  0.000000  0.164757  0.359959  1
  Al  Al3  1  0.000000  0.659196  0.145351  1
  Ga  Ga4  1  0.500000  0.501045  0.500859  1
  Ga  Ga5  1  0.500000  0.018985  0.995558  1
  Pd  Pd6  1  0.000000  0.814420  0.899712  1
  Pd  Pd7  1  0.000000  0.681774  0.387857  1
  Pd  Pd8  1  0.000000  0.314846  0.606055  1
  Pd  Pd9  1  0.500000  0.908657  0.228636  1
  Pd  Pd10  1  0.500000  0.415348  0.260892  1
  Pd  Pd11  1  0.500000  0.576544  0.742822  1
  Pd  Pd12  1  0.500000  0.076337  0.758292  1
  Pd  Pd13  1  0.500000  0.519565  0.008087  1
  Pd  Pd14  1  0.500000  0.997406  0.496844  1
  Pd  Pd15  1  0.000000  0.193959  0.108095  1
