# generated using pymatgen
data_Ho12Zn2Tc3
_symmetry_space_group_name_H-M   'P 1'
_cell_length_a   8.30283118
_cell_length_b   8.30283114
_cell_length_c   8.30283215
_cell_angle_alpha   110.10207823
_cell_angle_beta   110.10207551
_cell_angle_gamma   108.21674535
_symmetry_Int_Tables_number   1
_chemical_formula_structural   Ho12Zn2Tc3
_chemical_formula_sum   'Ho12 Zn2 Tc3'
_cell_volume   440.45446822
_cell_formula_units_Z   1
loop_
 _symmetry_equiv_pos_site_id
 _symmetry_equiv_pos_as_xyz
  1  'x, y, z'
loop_
 _atom_site_type_symbol
 _atom_site_label
 _atom_site_symmetry_multiplicity
 _atom_site_fract_x
 _atom_site_fract_y
 _atom_site_fract_z
 _atom_site_occupancy
  Ho  Ho0  1  0.184444  0.433929  0.249487  1
  Ho  Ho1  1  0.815556  0.566071  0.750513  1
  Ho  Ho2  1  0.184444  0.934958  0.750513  1
  Ho  Ho3  1  0.934958  0.184444  0.750513  1
  Ho  Ho4  1  0.815556  0.065042  0.249487  1
  Ho  Ho5  1  0.065042  0.815556  0.249487  1
  Ho  Ho6  1  0.433929  0.184444  0.249487  1
  Ho  Ho7  1  0.566071  0.815556  0.750513  1
  Ho  Ho8  1  0.317894  0.317894  0.635789  1
  Ho  Ho9  1  0.682106  0.682106  0.364211  1
  Ho  Ho10  1  0.682106  0.317894  0.000000  1
  Ho  Ho11  1  0.317894  0.682106  0.000000  1
  Zn  Zn12  1  0.000000  0.500000  0.500000  1
  Zn  Zn13  1  0.500000  0.000000  0.500000  1
  Tc  Tc14  1  0.336763  0.336763  0.000000  1
  Tc  Tc15  1  0.663237  0.663237  0.000000  1
  Tc  Tc16  1  0.000000  0.000000  0.000000  1
