# generated using pymatgen
data_Tb5Pr3(CdOs)2
_symmetry_space_group_name_H-M   'P 1'
_cell_length_a   9.80753212
_cell_length_b   9.80753183
_cell_length_c   9.80753200
_cell_angle_alpha   59.99999942
_cell_angle_beta   60.00000041
_cell_angle_gamma   59.99999734
_symmetry_Int_Tables_number   1
_chemical_formula_structural   Tb5Pr3(CdOs)2
_chemical_formula_sum   'Tb10 Pr6 Cd4 Os4'
_cell_volume   667.05891393
_cell_formula_units_Z   2
loop_
 _symmetry_equiv_pos_site_id
 _symmetry_equiv_pos_as_xyz
  1  'x, y, z'
loop_
 _atom_site_type_symbol
 _atom_site_label
 _atom_site_symmetry_multiplicity
 _atom_site_fract_x
 _atom_site_fract_y
 _atom_site_fract_z
 _atom_site_occupancy
  Tb  Tb0  1  0.344439  0.344439  0.344439  1
  Tb  Tb1  1  0.344439  0.344439  0.966681  1
  Tb  Tb2  1  0.344439  0.966681  0.344439  1
  Tb  Tb3  1  0.966681  0.344439  0.344439  1
  Tb  Tb4  1  0.811587  0.188413  0.188413  1
  Tb  Tb5  1  0.188413  0.811587  0.811587  1
  Tb  Tb6  1  0.188413  0.811587  0.188413  1
  Tb  Tb7  1  0.811587  0.188413  0.811587  1
  Tb  Tb8  1  0.188413  0.188413  0.811587  1
  Tb  Tb9  1  0.811587  0.811587  0.188413  1
  Pr  Pr10  1  0.942866  0.557134  0.557134  1
  Pr  Pr11  1  0.557134  0.942866  0.942866  1
  Pr  Pr12  1  0.557134  0.942866  0.557134  1
  Pr  Pr13  1  0.942866  0.557134  0.942866  1
  Pr  Pr14  1  0.557134  0.557134  0.942866  1
  Pr  Pr15  1  0.942866  0.942866  0.557134  1
  Cd  Cd16  1  0.578520  0.578520  0.578520  1
  Cd  Cd17  1  0.578520  0.578520  0.264438  1
  Cd  Cd18  1  0.578520  0.264438  0.578520  1
  Cd  Cd19  1  0.264438  0.578520  0.578520  1
  Os  Os20  1  0.138830  0.138830  0.138830  1
  Os  Os21  1  0.138830  0.138830  0.583510  1
  Os  Os22  1  0.138830  0.583510  0.138830  1
  Os  Os23  1  0.583510  0.138830  0.138830  1
