# generated using pymatgen
data_Ba8Sr2Si5Ag
_symmetry_space_group_name_H-M   'P 1'
_cell_length_a   8.41271500
_cell_length_b   8.41271500
_cell_length_c   17.22203100
_cell_angle_alpha   90.00000000
_cell_angle_beta   90.00000000
_cell_angle_gamma   90.00000000
_symmetry_Int_Tables_number   1
_chemical_formula_structural   Ba8Sr2Si5Ag
_chemical_formula_sum   'Ba16 Sr4 Si10 Ag2'
_cell_volume   1218.86812415
_cell_formula_units_Z   2
loop_
 _symmetry_equiv_pos_site_id
 _symmetry_equiv_pos_as_xyz
  1  'x, y, z'
loop_
 _atom_site_type_symbol
 _atom_site_label
 _atom_site_symmetry_multiplicity
 _atom_site_fract_x
 _atom_site_fract_y
 _atom_site_fract_z
 _atom_site_occupancy
  Ba  Ba0  1  0.311810  0.674951  0.118176  1
  Ba  Ba1  1  0.174951  0.188190  0.118176  1
  Ba  Ba2  1  0.324939  0.690323  0.394302  1
  Ba  Ba3  1  0.674951  0.688190  0.881824  1
  Ba  Ba4  1  0.190323  0.175061  0.394302  1
  Ba  Ba5  1  0.675061  0.309677  0.394302  1
  Ba  Ba6  1  0.175061  0.809677  0.605698  1
  Ba  Ba7  1  0.325049  0.311810  0.881824  1
  Ba  Ba8  1  0.188190  0.825049  0.881824  1
  Ba  Ba9  1  0.824939  0.190323  0.605698  1
  Ba  Ba10  1  0.309677  0.324939  0.605698  1
  Ba  Ba11  1  0.809677  0.824939  0.394302  1
  Ba  Ba12  1  0.811810  0.174951  0.881824  1
  Ba  Ba13  1  0.825049  0.811810  0.118176  1
  Ba  Ba14  1  0.688190  0.325049  0.118176  1
  Ba  Ba15  1  0.690323  0.675061  0.605698  1
  Sr  Sr16  1  0.500000  0.000000  0.727603  1
  Sr  Sr17  1  0.500000  0.000000  0.246088  1
  Sr  Sr18  1  0.000000  0.500000  0.272397  1
  Sr  Sr19  1  0.000000  0.500000  0.753912  1
  Si  Si20  1  0.103646  0.104541  0.746093  1
  Si  Si21  1  0.395459  0.603646  0.746093  1
  Si  Si22  1  0.603646  0.604541  0.253907  1
  Si  Si23  1  0.104541  0.896354  0.253907  1
  Si  Si24  1  0.604541  0.396354  0.746093  1
  Si  Si25  1  0.896354  0.895459  0.746093  1
  Si  Si26  1  0.396354  0.395459  0.253907  1
  Si  Si27  1  0.895459  0.103646  0.253907  1
  Si  Si28  1  0.500000  0.000000  0.513352  1
  Si  Si29  1  0.000000  0.500000  0.486648  1
  Ag  Ag30  1  0.000000  0.500000  0.984502  1
  Ag  Ag31  1  0.500000  0.000000  0.015498  1
