# generated using pymatgen
data_Zr4Al24IrPt8
_symmetry_space_group_name_H-M   'P 1'
_cell_length_a   7.46915551
_cell_length_b   7.47820187
_cell_length_c   12.93601330
_cell_angle_alpha   84.56773772
_cell_angle_beta   78.92355146
_cell_angle_gamma   59.98209124
_symmetry_Int_Tables_number   1
_chemical_formula_structural   Zr4Al24IrPt8
_chemical_formula_sum   'Zr4 Al24 Ir1 Pt8'
_cell_volume   613.98008072
_cell_formula_units_Z   1
loop_
 _symmetry_equiv_pos_site_id
 _symmetry_equiv_pos_as_xyz
  1  'x, y, z'
loop_
 _atom_site_type_symbol
 _atom_site_label
 _atom_site_symmetry_multiplicity
 _atom_site_fract_x
 _atom_site_fract_y
 _atom_site_fract_z
 _atom_site_occupancy
  Zr  Zr0  1  0.392885  0.167650  0.811779  1
  Zr  Zr1  1  0.607115  0.832350  0.188221  1
  Zr  Zr2  1  0.732118  0.498761  0.811522  1
  Zr  Zr3  1  0.267882  0.501239  0.188478  1
  Al  Al4  1  0.685348  0.830445  0.942609  1
  Al  Al5  1  0.314652  0.169555  0.057391  1
  Al  Al6  1  0.145562  0.832575  0.563904  1
  Al  Al7  1  0.854438  0.167425  0.436096  1
  Al  Al8  1  0.480349  0.166826  0.561316  1
  Al  Al9  1  0.519651  0.833174  0.438684  1
  Al  Al10  1  0.221509  0.165190  0.322435  1
  Al  Al11  1  0.778491  0.834810  0.677565  1
  Al  Al12  1  0.436904  0.504965  0.677377  1
  Al  Al13  1  0.563096  0.495035  0.322623  1
  Al  Al14  1  0.107800  0.162499  0.675223  1
  Al  Al15  1  0.892200  0.837501  0.324777  1
  Al  Al16  1  0.352978  0.496615  0.942706  1
  Al  Al17  1  0.647022  0.503385  0.057294  1
  Al  Al18  1  0.016494  0.172809  0.950232  1
  Al  Al19  1  0.983506  0.827191  0.049768  1
  Al  Al20  1  0.187599  0.499644  0.439024  1
  Al  Al21  1  0.812401  0.500356  0.560976  1
  Al  Al22  1  0.729131  0.163556  0.183191  1
  Al  Al23  1  0.270869  0.836444  0.816809  1
  Al  Al24  1  0.061291  0.624284  0.816809  1
  Al  Al25  1  0.938709  0.375716  0.183191  1
  Al  Al26  1  0.850703  0.047202  0.816175  1
  Al  Al27  1  0.149297  0.952798  0.183826  1
  Ir  Ir28  1  0.000000  0.500000  0.000000  1
  Pt  Pt29  1  0.119988  0.490703  0.639282  1
  Pt  Pt30  1  0.880012  0.509297  0.360718  1
  Pt  Pt31  1  0.656256  0.172020  0.999658  1
  Pt  Pt32  1  0.343744  0.827980  0.000342  1
  Pt  Pt33  1  0.536327  0.166209  0.361296  1
  Pt  Pt34  1  0.463673  0.833791  0.638704  1
  Pt  Pt35  1  0.777787  0.176686  0.637494  1
  Pt  Pt36  1  0.222213  0.823314  0.362506  1
