# generated using pymatgen
data_LaY4Bi3
_symmetry_space_group_name_H-M   'P 1'
_cell_length_a   12.27433200
_cell_length_b   9.62243100
_cell_length_c   8.42898100
_cell_angle_alpha   90.00000000
_cell_angle_beta   90.00000000
_cell_angle_gamma   90.00000000
_symmetry_Int_Tables_number   1
_chemical_formula_structural   LaY4Bi3
_chemical_formula_sum   'La4 Y16 Bi12'
_cell_volume   995.53778143
_cell_formula_units_Z   4
loop_
 _symmetry_equiv_pos_site_id
 _symmetry_equiv_pos_as_xyz
  1  'x, y, z'
loop_
 _atom_site_type_symbol
 _atom_site_label
 _atom_site_symmetry_multiplicity
 _atom_site_fract_x
 _atom_site_fract_y
 _atom_site_fract_z
 _atom_site_occupancy
  La  La0  1  0.724305  0.250000  0.670486  1
  La  La1  1  0.224305  0.250000  0.829514  1
  La  La2  1  0.275695  0.750000  0.329514  1
  La  La3  1  0.775695  0.750000  0.170486  1
  Y  Y4  1  0.563850  0.060879  0.310442  1
  Y  Y5  1  0.063850  0.439121  0.189558  1
  Y  Y6  1  0.436150  0.560879  0.689558  1
  Y  Y7  1  0.936150  0.939121  0.810442  1
  Y  Y8  1  0.436150  0.939121  0.689558  1
  Y  Y9  1  0.936150  0.560879  0.810442  1
  Y  Y10  1  0.563850  0.439121  0.310442  1
  Y  Y11  1  0.063850  0.060879  0.189558  1
  Y  Y12  1  0.502321  0.250000  0.977466  1
  Y  Y13  1  0.002321  0.250000  0.522534  1
  Y  Y14  1  0.497679  0.750000  0.022534  1
  Y  Y15  1  0.997679  0.750000  0.477466  1
  Y  Y16  1  0.789274  0.250000  0.163603  1
  Y  Y17  1  0.289274  0.250000  0.336397  1
  Y  Y18  1  0.210726  0.750000  0.836397  1
  Y  Y19  1  0.710726  0.750000  0.663603  1
  Bi  Bi20  1  0.966563  0.250000  0.905415  1
  Bi  Bi21  1  0.466563  0.250000  0.594585  1
  Bi  Bi22  1  0.033437  0.750000  0.094585  1
  Bi  Bi23  1  0.533437  0.750000  0.405415  1
  Bi  Bi24  1  0.830231  0.006230  0.435130  1
  Bi  Bi25  1  0.330231  0.493770  0.064870  1
  Bi  Bi26  1  0.169769  0.506230  0.564870  1
  Bi  Bi27  1  0.669769  0.993770  0.935130  1
  Bi  Bi28  1  0.169769  0.993770  0.564870  1
  Bi  Bi29  1  0.669769  0.506230  0.935130  1
  Bi  Bi30  1  0.830231  0.493770  0.435130  1
  Bi  Bi31  1  0.330231  0.006230  0.064870  1
