# generated using pymatgen
data_Y2Tm3OsRu
_symmetry_space_group_name_H-M   'P 1'
_cell_length_a   6.29804231
_cell_length_b   7.30947536
_cell_length_c   8.41132843
_cell_angle_alpha   97.03221533
_cell_angle_beta   111.98591210
_cell_angle_gamma   90.00000244
_symmetry_Int_Tables_number   1
_chemical_formula_structural   Y2Tm3OsRu
_chemical_formula_sum   'Y4 Tm6 Os2 Ru2'
_cell_volume   355.91536519
_cell_formula_units_Z   2
loop_
 _symmetry_equiv_pos_site_id
 _symmetry_equiv_pos_as_xyz
  1  'x, y, z'
loop_
 _atom_site_type_symbol
 _atom_site_label
 _atom_site_symmetry_multiplicity
 _atom_site_fract_x
 _atom_site_fract_y
 _atom_site_fract_z
 _atom_site_occupancy
  Y  Y0  1  0.789673  0.081852  0.813374  1
  Y  Y1  1  0.976299  0.418148  0.186626  1
  Y  Y2  1  0.211658  0.917615  0.188754  1
  Y  Y3  1  0.022904  0.582385  0.811246  1
  Tm  Tm4  1  0.201411  0.183170  0.564786  1
  Tm  Tm5  1  0.636624  0.316830  0.435214  1
  Tm  Tm6  1  0.797633  0.816814  0.434557  1
  Tm  Tm7  1  0.363075  0.683186  0.565443  1
  Tm  Tm8  1  0.421936  0.250000  0.000000  1
  Tm  Tm9  1  0.579038  0.750000  0.000000  1
  Os  Os10  1  0.594944  0.423599  0.778532  1
  Os  Os11  1  0.816411  0.076401  0.221468  1
  Ru  Ru12  1  0.405474  0.576376  0.222553  1
  Ru  Ru13  1  0.182922  0.923624  0.777447  1
