# generated using pymatgen
data_Mg3MnP7N12
_symmetry_space_group_name_H-M   'P 1'
_cell_length_a   7.24342542
_cell_length_b   7.24342550
_cell_length_c   7.24342507
_cell_angle_alpha   109.61852293
_cell_angle_beta   109.61851919
_cell_angle_gamma   109.61850919
_symmetry_Int_Tables_number   1
_chemical_formula_structural   Mg3MnP7N12
_chemical_formula_sum   'Mg3 Mn1 P7 N12'
_cell_volume   290.95032058
_cell_formula_units_Z   1
loop_
 _symmetry_equiv_pos_site_id
 _symmetry_equiv_pos_as_xyz
  1  'x, y, z'
loop_
 _atom_site_type_symbol
 _atom_site_label
 _atom_site_symmetry_multiplicity
 _atom_site_fract_x
 _atom_site_fract_y
 _atom_site_fract_z
 _atom_site_occupancy
  Mg  Mg0  1  0.002049  0.662585  0.002049  1
  Mg  Mg1  1  0.662585  0.002049  0.002049  1
  Mg  Mg2  1  0.002049  0.002049  0.662585  1
  Mn  Mn3  1  0.348324  0.348324  0.348324  1
  P  P4  1  0.496787  0.247315  0.748329  1
  P  P5  1  0.496787  0.748329  0.247315  1
  P  P6  1  0.748329  0.247315  0.496787  1
  P  P7  1  0.247315  0.496787  0.748329  1
  P  P8  1  0.748329  0.496787  0.247315  1
  P  P9  1  0.247315  0.748329  0.496787  1
  P  P10  1  0.025921  0.025921  0.025921  1
  N  N11  1  0.998166  0.723033  0.438684  1
  N  N12  1  0.272775  0.710394  0.272775  1
  N  N13  1  0.283468  0.557516  0.557516  1
  N  N14  1  0.557516  0.557516  0.283468  1
  N  N15  1  0.557516  0.283468  0.557516  1
  N  N16  1  0.723033  0.998166  0.438684  1
  N  N17  1  0.438684  0.998166  0.723033  1
  N  N18  1  0.723033  0.438684  0.998166  1
  N  N19  1  0.272775  0.272775  0.710394  1
  N  N20  1  0.710394  0.272775  0.272775  1
  N  N21  1  0.998166  0.438684  0.723033  1
  N  N22  1  0.438684  0.723033  0.998166  1
