# generated using pymatgen
data_Pa4Al6ReSi6
_symmetry_space_group_name_H-M   'P 1'
_cell_length_a   7.26634715
_cell_length_b   7.26090349
_cell_length_c   7.26090500
_cell_angle_alpha   109.52402373
_cell_angle_beta   109.46028405
_cell_angle_gamma   109.46028611
_symmetry_Int_Tables_number   1
_chemical_formula_structural   Pa4Al6ReSi6
_chemical_formula_sum   'Pa4 Al6 Re1 Si6'
_cell_volume   294.78788900
_cell_formula_units_Z   1
loop_
 _symmetry_equiv_pos_site_id
 _symmetry_equiv_pos_as_xyz
  1  'x, y, z'
loop_
 _atom_site_type_symbol
 _atom_site_label
 _atom_site_symmetry_multiplicity
 _atom_site_fract_x
 _atom_site_fract_y
 _atom_site_fract_z
 _atom_site_occupancy
  Pa  Pa0  1  0.500000  0.500000  0.500000  1
  Pa  Pa1  1  0.000000  0.000000  0.500000  1
  Pa  Pa2  1  0.500000  0.000000  0.000000  1
  Pa  Pa3  1  0.000000  0.500000  0.000000  1
  Al  Al4  1  0.749749  0.249724  0.500030  1
  Al  Al5  1  0.500000  0.249978  0.750022  1
  Al  Al6  1  0.500000  0.750022  0.249978  1
  Al  Al7  1  0.250251  0.499970  0.750276  1
  Al  Al8  1  0.749749  0.500030  0.249724  1
  Al  Al9  1  0.250251  0.750276  0.499970  1
  Re  Re10  1  0.000000  0.000000  0.000000  1
  Si  Si11  1  0.297049  0.297142  0.999950  1
  Si  Si12  1  0.999954  0.297429  0.297429  1
  Si  Si13  1  0.000046  0.702571  0.702571  1
  Si  Si14  1  0.702951  0.000050  0.702858  1
  Si  Si15  1  0.297049  0.999950  0.297142  1
  Si  Si16  1  0.702951  0.702858  0.000050  1
