# generated using pymatgen
data_Tm2Lu2C7
_symmetry_space_group_name_H-M   'P 1'
_cell_length_a   3.62230899
_cell_length_b   6.32812419
_cell_length_c   13.59047700
_cell_angle_alpha   90.00000000
_cell_angle_beta   90.00000000
_cell_angle_gamma   105.47152336
_symmetry_Int_Tables_number   1
_chemical_formula_structural   Tm2Lu2C7
_chemical_formula_sum   'Tm4 Lu4 C14'
_cell_volume   300.23789466
_cell_formula_units_Z   2
loop_
 _symmetry_equiv_pos_site_id
 _symmetry_equiv_pos_as_xyz
  1  'x, y, z'
loop_
 _atom_site_type_symbol
 _atom_site_label
 _atom_site_symmetry_multiplicity
 _atom_site_fract_x
 _atom_site_fract_y
 _atom_site_fract_z
 _atom_site_occupancy
  Tm  Tm0  1  0.632889  0.760593  0.554863  1
  Tm  Tm1  1  0.367111  0.239407  0.445137  1
  Tm  Tm2  1  0.367111  0.739407  0.054863  1
  Tm  Tm3  1  0.632889  0.260593  0.945137  1
  Lu  Lu4  1  0.942461  0.839267  0.840007  1
  Lu  Lu5  1  0.057539  0.160733  0.159993  1
  Lu  Lu6  1  0.057539  0.660733  0.340007  1
  Lu  Lu7  1  0.942461  0.339267  0.659993  1
  C  C8  1  0.735364  0.948393  0.395819  1
  C  C9  1  0.264636  0.051607  0.604181  1
  C  C10  1  0.264636  0.551607  0.895819  1
  C  C11  1  0.735364  0.448393  0.104181  1
  C  C12  1  0.539109  0.572680  0.714649  1
  C  C13  1  0.460891  0.427320  0.285351  1
  C  C14  1  0.460891  0.927320  0.214649  1
  C  C15  1  0.539109  0.072680  0.785351  1
  C  C16  1  0.622937  0.956324  0.302622  1
  C  C17  1  0.377063  0.043676  0.697378  1
  C  C18  1  0.377063  0.543676  0.802622  1
  C  C19  1  0.622937  0.456324  0.197378  1
  C  C20  1  0.000000  0.000000  0.000000  1
  C  C21  1  0.000000  0.500000  0.500000  1
