# generated using pymatgen
data_Ti3Cr2TcP3
_symmetry_space_group_name_H-M   'P 1'
_cell_length_a   6.46904405
_cell_length_b   6.52037031
_cell_length_c   3.25054900
_cell_angle_alpha   90.00000000
_cell_angle_beta   90.00000000
_cell_angle_gamma   120.26279160
_symmetry_Int_Tables_number   1
_chemical_formula_structural   Ti3Cr2TcP3
_chemical_formula_sum   'Ti3 Cr2 Tc1 P3'
_cell_volume   118.42505038
_cell_formula_units_Z   1
loop_
 _symmetry_equiv_pos_site_id
 _symmetry_equiv_pos_as_xyz
  1  'x, y, z'
loop_
 _atom_site_type_symbol
 _atom_site_label
 _atom_site_symmetry_multiplicity
 _atom_site_fract_x
 _atom_site_fract_y
 _atom_site_fract_z
 _atom_site_occupancy
  Ti  Ti0  1  0.410206  0.407238  0.500000  1
  Ti  Ti1  1  0.589794  0.997032  0.500000  1
  Ti  Ti2  1  0.000000  0.600848  0.500000  1
  Cr  Cr3  1  0.254787  0.999724  0.000000  1
  Cr  Cr4  1  0.745213  0.744937  0.000000  1
  Tc  Tc5  1  0.000000  0.253738  0.000000  1
  P  P6  1  0.663168  0.335357  0.000000  1
  P  P7  1  0.336832  0.672190  0.000000  1
  P  P8  1  0.000000  0.988937  0.500000  1
