# generated using pymatgen
data_TbEr9(InBi)3
_symmetry_space_group_name_H-M   'P 1'
_cell_length_a   8.99995601
_cell_length_b   8.99995768
_cell_length_c   6.52402200
_cell_angle_alpha   90.00000000
_cell_angle_beta   90.00000000
_cell_angle_gamma   120.07663341
_symmetry_Int_Tables_number   1
_chemical_formula_structural   TbEr9(InBi)3
_chemical_formula_sum   'Tb1 Er9 In3 Bi3'
_cell_volume   457.28927788
_cell_formula_units_Z   1
loop_
 _symmetry_equiv_pos_site_id
 _symmetry_equiv_pos_as_xyz
  1  'x, y, z'
loop_
 _atom_site_type_symbol
 _atom_site_label
 _atom_site_symmetry_multiplicity
 _atom_site_fract_x
 _atom_site_fract_y
 _atom_site_fract_z
 _atom_site_occupancy
  Tb  Tb0  1  0.763941  0.763941  0.750000  1
  Er  Er1  1  0.666641  0.333308  0.007258  1
  Er  Er2  1  0.333308  0.666641  0.007258  1
  Er  Er3  1  0.333308  0.666641  0.492742  1
  Er  Er4  1  0.666641  0.333308  0.492742  1
  Er  Er5  1  0.236389  0.000173  0.750000  1
  Er  Er6  1  0.000173  0.236389  0.750000  1
  Er  Er7  1  0.237895  0.237895  0.250000  1
  Er  Er8  1  0.761843  0.000164  0.250000  1
  Er  Er9  1  0.000164  0.761843  0.250000  1
  In  In10  1  0.606733  0.606733  0.250000  1
  In  In11  1  0.393445  0.999996  0.250000  1
  In  In12  1  0.999996  0.393445  0.250000  1
  Bi  Bi13  1  0.395686  0.395686  0.750000  1
  Bi  Bi14  1  0.603321  0.000515  0.750000  1
  Bi  Bi15  1  0.000515  0.603321  0.750000  1
