# generated using pymatgen
data_NdFeSb12IrOs2
_symmetry_space_group_name_H-M   'P 1'
_cell_length_a   8.12991562
_cell_length_b   8.08907574
_cell_length_c   8.08912665
_cell_angle_alpha   109.27228161
_cell_angle_beta   109.53611056
_cell_angle_gamma   109.51489809
_symmetry_Int_Tables_number   1
_chemical_formula_structural   NdFeSb12IrOs2
_chemical_formula_sum   'Nd1 Fe1 Sb12 Ir1 Os2'
_cell_volume   409.96424488
_cell_formula_units_Z   1
loop_
 _symmetry_equiv_pos_site_id
 _symmetry_equiv_pos_as_xyz
  1  'x, y, z'
loop_
 _atom_site_type_symbol
 _atom_site_label
 _atom_site_symmetry_multiplicity
 _atom_site_fract_x
 _atom_site_fract_y
 _atom_site_fract_z
 _atom_site_occupancy
  Nd  Nd0  1  0.000000  0.000000  0.000000  1
  Fe  Fe1  1  0.500000  0.000000  0.000000  1
  Sb  Sb2  1  0.340564  0.174788  0.845560  1
  Sb  Sb3  1  0.659436  0.825212  0.154440  1
  Sb  Sb4  1  0.660647  0.504209  0.846148  1
  Sb  Sb5  1  0.339353  0.495791  0.153852  1
  Sb  Sb6  1  0.182232  0.842997  0.339014  1
  Sb  Sb7  1  0.817768  0.157003  0.660986  1
  Sb  Sb8  1  0.505170  0.848871  0.670975  1
  Sb  Sb9  1  0.494830  0.151129  0.329025  1
  Sb  Sb10  1  0.833525  0.328701  0.174935  1
  Sb  Sb11  1  0.166475  0.671299  0.825065  1
  Sb  Sb12  1  0.845565  0.660131  0.504196  1
  Sb  Sb13  1  0.154435  0.339869  0.495804  1
  Ir  Ir14  1  0.500000  0.500000  0.500000  1
  Os  Os15  1  0.000000  0.000000  0.500000  1
  Os  Os16  1  0.000000  0.500000  0.000000  1
