# generated using pymatgen
data_Er16CdTc(HgPd)3
_symmetry_space_group_name_H-M   'P 1'
_cell_length_a   9.61046700
_cell_length_b   9.60977847
_cell_length_c   9.60977949
_cell_angle_alpha   59.32543919
_cell_angle_beta   59.36328184
_cell_angle_gamma   59.36328644
_symmetry_Int_Tables_number   1
_chemical_formula_structural   Er16CdTc(HgPd)3
_chemical_formula_sum   'Er16 Cd1 Tc1 Hg3 Pd3'
_cell_volume   618.28543392
_cell_formula_units_Z   1
loop_
 _symmetry_equiv_pos_site_id
 _symmetry_equiv_pos_as_xyz
  1  'x, y, z'
loop_
 _atom_site_type_symbol
 _atom_site_label
 _atom_site_symmetry_multiplicity
 _atom_site_fract_x
 _atom_site_fract_y
 _atom_site_fract_z
 _atom_site_occupancy
  Er  Er0  1  0.354400  0.353525  0.353525  1
  Er  Er1  1  0.354171  0.353215  0.939442  1
  Er  Er2  1  0.354171  0.939442  0.353215  1
  Er  Er3  1  0.936974  0.354462  0.354462  1
  Er  Er4  1  0.816413  0.187730  0.187730  1
  Er  Er5  1  0.188306  0.810856  0.810856  1
  Er  Er6  1  0.186788  0.816638  0.187903  1
  Er  Er7  1  0.810285  0.189178  0.810219  1
  Er  Er8  1  0.186788  0.187903  0.816638  1
  Er  Er9  1  0.810285  0.810219  0.189178  1
  Er  Er10  1  0.933929  0.565816  0.565816  1
  Er  Er11  1  0.556084  0.938028  0.938028  1
  Er  Er12  1  0.565313  0.935641  0.565697  1
  Er  Er13  1  0.936776  0.556358  0.939067  1
  Er  Er14  1  0.565313  0.565697  0.935641  1
  Er  Er15  1  0.936776  0.939067  0.556358  1
  Cd  Cd16  1  0.253702  0.581194  0.581194  1
  Tc  Tc17  1  0.145338  0.146078  0.146078  1
  Hg  Hg18  1  0.582673  0.584066  0.584066  1
  Hg  Hg19  1  0.584022  0.585624  0.242183  1
  Hg  Hg20  1  0.584022  0.242183  0.585624  1
  Pd  Pd21  1  0.144840  0.145043  0.567256  1
  Pd  Pd22  1  0.144840  0.567256  0.145043  1
  Pd  Pd23  1  0.567783  0.144775  0.144775  1
