# generated using pymatgen
data_Tm5Pa(Co3As2)6
_symmetry_space_group_name_H-M   'P 1'
_cell_length_a   3.80360200
_cell_length_b   10.88393400
_cell_length_c   12.63484100
_cell_angle_alpha   90.00000000
_cell_angle_beta   90.00000000
_cell_angle_gamma   90.00000000
_symmetry_Int_Tables_number   1
_chemical_formula_structural   Tm5Pa(Co3As2)6
_chemical_formula_sum   'Tm5 Pa1 Co18 As12'
_cell_volume   523.05908249
_cell_formula_units_Z   1
loop_
 _symmetry_equiv_pos_site_id
 _symmetry_equiv_pos_as_xyz
  1  'x, y, z'
loop_
 _atom_site_type_symbol
 _atom_site_label
 _atom_site_symmetry_multiplicity
 _atom_site_fract_x
 _atom_site_fract_y
 _atom_site_fract_z
 _atom_site_occupancy
  Tm  Tm0  1  0.500000  0.000000  0.475475  1
  Tm  Tm1  1  0.500000  0.818222  0.207153  1
  Tm  Tm2  1  0.500000  0.181778  0.207153  1
  Tm  Tm3  1  0.000000  0.683082  0.794988  1
  Tm  Tm4  1  0.000000  0.316918  0.794988  1
  Pa  Pa5  1  0.000000  0.500000  0.529791  1
  Co  Co6  1  0.500000  0.500000  0.154884  1
  Co  Co7  1  0.000000  0.000000  0.842628  1
  Co  Co8  1  0.500000  0.500000  0.695270  1
  Co  Co9  1  0.000000  0.000000  0.297199  1
  Co  Co10  1  0.000000  0.500000  0.985552  1
  Co  Co11  1  0.500000  0.000000  0.014311  1
  Co  Co12  1  0.500000  0.333344  0.995190  1
  Co  Co13  1  0.500000  0.666656  0.995190  1
  Co  Co14  1  0.000000  0.167024  0.003644  1
  Co  Co15  1  0.000000  0.832976  0.003644  1
  Co  Co16  1  0.500000  0.302254  0.432112  1
  Co  Co17  1  0.500000  0.697746  0.432112  1
  Co  Co18  1  0.000000  0.201205  0.568741  1
  Co  Co19  1  0.000000  0.798795  0.568741  1
  Co  Co20  1  0.500000  0.880541  0.708553  1
  Co  Co21  1  0.500000  0.119459  0.708553  1
  Co  Co22  1  0.000000  0.621055  0.293157  1
  Co  Co23  1  0.000000  0.378945  0.293157  1
  As  As24  1  0.500000  0.500000  0.877408  1
  As  As25  1  0.000000  0.000000  0.119825  1
  As  As26  1  0.500000  0.500000  0.345326  1
  As  As27  1  0.000000  0.000000  0.651403  1
  As  As28  1  0.500000  0.308139  0.618015  1
  As  As29  1  0.500000  0.691861  0.618015  1
  As  As30  1  0.000000  0.185910  0.383697  1
  As  As31  1  0.000000  0.814090  0.383697  1
  As  As32  1  0.500000  0.846524  0.890439  1
  As  As33  1  0.500000  0.153476  0.890439  1
  As  As34  1  0.000000  0.654108  0.109775  1
  As  As35  1  0.000000  0.345892  0.109775  1
