# generated using pymatgen
data_Mg4AlGePd10
_symmetry_space_group_name_H-M   'P 1'
_cell_length_a   4.18978200
_cell_length_b   5.48362074
_cell_length_c   10.73688733
_cell_angle_alpha   89.90922108
_cell_angle_beta   90.00000000
_cell_angle_gamma   90.00000000
_symmetry_Int_Tables_number   1
_chemical_formula_structural   Mg4AlGePd10
_chemical_formula_sum   'Mg4 Al1 Ge1 Pd10'
_cell_volume   246.68156083
_cell_formula_units_Z   1
loop_
 _symmetry_equiv_pos_site_id
 _symmetry_equiv_pos_as_xyz
  1  'x, y, z'
loop_
 _atom_site_type_symbol
 _atom_site_label
 _atom_site_symmetry_multiplicity
 _atom_site_fract_x
 _atom_site_fract_y
 _atom_site_fract_z
 _atom_site_occupancy
  Mg  Mg0  1  0.500000  0.163622  0.360121  1
  Mg  Mg1  1  0.500000  0.836378  0.639879  1
  Mg  Mg2  1  0.500000  0.661742  0.142875  1
  Mg  Mg3  1  0.500000  0.338258  0.857125  1
  Al  Al4  1  0.000000  0.500000  0.500000  1
  Ge  Ge5  1  0.000000  0.000000  0.000000  1
  Pd  Pd6  1  0.500000  0.178544  0.104785  1
  Pd  Pd7  1  0.500000  0.821456  0.895215  1
  Pd  Pd8  1  0.500000  0.677515  0.394915  1
  Pd  Pd9  1  0.500000  0.322485  0.605085  1
  Pd  Pd10  1  0.000000  0.000000  0.500000  1
  Pd  Pd11  1  0.000000  0.500000  0.000000  1
  Pd  Pd12  1  0.000000  0.914511  0.236964  1
  Pd  Pd13  1  0.000000  0.085489  0.763036  1
  Pd  Pd14  1  0.000000  0.413011  0.263305  1
  Pd  Pd15  1  0.000000  0.586989  0.736695  1
