# generated using pymatgen
data_Y9Lu4Th3(CdNi)4
_symmetry_space_group_name_H-M   'P 1'
_cell_length_a   9.56864813
_cell_length_b   9.59252776
_cell_length_c   9.60351375
_cell_angle_alpha   59.81815932
_cell_angle_beta   60.01696382
_cell_angle_gamma   60.01953746
_symmetry_Int_Tables_number   1
_chemical_formula_structural   Y9Lu4Th3(CdNi)4
_chemical_formula_sum   'Y9 Lu4 Th3 Cd4 Ni4'
_cell_volume   622.61251231
_cell_formula_units_Z   1
loop_
 _symmetry_equiv_pos_site_id
 _symmetry_equiv_pos_as_xyz
  1  'x, y, z'
loop_
 _atom_site_type_symbol
 _atom_site_label
 _atom_site_symmetry_multiplicity
 _atom_site_fract_x
 _atom_site_fract_y
 _atom_site_fract_z
 _atom_site_occupancy
  Y  Y0  1  0.064028  0.437369  0.060810  1
  Y  Y1  1  0.439587  0.435248  0.063249  1
  Y  Y2  1  0.064654  0.061281  0.437653  1
  Y  Y3  1  0.187650  0.816750  0.814322  1
  Y  Y4  1  0.810626  0.185398  0.186708  1
  Y  Y5  1  0.814207  0.186208  0.814853  1
  Y  Y6  1  0.186559  0.814767  0.183898  1
  Y  Y7  1  0.812934  0.815866  0.187152  1
  Y  Y8  1  0.187482  0.184150  0.812772  1
  Lu  Lu9  1  0.199485  0.600324  0.599782  1
  Lu  Lu10  1  0.063605  0.437817  0.439159  1
  Lu  Lu11  1  0.439637  0.062980  0.063473  1
  Lu  Lu12  1  0.438860  0.062414  0.436168  1
  Th  Th13  1  0.592160  0.599612  0.598167  1
  Th  Th14  1  0.591113  0.600663  0.208493  1
  Th  Th15  1  0.591003  0.207579  0.600039  1
  Cd  Cd16  1  0.834948  0.830657  0.830541  1
  Cd  Cd17  1  0.835294  0.829616  0.503765  1
  Cd  Cd18  1  0.835168  0.504013  0.829524  1
  Cd  Cd19  1  0.505094  0.830742  0.830908  1
  Ni  Ni20  1  0.394855  0.388511  0.393868  1
  Ni  Ni21  1  0.396355  0.389553  0.819478  1
  Ni  Ni22  1  0.397634  0.822200  0.389573  1
  Ni  Ni23  1  0.817059  0.396279  0.395645  1
