# generated using pymatgen
data_Tb3Tm5CdAgPt2
_symmetry_space_group_name_H-M   'P 1'
_cell_length_a   9.55069792
_cell_length_b   9.55069781
_cell_length_c   9.54174600
_cell_angle_alpha   60.03100750
_cell_angle_beta   60.03100789
_cell_angle_gamma   59.97831081
_symmetry_Int_Tables_number   1
_chemical_formula_structural   Tb3Tm5CdAgPt2
_chemical_formula_sum   'Tb6 Tm10 Cd2 Ag2 Pt4'
_cell_volume   615.62344105
_cell_formula_units_Z   2
loop_
 _symmetry_equiv_pos_site_id
 _symmetry_equiv_pos_as_xyz
  1  'x, y, z'
loop_
 _atom_site_type_symbol
 _atom_site_label
 _atom_site_symmetry_multiplicity
 _atom_site_fract_x
 _atom_site_fract_y
 _atom_site_fract_z
 _atom_site_occupancy
  Tb  Tb0  1  0.933487  0.563100  0.564683  1
  Tb  Tb1  1  0.563100  0.933487  0.938730  1
  Tb  Tb2  1  0.563100  0.933487  0.564683  1
  Tb  Tb3  1  0.933487  0.563100  0.938730  1
  Tb  Tb4  1  0.563276  0.563276  0.936724  1
  Tb  Tb5  1  0.936150  0.936150  0.563850  1
  Tm  Tm6  1  0.352715  0.352715  0.351447  1
  Tm  Tm7  1  0.352715  0.352715  0.943123  1
  Tm  Tm8  1  0.355429  0.937943  0.353314  1
  Tm  Tm9  1  0.937943  0.355429  0.353314  1
  Tm  Tm10  1  0.811007  0.189021  0.190378  1
  Tm  Tm11  1  0.189021  0.811007  0.809593  1
  Tm  Tm12  1  0.189021  0.811007  0.190378  1
  Tm  Tm13  1  0.811007  0.189021  0.809593  1
  Tm  Tm14  1  0.190114  0.190114  0.809886  1
  Tm  Tm15  1  0.810821  0.810821  0.189179  1
  Cd  Cd16  1  0.581508  0.258339  0.580077  1
  Cd  Cd17  1  0.258339  0.581508  0.580077  1
  Ag  Ag18  1  0.583659  0.583659  0.582646  1
  Ag  Ag19  1  0.583659  0.583659  0.250035  1
  Pt  Pt20  1  0.143655  0.143655  0.144243  1
  Pt  Pt21  1  0.143655  0.143655  0.568448  1
  Pt  Pt22  1  0.142459  0.570676  0.143433  1
  Pt  Pt23  1  0.570676  0.142459  0.143433  1
