# generated using pymatgen
data_Tb12InTc3Ni2
_symmetry_space_group_name_H-M   'P 1'
_cell_length_a   8.42403010
_cell_length_b   8.42412962
_cell_length_c   8.42403079
_cell_angle_alpha   104.64136091
_cell_angle_beta   110.36351744
_cell_angle_gamma   113.53125909
_symmetry_Int_Tables_number   1
_chemical_formula_structural   Tb12InTc3Ni2
_chemical_formula_sum   'Tb12 In1 Tc3 Ni2'
_cell_volume   457.39020661
_cell_formula_units_Z   1
loop_
 _symmetry_equiv_pos_site_id
 _symmetry_equiv_pos_as_xyz
  1  'x, y, z'
loop_
 _atom_site_type_symbol
 _atom_site_label
 _atom_site_symmetry_multiplicity
 _atom_site_fract_x
 _atom_site_fract_y
 _atom_site_fract_z
 _atom_site_occupancy
  Tb  Tb0  1  0.686658  0.266385  0.952913  1
  Tb  Tb1  1  0.313342  0.733615  0.047087  1
  Tb  Tb2  1  0.686527  0.733615  0.420274  1
  Tb  Tb3  1  0.313473  0.266385  0.579726  1
  Tb  Tb4  1  0.815918  0.145400  0.329482  1
  Tb  Tb5  1  0.815961  0.486385  0.670425  1
  Tb  Tb6  1  0.184082  0.854600  0.670518  1
  Tb  Tb7  1  0.184039  0.513615  0.329575  1
  Tb  Tb8  1  0.596091  0.774247  0.821925  1
  Tb  Tb9  1  0.952321  0.774247  0.178157  1
  Tb  Tb10  1  0.047679  0.225753  0.821843  1
  Tb  Tb11  1  0.403909  0.225753  0.178075  1
  In  In12  1  0.500000  0.000000  0.500000  1
  Tc  Tc13  1  0.500000  0.500000  0.000000  1
  Tc  Tc14  1  0.828321  0.500000  0.328321  1
  Tc  Tc15  1  0.171679  0.500000  0.671679  1
  Ni  Ni16  1  0.000027  0.113457  0.113431  1
  Ni  Ni17  1  0.999973  0.886543  0.886569  1
