# generated using pymatgen
data_Li3Tb4AlIrPt3
_symmetry_space_group_name_H-M   'P 1'
_cell_length_a   4.05703200
_cell_length_b   7.02385299
_cell_length_c   8.36314686
_cell_angle_alpha   90.33146288
_cell_angle_beta   90.00000000
_cell_angle_gamma   90.00000000
_symmetry_Int_Tables_number   1
_chemical_formula_structural   Li3Tb4AlIrPt3
_chemical_formula_sum   'Li3 Tb4 Al1 Ir1 Pt3'
_cell_volume   238.31221438
_cell_formula_units_Z   1
loop_
 _symmetry_equiv_pos_site_id
 _symmetry_equiv_pos_as_xyz
  1  'x, y, z'
loop_
 _atom_site_type_symbol
 _atom_site_label
 _atom_site_symmetry_multiplicity
 _atom_site_fract_x
 _atom_site_fract_y
 _atom_site_fract_z
 _atom_site_occupancy
  Li  Li0  1  0.250000  0.133940  0.060255  1
  Li  Li1  1  0.250000  0.632657  0.438782  1
  Li  Li2  1  0.750000  0.871635  0.939871  1
  Tb  Tb3  1  0.250000  0.042769  0.680141  1
  Tb  Tb4  1  0.250000  0.541947  0.816977  1
  Tb  Tb5  1  0.750000  0.963160  0.317276  1
  Tb  Tb6  1  0.750000  0.454355  0.188116  1
  Al  Al7  1  0.750000  0.366452  0.556393  1
  Ir  Ir8  1  0.250000  0.254084  0.395164  1
  Pt  Pt9  1  0.250000  0.746361  0.120224  1
  Pt  Pt10  1  0.750000  0.738550  0.617015  1
  Pt  Pt11  1  0.750000  0.254088  0.869785  1
