# generated using pymatgen
data_Nd3Sn2Rh3Pb
_symmetry_space_group_name_H-M   'P 1'
_cell_length_a   7.67213303
_cell_length_b   7.67213313
_cell_length_c   4.06268100
_cell_angle_alpha   90.00000000
_cell_angle_beta   90.00000000
_cell_angle_gamma   119.89812944
_symmetry_Int_Tables_number   1
_chemical_formula_structural   Nd3Sn2Rh3Pb
_chemical_formula_sum   'Nd3 Sn2 Rh3 Pb1'
_cell_volume   207.31012089
_cell_formula_units_Z   1
loop_
 _symmetry_equiv_pos_site_id
 _symmetry_equiv_pos_as_xyz
  1  'x, y, z'
loop_
 _atom_site_type_symbol
 _atom_site_label
 _atom_site_symmetry_multiplicity
 _atom_site_fract_x
 _atom_site_fract_y
 _atom_site_fract_z
 _atom_site_occupancy
  Nd  Nd0  1  0.002163  0.588418  0.000000  1
  Nd  Nd1  1  0.408471  0.408471  0.000000  1
  Nd  Nd2  1  0.588418  0.002163  0.000000  1
  Sn  Sn3  1  0.000835  0.255142  0.500000  1
  Sn  Sn4  1  0.255142  0.000835  0.500000  1
  Rh  Rh5  1  0.011970  0.011970  0.000000  1
  Rh  Rh6  1  0.664230  0.323505  0.500000  1
  Rh  Rh7  1  0.323505  0.664230  0.500000  1
  Pb  Pb8  1  0.745265  0.745265  0.500000  1
