# generated using pymatgen
data_Tm20SiBi9Sb2
_symmetry_space_group_name_H-M   'P 1'
_cell_length_a   8.05853558
_cell_length_b   9.33751300
_cell_length_c   11.81985048
_cell_angle_alpha   90.00000000
_cell_angle_beta   89.80551725
_cell_angle_gamma   90.00000000
_symmetry_Int_Tables_number   1
_chemical_formula_structural   Tm20SiBi9Sb2
_chemical_formula_sum   'Tm20 Si1 Bi9 Sb2'
_cell_volume   889.39939237
_cell_formula_units_Z   1
loop_
 _symmetry_equiv_pos_site_id
 _symmetry_equiv_pos_as_xyz
  1  'x, y, z'
loop_
 _atom_site_type_symbol
 _atom_site_label
 _atom_site_symmetry_multiplicity
 _atom_site_fract_x
 _atom_site_fract_y
 _atom_site_fract_z
 _atom_site_occupancy
  Tm  Tm0  1  0.037716  0.250000  0.510617  1
  Tm  Tm1  1  0.976185  0.750000  0.490284  1
  Tm  Tm2  1  0.471535  0.750000  0.012202  1
  Tm  Tm3  1  0.525988  0.250000  0.988190  1
  Tm  Tm4  1  0.355530  0.250000  0.295700  1
  Tm  Tm5  1  0.648524  0.750000  0.713376  1
  Tm  Tm6  1  0.146241  0.750000  0.784258  1
  Tm  Tm7  1  0.851482  0.250000  0.216825  1
  Tm  Tm8  1  0.194311  0.250000  0.775486  1
  Tm  Tm9  1  0.814103  0.750000  0.217556  1
  Tm  Tm10  1  0.316352  0.750000  0.282534  1
  Tm  Tm11  1  0.667201  0.250000  0.707550  1
  Tm  Tm12  1  0.192559  0.062266  0.060804  1
  Tm  Tm13  1  0.809459  0.932656  0.941697  1
  Tm  Tm14  1  0.313066  0.949390  0.558074  1
  Tm  Tm15  1  0.809459  0.567344  0.941697  1
  Tm  Tm16  1  0.682109  0.069641  0.446099  1
  Tm  Tm17  1  0.192559  0.437734  0.060804  1
  Tm  Tm18  1  0.682109  0.430359  0.446099  1
  Tm  Tm19  1  0.313066  0.550610  0.558074  1
  Si  Si20  1  0.407970  0.250000  0.536761  1
  Bi  Bi21  1  0.909020  0.250000  0.954210  1
  Bi  Bi22  1  0.064246  0.002747  0.325239  1
  Bi  Bi23  1  0.933707  0.999112  0.674690  1
  Bi  Bi24  1  0.434920  0.994812  0.825415  1
  Bi  Bi25  1  0.933707  0.500888  0.674690  1
  Bi  Bi26  1  0.565382  0.004917  0.175525  1
  Bi  Bi27  1  0.064246  0.497253  0.325239  1
  Bi  Bi28  1  0.565382  0.495083  0.175525  1
  Bi  Bi29  1  0.434920  0.505188  0.825415  1
  Sb  Sb30  1  0.593989  0.750000  0.458534  1
  Sb  Sb31  1  0.092955  0.750000  0.040837  1
