# generated using pymatgen
data_Pr8Er9Lu3Sn16
_symmetry_space_group_name_H-M   'P 1'
_cell_length_a   8.08397800
_cell_length_b   8.31146327
_cell_length_c   15.66644300
_cell_angle_alpha   90.00000000
_cell_angle_beta   90.00000000
_cell_angle_gamma   89.98539249
_symmetry_Int_Tables_number   1
_chemical_formula_structural   Pr8Er9Lu3Sn16
_chemical_formula_sum   'Pr8 Er9 Lu3 Sn16'
_cell_volume   1052.62335520
_cell_formula_units_Z   1
loop_
 _symmetry_equiv_pos_site_id
 _symmetry_equiv_pos_as_xyz
  1  'x, y, z'
loop_
 _atom_site_type_symbol
 _atom_site_label
 _atom_site_symmetry_multiplicity
 _atom_site_fract_x
 _atom_site_fract_y
 _atom_site_fract_z
 _atom_site_occupancy
  Pr  Pr0  1  0.508770  0.323520  0.903649  1
  Pr  Pr1  1  0.008299  0.176056  0.596376  1
  Pr  Pr2  1  0.491384  0.676135  0.403677  1
  Pr  Pr3  1  0.991557  0.823763  0.096277  1
  Pr  Pr4  1  0.491384  0.676135  0.096323  1
  Pr  Pr5  1  0.991557  0.823763  0.403723  1
  Pr  Pr6  1  0.508770  0.323520  0.596351  1
  Pr  Pr7  1  0.008299  0.176056  0.903624  1
  Er  Er8  1  0.349185  0.835363  0.875429  1
  Er  Er9  1  0.848602  0.664860  0.624482  1
  Er  Er10  1  0.650990  0.164741  0.375079  1
  Er  Er11  1  0.151277  0.335367  0.125029  1
  Er  Er12  1  0.650990  0.164741  0.124921  1
  Er  Er13  1  0.151277  0.335367  0.374971  1
  Er  Er14  1  0.349185  0.835363  0.624571  1
  Er  Er15  1  0.848602  0.664860  0.875518  1
  Er  Er16  1  0.181448  0.501592  0.750000  1
  Lu  Lu17  1  0.681595  0.997916  0.750000  1
  Lu  Lu18  1  0.818360  0.498197  0.250000  1
  Lu  Lu19  1  0.318517  0.001869  0.250000  1
  Sn  Sn20  1  0.313875  0.041107  0.042253  1
  Sn  Sn21  1  0.813901  0.458997  0.457686  1
  Sn  Sn22  1  0.685846  0.958992  0.542373  1
  Sn  Sn23  1  0.186039  0.541348  0.958169  1
  Sn  Sn24  1  0.685846  0.958992  0.957627  1
  Sn  Sn25  1  0.186039  0.541348  0.541831  1
  Sn  Sn26  1  0.313875  0.041107  0.457747  1
  Sn  Sn27  1  0.813901  0.458997  0.042314  1
  Sn  Sn28  1  0.546953  0.624621  0.750000  1
  Sn  Sn29  1  0.045150  0.876480  0.750000  1
  Sn  Sn30  1  0.454624  0.376208  0.250000  1
  Sn  Sn31  1  0.954551  0.123775  0.250000  1
  Sn  Sn32  1  0.316419  0.143790  0.750000  1
  Sn  Sn33  1  0.815718  0.354864  0.750000  1
  Sn  Sn34  1  0.683689  0.854999  0.250000  1
  Sn  Sn35  1  0.183529  0.645188  0.250000  1
