# generated using pymatgen
data_Dy5HoTcRu
_symmetry_space_group_name_H-M   'P 1'
_cell_length_a   6.27763370
_cell_length_b   7.38433800
_cell_length_c   9.15338201
_cell_angle_alpha   90.00000000
_cell_angle_beta   90.05389708
_cell_angle_gamma   90.00000000
_symmetry_Int_Tables_number   1
_chemical_formula_structural   Dy5HoTcRu
_chemical_formula_sum   'Dy10 Ho2 Tc2 Ru2'
_cell_volume   424.31553612
_cell_formula_units_Z   2
loop_
 _symmetry_equiv_pos_site_id
 _symmetry_equiv_pos_as_xyz
  1  'x, y, z'
loop_
 _atom_site_type_symbol
 _atom_site_label
 _atom_site_symmetry_multiplicity
 _atom_site_fract_x
 _atom_site_fract_y
 _atom_site_fract_z
 _atom_site_occupancy
  Dy  Dy0  1  0.334262  0.676259  0.064064  1
  Dy  Dy1  1  0.165738  0.176259  0.435936  1
  Dy  Dy2  1  0.664192  0.324558  0.562512  1
  Dy  Dy3  1  0.835808  0.824558  0.937488  1
  Dy  Dy4  1  0.664383  0.324243  0.937466  1
  Dy  Dy5  1  0.835617  0.824243  0.562534  1
  Dy  Dy6  1  0.875271  0.540069  0.250052  1
  Dy  Dy7  1  0.624729  0.040069  0.249948  1
  Dy  Dy8  1  0.132502  0.457083  0.749963  1
  Dy  Dy9  1  0.367498  0.957082  0.750037  1
  Ho  Ho10  1  0.334406  0.676173  0.435972  1
  Ho  Ho11  1  0.165594  0.176173  0.064028  1
  Tc  Tc12  1  0.038584  0.885503  0.250110  1
  Tc  Tc13  1  0.461416  0.385503  0.249890  1
  Ru  Ru14  1  0.961316  0.116114  0.750318  1
  Ru  Ru15  1  0.538684  0.616114  0.749682  1
