# generated using pymatgen
data_Ho16Lu4Sn7Pb9
_symmetry_space_group_name_H-M   'P 1'
_cell_length_a   8.07391900
_cell_length_b   8.12566313
_cell_length_c   15.43276800
_cell_angle_alpha   90.00000000
_cell_angle_beta   90.00000000
_cell_angle_gamma   90.03024265
_symmetry_Int_Tables_number   1
_chemical_formula_structural   Ho16Lu4Sn7Pb9
_chemical_formula_sum   'Ho16 Lu4 Sn7 Pb9'
_cell_volume   1012.48120220
_cell_formula_units_Z   1
loop_
 _symmetry_equiv_pos_site_id
 _symmetry_equiv_pos_as_xyz
  1  'x, y, z'
loop_
 _atom_site_type_symbol
 _atom_site_label
 _atom_site_symmetry_multiplicity
 _atom_site_fract_x
 _atom_site_fract_y
 _atom_site_fract_z
 _atom_site_occupancy
  Ho  Ho0  1  0.380390  0.838484  0.876671  1
  Ho  Ho1  1  0.880651  0.661057  0.623416  1
  Ho  Ho2  1  0.619583  0.161140  0.377307  1
  Ho  Ho3  1  0.119514  0.337406  0.122839  1
  Ho  Ho4  1  0.619583  0.161140  0.122693  1
  Ho  Ho5  1  0.119514  0.337406  0.377161  1
  Ho  Ho6  1  0.380390  0.838484  0.623329  1
  Ho  Ho7  1  0.880651  0.661057  0.876584  1
  Ho  Ho8  1  0.537670  0.324797  0.895996  1
  Ho  Ho9  1  0.038169  0.174820  0.604198  1
  Ho  Ho10  1  0.464811  0.675240  0.397381  1
  Ho  Ho11  1  0.960034  0.827016  0.101353  1
  Ho  Ho12  1  0.464811  0.675240  0.102619  1
  Ho  Ho13  1  0.960034  0.827016  0.398647  1
  Ho  Ho14  1  0.537670  0.324797  0.604004  1
  Ho  Ho15  1  0.038169  0.174820  0.895802  1
  Lu  Lu16  1  0.210842  0.503615  0.750000  1
  Lu  Lu17  1  0.710796  0.996251  0.750000  1
  Lu  Lu18  1  0.787135  0.494667  0.250000  1
  Lu  Lu19  1  0.291124  0.006810  0.250000  1
  Sn  Sn20  1  0.575885  0.622109  0.750000  1
  Sn  Sn21  1  0.076098  0.877435  0.750000  1
  Sn  Sn22  1  0.424830  0.376877  0.250000  1
  Sn  Sn23  1  0.923911  0.121132  0.250000  1
  Sn  Sn24  1  0.345291  0.149752  0.750000  1
  Sn  Sn25  1  0.845288  0.350003  0.750000  1
  Sn  Sn26  1  0.655359  0.849549  0.250000  1
  Pb  Pb27  1  0.280745  0.031429  0.041592  1
  Pb  Pb28  1  0.781595  0.467531  0.458411  1
  Pb  Pb29  1  0.718626  0.968588  0.542788  1
  Pb  Pb30  1  0.219143  0.531608  0.957999  1
  Pb  Pb31  1  0.718626  0.968588  0.957212  1
  Pb  Pb32  1  0.219143  0.531608  0.542001  1
  Pb  Pb33  1  0.280745  0.031429  0.458408  1
  Pb  Pb34  1  0.781595  0.467531  0.041589  1
  Pb  Pb35  1  0.151577  0.653565  0.250000  1
