# generated using pymatgen
data_Y10GaSiBi4
_symmetry_space_group_name_H-M   'P 1'
_cell_length_a   12.19156300
_cell_length_b   9.23863200
_cell_length_c   8.10179300
_cell_angle_alpha   90.00000000
_cell_angle_beta   90.00000000
_cell_angle_gamma   90.00000000
_symmetry_Int_Tables_number   1
_chemical_formula_structural   Y10GaSiBi4
_chemical_formula_sum   'Y20 Ga2 Si2 Bi8'
_cell_volume   912.53220052
_cell_formula_units_Z   2
loop_
 _symmetry_equiv_pos_site_id
 _symmetry_equiv_pos_as_xyz
  1  'x, y, z'
loop_
 _atom_site_type_symbol
 _atom_site_label
 _atom_site_symmetry_multiplicity
 _atom_site_fract_x
 _atom_site_fract_y
 _atom_site_fract_z
 _atom_site_occupancy
  Y  Y0  1  0.564616  0.048234  0.317411  1
  Y  Y1  1  0.064616  0.451766  0.182589  1
  Y  Y2  1  0.435701  0.553481  0.681177  1
  Y  Y3  1  0.935701  0.946519  0.818823  1
  Y  Y4  1  0.435701  0.946519  0.681177  1
  Y  Y5  1  0.935701  0.553481  0.818823  1
  Y  Y6  1  0.564616  0.451766  0.317411  1
  Y  Y7  1  0.064616  0.048234  0.182589  1
  Y  Y8  1  0.714575  0.250000  0.663935  1
  Y  Y9  1  0.214575  0.250000  0.836065  1
  Y  Y10  1  0.289128  0.750000  0.337454  1
  Y  Y11  1  0.789128  0.750000  0.162546  1
  Y  Y12  1  0.501397  0.250000  0.960316  1
  Y  Y13  1  0.001397  0.250000  0.539684  1
  Y  Y14  1  0.499028  0.750000  0.041234  1
  Y  Y15  1  0.999028  0.750000  0.458766  1
  Y  Y16  1  0.793668  0.250000  0.137916  1
  Y  Y17  1  0.293668  0.250000  0.362084  1
  Y  Y18  1  0.203711  0.750000  0.864958  1
  Y  Y19  1  0.703711  0.750000  0.635042  1
  Ga  Ga20  1  0.978060  0.250000  0.913519  1
  Ga  Ga21  1  0.478060  0.250000  0.586481  1
  Si  Si22  1  0.019422  0.750000  0.083965  1
  Si  Si23  1  0.519422  0.750000  0.416035  1
  Bi  Bi24  1  0.826807  0.009336  0.430854  1
  Bi  Bi25  1  0.326807  0.490664  0.069146  1
  Bi  Bi26  1  0.173382  0.510342  0.568912  1
  Bi  Bi27  1  0.673382  0.989658  0.931088  1
  Bi  Bi28  1  0.173382  0.989658  0.568912  1
  Bi  Bi29  1  0.673382  0.510342  0.931088  1
  Bi  Bi30  1  0.826807  0.490664  0.430854  1
  Bi  Bi31  1  0.326807  0.009336  0.069146  1
