# generated using pymatgen
data_Tb3Sm(Lu4Bi3)4
_symmetry_space_group_name_H-M   'P 1'
_cell_length_a   8.18920929
_cell_length_b   9.38999500
_cell_length_c   11.88098241
_cell_angle_alpha   90.00000000
_cell_angle_beta   89.96973846
_cell_angle_gamma   90.00000000
_symmetry_Int_Tables_number   1
_chemical_formula_structural   Tb3Sm(Lu4Bi3)4
_chemical_formula_sum   'Tb3 Sm1 Lu16 Bi12'
_cell_volume   913.60743176
_cell_formula_units_Z   1
loop_
 _symmetry_equiv_pos_site_id
 _symmetry_equiv_pos_as_xyz
  1  'x, y, z'
loop_
 _atom_site_type_symbol
 _atom_site_label
 _atom_site_symmetry_multiplicity
 _atom_site_fract_x
 _atom_site_fract_y
 _atom_site_fract_z
 _atom_site_occupancy
  Tb  Tb0  1  0.813349  0.250000  0.281808  1
  Tb  Tb1  1  0.686967  0.750000  0.782035  1
  Tb  Tb2  1  0.186940  0.750000  0.718073  1
  Sm  Sm3  1  0.313259  0.250000  0.218382  1
  Lu  Lu4  1  0.352421  0.750000  0.218417  1
  Lu  Lu5  1  0.852639  0.750000  0.281551  1
  Lu  Lu6  1  0.647569  0.250000  0.781509  1
  Lu  Lu7  1  0.147357  0.250000  0.718413  1
  Lu  Lu8  1  0.692890  0.567256  0.060227  1
  Lu  Lu9  1  0.192989  0.932563  0.439820  1
  Lu  Lu10  1  0.307117  0.067226  0.939666  1
  Lu  Lu11  1  0.806913  0.432615  0.560288  1
  Lu  Lu12  1  0.307117  0.432774  0.939666  1
  Lu  Lu13  1  0.806913  0.067385  0.560288  1
  Lu  Lu14  1  0.692890  0.932744  0.060227  1
  Lu  Lu15  1  0.192989  0.567437  0.439820  1
  Lu  Lu16  1  0.476450  0.250000  0.489367  1
  Lu  Lu17  1  0.976320  0.250000  0.010625  1
  Lu  Lu18  1  0.523567  0.750000  0.510787  1
  Lu  Lu19  1  0.023512  0.750000  0.989146  1
  Bi  Bi20  1  0.403635  0.750000  0.959958  1
  Bi  Bi21  1  0.903771  0.750000  0.540104  1
  Bi  Bi22  1  0.597290  0.250000  0.039373  1
  Bi  Bi23  1  0.095771  0.250000  0.460285  1
  Bi  Bi24  1  0.566223  0.993325  0.326400  1
  Bi  Bi25  1  0.064790  0.506825  0.173825  1
  Bi  Bi26  1  0.434288  0.493781  0.673817  1
  Bi  Bi27  1  0.934383  0.006085  0.826038  1
  Bi  Bi28  1  0.434288  0.006219  0.673817  1
  Bi  Bi29  1  0.934383  0.493915  0.826038  1
  Bi  Bi30  1  0.566223  0.506675  0.326400  1
  Bi  Bi31  1  0.064790  0.993175  0.173825  1
