# generated using pymatgen
data_HoScMn2Co10P7
_symmetry_space_group_name_H-M   'P 1'
_cell_length_a   8.99656408
_cell_length_b   9.02250447
_cell_length_c   3.56972800
_cell_angle_alpha   90.00000000
_cell_angle_beta   90.00000000
_cell_angle_gamma   120.07884365
_symmetry_Int_Tables_number   1
_chemical_formula_structural   HoScMn2Co10P7
_chemical_formula_sum   'Ho1 Sc1 Mn2 Co10 P7'
_cell_volume   250.74019191
_cell_formula_units_Z   1
loop_
 _symmetry_equiv_pos_site_id
 _symmetry_equiv_pos_as_xyz
  1  'x, y, z'
loop_
 _atom_site_type_symbol
 _atom_site_label
 _atom_site_symmetry_multiplicity
 _atom_site_fract_x
 _atom_site_fract_y
 _atom_site_fract_z
 _atom_site_occupancy
  Ho  Ho0  1  0.668907  0.334835  0.000000  1
  Sc  Sc1  1  0.333839  0.667113  0.500000  1
  Mn  Mn2  1  0.777389  0.878607  0.500000  1
  Mn  Mn3  1  0.122330  0.900621  0.500000  1
  Co  Co4  1  0.064208  0.430388  0.000000  1
  Co  Co5  1  0.566776  0.631481  0.000000  1
  Co  Co6  1  0.368057  0.935605  0.000000  1
  Co  Co7  1  0.275668  0.159965  0.000000  1
  Co  Co8  1  0.841303  0.117241  0.000000  1
  Co  Co9  1  0.884843  0.724254  0.000000  1
  Co  Co10  1  0.434802  0.388572  0.500000  1
  Co  Co11  1  0.612236  0.049222  0.500000  1
  Co  Co12  1  0.952888  0.562651  0.500000  1
  Co  Co13  1  0.093142  0.218288  0.500000  1
  P  P14  1  0.298999  0.415361  0.000000  1
  P  P15  1  0.583052  0.883397  0.000000  1
  P  P16  1  0.117096  0.698229  0.000000  1
  P  P17  1  0.407480  0.118902  0.500000  1
  P  P18  1  0.885710  0.287494  0.500000  1
  P  P19  1  0.711723  0.596557  0.500000  1
  P  P20  1  0.999548  0.001215  0.000000  1
