# generated using pymatgen
data_LiTi2In3F12
_symmetry_space_group_name_H-M   'P 1'
_cell_length_a   5.71096500
_cell_length_b   5.71096500
_cell_length_c   20.09993900
_cell_angle_alpha   90.00000000
_cell_angle_beta   90.00000000
_cell_angle_gamma   90.00000000
_symmetry_Int_Tables_number   1
_chemical_formula_structural   LiTi2In3F12
_chemical_formula_sum   'Li2 Ti4 In6 F24'
_cell_volume   655.56194723
_cell_formula_units_Z   2
loop_
 _symmetry_equiv_pos_site_id
 _symmetry_equiv_pos_as_xyz
  1  'x, y, z'
loop_
 _atom_site_type_symbol
 _atom_site_label
 _atom_site_symmetry_multiplicity
 _atom_site_fract_x
 _atom_site_fract_y
 _atom_site_fract_z
 _atom_site_occupancy
  Li  Li0  1  0.000000  0.000000  0.000000  1
  Li  Li1  1  0.500000  0.500000  0.500000  1
  Ti  Ti2  1  0.000000  0.500000  0.118219  1
  Ti  Ti3  1  0.500000  0.000000  0.881781  1
  Ti  Ti4  1  0.500000  0.000000  0.381781  1
  Ti  Ti5  1  0.000000  0.500000  0.618219  1
  In  In6  1  0.000000  0.500000  0.310741  1
  In  In7  1  0.500000  0.000000  0.689259  1
  In  In8  1  0.500000  0.000000  0.189259  1
  In  In9  1  0.000000  0.500000  0.810741  1
  In  In10  1  0.000000  0.000000  0.500000  1
  In  In11  1  0.500000  0.500000  0.000000  1
  F  F12  1  0.212474  0.163595  0.384982  1
  F  F13  1  0.787526  0.836405  0.384982  1
  F  F14  1  0.163595  0.787526  0.615018  1
  F  F15  1  0.287526  0.663595  0.115018  1
  F  F16  1  0.836405  0.212474  0.615018  1
  F  F17  1  0.712474  0.336405  0.115018  1
  F  F18  1  0.336405  0.287526  0.884982  1
  F  F19  1  0.663595  0.712474  0.884982  1
  F  F20  1  0.123131  0.304785  0.185123  1
  F  F21  1  0.876869  0.695215  0.185123  1
  F  F22  1  0.304785  0.876869  0.814877  1
  F  F23  1  0.376869  0.804785  0.314877  1
  F  F24  1  0.695215  0.123131  0.814877  1
  F  F25  1  0.623131  0.195215  0.314877  1
  F  F26  1  0.195215  0.376869  0.685123  1
  F  F27  1  0.804785  0.623131  0.685123  1
  F  F28  1  0.100407  0.281193  0.050164  1
  F  F29  1  0.899593  0.718807  0.050164  1
  F  F30  1  0.281193  0.899593  0.949836  1
  F  F31  1  0.399593  0.781193  0.449836  1
  F  F32  1  0.718807  0.100407  0.949836  1
  F  F33  1  0.600407  0.218807  0.449836  1
  F  F34  1  0.218807  0.399593  0.550164  1
  F  F35  1  0.781193  0.600407  0.550164  1
