# generated using pymatgen
data_TbPr5(CCl5)2
_symmetry_space_group_name_H-M   'P 1'
_cell_length_a   7.42630021
_cell_length_b   8.87549274
_cell_length_c   8.94393562
_cell_angle_alpha   108.28979463
_cell_angle_beta   96.66313331
_cell_angle_gamma   105.83690164
_symmetry_Int_Tables_number   1
_chemical_formula_structural   TbPr5(CCl5)2
_chemical_formula_sum   'Tb1 Pr5 C2 Cl10'
_cell_volume   525.19741741
_cell_formula_units_Z   1
loop_
 _symmetry_equiv_pos_site_id
 _symmetry_equiv_pos_as_xyz
  1  'x, y, z'
loop_
 _atom_site_type_symbol
 _atom_site_label
 _atom_site_symmetry_multiplicity
 _atom_site_fract_x
 _atom_site_fract_y
 _atom_site_fract_z
 _atom_site_occupancy
  Tb  Tb0  1  0.389911  0.153304  0.203623  1
  Pr  Pr1  1  0.880280  0.952979  0.236938  1
  Pr  Pr2  1  0.122607  0.049445  0.764112  1
  Pr  Pr3  1  0.029255  0.711501  0.912216  1
  Pr  Pr4  1  0.972595  0.289394  0.089609  1
  Pr  Pr5  1  0.604030  0.842147  0.791009  1
  C  C6  1  0.908674  0.966981  0.953152  1
  C  C7  1  0.096780  0.035050  0.048358  1
  Cl  Cl8  1  0.757647  0.916320  0.538286  1
  Cl  Cl9  1  0.252495  0.088154  0.454575  1
  Cl  Cl10  1  0.456059  0.832489  0.085244  1
  Cl  Cl11  1  0.539801  0.177095  0.928243  1
  Cl  Cl12  1  0.798743  0.258945  0.349317  1
  Cl  Cl13  1  0.183422  0.736539  0.643474  1
  Cl  Cl14  1  0.909093  0.627822  0.172549  1
  Cl  Cl15  1  0.091647  0.373307  0.828852  1
  Cl  Cl16  1  0.655918  0.535087  0.721329  1
  Cl  Cl17  1  0.351043  0.453440  0.279111  1
