# generated using pymatgen
data_La10Tc3Au
_symmetry_space_group_name_H-M   'P 1'
_cell_length_a   9.16282924
_cell_length_b   9.26398619
_cell_length_c   7.51797706
_cell_angle_alpha   84.24546267
_cell_angle_beta   84.06507529
_cell_angle_gamma   43.17182518
_symmetry_Int_Tables_number   1
_chemical_formula_structural   La10Tc3Au
_chemical_formula_sum   'La10 Tc3 Au1'
_cell_volume   433.99056206
_cell_formula_units_Z   1
loop_
 _symmetry_equiv_pos_site_id
 _symmetry_equiv_pos_as_xyz
  1  'x, y, z'
loop_
 _atom_site_type_symbol
 _atom_site_label
 _atom_site_symmetry_multiplicity
 _atom_site_fract_x
 _atom_site_fract_y
 _atom_site_fract_z
 _atom_site_occupancy
  La  La0  1  0.000144  0.818388  0.933636  1
  La  La1  1  0.200054  0.989480  0.598657  1
  La  La2  1  0.989748  0.198423  0.096773  1
  La  La3  1  0.774189  0.045869  0.401096  1
  La  La4  1  0.374540  0.192434  0.825178  1
  La  La5  1  0.778403  0.638647  0.676068  1
  La  La6  1  0.652316  0.780176  0.184296  1
  La  La7  1  0.212942  0.341549  0.307899  1
  La  La8  1  0.576862  0.425534  0.751371  1
  La  La9  1  0.426639  0.587211  0.238573  1
  Tc  Tc10  1  0.392065  0.827561  0.910797  1
  Tc  Tc11  1  0.830233  0.387928  0.430401  1
  Tc  Tc12  1  0.614501  0.168416  0.075078  1
  Au  Au13  1  0.177361  0.598382  0.570175  1
