# generated using pymatgen
data_ErLu15(InPt)4
_symmetry_space_group_name_H-M   'P 1'
_cell_length_a   9.53217148
_cell_length_b   9.53448099
_cell_length_c   9.53217161
_cell_angle_alpha   59.99199182
_cell_angle_beta   59.89562547
_cell_angle_gamma   59.99198839
_symmetry_Int_Tables_number   1
_chemical_formula_structural   ErLu15(InPt)4
_chemical_formula_sum   'Er1 Lu15 In4 Pt4'
_cell_volume   612.02548019
_cell_formula_units_Z   1
loop_
 _symmetry_equiv_pos_site_id
 _symmetry_equiv_pos_as_xyz
  1  'x, y, z'
loop_
 _atom_site_type_symbol
 _atom_site_label
 _atom_site_symmetry_multiplicity
 _atom_site_fract_x
 _atom_site_fract_y
 _atom_site_fract_z
 _atom_site_occupancy
  Er  Er0  1  0.063038  0.436962  0.063038  1
  Lu  Lu1  1  0.061616  0.060741  0.439278  1
  Lu  Lu2  1  0.648796  0.052077  0.648796  1
  Lu  Lu3  1  0.191017  0.808983  0.191017  1
  Lu  Lu4  1  0.435623  0.064377  0.435623  1
  Lu  Lu5  1  0.189442  0.190240  0.809123  1
  Lu  Lu6  1  0.648796  0.650332  0.648796  1
  Lu  Lu7  1  0.054019  0.648104  0.649775  1
  Lu  Lu8  1  0.439278  0.060741  0.061616  1
  Lu  Lu9  1  0.649775  0.648104  0.054019  1
  Lu  Lu10  1  0.189442  0.811196  0.809123  1
  Lu  Lu11  1  0.810241  0.189759  0.810241  1
  Lu  Lu12  1  0.809123  0.190240  0.189442  1
  Lu  Lu13  1  0.809123  0.811196  0.189442  1
  Lu  Lu14  1  0.061616  0.438366  0.439278  1
  Lu  Lu15  1  0.439278  0.438366  0.061616  1
  In  In16  1  0.750871  0.416277  0.416576  1
  In  In17  1  0.416576  0.416277  0.750871  1
  In  In18  1  0.416115  0.752704  0.416115  1
  In  In19  1  0.416115  0.415067  0.416115  1
  Pt  Pt20  1  0.856898  0.858011  0.856898  1
  Pt  Pt21  1  0.427454  0.856845  0.858858  1
  Pt  Pt22  1  0.858858  0.856845  0.427454  1
  Pt  Pt23  1  0.856898  0.428193  0.856898  1
