# generated using pymatgen
data_LuTa11(BOs)12
_symmetry_space_group_name_H-M   'P 1'
_cell_length_a   3.12737900
_cell_length_b   9.10996060
_cell_length_c   15.85943818
_cell_angle_alpha   89.97572378
_cell_angle_beta   90.00000000
_cell_angle_gamma   90.00000000
_symmetry_Int_Tables_number   1
_chemical_formula_structural   LuTa11(BOs)12
_chemical_formula_sum   'Lu1 Ta11 B12 Os12'
_cell_volume   451.84010255
_cell_formula_units_Z   1
loop_
 _symmetry_equiv_pos_site_id
 _symmetry_equiv_pos_as_xyz
  1  'x, y, z'
loop_
 _atom_site_type_symbol
 _atom_site_label
 _atom_site_symmetry_multiplicity
 _atom_site_fract_x
 _atom_site_fract_y
 _atom_site_fract_z
 _atom_site_occupancy
  Lu  Lu0  1  0.000000  0.817856  0.707975  1
  Ta  Ta1  1  0.000000  0.799500  0.493764  1
  Ta  Ta2  1  0.000000  0.198512  0.504636  1
  Ta  Ta3  1  0.000000  0.298423  0.004987  1
  Ta  Ta4  1  0.000000  0.699857  0.996600  1
  Ta  Ta5  1  0.000000  0.515100  0.592940  1
  Ta  Ta6  1  0.000000  0.483244  0.406102  1
  Ta  Ta7  1  0.000000  0.015005  0.906523  1
  Ta  Ta8  1  0.000000  0.984145  0.093880  1
  Ta  Ta9  1  0.000000  0.688331  0.202340  1
  Ta  Ta10  1  0.000000  0.316012  0.796922  1
  Ta  Ta11  1  0.000000  0.188234  0.296978  1
  B  B12  1  0.500000  0.604776  0.494856  1
  B  B13  1  0.500000  0.393508  0.503091  1
  B  B14  1  0.500000  0.105075  0.003449  1
  B  B15  1  0.500000  0.894687  0.997801  1
  B  B16  1  0.000000  0.608489  0.832204  1
  B  B17  1  0.000000  0.390936  0.167276  1
  B  B18  1  0.000000  0.108986  0.666189  1
  B  B19  1  0.000000  0.890908  0.332461  1
  B  B20  1  0.500000  0.712066  0.592576  1
  B  B21  1  0.500000  0.284488  0.401166  1
  B  B22  1  0.500000  0.214945  0.902215  1
  B  B23  1  0.500000  0.785055  0.098973  1
  Os  Os24  1  0.500000  0.718725  0.354674  1
  Os  Os25  1  0.500000  0.281058  0.642429  1
  Os  Os26  1  0.500000  0.219084  0.144604  1
  Os  Os27  1  0.500000  0.777547  0.861441  1
  Os  Os28  1  0.500000  0.515608  0.094470  1
  Os  Os29  1  0.500000  0.481650  0.907917  1
  Os  Os30  1  0.500000  0.017195  0.404261  1
  Os  Os31  1  0.500000  0.987331  0.590913  1
  Os  Os32  1  0.500000  0.554491  0.736190  1
  Os  Os33  1  0.500000  0.438331  0.265832  1
  Os  Os34  1  0.500000  0.071992  0.767507  1
  Os  Os35  1  0.500000  0.938851  0.233858  1
