# generated using pymatgen
data_Er8Cd2IrPd
_symmetry_space_group_name_H-M   'P 1'
_cell_length_a   9.58417943
_cell_length_b   9.58417959
_cell_length_c   9.54494900
_cell_angle_alpha   60.13531545
_cell_angle_beta   60.13531490
_cell_angle_gamma   60.43132705
_symmetry_Int_Tables_number   1
_chemical_formula_structural   Er8Cd2IrPd
_chemical_formula_sum   'Er16 Cd4 Ir2 Pd2'
_cell_volume   623.23991650
_cell_formula_units_Z   2
loop_
 _symmetry_equiv_pos_site_id
 _symmetry_equiv_pos_as_xyz
  1  'x, y, z'
loop_
 _atom_site_type_symbol
 _atom_site_label
 _atom_site_symmetry_multiplicity
 _atom_site_fract_x
 _atom_site_fract_y
 _atom_site_fract_z
 _atom_site_occupancy
  Er  Er0  1  0.601294  0.601294  0.594158  1
  Er  Er1  1  0.601294  0.601294  0.203253  1
  Er  Er2  1  0.611386  0.187376  0.600619  1
  Er  Er3  1  0.187376  0.611386  0.600619  1
  Er  Er4  1  0.056401  0.440794  0.438797  1
  Er  Er5  1  0.440794  0.056401  0.064008  1
  Er  Er6  1  0.440794  0.056401  0.438797  1
  Er  Er7  1  0.056401  0.440794  0.064008  1
  Er  Er8  1  0.440711  0.440711  0.059289  1
  Er  Er9  1  0.061930  0.061930  0.438070  1
  Er  Er10  1  0.187159  0.816763  0.811395  1
  Er  Er11  1  0.816763  0.187159  0.184683  1
  Er  Er12  1  0.816763  0.187159  0.811395  1
  Er  Er13  1  0.187159  0.816763  0.184683  1
  Er  Er14  1  0.815620  0.815620  0.184380  1
  Er  Er15  1  0.186648  0.186648  0.813352  1
  Cd  Cd16  1  0.830680  0.830680  0.833622  1
  Cd  Cd17  1  0.830680  0.830680  0.505017  1
  Cd  Cd18  1  0.829309  0.505236  0.832727  1
  Cd  Cd19  1  0.505236  0.829309  0.832727  1
  Ir  Ir20  1  0.388761  0.822853  0.394192  1
  Ir  Ir21  1  0.822853  0.388761  0.394192  1
  Pd  Pd22  1  0.391992  0.391992  0.398706  1
  Pd  Pd23  1  0.391992  0.391992  0.817309  1
