# generated using pymatgen
data_Al2Si2Ni3Ru
_symmetry_space_group_name_H-M   'P 1'
_cell_length_a   4.62322299
_cell_length_b   4.61997460
_cell_length_c   4.60775132
_cell_angle_alpha   87.98769882
_cell_angle_beta   90.61313191
_cell_angle_gamma   90.61998523
_symmetry_Int_Tables_number   1
_chemical_formula_structural   Al2Si2Ni3Ru
_chemical_formula_sum   'Al2 Si2 Ni3 Ru1'
_cell_volume   98.34605978
_cell_formula_units_Z   1
loop_
 _symmetry_equiv_pos_site_id
 _symmetry_equiv_pos_as_xyz
  1  'x, y, z'
loop_
 _atom_site_type_symbol
 _atom_site_label
 _atom_site_symmetry_multiplicity
 _atom_site_fract_x
 _atom_site_fract_y
 _atom_site_fract_z
 _atom_site_occupancy
  Al  Al0  1  0.650424  0.088217  0.345139  1
  Al  Al1  1  0.150353  0.905517  0.658273  1
  Si  Si2  1  0.338926  0.600148  0.157382  1
  Si  Si3  1  0.850531  0.404892  0.837115  1
  Ni  Ni4  1  0.859134  0.602659  0.335337  1
  Ni  Ni5  1  0.653944  0.887691  0.871636  1
  Ni  Ni6  1  0.134911  0.108362  0.144708  1
  Ru  Ru7  1  0.361777  0.402514  0.650410  1
