# generated using pymatgen
data_TiNb2(Fe10B3)2
_symmetry_space_group_name_H-M   'P 1'
_cell_length_a   7.55645166
_cell_length_b   7.55645188
_cell_length_c   7.55645200
_cell_angle_alpha   59.99999946
_cell_angle_beta   59.99999850
_cell_angle_gamma   59.99999743
_symmetry_Int_Tables_number   1
_chemical_formula_structural   TiNb2(Fe10B3)2
_chemical_formula_sum   'Ti1 Nb2 Fe20 B6'
_cell_volume   305.09756694
_cell_formula_units_Z   1
loop_
 _symmetry_equiv_pos_site_id
 _symmetry_equiv_pos_as_xyz
  1  'x, y, z'
loop_
 _atom_site_type_symbol
 _atom_site_label
 _atom_site_symmetry_multiplicity
 _atom_site_fract_x
 _atom_site_fract_y
 _atom_site_fract_z
 _atom_site_occupancy
  Ti  Ti0  1  0.000000  0.000000  0.000000  1
  Nb  Nb1  1  0.250000  0.250000  0.250000  1
  Nb  Nb2  1  0.750000  0.750000  0.750000  1
  Fe  Fe3  1  0.344866  0.655134  0.000000  1
  Fe  Fe4  1  0.344866  0.000000  0.655134  1
  Fe  Fe5  1  0.000000  0.655134  0.344866  1
  Fe  Fe6  1  0.615500  0.153500  0.615500  1
  Fe  Fe7  1  0.384500  0.384500  0.846500  1
  Fe  Fe8  1  0.846500  0.384500  0.384500  1
  Fe  Fe9  1  0.384500  0.384500  0.384500  1
  Fe  Fe10  1  0.153500  0.615500  0.615500  1
  Fe  Fe11  1  0.615500  0.615500  0.615500  1
  Fe  Fe12  1  0.615500  0.615500  0.153500  1
  Fe  Fe13  1  0.384500  0.846500  0.384500  1
  Fe  Fe14  1  0.655134  0.344866  0.000000  1
  Fe  Fe15  1  0.000000  0.344866  0.655134  1
  Fe  Fe16  1  0.655134  0.000000  0.000000  1
  Fe  Fe17  1  0.000000  0.000000  0.344866  1
  Fe  Fe18  1  0.000000  0.000000  0.655134  1
  Fe  Fe19  1  0.000000  0.344866  0.000000  1
  Fe  Fe20  1  0.655134  0.000000  0.344866  1
  Fe  Fe21  1  0.344866  0.000000  0.000000  1
  Fe  Fe22  1  0.000000  0.655134  0.000000  1
  B  B23  1  0.270865  0.270865  0.729135  1
  B  B24  1  0.729135  0.729135  0.270865  1
  B  B25  1  0.729135  0.270865  0.729135  1
  B  B26  1  0.270865  0.729135  0.270865  1
  B  B27  1  0.270865  0.729135  0.729135  1
  B  B28  1  0.729135  0.270865  0.270865  1
