# generated using pymatgen
data_TbNd3(ScIr)4
_symmetry_space_group_name_H-M   'P 1'
_cell_length_a   7.23441778
_cell_length_b   4.31612700
_cell_length_c   8.84785717
_cell_angle_alpha   90.00000000
_cell_angle_beta   89.55251090
_cell_angle_gamma   90.00000000
_symmetry_Int_Tables_number   1
_chemical_formula_structural   TbNd3(ScIr)4
_chemical_formula_sum   'Tb1 Nd3 Sc4 Ir4'
_cell_volume   276.26295828
_cell_formula_units_Z   1
loop_
 _symmetry_equiv_pos_site_id
 _symmetry_equiv_pos_as_xyz
  1  'x, y, z'
loop_
 _atom_site_type_symbol
 _atom_site_label
 _atom_site_symmetry_multiplicity
 _atom_site_fract_x
 _atom_site_fract_y
 _atom_site_fract_z
 _atom_site_occupancy
  Tb  Tb0  1  0.979661  0.250000  0.175633  1
  Nd  Nd1  1  0.483487  0.250000  0.320614  1
  Nd  Nd2  1  0.016489  0.750000  0.822664  1
  Nd  Nd3  1  0.516027  0.750000  0.677617  1
  Sc  Sc4  1  0.864963  0.250000  0.560925  1
  Sc  Sc5  1  0.361273  0.250000  0.939354  1
  Sc  Sc6  1  0.138284  0.750000  0.431783  1
  Sc  Sc7  1  0.638636  0.750000  0.064771  1
  Ir  Ir8  1  0.736908  0.250000  0.904111  1
  Ir  Ir9  1  0.236592  0.250000  0.600688  1
  Ir  Ir10  1  0.260263  0.750000  0.104793  1
  Ir  Ir11  1  0.767418  0.750000  0.397048  1
