# generated using pymatgen
data_Zr2Re7Si4Tc
_symmetry_space_group_name_H-M   'P 1'
_cell_length_a   7.33788920
_cell_length_b   7.34827827
_cell_length_c   4.09123700
_cell_angle_alpha   90.00000000
_cell_angle_beta   90.00000000
_cell_angle_gamma   90.02897761
_symmetry_Int_Tables_number   1
_chemical_formula_structural   Zr2Re7Si4Tc
_chemical_formula_sum   'Zr2 Re7 Si4 Tc1'
_cell_volume   220.60295563
_cell_formula_units_Z   1
loop_
 _symmetry_equiv_pos_site_id
 _symmetry_equiv_pos_as_xyz
  1  'x, y, z'
loop_
 _atom_site_type_symbol
 _atom_site_label
 _atom_site_symmetry_multiplicity
 _atom_site_fract_x
 _atom_site_fract_y
 _atom_site_fract_z
 _atom_site_occupancy
  Zr  Zr0  1  0.500184  0.500190  0.000000  1
  Zr  Zr1  1  0.000329  0.000428  0.500000  1
  Re  Re2  1  0.156731  0.593076  0.500000  1
  Re  Re3  1  0.092155  0.341646  0.000000  1
  Re  Re4  1  0.908794  0.655645  0.000000  1
  Re  Re5  1  0.406682  0.843762  0.500000  1
  Re  Re6  1  0.591210  0.157058  0.500000  1
  Re  Re7  1  0.344740  0.092050  0.000000  1
  Re  Re8  1  0.841903  0.407807  0.500000  1
  Si  Si9  1  0.208862  0.792133  0.000000  1
  Si  Si10  1  0.790459  0.206863  0.000000  1
  Si  Si11  1  0.708434  0.710250  0.500000  1
  Si  Si12  1  0.290605  0.292127  0.500000  1
  Tc  Tc13  1  0.658912  0.906964  0.000000  1
