# generated using pymatgen
data_CeHo3Sc2(AlIr2)2
_symmetry_space_group_name_H-M   'P 1'
_cell_length_a   6.91755611
_cell_length_b   4.33069400
_cell_length_c   8.22787739
_cell_angle_alpha   90.00000000
_cell_angle_beta   90.18648597
_cell_angle_gamma   90.00000000
_symmetry_Int_Tables_number   1
_chemical_formula_structural   CeHo3Sc2(AlIr2)2
_chemical_formula_sum   'Ce1 Ho3 Sc2 Al2 Ir4'
_cell_volume   246.48795363
_cell_formula_units_Z   1
loop_
 _symmetry_equiv_pos_site_id
 _symmetry_equiv_pos_as_xyz
  1  'x, y, z'
loop_
 _atom_site_type_symbol
 _atom_site_label
 _atom_site_symmetry_multiplicity
 _atom_site_fract_x
 _atom_site_fract_y
 _atom_site_fract_z
 _atom_site_occupancy
  Ce  Ce0  1  0.534333  0.750000  0.680808  1
  Ho  Ho1  1  0.974291  0.250000  0.173452  1
  Ho  Ho2  1  0.468078  0.250000  0.323566  1
  Ho  Ho3  1  0.039937  0.750000  0.824027  1
  Sc  Sc4  1  0.130036  0.750000  0.437040  1
  Sc  Sc5  1  0.635814  0.750000  0.062235  1
  Al  Al6  1  0.863038  0.250000  0.556158  1
  Al  Al7  1  0.360015  0.250000  0.942545  1
  Ir  Ir8  1  0.741015  0.250000  0.871189  1
  Ir  Ir9  1  0.239974  0.250000  0.623902  1
  Ir  Ir10  1  0.259874  0.750000  0.115189  1
  Ir  Ir11  1  0.753597  0.750000  0.389889  1
