# generated using pymatgen
data_Y19Th(Ir2Ru)4
_symmetry_space_group_name_H-M   'P 1'
_cell_length_a   10.90951957
_cell_length_b   10.89836167
_cell_length_c   6.46481617
_cell_angle_alpha   90.07530899
_cell_angle_beta   89.79061593
_cell_angle_gamma   90.02782885
_symmetry_Int_Tables_number   1
_chemical_formula_structural   Y19Th(Ir2Ru)4
_chemical_formula_sum   'Y19 Th1 Ir8 Ru4'
_cell_volume   768.63418559
_cell_formula_units_Z   1
loop_
 _symmetry_equiv_pos_site_id
 _symmetry_equiv_pos_as_xyz
  1  'x, y, z'
loop_
 _atom_site_type_symbol
 _atom_site_label
 _atom_site_symmetry_multiplicity
 _atom_site_fract_x
 _atom_site_fract_y
 _atom_site_fract_z
 _atom_site_occupancy
  Y  Y0  1  0.292600  0.910839  0.878352  1
  Y  Y1  1  0.705960  0.086338  0.880270  1
  Y  Y2  1  0.706098  0.912181  0.379838  1
  Y  Y3  1  0.586831  0.794098  0.879943  1
  Y  Y4  1  0.592938  0.209007  0.379373  1
  Y  Y5  1  0.415051  0.788386  0.377961  1
  Y  Y6  1  0.414532  0.208514  0.878324  1
  Y  Y7  1  0.206401  0.414163  0.620486  1
  Y  Y8  1  0.205478  0.586156  0.120558  1
  Y  Y9  1  0.793486  0.414231  0.119592  1
  Y  Y10  1  0.793130  0.586880  0.621169  1
  Y  Y11  1  0.913533  0.706458  0.120872  1
  Y  Y12  1  0.913164  0.293909  0.618819  1
  Y  Y13  1  0.086324  0.706184  0.621310  1
  Y  Y14  1  0.085233  0.293948  0.119006  1
  Y  Y15  1  0.996605  0.998860  0.500947  1
  Y  Y16  1  0.000483  0.000168  0.000338  1
  Y  Y17  1  0.499652  0.500322  0.002622  1
  Y  Y18  1  0.501431  0.499118  0.502165  1
  Th  Th19  1  0.296363  0.086203  0.381170  1
  Ir  Ir20  1  0.847557  0.153604  0.247841  1
  Ir  Ir21  1  0.846291  0.847215  0.752659  1
  Ir  Ir22  1  0.153928  0.151020  0.741301  1
  Ir  Ir23  1  0.155025  0.851084  0.254435  1
  Ir  Ir24  1  0.653385  0.348046  0.751401  1
  Ir  Ir25  1  0.652676  0.652915  0.248655  1
  Ir  Ir26  1  0.347344  0.344809  0.253549  1
  Ir  Ir27  1  0.348183  0.651186  0.751366  1
  Ru  Ru28  1  0.493900  0.001629  0.129341  1
  Ru  Ru29  1  0.497119  0.001075  0.619469  1
  Ru  Ru30  1  0.999675  0.500496  0.873275  1
  Ru  Ru31  1  0.999626  0.500960  0.373595  1
