# generated using pymatgen
data_Ta4Nb12CuNi7N4
_symmetry_space_group_name_H-M   'P 1'
_cell_length_a   8.24486350
_cell_length_b   8.25079325
_cell_length_c   8.25096500
_cell_angle_alpha   59.99913052
_cell_angle_beta   59.97514064
_cell_angle_gamma   59.97463665
_symmetry_Int_Tables_number   1
_chemical_formula_structural   Ta4Nb12CuNi7N4
_chemical_formula_sum   'Ta4 Nb12 Cu1 Ni7 N4'
_cell_volume   396.73555723
_cell_formula_units_Z   1
loop_
 _symmetry_equiv_pos_site_id
 _symmetry_equiv_pos_as_xyz
  1  'x, y, z'
loop_
 _atom_site_type_symbol
 _atom_site_label
 _atom_site_symmetry_multiplicity
 _atom_site_fract_x
 _atom_site_fract_y
 _atom_site_fract_z
 _atom_site_occupancy
  Ta  Ta0  1  0.125844  0.624701  0.624719  1
  Ta  Ta1  1  0.622122  0.122606  0.627629  1
  Ta  Ta2  1  0.622133  0.627624  0.122591  1
  Ta  Ta3  1  0.622140  0.627633  0.627646  1
  Nb  Nb4  1  0.817147  0.816735  0.183069  1
  Nb  Nb5  1  0.182445  0.182897  0.817329  1
  Nb  Nb6  1  0.817149  0.183084  0.816734  1
  Nb  Nb7  1  0.182458  0.817332  0.182881  1
  Nb  Nb8  1  0.182464  0.817334  0.817332  1
  Nb  Nb9  1  0.817149  0.183075  0.183042  1
  Nb  Nb10  1  0.432436  0.433048  0.067268  1
  Nb  Nb11  1  0.067807  0.064912  0.433642  1
  Nb  Nb12  1  0.432433  0.067281  0.433045  1
  Nb  Nb13  1  0.067814  0.433642  0.064903  1
  Nb  Nb14  1  0.067821  0.433642  0.433641  1
  Nb  Nb15  1  0.432433  0.067273  0.067252  1
  Cu  Cu16  1  0.745287  0.418239  0.418237  1
  Ni  Ni17  1  0.421449  0.738550  0.420002  1
  Ni  Ni18  1  0.421465  0.419987  0.738574  1
  Ni  Ni19  1  0.421470  0.419965  0.419965  1
  Ni  Ni20  1  0.511493  0.829505  0.829502  1
  Ni  Ni21  1  0.829326  0.511425  0.829625  1
  Ni  Ni22  1  0.829298  0.829610  0.511473  1
  Ni  Ni23  1  0.829284  0.829603  0.829610  1
  N  N24  1  0.624339  0.125222  0.125221  1
  N  N25  1  0.124931  0.624530  0.125270  1
  N  N26  1  0.124933  0.125272  0.624526  1
  N  N27  1  0.124933  0.125272  0.125271  1
