# generated using pymatgen
data_Ta3Ti3Ir2
_symmetry_space_group_name_H-M   'P 1'
_cell_length_a   5.08235400
_cell_length_b   5.16966500
_cell_length_c   5.03807100
_cell_angle_alpha   90.00000000
_cell_angle_beta   90.00000000
_cell_angle_gamma   90.00000000
_symmetry_Int_Tables_number   1
_chemical_formula_structural   Ta3Ti3Ir2
_chemical_formula_sum   'Ta3 Ti3 Ir2'
_cell_volume   132.37061798
_cell_formula_units_Z   1
loop_
 _symmetry_equiv_pos_site_id
 _symmetry_equiv_pos_as_xyz
  1  'x, y, z'
loop_
 _atom_site_type_symbol
 _atom_site_label
 _atom_site_symmetry_multiplicity
 _atom_site_fract_x
 _atom_site_fract_y
 _atom_site_fract_z
 _atom_site_occupancy
  Ta  Ta0  1  0.503769  0.249610  0.000000  1
  Ta  Ta1  1  0.503769  0.750390  0.000000  1
  Ta  Ta2  1  0.251272  0.000000  0.500000  1
  Ti  Ti3  1  0.748983  0.000000  0.500000  1
  Ti  Ti4  1  0.997155  0.500000  0.249472  1
  Ti  Ti5  1  0.997155  0.500000  0.750528  1
  Ir  Ir6  1  0.496123  0.500000  0.500000  1
  Ir  Ir7  1  0.001774  0.000000  0.000000  1
