# generated using pymatgen
data_BaTa2Cr2(PO4)6
_symmetry_space_group_name_H-M   'P 1'
_cell_length_a   8.58238600
_cell_length_b   9.24928476
_cell_length_c   12.61621274
_cell_angle_alpha   84.62810694
_cell_angle_beta   90.00000000
_cell_angle_gamma   90.00000000
_symmetry_Int_Tables_number   1
_chemical_formula_structural   BaTa2Cr2(PO4)6
_chemical_formula_sum   'Ba2 Ta4 Cr4 P12 O48'
_cell_volume   997.08820760
_cell_formula_units_Z   2
loop_
 _symmetry_equiv_pos_site_id
 _symmetry_equiv_pos_as_xyz
  1  'x, y, z'
loop_
 _atom_site_type_symbol
 _atom_site_label
 _atom_site_symmetry_multiplicity
 _atom_site_fract_x
 _atom_site_fract_y
 _atom_site_fract_z
 _atom_site_occupancy
  Ba  Ba0  1  0.000000  0.000000  0.500000  1
  Ba  Ba1  1  0.500000  0.500000  0.500000  1
  Ta  Ta2  1  0.499507  0.211599  0.852455  1
  Ta  Ta3  1  0.999507  0.288401  0.147545  1
  Ta  Ta4  1  0.500493  0.788401  0.147545  1
  Ta  Ta5  1  0.000493  0.711599  0.852455  1
  Cr  Cr6  1  0.500557  0.804269  0.648646  1
  Cr  Cr7  1  0.000557  0.695731  0.351354  1
  Cr  Cr8  1  0.499443  0.195731  0.351354  1
  Cr  Cr9  1  0.999443  0.304269  0.648646  1
  P  P10  1  0.355331  0.858626  0.393760  1
  P  P11  1  0.282418  0.503835  0.744963  1
  P  P12  1  0.144669  0.358626  0.393760  1
  P  P13  1  0.862333  0.361303  0.888694  1
  P  P14  1  0.362333  0.138697  0.111306  1
  P  P15  1  0.782418  0.996165  0.255037  1
  P  P16  1  0.217582  0.003835  0.744963  1
  P  P17  1  0.637667  0.861303  0.888694  1
  P  P18  1  0.137667  0.638697  0.111306  1
  P  P19  1  0.855331  0.641374  0.606240  1
  P  P20  1  0.717582  0.496165  0.255037  1
  P  P21  1  0.644669  0.141374  0.606240  1
  O  O22  1  0.310395  0.922201  0.666052  1
  O  O23  1  0.181298  0.820793  0.390960  1
  O  O24  1  0.434864  0.786727  0.494550  1
  O  O25  1  0.438296  0.789490  0.298630  1
  O  O26  1  0.392461  0.607786  0.680891  1
  O  O27  1  0.134722  0.524442  0.384377  1
  O  O28  1  0.189605  0.422201  0.666052  1
  O  O29  1  0.380396  0.390242  0.817927  1
  O  O30  1  0.125446  0.471046  0.117489  1
  O  O31  1  0.819895  0.414860  0.178458  1
  O  O32  1  0.318702  0.320793  0.390960  1
  O  O33  1  0.065136  0.286727  0.494550  1
  O  O34  1  0.061704  0.289490  0.298630  1
  O  O35  1  0.685740  0.323018  0.886926  1
  O  O36  1  0.927396  0.300338  0.998933  1
  O  O37  1  0.950789  0.293557  0.802706  1
  O  O38  1  0.450789  0.206443  0.197294  1
  O  O39  1  0.427396  0.199662  0.001067  1
  O  O40  1  0.185740  0.176982  0.113074  1
  O  O41  1  0.880396  0.109758  0.182073  1
  O  O42  1  0.365278  0.024442  0.384377  1
  O  O43  1  0.107539  0.107786  0.680891  1
  O  O44  1  0.319895  0.085140  0.821542  1
  O  O45  1  0.625446  0.028954  0.882511  1
  O  O46  1  0.374554  0.971046  0.117489  1
  O  O47  1  0.680105  0.914860  0.178458  1
  O  O48  1  0.892461  0.892214  0.319109  1
  O  O49  1  0.634722  0.975558  0.615623  1
  O  O50  1  0.119604  0.890242  0.817927  1
  O  O51  1  0.814260  0.823018  0.886926  1
  O  O52  1  0.572604  0.800338  0.998933  1
  O  O53  1  0.549211  0.793557  0.802706  1
  O  O54  1  0.049211  0.706443  0.197294  1
  O  O55  1  0.072604  0.699662  0.001067  1
  O  O56  1  0.314260  0.676982  0.113074  1
  O  O57  1  0.938296  0.710510  0.701370  1
  O  O58  1  0.934864  0.713273  0.505450  1
  O  O59  1  0.681298  0.679207  0.609040  1
  O  O60  1  0.180105  0.585140  0.821542  1
  O  O61  1  0.874554  0.528954  0.882511  1
  O  O62  1  0.619604  0.609758  0.182073  1
  O  O63  1  0.810395  0.577799  0.333948  1
  O  O64  1  0.865278  0.475558  0.615623  1
  O  O65  1  0.607539  0.392214  0.319109  1
  O  O66  1  0.561704  0.210510  0.701370  1
  O  O67  1  0.565136  0.213273  0.505450  1
  O  O68  1  0.818702  0.179207  0.609040  1
  O  O69  1  0.689605  0.077799  0.333948  1
