# generated using pymatgen
data_Ho16Tm4(Ir3Ru)3
_symmetry_space_group_name_H-M   'P 1'
_cell_length_a   10.77117600
_cell_length_b   10.77117600
_cell_length_c   6.37230900
_cell_angle_alpha   90.00000000
_cell_angle_beta   90.00000000
_cell_angle_gamma   90.00000000
_symmetry_Int_Tables_number   1
_chemical_formula_structural   Ho16Tm4(Ir3Ru)3
_chemical_formula_sum   'Ho16 Tm4 Ir9 Ru3'
_cell_volume   739.30402663
_cell_formula_units_Z   1
loop_
 _symmetry_equiv_pos_site_id
 _symmetry_equiv_pos_as_xyz
  1  'x, y, z'
loop_
 _atom_site_type_symbol
 _atom_site_label
 _atom_site_symmetry_multiplicity
 _atom_site_fract_x
 _atom_site_fract_y
 _atom_site_fract_z
 _atom_site_occupancy
  Ho  Ho0  1  0.293206  0.086286  0.376870  1
  Ho  Ho1  1  0.293246  0.913915  0.877115  1
  Ho  Ho2  1  0.706754  0.086085  0.877115  1
  Ho  Ho3  1  0.706794  0.913714  0.376870  1
  Ho  Ho4  1  0.586085  0.793246  0.877115  1
  Ho  Ho5  1  0.586286  0.206794  0.376870  1
  Ho  Ho6  1  0.413714  0.793206  0.376870  1
  Ho  Ho7  1  0.413915  0.206754  0.877115  1
  Ho  Ho8  1  0.208435  0.412987  0.624418  1
  Ho  Ho9  1  0.208224  0.586989  0.121569  1
  Ho  Ho10  1  0.791776  0.413011  0.121569  1
  Ho  Ho11  1  0.791565  0.587013  0.624418  1
  Ho  Ho12  1  0.913011  0.708224  0.121569  1
  Ho  Ho13  1  0.912987  0.291565  0.624418  1
  Ho  Ho14  1  0.087013  0.708435  0.624418  1
  Ho  Ho15  1  0.086989  0.291776  0.121569  1
  Tm  Tm16  1  0.000000  0.000000  0.499816  1
  Tm  Tm17  1  0.000000  0.000000  0.999772  1
  Tm  Tm18  1  0.500000  0.500000  0.999772  1
  Tm  Tm19  1  0.500000  0.500000  0.499816  1
  Ir  Ir20  1  0.848265  0.152196  0.250012  1
  Ir  Ir21  1  0.847988  0.847839  0.749677  1
  Ir  Ir22  1  0.152012  0.152161  0.749677  1
  Ir  Ir23  1  0.151735  0.847804  0.250012  1
  Ir  Ir24  1  0.652161  0.347988  0.749677  1
  Ir  Ir25  1  0.652196  0.651735  0.250012  1
  Ir  Ir26  1  0.347804  0.348265  0.250012  1
  Ir  Ir27  1  0.347839  0.652012  0.749677  1
  Ir  Ir28  1  0.000000  0.500000  0.378499  1
  Ru  Ru29  1  0.500000  0.000000  0.122744  1
  Ru  Ru30  1  0.500000  0.000000  0.622786  1
  Ru  Ru31  1  0.000000  0.500000  0.878147  1
