# generated using pymatgen
data_YLu(ScIr)2
_symmetry_space_group_name_H-M   'P 1'
_cell_length_a   4.27826600
_cell_length_b   7.14563900
_cell_length_c   8.68047300
_cell_angle_alpha   90.00000000
_cell_angle_beta   90.00000000
_cell_angle_gamma   90.00000000
_symmetry_Int_Tables_number   1
_chemical_formula_structural   YLu(ScIr)2
_chemical_formula_sum   'Y2 Lu2 Sc4 Ir4'
_cell_volume   265.37025729
_cell_formula_units_Z   2
loop_
 _symmetry_equiv_pos_site_id
 _symmetry_equiv_pos_as_xyz
  1  'x, y, z'
loop_
 _atom_site_type_symbol
 _atom_site_label
 _atom_site_symmetry_multiplicity
 _atom_site_fract_x
 _atom_site_fract_y
 _atom_site_fract_z
 _atom_site_occupancy
  Y  Y0  1  0.750000  0.016122  0.671785  1
  Y  Y1  1  0.750000  0.516122  0.828215  1
  Lu  Lu2  1  0.250000  0.983454  0.328731  1
  Lu  Lu3  1  0.250000  0.483454  0.171269  1
  Sc  Sc4  1  0.250000  0.358472  0.564195  1
  Sc  Sc5  1  0.250000  0.858472  0.935805  1
  Sc  Sc6  1  0.750000  0.642188  0.431795  1
  Sc  Sc7  1  0.750000  0.142188  0.068205  1
  Ir  Ir8  1  0.250000  0.239409  0.897780  1
  Ir  Ir9  1  0.250000  0.739409  0.602220  1
  Ir  Ir10  1  0.750000  0.760354  0.107957  1
  Ir  Ir11  1  0.750000  0.260354  0.392043  1
