# generated using pymatgen
data_Pr3CoAs4(PRh4)2
_symmetry_space_group_name_H-M   'P 1'
_cell_length_a   3.98940600
_cell_length_b   11.44824500
_cell_length_c   13.38714500
_cell_angle_alpha   90.00000000
_cell_angle_beta   90.00000000
_cell_angle_gamma   90.00000000
_symmetry_Int_Tables_number   1
_chemical_formula_structural   Pr3CoAs4(PRh4)2
_chemical_formula_sum   'Pr6 Co2 As8 P4 Rh16'
_cell_volume   611.41363405
_cell_formula_units_Z   2
loop_
 _symmetry_equiv_pos_site_id
 _symmetry_equiv_pos_as_xyz
  1  'x, y, z'
loop_
 _atom_site_type_symbol
 _atom_site_label
 _atom_site_symmetry_multiplicity
 _atom_site_fract_x
 _atom_site_fract_y
 _atom_site_fract_z
 _atom_site_occupancy
  Pr  Pr0  1  0.000000  0.500000  0.517764  1
  Pr  Pr1  1  0.500000  0.000000  0.482236  1
  Pr  Pr2  1  0.500000  0.815388  0.202076  1
  Pr  Pr3  1  0.500000  0.184612  0.202076  1
  Pr  Pr4  1  0.000000  0.684612  0.797924  1
  Pr  Pr5  1  0.000000  0.315388  0.797924  1
  Co  Co6  1  0.000000  0.500000  0.973871  1
  Co  Co7  1  0.500000  0.000000  0.026129  1
  As  As8  1  0.500000  0.315364  0.618907  1
  As  As9  1  0.500000  0.684636  0.618907  1
  As  As10  1  0.000000  0.184636  0.381093  1
  As  As11  1  0.000000  0.815364  0.381093  1
  As  As12  1  0.500000  0.857392  0.895521  1
  As  As13  1  0.500000  0.142608  0.895521  1
  As  As14  1  0.000000  0.642608  0.104479  1
  As  As15  1  0.000000  0.357392  0.104479  1
  P  P16  1  0.500000  0.500000  0.886350  1
  P  P17  1  0.000000  0.000000  0.113650  1
  P  P18  1  0.500000  0.500000  0.346460  1
  P  P19  1  0.000000  0.000000  0.653540  1
  Rh  Rh20  1  0.500000  0.500000  0.173163  1
  Rh  Rh21  1  0.000000  0.000000  0.826837  1
  Rh  Rh22  1  0.500000  0.500000  0.714047  1
  Rh  Rh23  1  0.000000  0.000000  0.285953  1
  Rh  Rh24  1  0.500000  0.338650  0.992467  1
  Rh  Rh25  1  0.500000  0.661350  0.992467  1
  Rh  Rh26  1  0.000000  0.161350  0.007533  1
  Rh  Rh27  1  0.000000  0.838650  0.007533  1
  Rh  Rh28  1  0.500000  0.301285  0.430172  1
  Rh  Rh29  1  0.500000  0.698715  0.430172  1
  Rh  Rh30  1  0.000000  0.198715  0.569828  1
  Rh  Rh31  1  0.000000  0.801285  0.569828  1
  Rh  Rh32  1  0.500000  0.880809  0.706182  1
  Rh  Rh33  1  0.500000  0.119191  0.706182  1
  Rh  Rh34  1  0.000000  0.619191  0.293818  1
  Rh  Rh35  1  0.000000  0.380809  0.293818  1
