# generated using pymatgen
data_Th3Hg3S
_symmetry_space_group_name_H-M   'P 1'
_cell_length_a   8.33497669
_cell_length_b   8.33497694
_cell_length_c   8.33497800
_cell_angle_alpha   113.55049198
_cell_angle_beta   113.55050022
_cell_angle_gamma   113.55047532
_symmetry_Int_Tables_number   1
_chemical_formula_structural   Th3Hg3S
_chemical_formula_sum   'Th6 Hg6 S2'
_cell_volume   363.22741650
_cell_formula_units_Z   2
loop_
 _symmetry_equiv_pos_site_id
 _symmetry_equiv_pos_as_xyz
  1  'x, y, z'
loop_
 _atom_site_type_symbol
 _atom_site_label
 _atom_site_symmetry_multiplicity
 _atom_site_fract_x
 _atom_site_fract_y
 _atom_site_fract_z
 _atom_site_occupancy
  Th  Th0  1  0.055505  0.388728  0.282178  1
  Th  Th1  1  0.388728  0.282178  0.055505  1
  Th  Th2  1  0.717822  0.944495  0.611272  1
  Th  Th3  1  0.282178  0.055505  0.388728  1
  Th  Th4  1  0.611272  0.717822  0.944495  1
  Th  Th5  1  0.944495  0.611272  0.717822  1
  Hg  Hg6  1  0.414187  0.921916  0.756648  1
  Hg  Hg7  1  0.921916  0.756648  0.414187  1
  Hg  Hg8  1  0.243352  0.585813  0.078084  1
  Hg  Hg9  1  0.756648  0.414187  0.921916  1
  Hg  Hg10  1  0.078084  0.243352  0.585813  1
  Hg  Hg11  1  0.585813  0.078084  0.243352  1
  S  S12  1  0.000000  0.000000  0.000000  1
  S  S13  1  0.500000  0.500000  0.500000  1
