# generated using pymatgen
data_Er9Tm3(Si3Ir)4
_symmetry_space_group_name_H-M   'P 1'
_cell_length_a   4.22396400
_cell_length_b   10.57345700
_cell_length_c   12.21403700
_cell_angle_alpha   90.04986409
_cell_angle_beta   90.00000000
_cell_angle_gamma   90.00000000
_symmetry_Int_Tables_number   1
_chemical_formula_structural   Er9Tm3(Si3Ir)4
_chemical_formula_sum   'Er9 Tm3 Si12 Ir4'
_cell_volume   545.50191378
_cell_formula_units_Z   1
loop_
 _symmetry_equiv_pos_site_id
 _symmetry_equiv_pos_as_xyz
  1  'x, y, z'
loop_
 _atom_site_type_symbol
 _atom_site_label
 _atom_site_symmetry_multiplicity
 _atom_site_fract_x
 _atom_site_fract_y
 _atom_site_fract_z
 _atom_site_occupancy
  Er  Er0  1  0.250000  0.879897  0.020466  1
  Er  Er1  1  0.250000  0.620146  0.520408  1
  Er  Er2  1  0.750000  0.120053  0.979370  1
  Er  Er3  1  0.750000  0.379775  0.479595  1
  Er  Er4  1  0.250000  0.918910  0.603031  1
  Er  Er5  1  0.250000  0.581125  0.103327  1
  Er  Er6  1  0.750000  0.081191  0.396893  1
  Er  Er7  1  0.750000  0.418803  0.896874  1
  Er  Er8  1  0.250000  0.659447  0.800712  1
  Tm  Tm9  1  0.250000  0.840905  0.300723  1
  Tm  Tm10  1  0.750000  0.340739  0.199301  1
  Tm  Tm11  1  0.750000  0.159021  0.699331  1
  Si  Si12  1  0.250000  0.010710  0.821183  1
  Si  Si13  1  0.250000  0.489084  0.321167  1
  Si  Si14  1  0.750000  0.989207  0.178789  1
  Si  Si15  1  0.750000  0.510767  0.678822  1
  Si  Si16  1  0.250000  0.246457  0.840562  1
  Si  Si17  1  0.250000  0.253533  0.340678  1
  Si  Si18  1  0.750000  0.753535  0.159421  1
  Si  Si19  1  0.750000  0.746709  0.659088  1
  Si  Si20  1  0.250000  0.199776  0.544157  1
  Si  Si21  1  0.250000  0.300346  0.043969  1
  Si  Si22  1  0.750000  0.800237  0.455973  1
  Si  Si23  1  0.750000  0.699663  0.956221  1
  Ir  Ir24  1  0.250000  0.389763  0.680462  1
  Ir  Ir25  1  0.250000  0.110298  0.180358  1
  Ir  Ir26  1  0.750000  0.610194  0.319526  1
  Ir  Ir27  1  0.750000  0.889710  0.819590  1
