# generated using pymatgen
data_Nb12Al8CoRu3C4
_symmetry_space_group_name_H-M   'P 1'
_cell_length_a   8.31617447
_cell_length_b   8.31618908
_cell_length_c   8.30333326
_cell_angle_alpha   59.95000564
_cell_angle_beta   59.94894344
_cell_angle_gamma   60.00004278
_symmetry_Int_Tables_number   1
_chemical_formula_structural   Nb12Al8CoRu3C4
_chemical_formula_sum   'Nb12 Al8 Co1 Ru3 C4'
_cell_volume   405.74527277
_cell_formula_units_Z   1
loop_
 _symmetry_equiv_pos_site_id
 _symmetry_equiv_pos_as_xyz
  1  'x, y, z'
loop_
 _atom_site_type_symbol
 _atom_site_label
 _atom_site_symmetry_multiplicity
 _atom_site_fract_x
 _atom_site_fract_y
 _atom_site_fract_z
 _atom_site_occupancy
  Nb  Nb0  1  0.687864  0.309479  0.693208  1
  Nb  Nb1  1  0.940512  0.562140  0.556801  1
  Nb  Nb2  1  0.559134  0.940758  0.941243  1
  Nb  Nb3  1  0.940742  0.559122  0.941261  1
  Nb  Nb4  1  0.558964  0.558938  0.941227  1
  Nb  Nb5  1  0.940488  0.940491  0.556926  1
  Nb  Nb6  1  0.691036  0.691062  0.308773  1
  Nb  Nb7  1  0.309488  0.687860  0.693199  1
  Nb  Nb8  1  0.690866  0.309242  0.308757  1
  Nb  Nb9  1  0.309512  0.309509  0.693074  1
  Nb  Nb10  1  0.562136  0.940521  0.556792  1
  Nb  Nb11  1  0.309258  0.690878  0.308739  1
  Al  Al12  1  0.329607  0.329643  0.339587  1
  Al  Al13  1  0.248827  0.920407  0.910468  1
  Al  Al14  1  0.920427  0.248829  0.910458  1
  Al  Al15  1  0.917328  0.917298  0.248188  1
  Al  Al16  1  0.329573  0.001171  0.339542  1
  Al  Al17  1  0.332672  0.332702  0.001812  1
  Al  Al18  1  0.001173  0.329593  0.339532  1
  Al  Al19  1  0.920393  0.920357  0.910413  1
  Co  Co20  1  0.125000  0.125000  0.625000  1
  Ru  Ru21  1  0.125000  0.125000  0.125000  1
  Ru  Ru22  1  0.625000  0.125000  0.125000  1
  Ru  Ru23  1  0.125000  0.625000  0.125000  1
  C  C24  1  0.625000  0.625000  0.625000  1
  C  C25  1  0.125000  0.625000  0.625000  1
  C  C26  1  0.625000  0.125000  0.625000  1
  C  C27  1  0.625000  0.625000  0.125000  1
