# generated using pymatgen
data_PrSm(SI)2
_symmetry_space_group_name_H-M   'P 1'
_cell_length_a   11.60435077
_cell_length_b   11.60435086
_cell_length_c   11.60435071
_cell_angle_alpha   23.16879157
_cell_angle_beta   23.16879059
_cell_angle_gamma   23.16878973
_symmetry_Int_Tables_number   1
_chemical_formula_structural   PrSm(SI)2
_chemical_formula_sum   'Pr1 Sm1 S2 I2'
_cell_volume   212.33803204
_cell_formula_units_Z   1
loop_
 _symmetry_equiv_pos_site_id
 _symmetry_equiv_pos_as_xyz
  1  'x, y, z'
loop_
 _atom_site_type_symbol
 _atom_site_label
 _atom_site_symmetry_multiplicity
 _atom_site_fract_x
 _atom_site_fract_y
 _atom_site_fract_z
 _atom_site_occupancy
  Pr  Pr0  1  0.386307  0.386307  0.386307  1
  Sm  Sm1  1  0.614078  0.614078  0.614078  1
  S  S2  1  0.301262  0.301262  0.301262  1
  S  S3  1  0.696569  0.696569  0.696569  1
  I  I4  1  0.112853  0.112853  0.112853  1
  I  I5  1  0.888931  0.888931  0.888931  1
