# generated using pymatgen
data_Na12Ge3P5Pt8
_symmetry_space_group_name_H-M   'P 1'
_cell_length_a   5.85536800
_cell_length_b   7.64542113
_cell_length_c   12.88418953
_cell_angle_alpha   90.10495943
_cell_angle_beta   90.00000000
_cell_angle_gamma   90.00000000
_symmetry_Int_Tables_number   1
_chemical_formula_structural   Na12Ge3P5Pt8
_chemical_formula_sum   'Na12 Ge3 P5 Pt8'
_cell_volume   576.78237864
_cell_formula_units_Z   1
loop_
 _symmetry_equiv_pos_site_id
 _symmetry_equiv_pos_as_xyz
  1  'x, y, z'
loop_
 _atom_site_type_symbol
 _atom_site_label
 _atom_site_symmetry_multiplicity
 _atom_site_fract_x
 _atom_site_fract_y
 _atom_site_fract_z
 _atom_site_occupancy
  Na  Na0  1  0.664974  0.213913  0.249929  1
  Na  Na1  1  0.343212  0.783277  0.753629  1
  Na  Na2  1  0.343212  0.716723  0.246371  1
  Na  Na3  1  0.664974  0.286087  0.750071  1
  Na  Na4  1  0.122402  0.381819  0.106318  1
  Na  Na5  1  0.877033  0.620561  0.894186  1
  Na  Na6  1  0.874326  0.618114  0.606709  1
  Na  Na7  1  0.874326  0.881886  0.393291  1
  Na  Na8  1  0.124351  0.383215  0.392670  1
  Na  Na9  1  0.124351  0.116785  0.607330  1
  Na  Na10  1  0.122402  0.118181  0.893682  1
  Na  Na11  1  0.877033  0.879439  0.105814  1
  Ge  Ge12  1  0.401529  0.750000  0.000000  1
  Ge  Ge13  1  0.407600  0.750000  0.500000  1
  Ge  Ge14  1  0.592319  0.250000  0.500000  1
  P  P15  1  0.172018  0.068711  0.248691  1
  P  P16  1  0.825516  0.928272  0.752425  1
  P  P17  1  0.825516  0.571728  0.247575  1
  P  P18  1  0.172018  0.431289  0.751309  1
  P  P19  1  0.584825  0.250000  0.000000  1
  Pt  Pt20  1  0.374326  0.041044  0.094495  1
  Pt  Pt21  1  0.631675  0.983500  0.905966  1
  Pt  Pt22  1  0.631457  0.973569  0.598734  1
  Pt  Pt23  1  0.631457  0.526431  0.401266  1
  Pt  Pt24  1  0.365575  0.025866  0.402108  1
  Pt  Pt25  1  0.365575  0.474134  0.597892  1
  Pt  Pt26  1  0.374326  0.458956  0.905505  1
  Pt  Pt27  1  0.631675  0.516500  0.094034  1
