# generated using pymatgen
data_Lu4Ga3Ge3Ir7
_symmetry_space_group_name_H-M   'P 1'
_cell_length_a   7.21911280
_cell_length_b   7.21911272
_cell_length_c   7.21294800
_cell_angle_alpha   109.45392311
_cell_angle_beta   109.45392288
_cell_angle_gamma   109.48850910
_symmetry_Int_Tables_number   1
_chemical_formula_structural   Lu4Ga3Ge3Ir7
_chemical_formula_sum   'Lu4 Ga3 Ge3 Ir7'
_cell_volume   289.43513372
_cell_formula_units_Z   1
loop_
 _symmetry_equiv_pos_site_id
 _symmetry_equiv_pos_as_xyz
  1  'x, y, z'
loop_
 _atom_site_type_symbol
 _atom_site_label
 _atom_site_symmetry_multiplicity
 _atom_site_fract_x
 _atom_site_fract_y
 _atom_site_fract_z
 _atom_site_occupancy
  Lu  Lu0  1  0.000000  0.000000  0.513005  1
  Lu  Lu1  1  0.000000  0.496457  0.002823  1
  Lu  Lu2  1  0.496457  0.000000  0.002823  1
  Lu  Lu3  1  0.503543  0.503543  0.506366  1
  Ga  Ga4  1  0.696305  0.696305  0.005110  1
  Ga  Ga5  1  0.303695  0.000000  0.308804  1
  Ga  Ga6  1  0.000000  0.303695  0.308804  1
  Ge  Ge7  1  0.322024  0.322024  0.004830  1
  Ge  Ge8  1  0.677976  0.000000  0.682805  1
  Ge  Ge9  1  0.000000  0.677976  0.682805  1
  Ir  Ir10  1  0.747858  0.248025  0.498908  1
  Ir  Ir11  1  0.751975  0.499833  0.250883  1
  Ir  Ir12  1  0.500167  0.252142  0.751051  1
  Ir  Ir13  1  0.252142  0.500167  0.751051  1
  Ir  Ir14  1  0.248025  0.747858  0.498908  1
  Ir  Ir15  1  0.499833  0.751975  0.250883  1
  Ir  Ir16  1  0.000000  0.000000  0.980142  1
