# generated using pymatgen
data_SrPr4Nd2IrBr12
_symmetry_space_group_name_H-M   'P 1'
_cell_length_a   9.69299144
_cell_length_b   9.69097108
_cell_length_c   9.57442812
_cell_angle_alpha   106.53313200
_cell_angle_beta   106.19491533
_cell_angle_gamma   106.34481722
_symmetry_Int_Tables_number   1
_chemical_formula_structural   SrPr4Nd2IrBr12
_chemical_formula_sum   'Sr1 Pr4 Nd2 Ir1 Br12'
_cell_volume   761.74209428
_cell_formula_units_Z   1
loop_
 _symmetry_equiv_pos_site_id
 _symmetry_equiv_pos_as_xyz
  1  'x, y, z'
loop_
 _atom_site_type_symbol
 _atom_site_label
 _atom_site_symmetry_multiplicity
 _atom_site_fract_x
 _atom_site_fract_y
 _atom_site_fract_z
 _atom_site_occupancy
  Sr  Sr0  1  0.499981  0.499932  0.499820  1
  Pr  Pr1  1  0.020593  0.102089  0.307084  1
  Pr  Pr2  1  0.979910  0.898615  0.693226  1
  Pr  Pr3  1  0.684720  0.979542  0.895218  1
  Pr  Pr4  1  0.895447  0.684063  0.979538  1
  Nd  Nd5  1  0.104824  0.314592  0.020765  1
  Nd  Nd6  1  0.313905  0.020852  0.104343  1
  Ir  Ir7  1  0.000662  0.000617  0.000322  1
  Br  Br8  1  0.218824  0.682154  0.074026  1
  Br  Br9  1  0.447391  0.366211  0.150617  1
  Br  Br10  1  0.680886  0.074112  0.219370  1
  Br  Br11  1  0.926576  0.781952  0.319442  1
  Br  Br12  1  0.152662  0.449111  0.367107  1
  Br  Br13  1  0.367799  0.152249  0.448449  1
  Br  Br14  1  0.632164  0.847006  0.549894  1
  Br  Br15  1  0.847164  0.550730  0.631318  1
  Br  Br16  1  0.073771  0.219018  0.682225  1
  Br  Br17  1  0.318349  0.926160  0.782174  1
  Br  Br18  1  0.550955  0.632486  0.848469  1
  Br  Br19  1  0.783422  0.318512  0.926598  1
