# generated using pymatgen
data_KLuTe3O8
_symmetry_space_group_name_H-M   'P 1'
_cell_length_a   5.94679832
_cell_length_b   7.60713045
_cell_length_c   11.39021335
_cell_angle_alpha   100.57910341
_cell_angle_beta   89.53732788
_cell_angle_gamma   108.37768346
_symmetry_Int_Tables_number   1
_chemical_formula_structural   KLuTe3O8
_chemical_formula_sum   'K2 Lu2 Te6 O16'
_cell_volume   479.99452817
_cell_formula_units_Z   2
loop_
 _symmetry_equiv_pos_site_id
 _symmetry_equiv_pos_as_xyz
  1  'x, y, z'
loop_
 _atom_site_type_symbol
 _atom_site_label
 _atom_site_symmetry_multiplicity
 _atom_site_fract_x
 _atom_site_fract_y
 _atom_site_fract_z
 _atom_site_occupancy
  K  K0  1  0.839577  0.119531  0.173037  1
  K  K1  1  0.160423  0.880469  0.826963  1
  Lu  Lu2  1  0.500000  0.500000  0.000000  1
  Lu  Lu3  1  0.000000  0.500000  0.500000  1
  Te  Te4  1  0.220777  0.996149  0.418957  1
  Te  Te5  1  0.779223  0.003851  0.581043  1
  Te  Te6  1  0.070083  0.685017  0.148842  1
  Te  Te7  1  0.929917  0.314983  0.851158  1
  Te  Te8  1  0.514532  0.523494  0.335379  1
  Te  Te9  1  0.485468  0.476506  0.664621  1
  O  O10  1  0.183458  0.739414  0.418115  1
  O  O11  1  0.816542  0.260586  0.581885  1
  O  O12  1  0.237717  0.941691  0.231046  1
  O  O13  1  0.762283  0.058309  0.768954  1
  O  O14  1  0.890628  0.970218  0.395905  1
  O  O15  1  0.109372  0.029782  0.604095  1
  O  O16  1  0.263019  0.682270  0.015992  1
  O  O17  1  0.736981  0.317730  0.984008  1
  O  O18  1  0.818035  0.740413  0.080720  1
  O  O19  1  0.181965  0.259587  0.919280  1
  O  O20  1  0.394204  0.433590  0.174887  1
  O  O21  1  0.605796  0.566410  0.825113  1
  O  O22  1  0.254889  0.367347  0.408493  1
  O  O23  1  0.745111  0.632653  0.591507  1
  O  O24  1  0.736059  0.392489  0.342310  1
  O  O25  1  0.263941  0.607511  0.657690  1
