# generated using pymatgen
data_Tb6Dy6Co4BiOs
_symmetry_space_group_name_H-M   'P 1'
_cell_length_a   8.33431453
_cell_length_b   8.33432414
_cell_length_c   8.33431503
_cell_angle_alpha   111.43213936
_cell_angle_beta   110.27840266
_cell_angle_gamma   106.73934303
_symmetry_Int_Tables_number   1
_chemical_formula_structural   Tb6Dy6Co4BiOs
_chemical_formula_sum   'Tb6 Dy6 Co4 Bi1 Os1'
_cell_volume   444.84174768
_cell_formula_units_Z   1
loop_
 _symmetry_equiv_pos_site_id
 _symmetry_equiv_pos_as_xyz
  1  'x, y, z'
loop_
 _atom_site_type_symbol
 _atom_site_label
 _atom_site_symmetry_multiplicity
 _atom_site_fract_x
 _atom_site_fract_y
 _atom_site_fract_z
 _atom_site_occupancy
  Tb  Tb0  1  0.818994  0.716391  0.535343  1
  Tb  Tb1  1  0.181006  0.283609  0.464657  1
  Tb  Tb2  1  0.181048  0.716391  0.897395  1
  Tb  Tb3  1  0.818952  0.283609  0.102605  1
  Tb  Tb4  1  0.687837  0.379083  0.691246  1
  Tb  Tb5  1  0.312163  0.620917  0.308754  1
  Dy  Dy6  1  0.687839  0.996599  0.308761  1
  Dy  Dy7  1  0.312161  0.003401  0.691239  1
  Dy  Dy8  1  0.591529  0.787881  0.803687  1
  Dy  Dy9  1  0.408471  0.212119  0.196313  1
  Dy  Dy10  1  0.984193  0.787881  0.196352  1
  Dy  Dy11  1  0.015807  0.212119  0.803648  1
  Co  Co12  1  0.623757  0.000000  0.623757  1
  Co  Co13  1  0.376243  0.000000  0.376243  1
  Co  Co14  1  0.110680  0.610694  0.500014  1
  Co  Co15  1  0.889320  0.389306  0.499986  1
  Bi  Bi16  1  0.500000  0.500000  0.000000  1
  Os  Os17  1  0.000000  0.000000  0.000000  1
