# generated using pymatgen
data_Eu5CdIr2
_symmetry_space_group_name_H-M   'P 1'
_cell_length_a   9.30548853
_cell_length_b   9.30548838
_cell_length_c   9.30548841
_cell_angle_alpha   128.60099192
_cell_angle_beta   128.60098940
_cell_angle_gamma   75.65344485
_symmetry_Int_Tables_number   1
_chemical_formula_structural   Eu5CdIr2
_chemical_formula_sum   'Eu10 Cd2 Ir4'
_cell_volume   478.75565348
_cell_formula_units_Z   2
loop_
 _symmetry_equiv_pos_site_id
 _symmetry_equiv_pos_as_xyz
  1  'x, y, z'
loop_
 _atom_site_type_symbol
 _atom_site_label
 _atom_site_symmetry_multiplicity
 _atom_site_fract_x
 _atom_site_fract_y
 _atom_site_fract_z
 _atom_site_occupancy
  Eu  Eu0  1  0.500000  0.500000  0.000000  1
  Eu  Eu1  1  0.000000  0.000000  0.000000  1
  Eu  Eu2  1  0.536620  0.036620  0.828077  1
  Eu  Eu3  1  0.208544  0.708544  0.171923  1
  Eu  Eu4  1  0.036620  0.208544  0.500000  1
  Eu  Eu5  1  0.708544  0.536620  0.500000  1
  Eu  Eu6  1  0.463380  0.963380  0.171923  1
  Eu  Eu7  1  0.791456  0.291456  0.828077  1
  Eu  Eu8  1  0.963380  0.791456  0.500000  1
  Eu  Eu9  1  0.291456  0.463380  0.500000  1
  Cd  Cd10  1  0.250000  0.250000  0.000000  1
  Cd  Cd11  1  0.750000  0.750000  0.000000  1
  Ir  Ir12  1  0.132532  0.632532  0.765063  1
  Ir  Ir13  1  0.867468  0.367468  0.234937  1
  Ir  Ir14  1  0.632532  0.867468  0.500000  1
  Ir  Ir15  1  0.367468  0.132532  0.500000  1
