# generated using pymatgen
data_Dy5Er7Tc3Ru
_symmetry_space_group_name_H-M   'P 1'
_cell_length_a   6.25802031
_cell_length_b   7.36973903
_cell_length_c   9.07895247
_cell_angle_alpha   89.99117972
_cell_angle_beta   90.03589658
_cell_angle_gamma   90.00495538
_symmetry_Int_Tables_number   1
_chemical_formula_structural   Dy5Er7Tc3Ru
_chemical_formula_sum   'Dy5 Er7 Tc3 Ru1'
_cell_volume   418.72098637
_cell_formula_units_Z   1
loop_
 _symmetry_equiv_pos_site_id
 _symmetry_equiv_pos_as_xyz
  1  'x, y, z'
loop_
 _atom_site_type_symbol
 _atom_site_label
 _atom_site_symmetry_multiplicity
 _atom_site_fract_x
 _atom_site_fract_y
 _atom_site_fract_z
 _atom_site_occupancy
  Dy  Dy0  1  0.336275  0.676836  0.062890  1
  Dy  Dy1  1  0.873794  0.539915  0.250233  1
  Dy  Dy2  1  0.626517  0.039314  0.250125  1
  Dy  Dy3  1  0.129749  0.458820  0.749812  1
  Dy  Dy4  1  0.374329  0.958465  0.749841  1
  Er  Er5  1  0.161293  0.175919  0.437592  1
  Er  Er6  1  0.661333  0.324401  0.562915  1
  Er  Er7  1  0.837652  0.823727  0.937379  1
  Er  Er8  1  0.661584  0.324207  0.936952  1
  Er  Er9  1  0.837683  0.823592  0.562515  1
  Er  Er10  1  0.336214  0.676778  0.437204  1
  Er  Er11  1  0.161104  0.175890  0.062471  1
  Tc  Tc12  1  0.041101  0.884590  0.250251  1
  Tc  Tc13  1  0.460421  0.386014  0.250182  1
  Tc  Tc14  1  0.960239  0.115550  0.750047  1
  Ru  Ru15  1  0.540711  0.615981  0.749591  1
