# generated using pymatgen
data_Ho3InHg4
_symmetry_space_group_name_H-M   'P 1'
_cell_length_a   6.35838425
_cell_length_b   6.35838368
_cell_length_c   10.17266000
_cell_angle_alpha   90.00000000
_cell_angle_beta   90.00000000
_cell_angle_gamma   104.18910058
_symmetry_Int_Tables_number   1
_chemical_formula_structural   Ho3InHg4
_chemical_formula_sum   'Ho6 In2 Hg8'
_cell_volume   398.72389048
_cell_formula_units_Z   2
loop_
 _symmetry_equiv_pos_site_id
 _symmetry_equiv_pos_as_xyz
  1  'x, y, z'
loop_
 _atom_site_type_symbol
 _atom_site_label
 _atom_site_symmetry_multiplicity
 _atom_site_fract_x
 _atom_site_fract_y
 _atom_site_fract_z
 _atom_site_occupancy
  Ho  Ho0  1  0.785618  0.214382  0.000000  1
  Ho  Ho1  1  0.214382  0.785618  0.000000  1
  Ho  Ho2  1  0.214382  0.785618  0.500000  1
  Ho  Ho3  1  0.785618  0.214382  0.500000  1
  Ho  Ho4  1  0.564737  0.564737  0.250000  1
  Ho  Ho5  1  0.435263  0.435263  0.750000  1
  In  In6  1  0.991445  0.991445  0.250000  1
  In  In7  1  0.008555  0.008555  0.750000  1
  Hg  Hg8  1  0.036283  0.490972  0.250000  1
  Hg  Hg9  1  0.963717  0.509028  0.750000  1
  Hg  Hg10  1  0.490972  0.036283  0.250000  1
  Hg  Hg11  1  0.509028  0.963717  0.750000  1
  Hg  Hg12  1  0.291585  0.291585  0.027811  1
  Hg  Hg13  1  0.708415  0.708415  0.972189  1
  Hg  Hg14  1  0.708415  0.708415  0.527811  1
  Hg  Hg15  1  0.291585  0.291585  0.472189  1
