# generated using pymatgen
data_ZnPtCl6
_symmetry_space_group_name_H-M   'P 1'
_cell_length_a   6.21392048
_cell_length_b   6.21429128
_cell_length_c   20.07955236
_cell_angle_alpha   90.02020803
_cell_angle_beta   90.01305627
_cell_angle_gamma   120.00154256
_symmetry_Int_Tables_number   1
_chemical_formula_structural   ZnPtCl6
_chemical_formula_sum   'Zn3 Pt3 Cl18'
_cell_volume   671.48316756
_cell_formula_units_Z   3
loop_
 _symmetry_equiv_pos_site_id
 _symmetry_equiv_pos_as_xyz
  1  'x, y, z'
loop_
 _atom_site_type_symbol
 _atom_site_label
 _atom_site_symmetry_multiplicity
 _atom_site_fract_x
 _atom_site_fract_y
 _atom_site_fract_z
 _atom_site_occupancy
  Zn  Zn0  1  0.555220  0.110522  0.166611  1
  Zn  Zn1  1  0.889339  0.444672  0.500033  1
  Zn  Zn2  1  0.555294  0.444701  0.833347  1
  Pt  Pt3  1  0.222205  0.444375  0.166611  1
  Pt  Pt4  1  0.555621  0.777820  0.500039  1
  Pt  Pt5  1  0.222223  0.777841  0.833353  1
  Cl  Cl6  1  0.523651  0.763554  0.765951  1
  Cl  Cl7  1  0.906439  0.763595  0.900812  1
  Cl  Cl8  1  0.523916  0.093800  0.900761  1
  Cl  Cl9  1  0.857059  0.763327  0.432585  1
  Cl  Cl10  1  0.239819  0.476159  0.432629  1
  Cl  Cl11  1  0.906202  0.142718  0.099153  1
  Cl  Cl12  1  0.523862  0.760200  0.234017  1
  Cl  Cl13  1  0.906294  0.476156  0.765930  1
  Cl  Cl14  1  0.236462  0.476442  0.900756  1
  Cl  Cl15  1  0.569963  0.476394  0.567457  1
  Cl  Cl16  1  0.857295  0.093866  0.567490  1
  Cl  Cl17  1  0.240041  0.763775  0.567444  1
  Cl  Cl18  1  0.236628  0.142971  0.234073  1
  Cl  Cl19  1  0.569716  0.093466  0.432619  1
  Cl  Cl20  1  0.906479  0.430217  0.234025  1
  Cl  Cl21  1  0.523673  0.429986  0.099207  1
  Cl  Cl22  1  0.236411  0.093566  0.765897  1
  Cl  Cl23  1  0.236190  0.759873  0.099204  1
