# generated using pymatgen
data_Ho2Sc3Si7Pt8Rh
_symmetry_space_group_name_H-M   'P 1'
_cell_length_a   10.04288830
_cell_length_b   10.05120753
_cell_length_c   3.94995500
_cell_angle_alpha   90.00000000
_cell_angle_beta   90.00000000
_cell_angle_gamma   119.80062606
_symmetry_Int_Tables_number   1
_chemical_formula_structural   Ho2Sc3Si7Pt8Rh
_chemical_formula_sum   'Ho2 Sc3 Si7 Pt8 Rh1'
_cell_volume   345.99407255
_cell_formula_units_Z   1
loop_
 _symmetry_equiv_pos_site_id
 _symmetry_equiv_pos_as_xyz
  1  'x, y, z'
loop_
 _atom_site_type_symbol
 _atom_site_label
 _atom_site_symmetry_multiplicity
 _atom_site_fract_x
 _atom_site_fract_y
 _atom_site_fract_z
 _atom_site_occupancy
  Ho  Ho0  1  0.000838  0.998028  0.000000  1
  Ho  Ho1  1  0.332489  0.668600  0.500000  1
  Sc  Sc2  1  0.894250  0.455729  0.500000  1
  Sc  Sc3  1  0.559554  0.103926  0.500000  1
  Sc  Sc4  1  0.543360  0.438839  0.500000  1
  Si  Si5  1  0.245433  0.190429  0.500000  1
  Si  Si6  1  0.805520  0.050268  0.500000  1
  Si  Si7  1  0.955479  0.755636  0.500000  1
  Si  Si8  1  0.556218  0.648010  0.000000  1
  Si  Si9  1  0.349413  0.910198  0.000000  1
  Si  Si10  1  0.090755  0.444883  0.000000  1
  Si  Si11  1  0.665818  0.332589  0.000000  1
  Pt  Pt12  1  0.064319  0.281976  0.500000  1
  Pt  Pt13  1  0.718816  0.781556  0.500000  1
  Pt  Pt14  1  0.314583  0.414878  0.000000  1
  Pt  Pt15  1  0.585879  0.901396  0.000000  1
  Pt  Pt16  1  0.097898  0.687561  0.000000  1
  Pt  Pt17  1  0.383384  0.173120  0.000000  1
  Pt  Pt18  1  0.827589  0.211158  0.000000  1
  Pt  Pt19  1  0.786682  0.614578  0.000000  1
  Rh  Rh20  1  0.221719  0.936644  0.500000  1
