# generated using pymatgen
data_HfZr7(CuIr)4
_symmetry_space_group_name_H-M   'P 1'
_cell_length_a   6.70100181
_cell_length_b   4.25929700
_cell_length_c   10.71389862
_cell_angle_alpha   90.00000000
_cell_angle_beta   73.04498647
_cell_angle_gamma   90.00000000
_symmetry_Int_Tables_number   1
_chemical_formula_structural   HfZr7(CuIr)4
_chemical_formula_sum   'Hf1 Zr7 Cu4 Ir4'
_cell_volume   292.49982680
_cell_formula_units_Z   1
loop_
 _symmetry_equiv_pos_site_id
 _symmetry_equiv_pos_as_xyz
  1  'x, y, z'
loop_
 _atom_site_type_symbol
 _atom_site_label
 _atom_site_symmetry_multiplicity
 _atom_site_fract_x
 _atom_site_fract_y
 _atom_site_fract_z
 _atom_site_occupancy
  Hf  Hf0  1  0.069971  0.250000  0.859253  1
  Zr  Zr1  1  0.950027  0.750001  0.139015  1
  Zr  Zr2  1  0.438453  0.750001  0.141619  1
  Zr  Zr3  1  0.050093  0.250000  0.360976  1
  Zr  Zr4  1  0.561948  0.250000  0.357567  1
  Zr  Zr5  1  0.418423  0.750001  0.641691  1
  Zr  Zr6  1  0.929733  0.750001  0.641543  1
  Zr  Zr7  1  0.580757  0.250000  0.859111  1
  Cu  Cu8  1  0.720060  0.250000  0.083757  1
  Cu  Cu9  1  0.282233  0.750001  0.415770  1
  Cu  Cu10  1  0.694590  0.250000  0.585103  1
  Cu  Cu11  1  0.301143  0.750001  0.914050  1
  Ir  Ir12  1  0.222940  0.250000  0.084618  1
  Ir  Ir13  1  0.776756  0.750001  0.414540  1
  Ir  Ir14  1  0.202922  0.250000  0.586213  1
  Ir  Ir15  1  0.799953  0.750001  0.915174  1
