# generated using pymatgen
data_Pr6HfP12Rh17
_symmetry_space_group_name_H-M   'P 1'
_cell_length_a   3.98332900
_cell_length_b   11.34769000
_cell_length_c   13.04048800
_cell_angle_alpha   90.00000000
_cell_angle_beta   90.00000000
_cell_angle_gamma   90.00000000
_symmetry_Int_Tables_number   1
_chemical_formula_structural   Pr6HfP12Rh17
_chemical_formula_sum   'Pr6 Hf1 P12 Rh17'
_cell_volume   589.45069626
_cell_formula_units_Z   1
loop_
 _symmetry_equiv_pos_site_id
 _symmetry_equiv_pos_as_xyz
  1  'x, y, z'
loop_
 _atom_site_type_symbol
 _atom_site_label
 _atom_site_symmetry_multiplicity
 _atom_site_fract_x
 _atom_site_fract_y
 _atom_site_fract_z
 _atom_site_occupancy
  Pr  Pr0  1  0.000000  0.500000  0.520896  1
  Pr  Pr1  1  0.500000  0.000000  0.478581  1
  Pr  Pr2  1  0.500000  0.818147  0.206052  1
  Pr  Pr3  1  0.500000  0.181853  0.206052  1
  Pr  Pr4  1  0.000000  0.682458  0.797972  1
  Pr  Pr5  1  0.000000  0.317542  0.797972  1
  Hf  Hf6  1  0.500000  0.500000  0.154423  1
  P  P7  1  0.500000  0.500000  0.880233  1
  P  P8  1  0.000000  0.000000  0.117100  1
  P  P9  1  0.500000  0.500000  0.353158  1
  P  P10  1  0.000000  0.000000  0.654584  1
  P  P11  1  0.500000  0.311291  0.616841  1
  P  P12  1  0.500000  0.688709  0.616841  1
  P  P13  1  0.000000  0.189258  0.385491  1
  P  P14  1  0.000000  0.810742  0.385491  1
  P  P15  1  0.500000  0.850900  0.889761  1
  P  P16  1  0.500000  0.149100  0.889761  1
  P  P17  1  0.000000  0.657949  0.105744  1
  P  P18  1  0.000000  0.342051  0.105744  1
  Rh  Rh19  1  0.000000  0.000000  0.833177  1
  Rh  Rh20  1  0.500000  0.500000  0.701334  1
  Rh  Rh21  1  0.000000  0.000000  0.297414  1
  Rh  Rh22  1  0.000000  0.500000  0.986407  1
  Rh  Rh23  1  0.500000  0.000000  0.016129  1
  Rh  Rh24  1  0.500000  0.331025  0.991238  1
  Rh  Rh25  1  0.500000  0.668975  0.991238  1
  Rh  Rh26  1  0.000000  0.164725  0.005997  1
  Rh  Rh27  1  0.000000  0.835275  0.005997  1
  Rh  Rh28  1  0.500000  0.290121  0.433167  1
  Rh  Rh29  1  0.500000  0.709879  0.433167  1
  Rh  Rh30  1  0.000000  0.205535  0.570931  1
  Rh  Rh31  1  0.000000  0.794465  0.570931  1
  Rh  Rh32  1  0.500000  0.875589  0.709086  1
  Rh  Rh33  1  0.500000  0.124411  0.709086  1
  Rh  Rh34  1  0.000000  0.625141  0.290999  1
  Rh  Rh35  1  0.000000  0.374859  0.290999  1
