# generated using pymatgen
data_Ba3Sr2(SiN3)2
_symmetry_space_group_name_H-M   'P 1'
_cell_length_a   6.25669510
_cell_length_b   6.25669548
_cell_length_c   13.67687185
_cell_angle_alpha   81.40487589
_cell_angle_beta   81.40487537
_cell_angle_gamma   68.18526226
_symmetry_Int_Tables_number   1
_chemical_formula_structural   Ba3Sr2(SiN3)2
_chemical_formula_sum   'Ba6 Sr4 Si4 N12'
_cell_volume   488.89709313
_cell_formula_units_Z   2
loop_
 _symmetry_equiv_pos_site_id
 _symmetry_equiv_pos_as_xyz
  1  'x, y, z'
loop_
 _atom_site_type_symbol
 _atom_site_label
 _atom_site_symmetry_multiplicity
 _atom_site_fract_x
 _atom_site_fract_y
 _atom_site_fract_z
 _atom_site_occupancy
  Ba  Ba0  1  0.598636  0.401364  0.750000  1
  Ba  Ba1  1  0.401364  0.598636  0.250000  1
  Ba  Ba2  1  0.209151  0.677740  0.990964  1
  Ba  Ba3  1  0.322260  0.790849  0.509036  1
  Ba  Ba4  1  0.790849  0.322260  0.009036  1
  Ba  Ba5  1  0.677740  0.209151  0.490964  1
  Sr  Sr6  1  0.903295  0.787561  0.713045  1
  Sr  Sr7  1  0.212439  0.096705  0.786955  1
  Sr  Sr8  1  0.096705  0.212439  0.286955  1
  Sr  Sr9  1  0.787561  0.903295  0.213045  1
  Si  Si10  1  0.076791  0.369718  0.576450  1
  Si  Si11  1  0.630282  0.923209  0.923550  1
  Si  Si12  1  0.923209  0.630282  0.423550  1
  Si  Si13  1  0.369718  0.076791  0.076450  1
  N  N14  1  0.014614  0.121418  0.625280  1
  N  N15  1  0.878582  0.985386  0.874720  1
  N  N16  1  0.985386  0.878582  0.374720  1
  N  N17  1  0.121418  0.014614  0.125280  1
  N  N18  1  0.808807  0.618457  0.554066  1
  N  N19  1  0.381543  0.191193  0.945934  1
  N  N20  1  0.191193  0.381543  0.445934  1
  N  N21  1  0.618457  0.808807  0.054066  1
  N  N22  1  0.246863  0.431592  0.652914  1
  N  N23  1  0.568408  0.753137  0.847086  1
  N  N24  1  0.753137  0.568408  0.347086  1
  N  N25  1  0.431592  0.246863  0.152914  1
