# generated using pymatgen
data_Pr7(ErIn4)5
_symmetry_space_group_name_H-M   'P 1'
_cell_length_a   6.67473095
_cell_length_b   10.53016250
_cell_length_c   12.43772365
_cell_angle_alpha   90.22280258
_cell_angle_beta   89.86005732
_cell_angle_gamma   89.90664019
_symmetry_Int_Tables_number   1
_chemical_formula_structural   Pr7(ErIn4)5
_chemical_formula_sum   'Pr7 Er5 In20'
_cell_volume   874.18747203
_cell_formula_units_Z   1
loop_
 _symmetry_equiv_pos_site_id
 _symmetry_equiv_pos_as_xyz
  1  'x, y, z'
loop_
 _atom_site_type_symbol
 _atom_site_label
 _atom_site_symmetry_multiplicity
 _atom_site_fract_x
 _atom_site_fract_y
 _atom_site_fract_z
 _atom_site_occupancy
  Pr  Pr0  1  0.611979  0.009435  0.643248  1
  Pr  Pr1  1  0.110564  0.989500  0.857479  1
  Pr  Pr2  1  0.389523  0.510456  0.356623  1
  Pr  Pr3  1  0.110372  0.510087  0.858754  1
  Pr  Pr4  1  0.389206  0.989707  0.355373  1
  Pr  Pr5  1  0.888069  0.011170  0.144116  1
  Pr  Pr6  1  0.612114  0.489556  0.643116  1
  Er  Er7  1  0.347713  0.751905  0.057534  1
  Er  Er8  1  0.148697  0.749581  0.556959  1
  Er  Er9  1  0.649435  0.250962  0.943415  1
  Er  Er10  1  0.850216  0.248827  0.442341  1
  Er  Er11  1  0.889999  0.489011  0.142080  1
  In  In12  1  0.617526  0.748885  0.501187  1
  In  In13  1  0.881890  0.746548  0.007984  1
  In  In14  1  0.383002  0.249701  0.497264  1
  In  In15  1  0.113111  0.251597  0.998243  1
  In  In16  1  0.655291  0.745731  0.239893  1
  In  In17  1  0.847681  0.749254  0.743742  1
  In  In18  1  0.347661  0.250225  0.757885  1
  In  In19  1  0.152429  0.253437  0.256353  1
  In  In20  1  0.110307  0.748894  0.281078  1
  In  In21  1  0.389170  0.749300  0.781175  1
  In  In22  1  0.889538  0.250052  0.718398  1
  In  In23  1  0.615903  0.255358  0.216636  1
  In  In24  1  0.876801  0.542310  0.399787  1
  In  In25  1  0.625781  0.954545  0.904691  1
  In  In26  1  0.125000  0.044593  0.596078  1
  In  In27  1  0.371549  0.457881  0.097255  1
  In  In28  1  0.124331  0.455431  0.596068  1
  In  In29  1  0.374908  0.047220  0.096064  1
  In  In30  1  0.875376  0.954489  0.403863  1
  In  In31  1  0.624854  0.544348  0.905319  1
