# generated using pymatgen
data_Ho3ErGa18(Ir2Pd)2
_symmetry_space_group_name_H-M   'P 1'
_cell_length_a   7.61124302
_cell_length_b   7.61138013
_cell_length_c   9.47731600
_cell_angle_alpha   89.99889823
_cell_angle_beta   89.99880672
_cell_angle_gamma   119.80533834
_symmetry_Int_Tables_number   1
_chemical_formula_structural   Ho3ErGa18(Ir2Pd)2
_chemical_formula_sum   'Ho3 Er1 Ga18 Ir4 Pd2'
_cell_volume   476.41293285
_cell_formula_units_Z   1
loop_
 _symmetry_equiv_pos_site_id
 _symmetry_equiv_pos_as_xyz
  1  'x, y, z'
loop_
 _atom_site_type_symbol
 _atom_site_label
 _atom_site_symmetry_multiplicity
 _atom_site_fract_x
 _atom_site_fract_y
 _atom_site_fract_z
 _atom_site_occupancy
  Ho  Ho0  1  0.996854  0.668975  0.749930  1
  Ho  Ho1  1  0.003138  0.331027  0.250062  1
  Ho  Ho2  1  0.668955  0.996850  0.749931  1
  Er  Er3  1  0.331054  0.003110  0.250125  1
  Ga  Ga4  1  0.128258  0.128240  0.750015  1
  Ga  Ga5  1  0.871960  0.871825  0.249980  1
  Ga  Ga6  1  0.998923  0.336867  0.581723  1
  Ga  Ga7  1  0.001325  0.663387  0.418136  1
  Ga  Ga8  1  0.001296  0.663383  0.081876  1
  Ga  Ga9  1  0.336875  0.998944  0.918409  1
  Ga  Ga10  1  0.998963  0.336883  0.918256  1
  Ga  Ga11  1  0.662865  0.001051  0.081889  1
  Ga  Ga12  1  0.662886  0.001071  0.418135  1
  Ga  Ga13  1  0.336861  0.998917  0.581570  1
  Ga  Ga14  1  0.334672  0.334443  0.068629  1
  Ga  Ga15  1  0.665331  0.665322  0.931535  1
  Ga  Ga16  1  0.665294  0.665302  0.568439  1
  Ga  Ga17  1  0.334710  0.334476  0.431390  1
  Ga  Ga18  1  0.337304  0.545693  0.749985  1
  Ga  Ga19  1  0.662524  0.454067  0.250014  1
  Ga  Ga20  1  0.545683  0.337305  0.749981  1
  Ga  Ga21  1  0.454237  0.662805  0.250017  1
  Ir  Ir22  1  0.671423  0.328439  0.499916  1
  Ir  Ir23  1  0.328510  0.671557  0.499912  1
  Ir  Ir24  1  0.328496  0.671596  0.000089  1
  Ir  Ir25  1  0.671447  0.328420  0.000079  1
  Pd  Pd26  1  0.000094  0.000014  0.499938  1
  Pd  Pd27  1  0.000062  0.000031  0.000039  1
