# generated using pymatgen
data_TbDy5Co2(P3Rh4)4
_symmetry_space_group_name_H-M   'P 1'
_cell_length_a   3.86493900
_cell_length_b   11.13488500
_cell_length_c   12.78328200
_cell_angle_alpha   90.00000000
_cell_angle_beta   90.00000000
_cell_angle_gamma   90.00000000
_symmetry_Int_Tables_number   1
_chemical_formula_structural   TbDy5Co2(P3Rh4)4
_chemical_formula_sum   'Tb1 Dy5 Co2 P12 Rh16'
_cell_volume   550.13686658
_cell_formula_units_Z   1
loop_
 _symmetry_equiv_pos_site_id
 _symmetry_equiv_pos_as_xyz
  1  'x, y, z'
loop_
 _atom_site_type_symbol
 _atom_site_label
 _atom_site_symmetry_multiplicity
 _atom_site_fract_x
 _atom_site_fract_y
 _atom_site_fract_z
 _atom_site_occupancy
  Tb  Tb0  1  0.500000  0.000000  0.478208  1
  Dy  Dy1  1  0.000000  0.500000  0.521858  1
  Dy  Dy2  1  0.500000  0.815136  0.201928  1
  Dy  Dy3  1  0.500000  0.184864  0.201928  1
  Dy  Dy4  1  0.000000  0.684703  0.798096  1
  Dy  Dy5  1  0.000000  0.315297  0.798096  1
  Co  Co6  1  0.000000  0.500000  0.979607  1
  Co  Co7  1  0.500000  0.000000  0.020291  1
  P  P8  1  0.500000  0.500000  0.881381  1
  P  P9  1  0.000000  0.000000  0.118340  1
  P  P10  1  0.500000  0.500000  0.351640  1
  P  P11  1  0.000000  0.000000  0.649014  1
  P  P12  1  0.500000  0.315833  0.619405  1
  P  P13  1  0.500000  0.684167  0.619405  1
  P  P14  1  0.000000  0.184292  0.380467  1
  P  P15  1  0.000000  0.815708  0.380467  1
  P  P16  1  0.500000  0.853070  0.895871  1
  P  P17  1  0.500000  0.146930  0.895871  1
  P  P18  1  0.000000  0.646737  0.104172  1
  P  P19  1  0.000000  0.353263  0.104172  1
  Rh  Rh20  1  0.500000  0.500000  0.168285  1
  Rh  Rh21  1  0.000000  0.000000  0.832230  1
  Rh  Rh22  1  0.500000  0.500000  0.703123  1
  Rh  Rh23  1  0.000000  0.000000  0.296397  1
  Rh  Rh24  1  0.500000  0.336756  0.993842  1
  Rh  Rh25  1  0.500000  0.663244  0.993842  1
  Rh  Rh26  1  0.000000  0.163482  0.006290  1
  Rh  Rh27  1  0.000000  0.836518  0.006290  1
  Rh  Rh28  1  0.500000  0.294301  0.430044  1
  Rh  Rh29  1  0.500000  0.705699  0.430044  1
  Rh  Rh30  1  0.000000  0.206396  0.569647  1
  Rh  Rh31  1  0.000000  0.793604  0.569647  1
  Rh  Rh32  1  0.500000  0.873287  0.712301  1
  Rh  Rh33  1  0.500000  0.126713  0.712301  1
  Rh  Rh34  1  0.000000  0.626558  0.287750  1
  Rh  Rh35  1  0.000000  0.373442  0.287750  1
