# generated using pymatgen
data_La4TbIr2Ru
_symmetry_space_group_name_H-M   'P 1'
_cell_length_a   11.30800500
_cell_length_b   11.30800500
_cell_length_c   6.60652400
_cell_angle_alpha   90.00000000
_cell_angle_beta   90.00000000
_cell_angle_gamma   90.00000000
_symmetry_Int_Tables_number   1
_chemical_formula_structural   La4TbIr2Ru
_chemical_formula_sum   'La16 Tb4 Ir8 Ru4'
_cell_volume   844.78267898
_cell_formula_units_Z   4
loop_
 _symmetry_equiv_pos_site_id
 _symmetry_equiv_pos_as_xyz
  1  'x, y, z'
loop_
 _atom_site_type_symbol
 _atom_site_label
 _atom_site_symmetry_multiplicity
 _atom_site_fract_x
 _atom_site_fract_y
 _atom_site_fract_z
 _atom_site_occupancy
  La  La0  1  0.291507  0.087145  0.384609  1
  La  La1  1  0.291507  0.912855  0.884609  1
  La  La2  1  0.708493  0.087145  0.884609  1
  La  La3  1  0.708493  0.912855  0.384609  1
  La  La4  1  0.587145  0.791507  0.884609  1
  La  La5  1  0.587145  0.208493  0.384609  1
  La  La6  1  0.412855  0.791507  0.384609  1
  La  La7  1  0.412855  0.208493  0.884609  1
  La  La8  1  0.208493  0.412855  0.615391  1
  La  La9  1  0.208493  0.587145  0.115391  1
  La  La10  1  0.791507  0.412855  0.115391  1
  La  La11  1  0.791507  0.587145  0.615391  1
  La  La12  1  0.912855  0.708493  0.115391  1
  La  La13  1  0.912855  0.291507  0.615391  1
  La  La14  1  0.087145  0.708493  0.615391  1
  La  La15  1  0.087145  0.291507  0.115391  1
  Tb  Tb16  1  0.000000  0.000000  0.500000  1
  Tb  Tb17  1  0.000000  0.000000  0.000000  1
  Tb  Tb18  1  0.500000  0.500000  0.000000  1
  Tb  Tb19  1  0.500000  0.500000  0.500000  1
  Ir  Ir20  1  0.851490  0.148510  0.250000  1
  Ir  Ir21  1  0.851490  0.851490  0.750000  1
  Ir  Ir22  1  0.148510  0.148510  0.750000  1
  Ir  Ir23  1  0.148510  0.851490  0.250000  1
  Ir  Ir24  1  0.648510  0.351490  0.750000  1
  Ir  Ir25  1  0.648510  0.648510  0.250000  1
  Ir  Ir26  1  0.351490  0.351490  0.250000  1
  Ir  Ir27  1  0.351490  0.648510  0.750000  1
  Ru  Ru28  1  0.500000  0.000000  0.119585  1
  Ru  Ru29  1  0.500000  0.000000  0.619585  1
  Ru  Ru30  1  0.000000  0.500000  0.880415  1
  Ru  Ru31  1  0.000000  0.500000  0.380415  1
