# generated using pymatgen
data_Lu16CdIn3RuRh3
_symmetry_space_group_name_H-M   'P 1'
_cell_length_a   9.46680470
_cell_length_b   9.46680460
_cell_length_c   9.46680542
_cell_angle_alpha   59.83275831
_cell_angle_beta   59.83276015
_cell_angle_gamma   59.83275390
_symmetry_Int_Tables_number   1
_chemical_formula_structural   Lu16CdIn3RuRh3
_chemical_formula_sum   'Lu16 Cd1 In3 Ru1 Rh3'
_cell_volume   597.64551236
_cell_formula_units_Z   1
loop_
 _symmetry_equiv_pos_site_id
 _symmetry_equiv_pos_as_xyz
  1  'x, y, z'
loop_
 _atom_site_type_symbol
 _atom_site_label
 _atom_site_symmetry_multiplicity
 _atom_site_fract_x
 _atom_site_fract_y
 _atom_site_fract_z
 _atom_site_occupancy
  Lu  Lu0  1  0.599504  0.599504  0.599504  1
  Lu  Lu1  1  0.599469  0.599469  0.201078  1
  Lu  Lu2  1  0.599469  0.201078  0.599469  1
  Lu  Lu3  1  0.201078  0.599469  0.599469  1
  Lu  Lu4  1  0.061433  0.439646  0.439646  1
  Lu  Lu5  1  0.438369  0.061194  0.061194  1
  Lu  Lu6  1  0.439646  0.061433  0.439646  1
  Lu  Lu7  1  0.061194  0.438369  0.061194  1
  Lu  Lu8  1  0.439646  0.439646  0.061433  1
  Lu  Lu9  1  0.061194  0.061194  0.438369  1
  Lu  Lu10  1  0.186204  0.812415  0.812415  1
  Lu  Lu11  1  0.809187  0.189299  0.189299  1
  Lu  Lu12  1  0.812415  0.186204  0.812415  1
  Lu  Lu13  1  0.189299  0.809187  0.189299  1
  Lu  Lu14  1  0.812415  0.812415  0.186204  1
  Lu  Lu15  1  0.189299  0.189299  0.809187  1
  Cd  Cd16  1  0.832758  0.832758  0.832758  1
  In  In17  1  0.833516  0.833516  0.500267  1
  In  In18  1  0.833516  0.500267  0.833516  1
  In  In19  1  0.500267  0.833516  0.833516  1
  Ru  Ru20  1  0.392536  0.392536  0.392536  1
  Rh  Rh21  1  0.392291  0.392291  0.823003  1
  Rh  Rh22  1  0.392291  0.823003  0.392291  1
  Rh  Rh23  1  0.823003  0.392291  0.392291  1
