# generated using pymatgen
data_Zr12UTaPt20
_symmetry_space_group_name_H-M   'P 1'
_cell_length_a   8.21224039
_cell_length_b   8.21223333
_cell_length_c   9.75854208
_cell_angle_alpha   90.02494010
_cell_angle_beta   90.02489719
_cell_angle_gamma   107.12484560
_symmetry_Int_Tables_number   1
_chemical_formula_structural   Zr12UTaPt20
_chemical_formula_sum   'Zr12 U1 Ta1 Pt20'
_cell_volume   628.94638840
_cell_formula_units_Z   1
loop_
 _symmetry_equiv_pos_site_id
 _symmetry_equiv_pos_as_xyz
  1  'x, y, z'
loop_
 _atom_site_type_symbol
 _atom_site_label
 _atom_site_symmetry_multiplicity
 _atom_site_fract_x
 _atom_site_fract_y
 _atom_site_fract_z
 _atom_site_occupancy
  Zr  Zr0  1  0.310899  0.689101  0.000000  1
  Zr  Zr1  1  0.810814  0.189186  0.500000  1
  Zr  Zr2  1  0.188001  0.811999  0.500000  1
  Zr  Zr3  1  0.501436  0.498564  0.500000  1
  Zr  Zr4  1  0.003479  0.502633  0.250955  1
  Zr  Zr5  1  0.001539  0.501676  0.748202  1
  Zr  Zr6  1  0.497367  0.996521  0.749045  1
  Zr  Zr7  1  0.498324  0.998461  0.251798  1
  Zr  Zr8  1  0.310219  0.314251  0.186347  1
  Zr  Zr9  1  0.685748  0.689781  0.813652  1
  Zr  Zr10  1  0.182958  0.182690  0.682826  1
  Zr  Zr11  1  0.817310  0.817042  0.317174  1
  U  U12  1  0.689506  0.310494  0.000000  1
  Ta  Ta13  1  0.000373  0.999627  0.000000  1
  Pt  Pt14  1  0.856710  0.140508  0.204949  1
  Pt  Pt15  1  0.144228  0.859220  0.796473  1
  Pt  Pt16  1  0.649988  0.352358  0.710764  1
  Pt  Pt17  1  0.647642  0.350012  0.289236  1
  Pt  Pt18  1  0.350488  0.645547  0.292459  1
  Pt  Pt19  1  0.354453  0.649512  0.707541  1
  Pt  Pt20  1  0.859492  0.143290  0.795051  1
  Pt  Pt21  1  0.140780  0.855773  0.203526  1
  Pt  Pt22  1  0.935985  0.647476  0.999217  1
  Pt  Pt23  1  0.060015  0.349326  0.000191  1
  Pt  Pt24  1  0.561816  0.852833  0.498384  1
  Pt  Pt25  1  0.147167  0.438184  0.501615  1
  Pt  Pt26  1  0.438314  0.146384  0.501685  1
  Pt  Pt27  1  0.853616  0.561686  0.498315  1
  Pt  Pt28  1  0.352524  0.064015  0.000783  1
  Pt  Pt29  1  0.650674  0.939985  0.999809  1
  Pt  Pt30  1  0.107831  0.107633  0.395369  1
  Pt  Pt31  1  0.892367  0.892169  0.604631  1
  Pt  Pt32  1  0.393650  0.395714  0.892013  1
  Pt  Pt33  1  0.604285  0.606350  0.107987  1
