# generated using pymatgen
data_TbSm4Dy3(B6Os)4
_symmetry_space_group_name_H-M   'P 1'
_cell_length_a   3.68981600
_cell_length_b   9.22007402
_cell_length_c   11.62135603
_cell_angle_alpha   90.00826399
_cell_angle_beta   90.00000000
_cell_angle_gamma   90.00000000
_symmetry_Int_Tables_number   1
_chemical_formula_structural   TbSm4Dy3(B6Os)4
_chemical_formula_sum   'Tb1 Sm4 Dy3 B24 Os4'
_cell_volume   395.36290528
_cell_formula_units_Z   1
loop_
 _symmetry_equiv_pos_site_id
 _symmetry_equiv_pos_as_xyz
  1  'x, y, z'
loop_
 _atom_site_type_symbol
 _atom_site_label
 _atom_site_symmetry_multiplicity
 _atom_site_fract_x
 _atom_site_fract_y
 _atom_site_fract_z
 _atom_site_occupancy
  Tb  Tb0  1  0.000000  0.944131  0.372574  1
  Sm  Sm1  1  0.000000  0.322858  0.413943  1
  Sm  Sm2  1  0.000000  0.677165  0.586176  1
  Sm  Sm3  1  0.000000  0.822736  0.086025  1
  Sm  Sm4  1  0.000000  0.177269  0.913883  1
  Dy  Dy5  1  0.000000  0.055941  0.627644  1
  Dy  Dy6  1  0.000000  0.444124  0.127415  1
  Dy  Dy7  1  0.000000  0.555876  0.872523  1
  B  B8  1  0.500000  0.555011  0.431642  1
  B  B9  1  0.500000  0.444853  0.568400  1
  B  B10  1  0.500000  0.055147  0.068299  1
  B  B11  1  0.500000  0.944879  0.931615  1
  B  B12  1  0.500000  0.748010  0.418554  1
  B  B13  1  0.500000  0.251659  0.581468  1
  B  B14  1  0.500000  0.248428  0.081421  1
  B  B15  1  0.500000  0.751623  0.918546  1
  B  B16  1  0.500000  0.790165  0.266949  1
  B  B17  1  0.500000  0.209507  0.732979  1
  B  B18  1  0.500000  0.290646  0.232919  1
  B  B19  1  0.500000  0.709481  0.767041  1
  B  B20  1  0.500000  0.631420  0.185600  1
  B  B21  1  0.500000  0.368506  0.814347  1
  B  B22  1  0.500000  0.131789  0.314192  1
  B  B23  1  0.500000  0.868471  0.685686  1
  B  B24  1  0.500000  0.985234  0.213330  1
  B  B25  1  0.500000  0.014970  0.786422  1
  B  B26  1  0.500000  0.484947  0.286384  1
  B  B27  1  0.500000  0.514988  0.713597  1
  B  B28  1  0.500000  0.605999  0.029239  1
  B  B29  1  0.500000  0.393991  0.970734  1
  B  B30  1  0.500000  0.106512  0.470951  1
  B  B31  1  0.500000  0.893770  0.529646  1
  Os  Os32  1  0.000000  0.637892  0.320555  1
  Os  Os33  1  0.000000  0.361761  0.679465  1
  Os  Os34  1  0.000000  0.138529  0.179206  1
  Os  Os35  1  0.000000  0.861712  0.820631  1
