# generated using pymatgen
data_Y3ThMgRh
_symmetry_space_group_name_H-M   'P 1'
_cell_length_a   9.83367940
_cell_length_b   9.83367995
_cell_length_c   9.83368000
_cell_angle_alpha   59.99999983
_cell_angle_beta   59.99999798
_cell_angle_gamma   59.99999856
_symmetry_Int_Tables_number   1
_chemical_formula_structural   Y3ThMgRh
_chemical_formula_sum   'Y12 Th4 Mg4 Rh4'
_cell_volume   672.40847198
_cell_formula_units_Z   4
loop_
 _symmetry_equiv_pos_site_id
 _symmetry_equiv_pos_as_xyz
  1  'x, y, z'
loop_
 _atom_site_type_symbol
 _atom_site_label
 _atom_site_symmetry_multiplicity
 _atom_site_fract_x
 _atom_site_fract_y
 _atom_site_fract_z
 _atom_site_occupancy
  Y  Y0  1  0.812591  0.187409  0.187409  1
  Y  Y1  1  0.187409  0.812591  0.812591  1
  Y  Y2  1  0.187409  0.812591  0.187409  1
  Y  Y3  1  0.812591  0.187409  0.812591  1
  Y  Y4  1  0.187409  0.187409  0.812591  1
  Y  Y5  1  0.812591  0.812591  0.187409  1
  Y  Y6  1  0.934355  0.565645  0.565645  1
  Y  Y7  1  0.565645  0.934355  0.934355  1
  Y  Y8  1  0.565645  0.934355  0.565645  1
  Y  Y9  1  0.934355  0.565645  0.934355  1
  Y  Y10  1  0.565645  0.565645  0.934355  1
  Y  Y11  1  0.934355  0.934355  0.565645  1
  Th  Th12  1  0.347891  0.347891  0.347891  1
  Th  Th13  1  0.347891  0.347891  0.956327  1
  Th  Th14  1  0.347891  0.956327  0.347891  1
  Th  Th15  1  0.956327  0.347891  0.347891  1
  Mg  Mg16  1  0.580547  0.580547  0.580547  1
  Mg  Mg17  1  0.580547  0.580547  0.258360  1
  Mg  Mg18  1  0.580547  0.258360  0.580547  1
  Mg  Mg19  1  0.258360  0.580547  0.580547  1
  Rh  Rh20  1  0.144788  0.144788  0.144788  1
  Rh  Rh21  1  0.144788  0.144788  0.565634  1
  Rh  Rh22  1  0.144788  0.565634  0.144788  1
  Rh  Rh23  1  0.565634  0.144788  0.144788  1
