# generated using pymatgen
data_Pr2SmBe2(PPd5)4
_symmetry_space_group_name_H-M   'P 1'
_cell_length_a   8.73328521
_cell_length_b   8.64557990
_cell_length_c   8.64558014
_cell_angle_alpha   60.67230571
_cell_angle_beta   59.66384849
_cell_angle_gamma   59.66385202
_symmetry_Int_Tables_number   1
_chemical_formula_structural   Pr2SmBe2(PPd5)4
_chemical_formula_sum   'Pr2 Sm1 Be2 P4 Pd20'
_cell_volume   461.48821890
_cell_formula_units_Z   1
loop_
 _symmetry_equiv_pos_site_id
 _symmetry_equiv_pos_as_xyz
  1  'x, y, z'
loop_
 _atom_site_type_symbol
 _atom_site_label
 _atom_site_symmetry_multiplicity
 _atom_site_fract_x
 _atom_site_fract_y
 _atom_site_fract_z
 _atom_site_occupancy
  Pr  Pr0  1  0.250000  0.250000  0.250000  1
  Pr  Pr1  1  0.750000  0.750000  0.750000  1
  Sm  Sm2  1  0.000000  0.000000  0.000000  1
  Be  Be3  1  0.732917  0.267083  0.267083  1
  Be  Be4  1  0.267083  0.732917  0.732917  1
  P  P5  1  0.266105  0.733895  0.266105  1
  P  P6  1  0.733895  0.266105  0.733895  1
  P  P7  1  0.266105  0.266105  0.733895  1
  P  P8  1  0.733895  0.733895  0.266105  1
  Pd  Pd9  1  0.389458  0.384108  0.384108  1
  Pd  Pd10  1  0.610542  0.615892  0.615892  1
  Pd  Pd11  1  0.384108  0.389458  0.842324  1
  Pd  Pd12  1  0.384108  0.842324  0.389458  1
  Pd  Pd13  1  0.615892  0.610542  0.157676  1
  Pd  Pd14  1  0.615892  0.157676  0.610542  1
  Pd  Pd15  1  0.842324  0.384108  0.384108  1
  Pd  Pd16  1  0.157676  0.615892  0.615892  1
  Pd  Pd17  1  0.345031  0.000000  0.000000  1
  Pd  Pd18  1  0.654969  0.000000  0.000000  1
  Pd  Pd19  1  0.000000  0.345031  0.654969  1
  Pd  Pd20  1  0.000000  0.654969  0.345031  1
  Pd  Pd21  1  0.997036  0.344198  0.002964  1
  Pd  Pd22  1  0.655802  0.002964  0.344198  1
  Pd  Pd23  1  0.002964  0.655802  0.997036  1
  Pd  Pd24  1  0.344198  0.997036  0.655802  1
  Pd  Pd25  1  0.997036  0.002964  0.344198  1
  Pd  Pd26  1  0.002964  0.997036  0.655802  1
  Pd  Pd27  1  0.655802  0.344198  0.002964  1
  Pd  Pd28  1  0.344198  0.655802  0.997036  1
