# generated using pymatgen
data_LiZn(Sn4Ru)2
_symmetry_space_group_name_H-M   'P 1'
_cell_length_a   7.36890789
_cell_length_b   7.36890798
_cell_length_c   7.36890729
_cell_angle_alpha   125.10351755
_cell_angle_beta   125.10351495
_cell_angle_gamma   81.36664218
_symmetry_Int_Tables_number   1
_chemical_formula_structural   LiZn(Sn4Ru)2
_chemical_formula_sum   'Li1 Zn1 Sn8 Ru2'
_cell_volume   257.88523484
_cell_formula_units_Z   1
loop_
 _symmetry_equiv_pos_site_id
 _symmetry_equiv_pos_as_xyz
  1  'x, y, z'
loop_
 _atom_site_type_symbol
 _atom_site_label
 _atom_site_symmetry_multiplicity
 _atom_site_fract_x
 _atom_site_fract_y
 _atom_site_fract_z
 _atom_site_occupancy
  Li  Li0  1  0.000000  0.000000  0.000000  1
  Zn  Zn1  1  0.500000  0.500000  0.000000  1
  Sn  Sn2  1  0.710338  0.524093  0.510543  1
  Sn  Sn3  1  0.524093  0.013551  0.813756  1
  Sn  Sn4  1  0.199795  0.710338  0.186244  1
  Sn  Sn5  1  0.800205  0.289662  0.813756  1
  Sn  Sn6  1  0.475907  0.986449  0.186244  1
  Sn  Sn7  1  0.289662  0.475907  0.489457  1
  Sn  Sn8  1  0.986449  0.800205  0.510543  1
  Sn  Sn9  1  0.013551  0.199795  0.489457  1
  Ru  Ru10  1  0.262357  0.262357  0.000000  1
  Ru  Ru11  1  0.737643  0.737643  0.000000  1
