# generated using pymatgen
data_Tm3Pa(Al8Pt3)3
_symmetry_space_group_name_H-M   'P 1'
_cell_length_a   7.54450605
_cell_length_b   7.55377578
_cell_length_c   13.10835917
_cell_angle_alpha   84.53206375
_cell_angle_beta   78.97192146
_cell_angle_gamma   59.92553732
_symmetry_Int_Tables_number   1
_chemical_formula_structural   Tm3Pa(Al8Pt3)3
_chemical_formula_sum   'Tm3 Pa1 Al24 Pt9'
_cell_volume   634.53058886
_cell_formula_units_Z   1
loop_
 _symmetry_equiv_pos_site_id
 _symmetry_equiv_pos_as_xyz
  1  'x, y, z'
loop_
 _atom_site_type_symbol
 _atom_site_label
 _atom_site_symmetry_multiplicity
 _atom_site_fract_x
 _atom_site_fract_y
 _atom_site_fract_z
 _atom_site_occupancy
  Tm  Tm0  1  0.606121  0.831495  0.192578  1
  Tm  Tm1  1  0.733756  0.498899  0.807364  1
  Tm  Tm2  1  0.266399  0.501184  0.192694  1
  Pa  Pa3  1  0.395058  0.168224  0.805303  1
  Al  Al4  1  0.684456  0.832657  0.944307  1
  Al  Al5  1  0.315758  0.166251  0.056160  1
  Al  Al6  1  0.146722  0.832642  0.561336  1
  Al  Al7  1  0.854218  0.167313  0.437696  1
  Al  Al8  1  0.480852  0.166581  0.558045  1
  Al  Al9  1  0.519837  0.832203  0.440849  1
  Al  Al10  1  0.217888  0.165459  0.329469  1
  Al  Al11  1  0.785389  0.831677  0.670605  1
  Al  Al12  1  0.437320  0.509417  0.671100  1
  Al  Al13  1  0.562397  0.493853  0.328554  1
  Al  Al14  1  0.106933  0.159691  0.669430  1
  Al  Al15  1  0.890189  0.839697  0.329894  1
  Al  Al16  1  0.353509  0.499989  0.944177  1
  Al  Al17  1  0.646590  0.500945  0.056426  1
  Al  Al18  1  0.014591  0.168529  0.952440  1
  Al  Al19  1  0.983957  0.832247  0.048103  1
  Al  Al20  1  0.185651  0.500465  0.440965  1
  Al  Al21  1  0.813609  0.500326  0.558613  1
  Al  Al22  1  0.734088  0.163817  0.183307  1
  Al  Al23  1  0.264010  0.837747  0.817428  1
  Al  Al24  1  0.062646  0.631143  0.816065  1
  Al  Al25  1  0.938950  0.369378  0.184442  1
  Al  Al26  1  0.855144  0.040376  0.816766  1
  Al  Al27  1  0.145358  0.957692  0.183829  1
  Pt  Pt28  1  0.119879  0.490597  0.640502  1
  Pt  Pt29  1  0.879811  0.508815  0.360677  1
  Pt  Pt30  1  0.656595  0.172115  0.999268  1
  Pt  Pt31  1  0.343754  0.827883  0.999525  1
  Pt  Pt32  1  0.536782  0.166729  0.361304  1
  Pt  Pt33  1  0.462779  0.833299  0.640261  1
  Pt  Pt34  1  0.777833  0.175838  0.638887  1
  Pt  Pt35  1  0.221288  0.824558  0.362357  1
  Pt  Pt36  1  0.999882  0.500271  0.999272  1
