# generated using pymatgen
data_Th4RuAu3
_symmetry_space_group_name_H-M   'P 1'
_cell_length_a   4.56896000
_cell_length_b   5.95764713
_cell_length_c   7.60863168
_cell_angle_alpha   87.70263859
_cell_angle_beta   90.00000000
_cell_angle_gamma   90.00000000
_symmetry_Int_Tables_number   1
_chemical_formula_structural   Th4RuAu3
_chemical_formula_sum   'Th4 Ru1 Au3'
_cell_volume   206.94240199
_cell_formula_units_Z   1
loop_
 _symmetry_equiv_pos_site_id
 _symmetry_equiv_pos_as_xyz
  1  'x, y, z'
loop_
 _atom_site_type_symbol
 _atom_site_label
 _atom_site_symmetry_multiplicity
 _atom_site_fract_x
 _atom_site_fract_y
 _atom_site_fract_z
 _atom_site_occupancy
  Th  Th0  1  0.250000  0.377045  0.676599  1
  Th  Th1  1  0.250000  0.132320  0.184447  1
  Th  Th2  1  0.750000  0.655621  0.334807  1
  Th  Th3  1  0.750000  0.862864  0.800211  1
  Ru  Ru4  1  0.250000  0.815626  0.547287  1
  Au  Au5  1  0.250000  0.651811  0.041992  1
  Au  Au6  1  0.750000  0.158040  0.454929  1
  Au  Au7  1  0.750000  0.346675  0.959727  1
