# generated using pymatgen
data_HfZr5Al6(IrPt2)2
_symmetry_space_group_name_H-M   'P 1'
_cell_length_a   7.11745945
_cell_length_b   7.12096855
_cell_length_c   7.28754300
_cell_angle_alpha   90.00000000
_cell_angle_beta   90.00000000
_cell_angle_gamma   119.81798821
_symmetry_Int_Tables_number   1
_chemical_formula_structural   HfZr5Al6(IrPt2)2
_chemical_formula_sum   'Hf1 Zr5 Al6 Ir2 Pt4'
_cell_volume   320.45676194
_cell_formula_units_Z   1
loop_
 _symmetry_equiv_pos_site_id
 _symmetry_equiv_pos_as_xyz
  1  'x, y, z'
loop_
 _atom_site_type_symbol
 _atom_site_label
 _atom_site_symmetry_multiplicity
 _atom_site_fract_x
 _atom_site_fract_y
 _atom_site_fract_z
 _atom_site_occupancy
  Hf  Hf0  1  0.413969  0.392325  0.250000  1
  Zr  Zr1  1  0.588078  0.991157  0.750000  1
  Zr  Zr2  1  0.008293  0.596947  0.750000  1
  Zr  Zr3  1  0.403010  0.411419  0.750000  1
  Zr  Zr4  1  0.978049  0.585780  0.250000  1
  Zr  Zr5  1  0.606682  0.021414  0.250000  1
  Al  Al6  1  0.740738  0.742539  0.000693  1
  Al  Al7  1  0.257890  0.998561  0.999766  1
  Al  Al8  1  0.001673  0.259413  0.999714  1
  Al  Al9  1  0.740738  0.742539  0.499307  1
  Al  Al10  1  0.257890  0.998561  0.500234  1
  Al  Al11  1  0.001673  0.259413  0.500286  1
  Ir  Ir12  1  0.664806  0.333742  0.984062  1
  Ir  Ir13  1  0.664806  0.333742  0.515938  1
  Pt  Pt14  1  0.000202  0.000145  0.750000  1
  Pt  Pt15  1  0.003500  0.003627  0.250000  1
  Pt  Pt16  1  0.334002  0.664338  0.470822  1
  Pt  Pt17  1  0.334002  0.664338  0.029179  1
