# generated using pymatgen
data_Sr5LiAg5
_symmetry_space_group_name_H-M   'P 1'
_cell_length_a   16.91750862
_cell_length_b   16.91750820
_cell_length_c   4.45591500
_cell_angle_alpha   90.00000000
_cell_angle_beta   90.00000000
_cell_angle_gamma   164.17052082
_symmetry_Int_Tables_number   1
_chemical_formula_structural   Sr5LiAg5
_chemical_formula_sum   'Sr5 Li1 Ag5'
_cell_volume   347.86818453
_cell_formula_units_Z   1
loop_
 _symmetry_equiv_pos_site_id
 _symmetry_equiv_pos_as_xyz
  1  'x, y, z'
loop_
 _atom_site_type_symbol
 _atom_site_label
 _atom_site_symmetry_multiplicity
 _atom_site_fract_x
 _atom_site_fract_y
 _atom_site_fract_z
 _atom_site_occupancy
  Sr  Sr0  1  0.002095  0.997905  0.000000  1
  Sr  Sr1  1  0.615855  0.384143  0.000000  1
  Sr  Sr2  1  0.382024  0.617974  0.000000  1
  Sr  Sr3  1  0.800450  0.199548  0.500001  1
  Sr  Sr4  1  0.196979  0.803019  0.500001  1
  Li  Li5  1  0.915692  0.084307  0.500001  1
  Ag  Ag6  1  0.721931  0.278067  0.000000  1
  Ag  Ag7  1  0.276774  0.723224  0.000000  1
  Ag  Ag8  1  0.540822  0.459176  0.500001  1
  Ag  Ag9  1  0.456507  0.543491  0.500001  1
  Ag  Ag10  1  0.090861  0.909138  0.500001  1
