# generated using pymatgen
data_Yb9Sm(Si2Sn)2
_symmetry_space_group_name_H-M   'P 1'
_cell_length_a   7.75147610
_cell_length_b   9.27697138
_cell_length_c   7.75147600
_cell_angle_alpha   114.83375736
_cell_angle_beta   89.73152147
_cell_angle_gamma   114.80236372
_symmetry_Int_Tables_number   1
_chemical_formula_structural   Yb9Sm(Si2Sn)2
_chemical_formula_sum   'Yb9 Sm1 Si4 Sn2'
_cell_volume   449.14572928
_cell_formula_units_Z   1
loop_
 _symmetry_equiv_pos_site_id
 _symmetry_equiv_pos_as_xyz
  1  'x, y, z'
loop_
 _atom_site_type_symbol
 _atom_site_label
 _atom_site_symmetry_multiplicity
 _atom_site_fract_x
 _atom_site_fract_y
 _atom_site_fract_z
 _atom_site_occupancy
  Yb  Yb0  1  0.000841  0.996442  0.000887  1
  Yb  Yb1  1  0.495570  0.996462  0.495684  1
  Yb  Yb2  1  0.537466  0.723416  0.686062  1
  Yb  Yb3  1  0.185856  0.724982  0.039209  1
  Yb  Yb4  1  0.687479  0.722496  0.186712  1
  Yb  Yb5  1  0.035696  0.722598  0.535212  1
  Yb  Yb6  1  0.463366  0.277737  0.314405  1
  Yb  Yb7  1  0.315650  0.276789  0.814935  1
  Yb  Yb8  1  0.961766  0.276619  0.461007  1
  Sm  Sm9  1  0.813283  0.269392  0.956351  1
  Si  Si10  1  0.887389  0.006323  0.618808  1
  Si  Si11  1  0.111290  0.001644  0.390285  1
  Si  Si12  1  0.615655  0.002524  0.111565  1
  Si  Si13  1  0.391139  0.002625  0.886841  1
  Sn  Sn14  1  0.750331  0.499974  0.752593  1
  Sn  Sn15  1  0.247221  0.499973  0.249447  1
