# generated using pymatgen
data_Tm5Al2CdC4
_symmetry_space_group_name_H-M   'P 1'
_cell_length_a   10.86252600
_cell_length_b   10.86252600
_cell_length_c   3.45851200
_cell_angle_alpha   90.00000000
_cell_angle_beta   90.00000000
_cell_angle_gamma   90.00000000
_symmetry_Int_Tables_number   1
_chemical_formula_structural   Tm5Al2CdC4
_chemical_formula_sum   'Tm10 Al4 Cd2 C8'
_cell_volume   408.08529424
_cell_formula_units_Z   2
loop_
 _symmetry_equiv_pos_site_id
 _symmetry_equiv_pos_as_xyz
  1  'x, y, z'
loop_
 _atom_site_type_symbol
 _atom_site_label
 _atom_site_symmetry_multiplicity
 _atom_site_fract_x
 _atom_site_fract_y
 _atom_site_fract_z
 _atom_site_occupancy
  Tm  Tm0  1  0.548964  0.734930  0.500000  1
  Tm  Tm1  1  0.451036  0.265070  0.500000  1
  Tm  Tm2  1  0.048964  0.765070  0.500000  1
  Tm  Tm3  1  0.951036  0.234930  0.500000  1
  Tm  Tm4  1  0.265070  0.548964  0.500000  1
  Tm  Tm5  1  0.734930  0.451036  0.500000  1
  Tm  Tm6  1  0.234930  0.048964  0.500000  1
  Tm  Tm7  1  0.765070  0.951036  0.500000  1
  Tm  Tm8  1  0.500000  0.000000  0.000000  1
  Tm  Tm9  1  0.000000  0.500000  0.000000  1
  Al  Al10  1  0.703203  0.203203  0.000000  1
  Al  Al11  1  0.296797  0.796797  0.000000  1
  Al  Al12  1  0.203203  0.296797  0.000000  1
  Al  Al13  1  0.796797  0.703203  0.000000  1
  Cd  Cd14  1  0.500000  0.500000  0.000000  1
  Cd  Cd15  1  0.000000  0.000000  0.000000  1
  C  C16  1  0.628847  0.128847  0.500000  1
  C  C17  1  0.371153  0.871153  0.500000  1
  C  C18  1  0.128847  0.371153  0.500000  1
  C  C19  1  0.871153  0.628847  0.500000  1
  C  C20  1  0.160956  0.660956  0.000000  1
  C  C21  1  0.839044  0.339044  0.000000  1
  C  C22  1  0.660956  0.839044  0.000000  1
  C  C23  1  0.339044  0.160956  0.000000  1
