# generated using pymatgen
data_Sr8Yb5Er7Pt16
_symmetry_space_group_name_H-M   'P 1'
_cell_length_a   7.69724485
_cell_length_b   7.81763582
_cell_length_c   14.82351649
_cell_angle_alpha   90.01834219
_cell_angle_beta   89.97738958
_cell_angle_gamma   90.04919160
_symmetry_Int_Tables_number   1
_chemical_formula_structural   Sr8Yb5Er7Pt16
_chemical_formula_sum   'Sr8 Yb5 Er7 Pt16'
_cell_volume   891.99364828
_cell_formula_units_Z   1
loop_
 _symmetry_equiv_pos_site_id
 _symmetry_equiv_pos_as_xyz
  1  'x, y, z'
loop_
 _atom_site_type_symbol
 _atom_site_label
 _atom_site_symmetry_multiplicity
 _atom_site_fract_x
 _atom_site_fract_y
 _atom_site_fract_z
 _atom_site_occupancy
  Sr  Sr0  1  0.500439  0.325467  0.903977  1
  Sr  Sr1  1  0.998957  0.175618  0.596466  1
  Sr  Sr2  1  0.500611  0.675852  0.404027  1
  Sr  Sr3  1  0.000212  0.823530  0.094784  1
  Sr  Sr4  1  0.500410  0.675591  0.095536  1
  Sr  Sr5  1  0.000472  0.824156  0.403997  1
  Sr  Sr6  1  0.499906  0.324459  0.596717  1
  Sr  Sr7  1  0.999335  0.176657  0.903820  1
  Yb  Yb8  1  0.839493  0.666517  0.877062  1
  Yb  Yb9  1  0.176419  0.493658  0.750893  1
  Yb  Yb10  1  0.679448  0.006024  0.750608  1
  Yb  Yb11  1  0.821823  0.507583  0.249617  1
  Yb  Yb12  1  0.321456  0.992318  0.249641  1
  Er  Er13  1  0.340119  0.833341  0.875610  1
  Er  Er14  1  0.840397  0.666984  0.624316  1
  Er  Er15  1  0.659308  0.167303  0.375572  1
  Er  Er16  1  0.159734  0.332297  0.124114  1
  Er  Er17  1  0.660648  0.167281  0.124065  1
  Er  Er18  1  0.159702  0.332429  0.375713  1
  Er  Er19  1  0.339996  0.831831  0.624636  1
  Pt  Pt20  1  0.333888  0.045850  0.044068  1
  Pt  Pt21  1  0.835686  0.453760  0.456265  1
  Pt  Pt22  1  0.663939  0.953339  0.543391  1
  Pt  Pt23  1  0.168905  0.543873  0.957995  1
  Pt  Pt24  1  0.660935  0.961744  0.957524  1
  Pt  Pt25  1  0.163818  0.545865  0.543250  1
  Pt  Pt26  1  0.336044  0.046271  0.456347  1
  Pt  Pt27  1  0.837890  0.451224  0.046012  1
  Pt  Pt28  1  0.542294  0.636259  0.748509  1
  Pt  Pt29  1  0.047607  0.864686  0.746572  1
  Pt  Pt30  1  0.455489  0.363246  0.250014  1
  Pt  Pt31  1  0.955712  0.136108  0.250509  1
  Pt  Pt32  1  0.305946  0.118124  0.750719  1
  Pt  Pt33  1  0.801720  0.380959  0.747697  1
  Pt  Pt34  1  0.695512  0.883383  0.249992  1
  Pt  Pt35  1  0.195730  0.616414  0.249963  1
