# generated using pymatgen
data_Y6Zn22AgCl
_symmetry_space_group_name_H-M   'P 1'
_cell_length_a   9.09903212
_cell_length_b   9.09903178
_cell_length_c   9.09903100
_cell_angle_alpha   59.99999921
_cell_angle_beta   60.00000043
_cell_angle_gamma   59.99999487
_symmetry_Int_Tables_number   1
_chemical_formula_structural   Y6Zn22AgCl
_chemical_formula_sum   'Y6 Zn22 Ag1 Cl1'
_cell_volume   532.68505076
_cell_formula_units_Z   1
loop_
 _symmetry_equiv_pos_site_id
 _symmetry_equiv_pos_as_xyz
  1  'x, y, z'
loop_
 _atom_site_type_symbol
 _atom_site_label
 _atom_site_symmetry_multiplicity
 _atom_site_fract_x
 _atom_site_fract_y
 _atom_site_fract_z
 _atom_site_occupancy
  Y  Y0  1  0.718234  0.281766  0.281766  1
  Y  Y1  1  0.281766  0.718234  0.718234  1
  Y  Y2  1  0.281766  0.718234  0.281766  1
  Y  Y3  1  0.718234  0.281766  0.718234  1
  Y  Y4  1  0.281766  0.281766  0.718234  1
  Y  Y5  1  0.718234  0.718234  0.281766  1
  Zn  Zn6  1  0.126001  0.126001  0.126001  1
  Zn  Zn7  1  0.873999  0.873999  0.873999  1
  Zn  Zn8  1  0.126001  0.126001  0.621995  1
  Zn  Zn9  1  0.126001  0.621995  0.126001  1
  Zn  Zn10  1  0.873999  0.873999  0.378005  1
  Zn  Zn11  1  0.873999  0.378005  0.873999  1
  Zn  Zn12  1  0.621995  0.126001  0.126001  1
  Zn  Zn13  1  0.378005  0.873999  0.873999  1
  Zn  Zn14  1  0.500000  0.000000  0.000000  1
  Zn  Zn15  1  0.000000  0.500000  0.500000  1
  Zn  Zn16  1  0.000000  0.500000  0.000000  1
  Zn  Zn17  1  0.500000  0.000000  0.500000  1
  Zn  Zn18  1  0.000000  0.000000  0.500000  1
  Zn  Zn19  1  0.500000  0.500000  0.000000  1
  Zn  Zn20  1  0.329292  0.329292  0.329292  1
  Zn  Zn21  1  0.670708  0.670708  0.670708  1
  Zn  Zn22  1  0.329292  0.329292  0.012123  1
  Zn  Zn23  1  0.329292  0.012123  0.329292  1
  Zn  Zn24  1  0.670708  0.670708  0.987877  1
  Zn  Zn25  1  0.670708  0.987877  0.670708  1
  Zn  Zn26  1  0.012123  0.329292  0.329292  1
  Zn  Zn27  1  0.987877  0.670708  0.670708  1
  Ag  Ag28  1  0.000000  0.000000  0.000000  1
  Cl  Cl29  1  0.500000  0.500000  0.500000  1
