# generated using pymatgen
data_Er12AlCo4Rh
_symmetry_space_group_name_H-M   'P 1'
_cell_length_a   8.19620225
_cell_length_b   8.19613926
_cell_length_c   8.19620198
_cell_angle_alpha   110.82881703
_cell_angle_beta   110.99144753
_cell_angle_gamma   106.63053494
_symmetry_Int_Tables_number   1
_chemical_formula_structural   Er12AlCo4Rh
_chemical_formula_sum   'Er12 Al1 Co4 Rh1'
_cell_volume   423.07160183
_cell_formula_units_Z   1
loop_
 _symmetry_equiv_pos_site_id
 _symmetry_equiv_pos_as_xyz
  1  'x, y, z'
loop_
 _atom_site_type_symbol
 _atom_site_label
 _atom_site_symmetry_multiplicity
 _atom_site_fract_x
 _atom_site_fract_y
 _atom_site_fract_z
 _atom_site_occupancy
  Er  Er0  1  0.290350  0.187225  0.477542  1
  Er  Er1  1  0.709650  0.812775  0.522458  1
  Er  Er2  1  0.290318  0.812775  0.103125  1
  Er  Er3  1  0.709682  0.187225  0.896875  1
  Er  Er4  1  0.618725  0.315350  0.303421  1
  Er  Er5  1  0.381275  0.684650  0.696579  1
  Er  Er6  1  0.011929  0.315350  0.696624  1
  Er  Er7  1  0.988071  0.684650  0.303376  1
  Er  Er8  1  0.217400  0.411300  0.193900  1
  Er  Er9  1  0.782600  0.588700  0.806100  1
  Er  Er10  1  0.217354  0.023403  0.806049  1
  Er  Er11  1  0.782646  0.976597  0.193951  1
  Al  Al12  1  0.500000  0.500000  0.000000  1
  Co  Co13  1  0.000006  0.377146  0.377139  1
  Co  Co14  1  0.999994  0.622854  0.622861  1
  Co  Co15  1  0.387121  0.887117  0.499996  1
  Co  Co16  1  0.612879  0.112883  0.500004  1
  Rh  Rh17  1  0.000000  0.000000  0.000000  1
