# generated using pymatgen
data_Hf3ZrN4
_symmetry_space_group_name_H-M   'P 1'
_cell_length_a   10.69280787
_cell_length_b   10.69280738
_cell_length_c   10.69280740
_cell_angle_alpha   17.35386809
_cell_angle_beta   17.35387928
_cell_angle_gamma   17.35387044
_symmetry_Int_Tables_number   1
_chemical_formula_structural   Hf3ZrN4
_chemical_formula_sum   'Hf3 Zr1 N4'
_cell_volume   94.91593984
_cell_formula_units_Z   1
loop_
 _symmetry_equiv_pos_site_id
 _symmetry_equiv_pos_as_xyz
  1  'x, y, z'
loop_
 _atom_site_type_symbol
 _atom_site_label
 _atom_site_symmetry_multiplicity
 _atom_site_fract_x
 _atom_site_fract_y
 _atom_site_fract_z
 _atom_site_occupancy
  Hf  Hf0  1  0.874693  0.874693  0.874693  1
  Hf  Hf1  1  0.125085  0.125085  0.125085  1
  Hf  Hf2  1  0.375293  0.375293  0.375293  1
  Zr  Zr3  1  0.624918  0.624918  0.624918  1
  N  N4  1  0.002333  0.002333  0.002333  1
  N  N5  1  0.247513  0.247513  0.247513  1
  N  N6  1  0.499700  0.499700  0.499700  1
  N  N7  1  0.750466  0.750466  0.750466  1
