# generated using pymatgen
data_Sm3AlPt3Pb2
_symmetry_space_group_name_H-M   'P 1'
_cell_length_a   7.70470100
_cell_length_b   7.77332016
_cell_length_c   3.95722900
_cell_angle_alpha   90.00000000
_cell_angle_beta   90.00000000
_cell_angle_gamma   119.70840227
_symmetry_Int_Tables_number   1
_chemical_formula_structural   Sm3AlPt3Pb2
_chemical_formula_sum   'Sm3 Al1 Pt3 Pb2'
_cell_volume   205.85090305
_cell_formula_units_Z   1
loop_
 _symmetry_equiv_pos_site_id
 _symmetry_equiv_pos_as_xyz
  1  'x, y, z'
loop_
 _atom_site_type_symbol
 _atom_site_label
 _atom_site_symmetry_multiplicity
 _atom_site_fract_x
 _atom_site_fract_y
 _atom_site_fract_z
 _atom_site_occupancy
  Sm  Sm0  1  0.406683  0.396942  0.000000  1
  Sm  Sm1  1  0.583920  0.000000  0.000000  1
  Sm  Sm2  1  0.009741  0.603058  0.000000  1
  Al  Al3  1  0.255461  0.000000  0.500000  1
  Pt  Pt4  1  0.324881  0.688799  0.500000  1
  Pt  Pt5  1  0.038946  0.000000  0.000000  1
  Pt  Pt6  1  0.636084  0.311201  0.500000  1
  Pb  Pb7  1  0.001543  0.258805  0.500000  1
  Pb  Pb8  1  0.742738  0.741195  0.500000  1
