# generated using pymatgen
data_U3(PaH6)5
_symmetry_space_group_name_H-M   'P 1'
_cell_length_a   7.58695513
_cell_length_b   7.58614949
_cell_length_c   7.58996961
_cell_angle_alpha   109.41826608
_cell_angle_beta   109.54516063
_cell_angle_gamma   109.47773670
_symmetry_Int_Tables_number   1
_chemical_formula_structural   U3(PaH6)5
_chemical_formula_sum   'U3 Pa5 H30'
_cell_volume   336.17016634
_cell_formula_units_Z   1
loop_
 _symmetry_equiv_pos_site_id
 _symmetry_equiv_pos_as_xyz
  1  'x, y, z'
loop_
 _atom_site_type_symbol
 _atom_site_label
 _atom_site_symmetry_multiplicity
 _atom_site_fract_x
 _atom_site_fract_y
 _atom_site_fract_z
 _atom_site_occupancy
  U  U0  1  0.583433  0.499473  0.998975  1
  U  U1  1  0.500211  0.000907  0.584369  1
  U  U2  1  0.417326  0.417046  0.417071  1
  Pa  Pa3  1  0.916176  0.916829  0.917069  1
  Pa  Pa4  1  0.498630  0.000401  0.081701  1
  Pa  Pa5  1  0.001229  0.081490  0.499829  1
  Pa  Pa6  1  0.082643  0.500374  0.000923  1
  Pa  Pa7  1  0.000550  0.582966  0.500114  1
  H  H8  1  0.652429  0.969004  0.370937  1
  H  H9  1  0.217763  0.315878  0.847845  1
  H  H10  1  0.182550  0.401501  0.531254  1
  H  H11  1  0.097416  0.281002  0.129340  1
  H  H12  1  0.280445  0.128562  0.097257  1
  H  H13  1  0.128885  0.097647  0.281042  1
  H  H14  1  0.467645  0.151651  0.870375  1
  H  H15  1  0.719383  0.347768  0.816376  1
  H  H16  1  0.625214  0.374814  0.250003  1
  H  H17  1  0.249625  0.624980  0.375262  1
  H  H18  1  0.750310  0.875487  0.125339  1
  H  H19  1  0.124824  0.750005  0.874865  1
  H  H20  1  0.374192  0.249494  0.624262  1
  H  H21  1  0.875572  0.125370  0.750273  1
  H  H22  1  0.781977  0.597673  0.629734  1
  H  H23  1  0.316220  0.848387  0.218547  1
  H  H24  1  0.370330  0.652342  0.967969  1
  H  H25  1  0.969047  0.370823  0.651813  1
  H  H26  1  0.532273  0.183848  0.401910  1
  H  H27  1  0.401776  0.531304  0.183227  1
  H  H28  1  0.848706  0.218749  0.316958  1
  H  H29  1  0.903257  0.684564  0.032118  1
  H  H30  1  0.817452  0.719130  0.348507  1
  H  H31  1  0.151073  0.869760  0.467749  1
  H  H32  1  0.683955  0.032271  0.902932  1
  H  H33  1  0.347430  0.816215  0.718961  1
  H  H34  1  0.870579  0.467889  0.152308  1
  H  H35  1  0.629877  0.781906  0.597648  1
  H  H36  1  0.597508  0.630087  0.781364  1
  H  H37  1  0.032088  0.902402  0.683774  1
