# generated using pymatgen
data_Zr7(Pd4Au)2
_symmetry_space_group_name_H-M   'P 1'
_cell_length_a   8.21610208
_cell_length_b   8.21609867
_cell_length_c   9.79104500
_cell_angle_alpha   90.00000000
_cell_angle_beta   90.00000000
_cell_angle_gamma   106.98156248
_symmetry_Int_Tables_number   1
_chemical_formula_structural   Zr7(Pd4Au)2
_chemical_formula_sum   'Zr14 Pd16 Au4'
_cell_volume   632.12000880
_cell_formula_units_Z   2
loop_
 _symmetry_equiv_pos_site_id
 _symmetry_equiv_pos_as_xyz
  1  'x, y, z'
loop_
 _atom_site_type_symbol
 _atom_site_label
 _atom_site_symmetry_multiplicity
 _atom_site_fract_x
 _atom_site_fract_y
 _atom_site_fract_z
 _atom_site_occupancy
  Zr  Zr0  1  0.695870  0.304130  0.000000  1
  Zr  Zr1  1  0.304130  0.695870  0.000000  1
  Zr  Zr2  1  0.804130  0.195870  0.500000  1
  Zr  Zr3  1  0.195870  0.804130  0.500000  1
  Zr  Zr4  1  0.000000  0.000000  0.000000  1
  Zr  Zr5  1  0.500000  0.500000  0.500000  1
  Zr  Zr6  1  0.999956  0.499956  0.250000  1
  Zr  Zr7  1  0.000044  0.500044  0.750000  1
  Zr  Zr8  1  0.500044  0.000044  0.750000  1
  Zr  Zr9  1  0.499956  0.999956  0.250000  1
  Zr  Zr10  1  0.315359  0.315359  0.185794  1
  Zr  Zr11  1  0.684641  0.684641  0.814206  1
  Zr  Zr12  1  0.184641  0.184641  0.685794  1
  Zr  Zr13  1  0.815359  0.815359  0.314206  1
  Pd  Pd14  1  0.853959  0.148108  0.206340  1
  Pd  Pd15  1  0.146041  0.851892  0.793660  1
  Pd  Pd16  1  0.646041  0.351892  0.706340  1
  Pd  Pd17  1  0.648108  0.353958  0.293660  1
  Pd  Pd18  1  0.353959  0.648108  0.293660  1
  Pd  Pd19  1  0.351892  0.646042  0.706340  1
  Pd  Pd20  1  0.851892  0.146042  0.793660  1
  Pd  Pd21  1  0.148108  0.853958  0.206340  1
  Pd  Pd22  1  0.939549  0.645545  0.000942  1
  Pd  Pd23  1  0.060451  0.354455  0.999058  1
  Pd  Pd24  1  0.560451  0.854455  0.500942  1
  Pd  Pd25  1  0.145545  0.439549  0.499057  1
  Pd  Pd26  1  0.439549  0.145545  0.499058  1
  Pd  Pd27  1  0.854455  0.560451  0.500943  1
  Pd  Pd28  1  0.354455  0.060451  0.999057  1
  Pd  Pd29  1  0.645545  0.939549  0.000943  1
  Au  Au30  1  0.106785  0.106786  0.392609  1
  Au  Au31  1  0.893215  0.893214  0.607391  1
  Au  Au32  1  0.393215  0.393214  0.892609  1
  Au  Au33  1  0.606785  0.606786  0.107391  1
