# generated using pymatgen
data_Hf2InCl9
_symmetry_space_group_name_H-M   'P 1'
_cell_length_a   6.87910100
_cell_length_b   9.84638772
_cell_length_c   12.51425191
_cell_angle_alpha   65.90466423
_cell_angle_beta   90.00000000
_cell_angle_gamma   90.00000000
_symmetry_Int_Tables_number   1
_chemical_formula_structural   Hf2InCl9
_chemical_formula_sum   'Hf4 In2 Cl18'
_cell_volume   773.78662196
_cell_formula_units_Z   2
loop_
 _symmetry_equiv_pos_site_id
 _symmetry_equiv_pos_as_xyz
  1  'x, y, z'
loop_
 _atom_site_type_symbol
 _atom_site_label
 _atom_site_symmetry_multiplicity
 _atom_site_fract_x
 _atom_site_fract_y
 _atom_site_fract_z
 _atom_site_occupancy
  Hf  Hf0  1  0.265988  0.820142  0.865779  1
  Hf  Hf1  1  0.734012  0.179858  0.134221  1
  Hf  Hf2  1  0.265988  0.179858  0.634221  1
  Hf  Hf3  1  0.734012  0.820142  0.365779  1
  In  In4  1  0.584480  0.500000  0.750000  1
  In  In5  1  0.415520  0.500000  0.250000  1
  Cl  Cl6  1  0.130024  0.773028  0.050710  1
  Cl  Cl7  1  0.869976  0.226972  0.949290  1
  Cl  Cl8  1  0.130024  0.226972  0.449290  1
  Cl  Cl9  1  0.869976  0.773028  0.550710  1
  Cl  Cl10  1  0.125856  0.619146  0.836136  1
  Cl  Cl11  1  0.874144  0.380854  0.163864  1
  Cl  Cl12  1  0.125856  0.380854  0.663864  1
  Cl  Cl13  1  0.874144  0.619146  0.336136  1
  Cl  Cl14  1  0.992449  0.000000  0.750000  1
  Cl  Cl15  1  0.007551  0.000000  0.250000  1
  Cl  Cl16  1  0.403928  0.073792  0.846083  1
  Cl  Cl17  1  0.596072  0.926208  0.153917  1
  Cl  Cl18  1  0.403928  0.926208  0.653917  1
  Cl  Cl19  1  0.596072  0.073792  0.346083  1
  Cl  Cl20  1  0.570053  0.701899  0.934896  1
  Cl  Cl21  1  0.429947  0.298101  0.065104  1
  Cl  Cl22  1  0.570053  0.298101  0.565104  1
  Cl  Cl23  1  0.429947  0.701899  0.434896  1
