# generated using pymatgen
data_TbCeDy(InRh)3
_symmetry_space_group_name_H-M   'P 1'
_cell_length_a   7.51949969
_cell_length_b   7.52127369
_cell_length_c   3.89874000
_cell_angle_alpha   90.00000000
_cell_angle_beta   90.00000000
_cell_angle_gamma   117.58858245
_symmetry_Int_Tables_number   1
_chemical_formula_structural   TbCeDy(InRh)3
_chemical_formula_sum   'Tb1 Ce1 Dy1 In3 Rh3'
_cell_volume   195.42645062
_cell_formula_units_Z   1
loop_
 _symmetry_equiv_pos_site_id
 _symmetry_equiv_pos_as_xyz
  1  'x, y, z'
loop_
 _atom_site_type_symbol
 _atom_site_label
 _atom_site_symmetry_multiplicity
 _atom_site_fract_x
 _atom_site_fract_y
 _atom_site_fract_z
 _atom_site_occupancy
  Tb  Tb0  1  0.000078  0.406102  0.500000  1
  Ce  Ce1  1  0.581884  0.581884  0.500000  1
  Dy  Dy2  1  0.406219  0.000090  0.500000  1
  In  In3  1  0.742820  0.006763  0.000000  1
  In  In4  1  0.006970  0.743185  0.000000  1
  In  In5  1  0.247573  0.247339  0.000000  1
  Rh  Rh6  1  0.351796  0.665563  0.000000  1
  Rh  Rh7  1  0.665306  0.351723  0.000000  1
  Rh  Rh8  1  0.997355  0.997352  0.500000  1
