# generated using pymatgen
data_Yb4GaCu(RuO6)2
_symmetry_space_group_name_H-M   'P 1'
_cell_length_a   5.29033602
_cell_length_b   5.48324046
_cell_length_c   7.55266100
_cell_angle_alpha   90.33975953
_cell_angle_beta   90.14534241
_cell_angle_gamma   89.92943136
_symmetry_Int_Tables_number   1
_chemical_formula_structural   Yb4GaCu(RuO6)2
_chemical_formula_sum   'Yb4 Ga1 Cu1 Ru2 O12'
_cell_volume   219.08426501
_cell_formula_units_Z   1
loop_
 _symmetry_equiv_pos_site_id
 _symmetry_equiv_pos_as_xyz
  1  'x, y, z'
loop_
 _atom_site_type_symbol
 _atom_site_label
 _atom_site_symmetry_multiplicity
 _atom_site_fract_x
 _atom_site_fract_y
 _atom_site_fract_z
 _atom_site_occupancy
  Yb  Yb0  1  0.519227  0.565288  0.250716  1
  Yb  Yb1  1  0.983099  0.067704  0.253749  1
  Yb  Yb2  1  0.480773  0.434712  0.749284  1
  Yb  Yb3  1  0.016901  0.932296  0.746251  1
  Ga  Ga4  1  0.500000  0.000000  0.000000  1
  Cu  Cu5  1  0.000000  0.500000  0.500000  1
  Ru  Ru6  1  0.000000  0.500000  0.000000  1
  Ru  Ru7  1  0.500000  0.000000  0.500000  1
  O  O8  1  0.400258  0.971794  0.249248  1
  O  O9  1  0.103115  0.471612  0.245277  1
  O  O10  1  0.599742  0.028206  0.750752  1
  O  O11  1  0.896885  0.528388  0.754723  1
  O  O12  1  0.804604  0.798180  0.054077  1
  O  O13  1  0.686885  0.295776  0.448157  1
  O  O14  1  0.198307  0.191908  0.549773  1
  O  O15  1  0.301371  0.699867  0.948213  1
  O  O16  1  0.195396  0.201820  0.945923  1
  O  O17  1  0.313115  0.704224  0.551843  1
  O  O18  1  0.801693  0.808092  0.450227  1
  O  O19  1  0.698629  0.300133  0.051787  1
