# generated using pymatgen
data_TbNdEr8In8(PtAu)2
_symmetry_space_group_name_H-M   'P 1'
_cell_length_a   3.63989800
_cell_length_b   8.17169338
_cell_length_c   18.34877343
_cell_angle_alpha   90.12188462
_cell_angle_beta   90.00000000
_cell_angle_gamma   90.00000000
_symmetry_Int_Tables_number   1
_chemical_formula_structural   TbNdEr8In8(PtAu)2
_chemical_formula_sum   'Tb1 Nd1 Er8 In8 Pt2 Au2'
_cell_volume   545.76707489
_cell_formula_units_Z   1
loop_
 _symmetry_equiv_pos_site_id
 _symmetry_equiv_pos_as_xyz
  1  'x, y, z'
loop_
 _atom_site_type_symbol
 _atom_site_label
 _atom_site_symmetry_multiplicity
 _atom_site_fract_x
 _atom_site_fract_y
 _atom_site_fract_z
 _atom_site_occupancy
  Tb  Tb0  1  0.000000  0.000000  0.000000  1
  Nd  Nd1  1  0.000000  0.500000  0.500000  1
  Er  Er2  1  0.000000  0.123169  0.418429  1
  Er  Er3  1  0.000000  0.876831  0.581571  1
  Er  Er4  1  0.000000  0.383279  0.916138  1
  Er  Er5  1  0.000000  0.616721  0.083862  1
  Er  Er6  1  0.000000  0.253553  0.214953  1
  Er  Er7  1  0.000000  0.746447  0.785047  1
  Er  Er8  1  0.000000  0.267632  0.721779  1
  Er  Er9  1  0.000000  0.732368  0.278221  1
  In  In10  1  0.500000  0.420055  0.348612  1
  In  In11  1  0.500000  0.579945  0.651388  1
  In  In12  1  0.500000  0.078352  0.852280  1
  In  In13  1  0.500000  0.921648  0.147720  1
  In  In14  1  0.500000  0.294897  0.064965  1
  In  In15  1  0.500000  0.705103  0.935035  1
  In  In16  1  0.500000  0.202083  0.569157  1
  In  In17  1  0.500000  0.797917  0.430843  1
  Pt  Pt18  1  0.500000  0.470970  0.804720  1
  Pt  Pt19  1  0.500000  0.529030  0.195280  1
  Au  Au20  1  0.500000  0.031842  0.301288  1
  Au  Au21  1  0.500000  0.968158  0.698712  1
