# generated using pymatgen
data_Hf18Ta5CoW3S
_symmetry_space_group_name_H-M   'P 1'
_cell_length_a   8.77429456
_cell_length_b   8.80290134
_cell_length_c   8.57192800
_cell_angle_alpha   90.00000000
_cell_angle_beta   90.00000000
_cell_angle_gamma   120.10791010
_symmetry_Int_Tables_number   1
_chemical_formula_structural   Hf18Ta5CoW3S
_chemical_formula_sum   'Hf18 Ta5 Co1 W3 S1'
_cell_volume   572.76163828
_cell_formula_units_Z   1
loop_
 _symmetry_equiv_pos_site_id
 _symmetry_equiv_pos_as_xyz
  1  'x, y, z'
loop_
 _atom_site_type_symbol
 _atom_site_label
 _atom_site_symmetry_multiplicity
 _atom_site_fract_x
 _atom_site_fract_y
 _atom_site_fract_z
 _atom_site_occupancy
  Hf  Hf0  1  0.198219  0.802211  0.447323  1
  Hf  Hf1  1  0.198219  0.396010  0.447323  1
  Hf  Hf2  1  0.605078  0.802540  0.449272  1
  Hf  Hf3  1  0.797464  0.201794  0.562007  1
  Hf  Hf4  1  0.797464  0.595670  0.562007  1
  Hf  Hf5  1  0.404881  0.202441  0.561133  1
  Hf  Hf6  1  0.797464  0.201794  0.937993  1
  Hf  Hf7  1  0.797464  0.595670  0.937993  1
  Hf  Hf8  1  0.404881  0.202441  0.938867  1
  Hf  Hf9  1  0.198219  0.802211  0.052677  1
  Hf  Hf10  1  0.198219  0.396010  0.052677  1
  Hf  Hf11  1  0.605078  0.802540  0.050728  1
  Hf  Hf12  1  0.547309  0.452469  0.250000  1
  Hf  Hf13  1  0.547309  0.094840  0.250000  1
  Hf  Hf14  1  0.907862  0.453931  0.250000  1
  Hf  Hf15  1  0.460797  0.543077  0.750000  1
  Hf  Hf16  1  0.460797  0.917721  0.750000  1
  Hf  Hf17  1  0.082980  0.541491  0.750000  1
  Ta  Ta18  1  0.886803  0.111290  0.250000  1
  Ta  Ta19  1  0.886803  0.775515  0.250000  1
  Ta  Ta20  1  0.223834  0.111918  0.250000  1
  Ta  Ta21  1  0.110933  0.886024  0.750000  1
  Ta  Ta22  1  0.110933  0.224909  0.750000  1
  Co  Co23  1  0.666008  0.333003  0.750000  1
  W  W24  1  0.774876  0.887438  0.750000  1
  W  W25  1  0.998219  0.999110  0.501899  1
  W  W26  1  0.998219  0.999110  0.998101  1
  S  S27  1  0.333659  0.666830  0.250000  1
