# generated using pymatgen
data_Li3(Pt3O4)4
_symmetry_space_group_name_H-M   'P 1'
_cell_length_a   8.08135325
_cell_length_b   8.08135298
_cell_length_c   8.08135300
_cell_angle_alpha   59.99999583
_cell_angle_beta   59.99999695
_cell_angle_gamma   60.00000157
_symmetry_Int_Tables_number   1
_chemical_formula_structural   Li3(Pt3O4)4
_chemical_formula_sum   'Li3 Pt12 O16'
_cell_volume   373.19621364
_cell_formula_units_Z   1
loop_
 _symmetry_equiv_pos_site_id
 _symmetry_equiv_pos_as_xyz
  1  'x, y, z'
loop_
 _atom_site_type_symbol
 _atom_site_label
 _atom_site_symmetry_multiplicity
 _atom_site_fract_x
 _atom_site_fract_y
 _atom_site_fract_z
 _atom_site_occupancy
  Li  Li0  1  0.500000  0.500000  0.500000  1
  Li  Li1  1  0.750000  0.750000  0.750000  1
  Li  Li2  1  0.250000  0.250000  0.250000  1
  Pt  Pt3  1  0.875743  0.374865  0.124257  1
  Pt  Pt4  1  0.625135  0.124257  0.374865  1
  Pt  Pt5  1  0.875743  0.124257  0.625135  1
  Pt  Pt6  1  0.875743  0.625135  0.374865  1
  Pt  Pt7  1  0.374865  0.124257  0.875743  1
  Pt  Pt8  1  0.625135  0.374865  0.875743  1
  Pt  Pt9  1  0.374865  0.875743  0.625135  1
  Pt  Pt10  1  0.124257  0.625135  0.875743  1
  Pt  Pt11  1  0.374865  0.625135  0.124257  1
  Pt  Pt12  1  0.625135  0.875743  0.124257  1
  Pt  Pt13  1  0.124257  0.374865  0.625135  1
  Pt  Pt14  1  0.124257  0.875743  0.374865  1
  O  O15  1  0.620148  0.139556  0.620148  1
  O  O16  1  0.860444  0.379852  0.379852  1
  O  O17  1  0.863716  0.863716  0.408854  1
  O  O18  1  0.379852  0.379852  0.860444  1
  O  O19  1  0.863716  0.408854  0.863716  1
  O  O20  1  0.591146  0.136284  0.136284  1
  O  O21  1  0.136284  0.136284  0.136284  1
  O  O22  1  0.620148  0.620148  0.620148  1
  O  O23  1  0.136284  0.591146  0.136284  1
  O  O24  1  0.863716  0.863716  0.863716  1
  O  O25  1  0.408854  0.863716  0.863716  1
  O  O26  1  0.620148  0.620148  0.139556  1
  O  O27  1  0.379852  0.379852  0.379852  1
  O  O28  1  0.136284  0.136284  0.591146  1
  O  O29  1  0.379852  0.860444  0.379852  1
  O  O30  1  0.139556  0.620148  0.620148  1
