# generated using pymatgen
data_Ho3Er9Co4BiIr
_symmetry_space_group_name_H-M   'P 1'
_cell_length_a   8.26463132
_cell_length_b   8.26463081
_cell_length_c   8.26437675
_cell_angle_alpha   110.69054490
_cell_angle_beta   111.18374423
_cell_angle_gamma   106.57925872
_symmetry_Int_Tables_number   1
_chemical_formula_structural   Ho3Er9Co4BiIr
_chemical_formula_sum   'Ho3 Er9 Co4 Bi1 Ir1'
_cell_volume   433.70452351
_cell_formula_units_Z   1
loop_
 _symmetry_equiv_pos_site_id
 _symmetry_equiv_pos_as_xyz
  1  'x, y, z'
loop_
 _atom_site_type_symbol
 _atom_site_label
 _atom_site_symmetry_multiplicity
 _atom_site_fract_x
 _atom_site_fract_y
 _atom_site_fract_z
 _atom_site_occupancy
  Ho  Ho0  1  0.284707  0.182708  0.467415  1
  Ho  Ho1  1  0.715320  0.817478  0.532798  1
  Ho  Ho2  1  0.284630  0.817277  0.101905  1
  Er  Er3  1  0.715456  0.182284  0.897741  1
  Er  Er4  1  0.620870  0.311962  0.308731  1
  Er  Er5  1  0.379286  0.688232  0.691250  1
  Er  Er6  1  0.003019  0.311963  0.691250  1
  Er  Er7  1  0.996768  0.687862  0.308731  1
  Er  Er8  1  0.212581  0.410666  0.197814  1
  Er  Er9  1  0.787233  0.589198  0.802141  1
  Er  Er10  1  0.212943  0.014908  0.802141  1
  Er  Er11  1  0.787148  0.985233  0.197814  1
  Co  Co12  1  0.999886  0.376006  0.375891  1
  Co  Co13  1  0.999984  0.623960  0.623944  1
  Co  Co14  1  0.388862  0.888804  0.500251  1
  Co  Co15  1  0.611447  0.111388  0.500251  1
  Bi  Bi16  1  0.500008  0.499995  0.000003  1
  Ir  Ir17  1  0.999853  0.000076  0.999929  1
