# generated using pymatgen
data_Y4Si12(Ni3Ir)5
_symmetry_space_group_name_H-M   'P 1'
_cell_length_a   3.79677700
_cell_length_b   6.92228954
_cell_length_c   18.85419072
_cell_angle_alpha   90.05515005
_cell_angle_beta   90.00000000
_cell_angle_gamma   90.00000000
_symmetry_Int_Tables_number   1
_chemical_formula_structural   Y4Si12(Ni3Ir)5
_chemical_formula_sum   'Y4 Si12 Ni15 Ir5'
_cell_volume   495.53295853
_cell_formula_units_Z   1
loop_
 _symmetry_equiv_pos_site_id
 _symmetry_equiv_pos_as_xyz
  1  'x, y, z'
loop_
 _atom_site_type_symbol
 _atom_site_label
 _atom_site_symmetry_multiplicity
 _atom_site_fract_x
 _atom_site_fract_y
 _atom_site_fract_z
 _atom_site_occupancy
  Y  Y0  1  0.250000  0.625360  0.640015  1
  Y  Y1  1  0.250000  0.875024  0.142220  1
  Y  Y2  1  0.750000  0.374368  0.359724  1
  Y  Y3  1  0.750000  0.123928  0.858046  1
  Si  Si4  1  0.250000  0.416073  0.915534  1
  Si  Si5  1  0.250000  0.089040  0.416644  1
  Si  Si6  1  0.750000  0.587060  0.085451  1
  Si  Si7  1  0.750000  0.911360  0.583001  1
  Si  Si8  1  0.250000  0.121270  0.736585  1
  Si  Si9  1  0.250000  0.378261  0.239187  1
  Si  Si10  1  0.750000  0.879928  0.263764  1
  Si  Si11  1  0.750000  0.621240  0.760963  1
  Si  Si12  1  0.250000  0.839319  0.926391  1
  Si  Si13  1  0.250000  0.651449  0.428177  1
  Si  Si14  1  0.750000  0.154197  0.072571  1
  Si  Si15  1  0.750000  0.348540  0.571619  1
  Ni  Ni16  1  0.250000  0.368093  0.494217  1
  Ni  Ni17  1  0.750000  0.855369  0.005908  1
  Ni  Ni18  1  0.750000  0.632173  0.505592  1
  Ni  Ni19  1  0.250000  0.883091  0.511862  1
  Ni  Ni20  1  0.250000  0.615017  0.013892  1
  Ni  Ni21  1  0.750000  0.117191  0.487807  1
  Ni  Ni22  1  0.750000  0.393614  0.986640  1
  Ni  Ni23  1  0.250000  0.138102  0.611083  1
  Ni  Ni24  1  0.250000  0.372037  0.115696  1
  Ni  Ni25  1  0.750000  0.861756  0.389048  1
  Ni  Ni26  1  0.750000  0.636704  0.885177  1
  Ni  Ni27  1  0.250000  0.426622  0.795513  1
  Ni  Ni28  1  0.250000  0.073465  0.296905  1
  Ni  Ni29  1  0.750000  0.572533  0.205368  1
  Ni  Ni30  1  0.750000  0.927209  0.702628  1
  Ir  Ir31  1  0.250000  0.816204  0.799032  1
  Ir  Ir32  1  0.250000  0.684295  0.301413  1
  Ir  Ir33  1  0.750000  0.183304  0.199523  1
  Ir  Ir34  1  0.750000  0.316570  0.698308  1
  Ir  Ir35  1  0.250000  0.130233  0.994495  1
