# generated using pymatgen
data_Tm6NbCr3(ReN4)6
_symmetry_space_group_name_H-M   'P 1'
_cell_length_a   10.93250965
_cell_length_b   10.93250829
_cell_length_c   10.93250804
_cell_angle_alpha   109.57795108
_cell_angle_beta   109.57795362
_cell_angle_gamma   109.57794339
_symmetry_Int_Tables_number   1
_chemical_formula_structural   Tm6NbCr3(ReN4)6
_chemical_formula_sum   'Tm12 Nb2 Cr6 Re12 N48'
_cell_volume   1001.86575044
_cell_formula_units_Z   2
loop_
 _symmetry_equiv_pos_site_id
 _symmetry_equiv_pos_as_xyz
  1  'x, y, z'
loop_
 _atom_site_type_symbol
 _atom_site_label
 _atom_site_symmetry_multiplicity
 _atom_site_fract_x
 _atom_site_fract_y
 _atom_site_fract_z
 _atom_site_occupancy
  Tm  Tm0  1  0.250000  0.377891  0.122109  1
  Tm  Tm1  1  0.375449  0.750000  0.124551  1
  Tm  Tm2  1  0.377891  0.122109  0.250000  1
  Tm  Tm3  1  0.875449  0.624551  0.250000  1
  Tm  Tm4  1  0.750000  0.124551  0.375449  1
  Tm  Tm5  1  0.122109  0.250000  0.377891  1
  Tm  Tm6  1  0.877891  0.750000  0.622108  1
  Tm  Tm7  1  0.250000  0.875449  0.624551  1
  Tm  Tm8  1  0.124551  0.375449  0.750000  1
  Tm  Tm9  1  0.622108  0.877891  0.750000  1
  Tm  Tm10  1  0.624551  0.250000  0.875449  1
  Tm  Tm11  1  0.750000  0.622108  0.877891  1
  Nb  Nb12  1  0.000000  0.000000  0.000000  1
  Nb  Nb13  1  0.499999  0.499999  0.499999  1
  Cr  Cr14  1  0.499999  0.000000  0.000000  1
  Cr  Cr15  1  0.000000  0.499999  0.000000  1
  Cr  Cr16  1  0.500000  0.500000  0.000000  1
  Cr  Cr17  1  0.000000  0.000000  0.499999  1
  Cr  Cr18  1  0.500000  0.000000  0.500000  1
  Cr  Cr19  1  0.000000  0.500000  0.500000  1
  Re  Re20  1  0.873810  0.252643  0.125930  1
  Re  Re21  1  0.747358  0.874070  0.126190  1
  Re  Re22  1  0.626189  0.374070  0.247358  1
  Re  Re23  1  0.125930  0.873810  0.252643  1
  Re  Re24  1  0.247358  0.626189  0.374070  1
  Re  Re25  1  0.625930  0.752642  0.373810  1
  Re  Re26  1  0.374070  0.247358  0.626189  1
  Re  Re27  1  0.752642  0.373810  0.625930  1
  Re  Re28  1  0.874070  0.126190  0.747358  1
  Re  Re29  1  0.373810  0.625930  0.752642  1
  Re  Re30  1  0.252643  0.125930  0.873810  1
  Re  Re31  1  0.126190  0.747358  0.874070  1
  N  N32  1  0.208744  0.121249  0.022738  1
  N  N33  1  0.317077  0.902648  0.022809  1
  N  N34  1  0.703186  0.683291  0.087406  1
  N  N35  1  0.880187  0.403962  0.086454  1
  N  N36  1  0.619814  0.413546  0.096039  1
  N  N37  1  0.977190  0.682922  0.097351  1
  N  N38  1  0.022738  0.208744  0.121249  1
  N  N39  1  0.596038  0.913546  0.119813  1
  N  N40  1  0.477191  0.597352  0.182922  1
  N  N41  1  0.203186  0.587406  0.183291  1
  N  N42  1  0.121249  0.022738  0.208744  1
  N  N43  1  0.587406  0.183291  0.203186  1
  N  N44  1  0.477262  0.378752  0.291257  1
  N  N45  1  0.316708  0.912594  0.296814  1
  N  N46  1  0.912594  0.296814  0.316708  1
  N  N47  1  0.902648  0.022809  0.317077  1
  N  N48  1  0.291257  0.477262  0.378752  1
  N  N49  1  0.586454  0.903962  0.380186  1
  N  N50  1  0.817078  0.522809  0.402649  1
  N  N51  1  0.086454  0.880187  0.403962  1
  N  N52  1  0.816709  0.796813  0.412594  1
  N  N53  1  0.096039  0.619814  0.413546  1
  N  N54  1  0.597352  0.182922  0.477191  1
  N  N55  1  0.378752  0.291257  0.477262  1
  N  N56  1  0.402649  0.817078  0.522809  1
  N  N57  1  0.621249  0.708743  0.522738  1
  N  N58  1  0.183291  0.203186  0.587406  1
  N  N59  1  0.903962  0.380186  0.586454  1
  N  N60  1  0.182922  0.477191  0.597352  1
  N  N61  1  0.913546  0.119813  0.596038  1
  N  N62  1  0.413546  0.096039  0.619814  1
  N  N63  1  0.708743  0.522738  0.621249  1
  N  N64  1  0.087406  0.703186  0.683291  1
  N  N65  1  0.097351  0.977190  0.682922  1
  N  N66  1  0.683291  0.087406  0.703186  1
  N  N67  1  0.522738  0.621249  0.708743  1
  N  N68  1  0.878752  0.977262  0.791257  1
  N  N69  1  0.412594  0.816709  0.796813  1
  N  N70  1  0.522809  0.402649  0.817078  1
  N  N71  1  0.796813  0.412594  0.816709  1
  N  N72  1  0.403962  0.086454  0.880187  1
  N  N73  1  0.977262  0.791257  0.878752  1
  N  N74  1  0.380186  0.586454  0.903962  1
  N  N75  1  0.022809  0.317077  0.902648  1
  N  N76  1  0.296814  0.316708  0.912594  1
  N  N77  1  0.119813  0.596038  0.913546  1
  N  N78  1  0.682922  0.097351  0.977190  1
  N  N79  1  0.791257  0.878752  0.977262  1
