# generated using pymatgen
data_SmNp(B4Ru)2
_symmetry_space_group_name_H-M   'P 1'
_cell_length_a   3.56239900
_cell_length_b   6.01742340
_cell_length_c   11.63501056
_cell_angle_alpha   90.00006341
_cell_angle_beta   90.00000000
_cell_angle_gamma   90.00000000
_symmetry_Int_Tables_number   1
_chemical_formula_structural   SmNp(B4Ru)2
_chemical_formula_sum   'Sm2 Np2 B16 Ru4'
_cell_volume   249.41347469
_cell_formula_units_Z   2
loop_
 _symmetry_equiv_pos_site_id
 _symmetry_equiv_pos_as_xyz
  1  'x, y, z'
loop_
 _atom_site_type_symbol
 _atom_site_label
 _atom_site_symmetry_multiplicity
 _atom_site_fract_x
 _atom_site_fract_y
 _atom_site_fract_z
 _atom_site_occupancy
  Sm  Sm0  1  0.000000  0.127861  0.649814  1
  Sm  Sm1  1  0.000000  0.872139  0.350186  1
  Np  Np2  1  0.000000  0.627422  0.849778  1
  Np  Np3  1  0.000000  0.372578  0.150222  1
  B  B4  1  0.500000  0.476259  0.692465  1
  B  B5  1  0.500000  0.523741  0.307535  1
  B  B6  1  0.500000  0.972107  0.809884  1
  B  B7  1  0.500000  0.027893  0.190116  1
  B  B8  1  0.500000  0.289468  0.815323  1
  B  B9  1  0.500000  0.710532  0.184677  1
  B  B10  1  0.500000  0.784624  0.687548  1
  B  B11  1  0.500000  0.215376  0.312452  1
  B  B12  1  0.500000  0.365823  0.968821  1
  B  B13  1  0.500000  0.634177  0.031179  1
  B  B14  1  0.500000  0.861370  0.531352  1
  B  B15  1  0.500000  0.138630  0.468648  1
  B  B16  1  0.500000  0.388739  0.545811  1
  B  B17  1  0.500000  0.611261  0.454189  1
  B  B18  1  0.500000  0.886416  0.953593  1
  B  B19  1  0.500000  0.113584  0.046407  1
  Ru  Ru20  1  0.000000  0.139779  0.909076  1
  Ru  Ru21  1  0.000000  0.860221  0.090924  1
  Ru  Ru22  1  0.000000  0.637301  0.593760  1
  Ru  Ru23  1  0.000000  0.362699  0.406240  1
