# generated using pymatgen
data_AlSnWO6
_symmetry_space_group_name_H-M   'P 1'
_cell_length_a   4.63938901
_cell_length_b   9.28015901
_cell_length_c   9.36376800
_cell_angle_alpha   90.00004123
_cell_angle_beta   89.99990231
_cell_angle_gamma   90.00080313
_symmetry_Int_Tables_number   1
_chemical_formula_structural   AlSnWO6
_chemical_formula_sum   'Al4 Sn4 W4 O24'
_cell_volume   403.15017414
_cell_formula_units_Z   4
loop_
 _symmetry_equiv_pos_site_id
 _symmetry_equiv_pos_as_xyz
  1  'x, y, z'
loop_
 _atom_site_type_symbol
 _atom_site_label
 _atom_site_symmetry_multiplicity
 _atom_site_fract_x
 _atom_site_fract_y
 _atom_site_fract_z
 _atom_site_occupancy
  Al  Al0  1  0.499993  0.750010  0.165998  1
  Al  Al1  1  0.000004  0.499992  0.665972  1
  Al  Al2  1  0.499998  0.250001  0.165993  1
  Al  Al3  1  0.000006  0.999996  0.665963  1
  Sn  Sn4  1  0.499970  0.250000  0.500487  1
  Sn  Sn5  1  0.500022  0.749967  0.500490  1
  Sn  Sn6  1  0.999999  0.000011  0.000278  1
  Sn  Sn7  1  0.000016  0.500002  0.000274  1
  W  W8  1  0.499994  0.249993  0.833559  1
  W  W9  1  0.500015  0.750017  0.833560  1
  W  W10  1  0.999999  0.999996  0.333448  1
  W  W11  1  0.000002  0.499999  0.333441  1
  O  O12  1  0.205168  0.397507  0.171006  1
  O  O13  1  0.205170  0.897511  0.171012  1
  O  O14  1  0.794828  0.102499  0.171011  1
  O  O15  1  0.794817  0.602502  0.171022  1
  O  O16  1  0.294818  0.147503  0.671014  1
  O  O17  1  0.294813  0.647499  0.671017  1
  O  O18  1  0.705179  0.352497  0.671015  1
  O  O19  1  0.705184  0.852492  0.671011  1
  O  O20  1  0.185591  0.407264  0.505491  1
  O  O21  1  0.185592  0.907264  0.505486  1
  O  O22  1  0.814419  0.092738  0.505492  1
  O  O23  1  0.814424  0.592726  0.505492  1
  O  O24  1  0.314470  0.157260  0.005501  1
  O  O25  1  0.314444  0.657276  0.005503  1
  O  O26  1  0.685541  0.342735  0.005501  1
  O  O27  1  0.685546  0.842735  0.005500  1
  O  O28  1  0.197897  0.401121  0.823559  1
  O  O29  1  0.197908  0.901123  0.823546  1
  O  O30  1  0.802093  0.098880  0.823546  1
  O  O31  1  0.802086  0.598880  0.823549  1
  O  O32  1  0.302065  0.151156  0.323567  1
  O  O33  1  0.302066  0.651148  0.323566  1
  O  O34  1  0.697937  0.348847  0.323566  1
  O  O35  1  0.697927  0.848854  0.323571  1
