# generated using pymatgen
data_Fe7(TcMo)3
_symmetry_space_group_name_H-M   'P 1'
_cell_length_a   8.98318395
_cell_length_b   8.98318375
_cell_length_c   8.98318344
_cell_angle_alpha   30.49987021
_cell_angle_beta   30.49987332
_cell_angle_gamma   30.49987415
_symmetry_Int_Tables_number   1
_chemical_formula_structural   Fe7(TcMo)3
_chemical_formula_sum   'Fe7 Tc3 Mo3'
_cell_volume   165.52990910
_cell_formula_units_Z   1
loop_
 _symmetry_equiv_pos_site_id
 _symmetry_equiv_pos_as_xyz
  1  'x, y, z'
loop_
 _atom_site_type_symbol
 _atom_site_label
 _atom_site_symmetry_multiplicity
 _atom_site_fract_x
 _atom_site_fract_y
 _atom_site_fract_z
 _atom_site_occupancy
  Fe  Fe0  1  0.587480  0.091848  0.091848  1
  Fe  Fe1  1  0.091848  0.091848  0.587480  1
  Fe  Fe2  1  0.909688  0.909688  0.408836  1
  Fe  Fe3  1  0.909688  0.408836  0.909688  1
  Fe  Fe4  1  0.000032  0.000032  0.000032  1
  Fe  Fe5  1  0.091848  0.587480  0.091848  1
  Fe  Fe6  1  0.408836  0.909688  0.909688  1
  Tc  Tc7  1  0.347603  0.347603  0.347603  1
  Tc  Tc8  1  0.166127  0.166127  0.166127  1
  Tc  Tc9  1  0.548279  0.548279  0.548279  1
  Mo  Mo10  1  0.652612  0.652612  0.652612  1
  Mo  Mo11  1  0.451857  0.451857  0.451857  1
  Mo  Mo12  1  0.834103  0.834103  0.834103  1
