# generated using pymatgen
data_Pa8AlZn7Rh8
_symmetry_space_group_name_H-M   'P 1'
_cell_length_a   3.86126800
_cell_length_b   7.32280380
_cell_length_c   16.27345591
_cell_angle_alpha   89.74505772
_cell_angle_beta   90.00000000
_cell_angle_gamma   90.00000000
_symmetry_Int_Tables_number   1
_chemical_formula_structural   Pa8AlZn7Rh8
_chemical_formula_sum   'Pa8 Al1 Zn7 Rh8'
_cell_volume   460.13242282
_cell_formula_units_Z   1
loop_
 _symmetry_equiv_pos_site_id
 _symmetry_equiv_pos_as_xyz
  1  'x, y, z'
loop_
 _atom_site_type_symbol
 _atom_site_label
 _atom_site_symmetry_multiplicity
 _atom_site_fract_x
 _atom_site_fract_y
 _atom_site_fract_z
 _atom_site_occupancy
  Pa  Pa0  1  0.750000  0.333890  0.440366  1
  Pa  Pa1  1  0.250000  0.060085  0.715624  1
  Pa  Pa2  1  0.250000  0.558631  0.784951  1
  Pa  Pa3  1  0.250000  0.670215  0.560111  1
  Pa  Pa4  1  0.750000  0.828470  0.057854  1
  Pa  Pa5  1  0.250000  0.163634  0.939795  1
  Pa  Pa6  1  0.750000  0.444738  0.216621  1
  Pa  Pa7  1  0.750000  0.941512  0.285046  1
  Al  Al8  1  0.250000  0.115001  0.152666  1
  Zn  Zn9  1  0.250000  0.997482  0.438559  1
  Zn  Zn10  1  0.750000  0.887191  0.845618  1
  Zn  Zn11  1  0.750000  0.007187  0.561314  1
  Zn  Zn12  1  0.250000  0.491267  0.062723  1
  Zn  Zn13  1  0.750000  0.388963  0.654977  1
  Zn  Zn14  1  0.750000  0.498267  0.940419  1
  Zn  Zn15  1  0.250000  0.613675  0.345192  1
  Rh  Rh16  1  0.750000  0.259093  0.813758  1
  Rh  Rh17  1  0.250000  0.240875  0.309379  1
  Rh  Rh18  1  0.250000  0.755410  0.940153  1
  Rh  Rh19  1  0.250000  0.266416  0.558084  1
  Rh  Rh20  1  0.250000  0.750258  0.184935  1
  Rh  Rh21  1  0.750000  0.737270  0.441989  1
  Rh  Rh22  1  0.750000  0.229820  0.063088  1
  Rh  Rh23  1  0.750000  0.760652  0.686774  1
