# generated using pymatgen
data_LuNb8FeSe16
_symmetry_space_group_name_H-M   'P 1'
_cell_length_a   6.99527300
_cell_length_b   6.99527401
_cell_length_c   13.47650800
_cell_angle_alpha   90.00000000
_cell_angle_beta   90.00000000
_cell_angle_gamma   119.99999996
_symmetry_Int_Tables_number   1
_chemical_formula_structural   LuNb8FeSe16
_chemical_formula_sum   'Lu1 Nb8 Fe1 Se16'
_cell_volume   571.10689584
_cell_formula_units_Z   1
loop_
 _symmetry_equiv_pos_site_id
 _symmetry_equiv_pos_as_xyz
  1  'x, y, z'
loop_
 _atom_site_type_symbol
 _atom_site_label
 _atom_site_symmetry_multiplicity
 _atom_site_fract_x
 _atom_site_fract_y
 _atom_site_fract_z
 _atom_site_occupancy
  Lu  Lu0  1  0.000000  0.000000  0.500000  1
  Nb  Nb1  1  0.000000  0.000000  0.236996  1
  Nb  Nb2  1  0.000000  0.000000  0.763004  1
  Nb  Nb3  1  0.507399  0.014800  0.236008  1
  Nb  Nb4  1  0.985200  0.492601  0.236008  1
  Nb  Nb5  1  0.507399  0.492601  0.236008  1
  Nb  Nb6  1  0.492601  0.985200  0.763992  1
  Nb  Nb7  1  0.014800  0.507399  0.763992  1
  Nb  Nb8  1  0.492601  0.507399  0.763992  1
  Fe  Fe9  1  0.000000  0.000000  0.000000  1
  Se  Se10  1  0.333333  0.666667  0.891691  1
  Se  Se11  1  0.666667  0.333333  0.108309  1
  Se  Se12  1  0.666667  0.333333  0.365576  1
  Se  Se13  1  0.333333  0.666667  0.634424  1
  Se  Se14  1  0.169360  0.830640  0.360815  1
  Se  Se15  1  0.169360  0.338720  0.360815  1
  Se  Se16  1  0.661280  0.830640  0.360815  1
  Se  Se17  1  0.830640  0.169360  0.639185  1
  Se  Se18  1  0.830640  0.661280  0.639185  1
  Se  Se19  1  0.338720  0.169360  0.639185  1
  Se  Se20  1  0.831825  0.168175  0.886448  1
  Se  Se21  1  0.831825  0.663651  0.886448  1
  Se  Se22  1  0.336349  0.168175  0.886448  1
  Se  Se23  1  0.168175  0.831825  0.113552  1
  Se  Se24  1  0.168175  0.336349  0.113552  1
  Se  Se25  1  0.663651  0.831825  0.113552  1
