# generated using pymatgen
data_Y4Ga18Ir3Pd2Ru
_symmetry_space_group_name_H-M   'P 1'
_cell_length_a   7.60242232
_cell_length_b   7.60242245
_cell_length_c   9.50457455
_cell_angle_alpha   90.04965380
_cell_angle_beta   90.04965178
_cell_angle_gamma   119.73412969
_symmetry_Int_Tables_number   1
_chemical_formula_structural   Y4Ga18Ir3Pd2Ru
_chemical_formula_sum   'Y4 Ga18 Ir3 Pd2 Ru1'
_cell_volume   477.00611338
_cell_formula_units_Z   1
loop_
 _symmetry_equiv_pos_site_id
 _symmetry_equiv_pos_as_xyz
  1  'x, y, z'
loop_
 _atom_site_type_symbol
 _atom_site_label
 _atom_site_symmetry_multiplicity
 _atom_site_fract_x
 _atom_site_fract_y
 _atom_site_fract_z
 _atom_site_occupancy
  Y  Y0  1  0.997078  0.670768  0.249721  1
  Y  Y1  1  0.003797  0.330072  0.749931  1
  Y  Y2  1  0.669928  0.996203  0.250069  1
  Y  Y3  1  0.329232  0.002922  0.750279  1
  Ga  Ga4  1  0.129706  0.130554  0.250049  1
  Ga  Ga5  1  0.869446  0.870294  0.749951  1
  Ga  Ga6  1  0.997621  0.337523  0.080413  1
  Ga  Ga7  1  0.997952  0.660023  0.919819  1
  Ga  Ga8  1  0.999599  0.662822  0.581878  1
  Ga  Ga9  1  0.337178  0.000401  0.418122  1
  Ga  Ga10  1  0.999681  0.337698  0.418673  1
  Ga  Ga11  1  0.662302  0.000319  0.581327  1
  Ga  Ga12  1  0.662477  0.002379  0.919587  1
  Ga  Ga13  1  0.339977  0.002048  0.080181  1
  Ga  Ga14  1  0.336238  0.336535  0.567315  1
  Ga  Ga15  1  0.663465  0.663762  0.432685  1
  Ga  Ga16  1  0.663902  0.661419  0.064978  1
  Ga  Ga17  1  0.338581  0.336098  0.935022  1
  Ga  Ga18  1  0.336313  0.545882  0.249566  1
  Ga  Ga19  1  0.662967  0.450776  0.751869  1
  Ga  Ga20  1  0.549224  0.337033  0.248131  1
  Ga  Ga21  1  0.454118  0.663687  0.750434  1
  Ir  Ir22  1  0.327938  0.672062  0.000000  1
  Ir  Ir23  1  0.327845  0.672155  0.500000  1
  Ir  Ir24  1  0.671513  0.328487  0.500000  1
  Pd  Pd25  1  0.999984  0.000016  0.000000  1
  Pd  Pd26  1  0.999739  0.000261  0.500000  1
  Ru  Ru27  1  0.672200  0.327800  0.000000  1
