# generated using pymatgen
data_Er2Pa(GaNi)3
_symmetry_space_group_name_H-M   'P 1'
_cell_length_a   7.04389600
_cell_length_b   6.97049463
_cell_length_c   3.73972100
_cell_angle_alpha   90.00000000
_cell_angle_beta   90.00000000
_cell_angle_gamma   120.34895504
_symmetry_Int_Tables_number   1
_chemical_formula_structural   Er2Pa(GaNi)3
_chemical_formula_sum   'Er2 Pa1 Ga3 Ni3'
_cell_volume   158.45592806
_cell_formula_units_Z   1
loop_
 _symmetry_equiv_pos_site_id
 _symmetry_equiv_pos_as_xyz
  1  'x, y, z'
loop_
 _atom_site_type_symbol
 _atom_site_label
 _atom_site_symmetry_multiplicity
 _atom_site_fract_x
 _atom_site_fract_y
 _atom_site_fract_z
 _atom_site_occupancy
  Er  Er0  1  0.998988  0.412911  0.500000  1
  Er  Er1  1  0.586077  0.587089  0.500000  1
  Pa  Pa2  1  0.419234  0.000000  0.500000  1
  Ga  Ga3  1  0.763786  0.000000  0.000000  1
  Ga  Ga4  1  0.992305  0.746799  0.000000  1
  Ga  Ga5  1  0.245508  0.253201  0.000000  1
  Ni  Ni6  1  0.334773  0.689089  0.000000  1
  Ni  Ni7  1  0.645685  0.310911  0.000000  1
  Ni  Ni8  1  0.013642  0.000000  0.500000  1
