# generated using pymatgen
data_La7GeI12
_symmetry_space_group_name_H-M   'P 1'
_cell_length_a   10.17212143
_cell_length_b   10.17212124
_cell_length_c   10.17212165
_cell_angle_alpha   107.83033346
_cell_angle_beta   107.83033157
_cell_angle_gamma   107.83033256
_symmetry_Int_Tables_number   1
_chemical_formula_structural   La7GeI12
_chemical_formula_sum   'La7 Ge1 I12'
_cell_volume   855.92696205
_cell_formula_units_Z   1
loop_
 _symmetry_equiv_pos_site_id
 _symmetry_equiv_pos_as_xyz
  1  'x, y, z'
loop_
 _atom_site_type_symbol
 _atom_site_label
 _atom_site_symmetry_multiplicity
 _atom_site_fract_x
 _atom_site_fract_y
 _atom_site_fract_z
 _atom_site_occupancy
  La  La0  1  0.537060  0.610012  0.818451  1
  La  La1  1  0.818451  0.537060  0.610012  1
  La  La2  1  0.610012  0.818451  0.537060  1
  La  La3  1  0.467035  0.392989  0.180314  1
  La  La4  1  0.180314  0.467035  0.392989  1
  La  La5  1  0.392989  0.180314  0.467035  1
  La  La6  1  0.986058  0.986058  0.986058  1
  Ge  Ge7  1  0.496406  0.496406  0.496406  1
  I  I8  1  0.271494  0.813808  0.424357  1
  I  I9  1  0.424357  0.271494  0.813808  1
  I  I10  1  0.813808  0.424357  0.271494  1
  I  I11  1  0.728643  0.185809  0.575001  1
  I  I12  1  0.575001  0.728643  0.185809  1
  I  I13  1  0.185809  0.575001  0.728643  1
  I  I14  1  0.028411  0.108632  0.339190  1
  I  I15  1  0.339190  0.028411  0.108632  1
  I  I16  1  0.108632  0.339190  0.028411  1
  I  I17  1  0.972707  0.889471  0.649522  1
  I  I18  1  0.649522  0.972707  0.889471  1
  I  I19  1  0.889471  0.649522  0.972707  1
