# generated using pymatgen
data_BPd7
_symmetry_space_group_name_H-M   'P 1'
_cell_length_a   4.96958936
_cell_length_b   4.95256563
_cell_length_c   4.96354208
_cell_angle_alpha   99.26947724
_cell_angle_beta   99.55286283
_cell_angle_gamma   99.19113679
_symmetry_Int_Tables_number   1
_chemical_formula_structural   BPd7
_chemical_formula_sum   'B1 Pd7'
_cell_volume   116.69416283
_cell_formula_units_Z   1
loop_
 _symmetry_equiv_pos_site_id
 _symmetry_equiv_pos_as_xyz
  1  'x, y, z'
loop_
 _atom_site_type_symbol
 _atom_site_label
 _atom_site_symmetry_multiplicity
 _atom_site_fract_x
 _atom_site_fract_y
 _atom_site_fract_z
 _atom_site_occupancy
  B  B0  1  0.667202  0.635396  0.446202  1
  Pd  Pd1  1  0.738154  0.269580  0.224220  1
  Pd  Pd2  1  0.596020  0.002523  0.667646  1
  Pd  Pd3  1  0.300333  0.416273  0.518861  1
  Pd  Pd4  1  0.167353  0.136743  0.946870  1
  Pd  Pd5  1  0.888051  0.565811  0.814653  1
  Pd  Pd6  1  0.033505  0.858129  0.375644  1
  Pd  Pd7  1  0.444995  0.707706  0.079697  1
