# generated using pymatgen
data_TbEr2Bi(Rh2O7)2
_symmetry_space_group_name_H-M   'P 1'
_cell_length_a   7.21831188
_cell_length_b   7.22227701
_cell_length_c   7.26590898
_cell_angle_alpha   60.20590263
_cell_angle_beta   60.21646214
_cell_angle_gamma   60.01816094
_symmetry_Int_Tables_number   1
_chemical_formula_structural   TbEr2Bi(Rh2O7)2
_chemical_formula_sum   'Tb1 Er2 Bi1 Rh4 O14'
_cell_volume   268.73461363
_cell_formula_units_Z   1
loop_
 _symmetry_equiv_pos_site_id
 _symmetry_equiv_pos_as_xyz
  1  'x, y, z'
loop_
 _atom_site_type_symbol
 _atom_site_label
 _atom_site_symmetry_multiplicity
 _atom_site_fract_x
 _atom_site_fract_y
 _atom_site_fract_z
 _atom_site_occupancy
  Tb  Tb0  1  0.125000  0.625000  0.125000  1
  Er  Er1  1  0.125000  0.125000  0.125000  1
  Er  Er2  1  0.625000  0.125000  0.125000  1
  Bi  Bi3  1  0.125000  0.125000  0.625000  1
  Rh  Rh4  1  0.625000  0.625000  0.625000  1
  Rh  Rh5  1  0.625000  0.625000  0.125000  1
  Rh  Rh6  1  0.125000  0.625000  0.625000  1
  Rh  Rh7  1  0.625000  0.125000  0.625000  1
  O  O8  1  0.254132  0.248458  0.243276  1
  O  O9  1  0.287049  0.714911  0.287240  1
  O  O10  1  0.962216  0.962124  0.533594  1
  O  O11  1  0.542067  0.962124  0.533594  1
  O  O12  1  0.710800  0.714911  0.287240  1
  O  O13  1  0.961803  0.540775  0.535621  1
  O  O14  1  0.707933  0.287876  0.716406  1
  O  O15  1  0.287784  0.287876  0.716406  1
  O  O16  1  0.712711  0.287175  0.287402  1
  O  O17  1  0.288197  0.709225  0.714379  1
  O  O18  1  0.962951  0.535089  0.962760  1
  O  O19  1  0.539200  0.535089  0.962760  1
  O  O20  1  0.995868  0.001542  0.006724  1
  O  O21  1  0.537289  0.962825  0.962598  1
