# generated using pymatgen
data_Li6ErSb5Rh12
_symmetry_space_group_name_H-M   'P 1'
_cell_length_a   4.41353400
_cell_length_b   6.18229900
_cell_length_c   13.27936200
_cell_angle_alpha   90.00066155
_cell_angle_beta   90.00073023
_cell_angle_gamma   90.00104753
_symmetry_Int_Tables_number   1
_chemical_formula_structural   Li6ErSb5Rh12
_chemical_formula_sum   'Li6 Er1 Sb5 Rh12'
_cell_volume   362.33784078
_cell_formula_units_Z   1
loop_
 _symmetry_equiv_pos_site_id
 _symmetry_equiv_pos_as_xyz
  1  'x, y, z'
loop_
 _atom_site_type_symbol
 _atom_site_label
 _atom_site_symmetry_multiplicity
 _atom_site_fract_x
 _atom_site_fract_y
 _atom_site_fract_z
 _atom_site_occupancy
  Li  Li0  1  0.000000  0.500000  0.000000  1
  Li  Li1  1  0.499893  0.999996  0.166867  1
  Li  Li2  1  0.999895  0.499994  0.335253  1
  Li  Li3  1  0.499999  0.000000  0.500000  1
  Li  Li4  1  0.000105  0.500006  0.664747  1
  Li  Li5  1  0.500107  0.000004  0.833133  1
  Er  Er6  1  0.000000  0.000000  0.000000  1
  Sb  Sb7  1  0.499881  0.500003  0.167292  1
  Sb  Sb8  1  0.999902  0.999996  0.333759  1
  Sb  Sb9  1  0.499999  0.500000  0.500000  1
  Sb  Sb10  1  0.000098  0.000004  0.666241  1
  Sb  Sb11  1  0.500119  0.499997  0.832708  1
  Rh  Rh12  1  0.500007  0.262282  0.999998  1
  Rh  Rh13  1  0.499991  0.737717  0.000002  1
  Rh  Rh14  1  0.999891  0.255057  0.173957  1
  Rh  Rh15  1  0.999885  0.744948  0.173960  1
  Rh  Rh16  1  0.499903  0.250061  0.335855  1
  Rh  Rh17  1  0.499905  0.749948  0.335866  1
  Rh  Rh18  1  0.999999  0.249368  0.500001  1
  Rh  Rh19  1  0.000001  0.750632  0.499999  1
  Rh  Rh20  1  0.500095  0.250053  0.664135  1
  Rh  Rh21  1  0.500097  0.749940  0.664146  1
  Rh  Rh22  1  0.000115  0.255051  0.826040  1
  Rh  Rh23  1  0.000109  0.744942  0.826043  1
