# generated using pymatgen
data_NaAc10Yb9Sn16
_symmetry_space_group_name_H-M   'P 1'
_cell_length_a   8.24911989
_cell_length_b   8.75346836
_cell_length_c   16.61716800
_cell_angle_alpha   89.97887114
_cell_angle_beta   90.03879165
_cell_angle_gamma   90.08985778
_symmetry_Int_Tables_number   1
_chemical_formula_structural   NaAc10Yb9Sn16
_chemical_formula_sum   'Na1 Ac10 Yb9 Sn16'
_cell_volume   1199.89744712
_cell_formula_units_Z   1
loop_
 _symmetry_equiv_pos_site_id
 _symmetry_equiv_pos_as_xyz
  1  'x, y, z'
loop_
 _atom_site_type_symbol
 _atom_site_label
 _atom_site_symmetry_multiplicity
 _atom_site_fract_x
 _atom_site_fract_y
 _atom_site_fract_z
 _atom_site_occupancy
  Na  Na0  1  0.164332  0.997994  0.249947  1
  Ac  Ac1  1  0.504975  0.818255  0.908745  1
  Ac  Ac2  1  0.004985  0.680900  0.591346  1
  Ac  Ac3  1  0.491760  0.181368  0.399225  1
  Ac  Ac4  1  0.995115  0.312530  0.100668  1
  Ac  Ac5  1  0.488786  0.181592  0.102176  1
  Ac  Ac6  1  0.992401  0.313140  0.397866  1
  Ac  Ac7  1  0.505912  0.815548  0.592174  1
  Ac  Ac8  1  0.006420  0.683163  0.907845  1
  Ac  Ac9  1  0.667461  0.325816  0.878133  1
  Ac  Ac10  1  0.167562  0.175573  0.622590  1
  Yb  Yb11  1  0.333887  0.675041  0.372226  1
  Yb  Yb12  1  0.839414  0.830938  0.127958  1
  Yb  Yb13  1  0.327981  0.675883  0.127898  1
  Yb  Yb14  1  0.833518  0.829866  0.371919  1
  Yb  Yb15  1  0.668201  0.329026  0.620702  1
  Yb  Yb16  1  0.168482  0.171924  0.878233  1
  Yb  Yb17  1  0.337492  0.504140  0.751016  1
  Yb  Yb18  1  0.836595  0.996084  0.749108  1
  Yb  Yb19  1  0.663062  0.506186  0.250626  1
  Sn  Sn20  1  0.169377  0.958792  0.037403  1
  Sn  Sn21  1  0.668961  0.538646  0.458356  1
  Sn  Sn22  1  0.827944  0.034778  0.535513  1
  Sn  Sn23  1  0.329203  0.464995  0.965357  1
  Sn  Sn24  1  0.841069  0.031649  0.964271  1
  Sn  Sn25  1  0.342074  0.467927  0.534771  1
  Sn  Sn26  1  0.163280  0.955546  0.458299  1
  Sn  Sn27  1  0.663236  0.540440  0.045667  1
  Sn  Sn28  1  0.710760  0.637162  0.749588  1
  Sn  Sn29  1  0.211254  0.862911  0.750576  1
  Sn  Sn30  1  0.290898  0.375614  0.250455  1
  Sn  Sn31  1  0.784264  0.132313  0.249564  1
  Sn  Sn32  1  0.466426  0.101723  0.751649  1
  Sn  Sn33  1  0.966268  0.399151  0.748417  1
  Sn  Sn34  1  0.535840  0.888296  0.249202  1
  Sn  Sn35  1  0.030808  0.605090  0.250513  1
