# generated using pymatgen
data_Er3Lu9(OsRu)2
_symmetry_space_group_name_H-M   'P 1'
_cell_length_a   6.19052600
_cell_length_b   7.32053116
_cell_length_c   8.86288000
_cell_angle_alpha   90.00000000
_cell_angle_beta   90.00000000
_cell_angle_gamma   90.09061785
_symmetry_Int_Tables_number   1
_chemical_formula_structural   Er3Lu9(OsRu)2
_chemical_formula_sum   'Er3 Lu9 Os2 Ru2'
_cell_volume   401.64694802
_cell_formula_units_Z   1
loop_
 _symmetry_equiv_pos_site_id
 _symmetry_equiv_pos_as_xyz
  1  'x, y, z'
loop_
 _atom_site_type_symbol
 _atom_site_label
 _atom_site_symmetry_multiplicity
 _atom_site_fract_x
 _atom_site_fract_y
 _atom_site_fract_z
 _atom_site_occupancy
  Er  Er0  1  0.628091  0.038415  0.250000  1
  Er  Er1  1  0.129931  0.458193  0.750000  1
  Er  Er2  1  0.371124  0.960139  0.750000  1
  Lu  Lu3  1  0.332218  0.675126  0.064100  1
  Lu  Lu4  1  0.165169  0.176003  0.436312  1
  Lu  Lu5  1  0.664379  0.327142  0.561269  1
  Lu  Lu6  1  0.837448  0.824086  0.938351  1
  Lu  Lu7  1  0.664379  0.327142  0.938731  1
  Lu  Lu8  1  0.837448  0.824086  0.561649  1
  Lu  Lu9  1  0.332218  0.675126  0.435900  1
  Lu  Lu10  1  0.165169  0.176003  0.063688  1
  Lu  Lu11  1  0.872046  0.538628  0.250000  1
  Os  Os12  1  0.040263  0.881900  0.250000  1
  Os  Os13  1  0.461646  0.383767  0.250000  1
  Ru  Ru14  1  0.958244  0.116781  0.750000  1
  Ru  Ru15  1  0.540227  0.617463  0.750000  1
