# generated using pymatgen
data_YbCe3TmIr3
_symmetry_space_group_name_H-M   'P 1'
_cell_length_a   8.19801300
_cell_length_b   8.19801280
_cell_length_c   6.47358800
_cell_angle_alpha   90.00000000
_cell_angle_beta   90.00000000
_cell_angle_gamma   120.00000484
_symmetry_Int_Tables_number   1
_chemical_formula_structural   YbCe3TmIr3
_chemical_formula_sum   'Yb2 Ce6 Tm2 Ir6'
_cell_volume   376.78435484
_cell_formula_units_Z   2
loop_
 _symmetry_equiv_pos_site_id
 _symmetry_equiv_pos_as_xyz
  1  'x, y, z'
loop_
 _atom_site_type_symbol
 _atom_site_label
 _atom_site_symmetry_multiplicity
 _atom_site_fract_x
 _atom_site_fract_y
 _atom_site_fract_z
 _atom_site_occupancy
  Yb  Yb0  1  0.333333  0.666667  0.000000  1
  Yb  Yb1  1  0.666667  0.333333  0.000000  1
  Ce  Ce2  1  0.742798  0.742798  0.246885  1
  Ce  Ce3  1  0.257202  0.000000  0.246885  1
  Ce  Ce4  1  0.000000  0.257202  0.246885  1
  Ce  Ce5  1  0.257202  0.257202  0.753115  1
  Ce  Ce6  1  0.742798  0.000000  0.753115  1
  Ce  Ce7  1  0.000000  0.742798  0.753115  1
  Tm  Tm8  1  0.666667  0.333333  0.500000  1
  Tm  Tm9  1  0.333333  0.666667  0.500000  1
  Ir  Ir10  1  0.379146  0.379146  0.268290  1
  Ir  Ir11  1  0.620854  0.000000  0.268290  1
  Ir  Ir12  1  0.000000  0.620854  0.268290  1
  Ir  Ir13  1  0.620854  0.620854  0.731710  1
  Ir  Ir14  1  0.379146  0.000000  0.731710  1
  Ir  Ir15  1  0.000000  0.379146  0.731710  1
