# generated using pymatgen
data_TbPr6ErO12
_symmetry_space_group_name_H-M   'P 1'
_cell_length_a   7.01929168
_cell_length_b   7.01929092
_cell_length_c   7.01929143
_cell_angle_alpha   92.09297198
_cell_angle_beta   92.09296372
_cell_angle_gamma   92.09296732
_symmetry_Int_Tables_number   1
_chemical_formula_structural   TbPr6ErO12
_chemical_formula_sum   'Tb1 Pr6 Er1 O12'
_cell_volume   345.13415263
_cell_formula_units_Z   1
loop_
 _symmetry_equiv_pos_site_id
 _symmetry_equiv_pos_as_xyz
  1  'x, y, z'
loop_
 _atom_site_type_symbol
 _atom_site_label
 _atom_site_symmetry_multiplicity
 _atom_site_fract_x
 _atom_site_fract_y
 _atom_site_fract_z
 _atom_site_occupancy
  Tb  Tb0  1  0.000000  0.000000  0.000000  1
  Pr  Pr1  1  0.746170  0.935089  0.442251  1
  Pr  Pr2  1  0.442251  0.746170  0.935089  1
  Pr  Pr3  1  0.064911  0.557749  0.253830  1
  Pr  Pr4  1  0.935089  0.442251  0.746170  1
  Pr  Pr5  1  0.557749  0.253830  0.064911  1
  Pr  Pr6  1  0.253830  0.064911  0.557749  1
  Er  Er7  1  0.500000  0.500000  0.500000  1
  O  O8  1  0.065503  0.909822  0.309829  1
  O  O9  1  0.690171  0.934497  0.090178  1
  O  O10  1  0.465796  0.806576  0.594964  1
  O  O11  1  0.090178  0.690171  0.934497  1
  O  O12  1  0.806576  0.594964  0.465796  1
  O  O13  1  0.405036  0.534204  0.193424  1
  O  O14  1  0.594964  0.465796  0.806576  1
  O  O15  1  0.193424  0.405036  0.534204  1
  O  O16  1  0.909822  0.309829  0.065503  1
  O  O17  1  0.534204  0.193424  0.405036  1
  O  O18  1  0.309829  0.065503  0.909822  1
  O  O19  1  0.934497  0.090178  0.690171  1
