# generated using pymatgen
data_CsKSr4(ReN4)2
_symmetry_space_group_name_H-M   'P 1'
_cell_length_a   6.22781200
_cell_length_b   6.47560744
_cell_length_c   8.30499010
_cell_angle_alpha   81.32485340
_cell_angle_beta   90.00000000
_cell_angle_gamma   90.00000000
_symmetry_Int_Tables_number   1
_chemical_formula_structural   CsKSr4(ReN4)2
_chemical_formula_sum   'Cs1 K1 Sr4 Re2 N8'
_cell_volume   331.09902320
_cell_formula_units_Z   1
loop_
 _symmetry_equiv_pos_site_id
 _symmetry_equiv_pos_as_xyz
  1  'x, y, z'
loop_
 _atom_site_type_symbol
 _atom_site_label
 _atom_site_symmetry_multiplicity
 _atom_site_fract_x
 _atom_site_fract_y
 _atom_site_fract_z
 _atom_site_occupancy
  Cs  Cs0  1  0.750000  0.154499  0.332162  1
  K  K1  1  0.250000  0.853209  0.684705  1
  Sr  Sr2  1  0.250000  0.246243  0.947493  1
  Sr  Sr3  1  0.750000  0.753512  0.049043  1
  Sr  Sr4  1  0.750000  0.632397  0.546764  1
  Sr  Sr5  1  0.250000  0.367836  0.452858  1
  Re  Re6  1  0.250000  0.823467  0.223614  1
  Re  Re7  1  0.750000  0.174698  0.773068  1
  N  N8  1  0.511269  0.323754  0.688320  1
  N  N9  1  0.011818  0.676232  0.310781  1
  N  N10  1  0.488182  0.676232  0.310781  1
  N  N11  1  0.988731  0.323754  0.688320  1
  N  N12  1  0.750000  0.904275  0.729782  1
  N  N13  1  0.250000  0.093231  0.266893  1
  N  N14  1  0.750000  0.157419  0.992831  1
  N  N15  1  0.250000  0.839244  0.002584  1
