# generated using pymatgen
data_Gd4Y(GaSb)2
_symmetry_space_group_name_H-M   'P 1'
_cell_length_a   8.68368800
_cell_length_b   8.68368767
_cell_length_c   7.95653500
_cell_angle_alpha   90.00000000
_cell_angle_beta   90.00000000
_cell_angle_gamma   125.43719677
_symmetry_Int_Tables_number   1
_chemical_formula_structural   Gd4Y(GaSb)2
_chemical_formula_sum   'Gd8 Y2 Ga4 Sb4'
_cell_volume   488.82969399
_cell_formula_units_Z   2
loop_
 _symmetry_equiv_pos_site_id
 _symmetry_equiv_pos_as_xyz
  1  'x, y, z'
loop_
 _atom_site_type_symbol
 _atom_site_label
 _atom_site_symmetry_multiplicity
 _atom_site_fract_x
 _atom_site_fract_y
 _atom_site_fract_z
 _atom_site_occupancy
  Gd  Gd0  1  0.038027  0.301863  0.331324  1
  Gd  Gd1  1  0.961973  0.698137  0.668676  1
  Gd  Gd2  1  0.461973  0.198137  0.831324  1
  Gd  Gd3  1  0.801863  0.538027  0.168676  1
  Gd  Gd4  1  0.538027  0.801863  0.168676  1
  Gd  Gd5  1  0.198137  0.461973  0.831324  1
  Gd  Gd6  1  0.698137  0.961973  0.668676  1
  Gd  Gd7  1  0.301863  0.038027  0.331324  1
  Y  Y8  1  0.000000  0.000000  0.000000  1
  Y  Y9  1  0.500000  0.500000  0.500000  1
  Ga  Ga10  1  0.376489  0.376489  0.123735  1
  Ga  Ga11  1  0.623511  0.623511  0.876265  1
  Ga  Ga12  1  0.123511  0.123511  0.623735  1
  Ga  Ga13  1  0.876489  0.876489  0.376265  1
  Sb  Sb14  1  0.795142  0.204858  0.000000  1
  Sb  Sb15  1  0.204858  0.795142  0.000000  1
  Sb  Sb16  1  0.704858  0.295142  0.500000  1
  Sb  Sb17  1  0.295142  0.704858  0.500000  1
