# generated using pymatgen
data_Nd3Ho2(In2Pd)2
_symmetry_space_group_name_H-M   'P 1'
_cell_length_a   3.72856300
_cell_length_b   8.29965000
_cell_length_c   18.46855300
_cell_angle_alpha   90.00000000
_cell_angle_beta   90.00000000
_cell_angle_gamma   90.00000000
_symmetry_Int_Tables_number   1
_chemical_formula_structural   Nd3Ho2(In2Pd)2
_chemical_formula_sum   'Nd6 Ho4 In8 Pd4'
_cell_volume   571.52355464
_cell_formula_units_Z   2
loop_
 _symmetry_equiv_pos_site_id
 _symmetry_equiv_pos_as_xyz
  1  'x, y, z'
loop_
 _atom_site_type_symbol
 _atom_site_label
 _atom_site_symmetry_multiplicity
 _atom_site_fract_x
 _atom_site_fract_y
 _atom_site_fract_z
 _atom_site_occupancy
  Nd  Nd0  1  0.000000  0.500000  0.500000  1
  Nd  Nd1  1  0.000000  0.000000  0.000000  1
  Nd  Nd2  1  0.000000  0.736822  0.284473  1
  Nd  Nd3  1  0.000000  0.263178  0.715527  1
  Nd  Nd4  1  0.000000  0.763178  0.784473  1
  Nd  Nd5  1  0.000000  0.236822  0.215527  1
  Ho  Ho6  1  0.000000  0.617774  0.084907  1
  Ho  Ho7  1  0.000000  0.382226  0.915093  1
  Ho  Ho8  1  0.000000  0.882226  0.584907  1
  Ho  Ho9  1  0.000000  0.117774  0.415093  1
  In  In10  1  0.500000  0.697452  0.936349  1
  In  In11  1  0.500000  0.302548  0.063651  1
  In  In12  1  0.500000  0.802548  0.436349  1
  In  In13  1  0.500000  0.197452  0.563651  1
  In  In14  1  0.500000  0.588818  0.651746  1
  In  In15  1  0.500000  0.411182  0.348254  1
  In  In16  1  0.500000  0.911182  0.151746  1
  In  In17  1  0.500000  0.088818  0.848254  1
  Pd  Pd18  1  0.500000  0.524863  0.193300  1
  Pd  Pd19  1  0.500000  0.475137  0.806700  1
  Pd  Pd20  1  0.500000  0.975137  0.693300  1
  Pd  Pd21  1  0.500000  0.024863  0.306700  1
