# generated using pymatgen
data_Tm2Lu10Co3Tc
_symmetry_space_group_name_H-M   'P 1'
_cell_length_a   6.14914914
_cell_length_b   6.98384328
_cell_length_c   8.94229500
_cell_angle_alpha   90.00000000
_cell_angle_beta   90.00000000
_cell_angle_gamma   90.08124466
_symmetry_Int_Tables_number   1
_chemical_formula_structural   Tm2Lu10Co3Tc
_chemical_formula_sum   'Tm2 Lu10 Co3 Tc1'
_cell_volume   384.02373525
_cell_formula_units_Z   1
loop_
 _symmetry_equiv_pos_site_id
 _symmetry_equiv_pos_as_xyz
  1  'x, y, z'
loop_
 _atom_site_type_symbol
 _atom_site_label
 _atom_site_symmetry_multiplicity
 _atom_site_fract_x
 _atom_site_fract_y
 _atom_site_fract_z
 _atom_site_occupancy
  Tm  Tm0  1  0.135020  0.458270  0.750000  1
  Tm  Tm1  1  0.365770  0.954434  0.750000  1
  Lu  Lu2  1  0.326170  0.673181  0.064754  1
  Lu  Lu3  1  0.175707  0.180942  0.436757  1
  Lu  Lu4  1  0.676720  0.322355  0.566432  1
  Lu  Lu5  1  0.830060  0.826425  0.937031  1
  Lu  Lu6  1  0.676720  0.322355  0.933568  1
  Lu  Lu7  1  0.830060  0.826425  0.562969  1
  Lu  Lu8  1  0.326170  0.673181  0.435246  1
  Lu  Lu9  1  0.175707  0.180942  0.063243  1
  Lu  Lu10  1  0.861919  0.535290  0.250000  1
  Lu  Lu11  1  0.620361  0.044056  0.250000  1
  Co  Co12  1  0.461370  0.387163  0.250000  1
  Co  Co13  1  0.963612  0.114542  0.750000  1
  Co  Co14  1  0.541034  0.610508  0.750000  1
  Tc  Tc15  1  0.033600  0.889933  0.250000  1
