# generated using pymatgen
data_Ho7(ErBi2)3
_symmetry_space_group_name_H-M   'P 1'
_cell_length_a   8.22150600
_cell_length_b   9.49309700
_cell_length_c   11.99329700
_cell_angle_alpha   90.00082126
_cell_angle_beta   90.00000000
_cell_angle_gamma   90.00000000
_symmetry_Int_Tables_number   1
_chemical_formula_structural   Ho7(ErBi2)3
_chemical_formula_sum   'Ho14 Er6 Bi12'
_cell_volume   936.04749453
_cell_formula_units_Z   2
loop_
 _symmetry_equiv_pos_site_id
 _symmetry_equiv_pos_as_xyz
  1  'x, y, z'
loop_
 _atom_site_type_symbol
 _atom_site_label
 _atom_site_symmetry_multiplicity
 _atom_site_fract_x
 _atom_site_fract_y
 _atom_site_fract_z
 _atom_site_occupancy
  Ho  Ho0  1  0.353669  0.750019  0.216303  1
  Ho  Ho1  1  0.853669  0.749981  0.283697  1
  Ho  Ho2  1  0.646381  0.249988  0.783695  1
  Ho  Ho3  1  0.146381  0.250012  0.716305  1
  Ho  Ho4  1  0.691958  0.935735  0.058987  1
  Ho  Ho5  1  0.191958  0.564265  0.441013  1
  Ho  Ho6  1  0.476794  0.249967  0.488941  1
  Ho  Ho7  1  0.976794  0.250033  0.011059  1
  Ho  Ho8  1  0.523325  0.750050  0.511093  1
  Ho  Ho9  1  0.023325  0.749950  0.988907  1
  Ho  Ho10  1  0.314492  0.250001  0.218081  1
  Ho  Ho11  1  0.814492  0.249999  0.281919  1
  Ho  Ho12  1  0.685535  0.749969  0.781895  1
  Ho  Ho13  1  0.185535  0.750031  0.718105  1
  Er  Er14  1  0.691911  0.564361  0.059001  1
  Er  Er15  1  0.191911  0.935639  0.440999  1
  Er  Er16  1  0.308062  0.064463  0.941004  1
  Er  Er17  1  0.808062  0.435537  0.558996  1
  Er  Er18  1  0.308014  0.435543  0.940987  1
  Er  Er19  1  0.808014  0.064457  0.559013  1
  Bi  Bi20  1  0.405414  0.749906  0.957446  1
  Bi  Bi21  1  0.905414  0.750094  0.542554  1
  Bi  Bi22  1  0.594443  0.250262  0.042487  1
  Bi  Bi23  1  0.094443  0.249738  0.457513  1
  Bi  Bi24  1  0.566031  0.996199  0.325735  1
  Bi  Bi25  1  0.066031  0.503801  0.174265  1
  Bi  Bi26  1  0.433937  0.496197  0.674323  1
  Bi  Bi27  1  0.933937  0.003803  0.825677  1
  Bi  Bi28  1  0.433935  0.003814  0.674291  1
  Bi  Bi29  1  0.933935  0.496186  0.825709  1
  Bi  Bi30  1  0.566099  0.503802  0.325695  1
  Bi  Bi31  1  0.066099  0.996198  0.174305  1
