# generated using pymatgen
data_Dy6Tl(P3Rh5)4
_symmetry_space_group_name_H-M   'P 1'
_cell_length_a   13.49336700
_cell_length_b   13.49336623
_cell_length_c   3.89900500
_cell_angle_alpha   90.00000000
_cell_angle_beta   90.00000000
_cell_angle_gamma   119.99999944
_symmetry_Int_Tables_number   1
_chemical_formula_structural   Dy6Tl(P3Rh5)4
_chemical_formula_sum   'Dy6 Tl1 P12 Rh20'
_cell_volume   614.78755380
_cell_formula_units_Z   1
loop_
 _symmetry_equiv_pos_site_id
 _symmetry_equiv_pos_as_xyz
  1  'x, y, z'
loop_
 _atom_site_type_symbol
 _atom_site_label
 _atom_site_symmetry_multiplicity
 _atom_site_fract_x
 _atom_site_fract_y
 _atom_site_fract_z
 _atom_site_occupancy
  Dy  Dy0  1  0.530077  0.716603  0.253785  1
  Dy  Dy1  1  0.283397  0.813473  0.253785  1
  Dy  Dy2  1  0.186527  0.469923  0.253785  1
  Dy  Dy3  1  0.469923  0.283397  0.746215  1
  Dy  Dy4  1  0.716603  0.186527  0.746215  1
  Dy  Dy5  1  0.813473  0.530077  0.746215  1
  Tl  Tl6  1  0.000000  0.000000  0.000000  1
  P  P7  1  0.527961  0.138785  0.248601  1
  P  P8  1  0.861215  0.389177  0.248601  1
  P  P9  1  0.610823  0.472039  0.248601  1
  P  P10  1  0.949495  0.716590  0.241759  1
  P  P11  1  0.283410  0.232905  0.241759  1
  P  P12  1  0.767095  0.050505  0.241759  1
  P  P13  1  0.389177  0.527961  0.751399  1
  P  P14  1  0.472039  0.861215  0.751399  1
  P  P15  1  0.138785  0.610823  0.751399  1
  P  P16  1  0.716590  0.767095  0.758241  1
  P  P17  1  0.232905  0.949495  0.758241  1
  P  P18  1  0.050505  0.283410  0.758241  1
  Rh  Rh19  1  0.333333  0.666667  0.753391  1
  Rh  Rh20  1  0.917435  0.253393  0.240797  1
  Rh  Rh21  1  0.746607  0.664041  0.240797  1
  Rh  Rh22  1  0.335959  0.082565  0.240797  1
  Rh  Rh23  1  0.443303  0.026743  0.747608  1
  Rh  Rh24  1  0.973257  0.416560  0.747608  1
  Rh  Rh25  1  0.583440  0.556697  0.747608  1
  Rh  Rh26  1  0.666667  0.333333  0.246609  1
  Rh  Rh27  1  0.099175  0.211551  0.269930  1
  Rh  Rh28  1  0.788449  0.887624  0.269930  1
  Rh  Rh29  1  0.112376  0.900825  0.269930  1
  Rh  Rh30  1  0.026743  0.583440  0.252392  1
  Rh  Rh31  1  0.416560  0.443303  0.252392  1
  Rh  Rh32  1  0.556697  0.973257  0.252392  1
  Rh  Rh33  1  0.664041  0.917435  0.759203  1
  Rh  Rh34  1  0.082565  0.746607  0.759203  1
  Rh  Rh35  1  0.253393  0.335959  0.759203  1
  Rh  Rh36  1  0.900825  0.788449  0.730070  1
  Rh  Rh37  1  0.211551  0.112376  0.730070  1
  Rh  Rh38  1  0.887624  0.099175  0.730070  1
