# generated using pymatgen
data_Ho5(RhO6)2
_symmetry_space_group_name_H-M   'P 1'
_cell_length_a   6.82552713
_cell_length_b   6.82552674
_cell_length_c   7.24690901
_cell_angle_alpha   74.51543310
_cell_angle_beta   74.51543770
_cell_angle_gamma   51.27042614
_symmetry_Int_Tables_number   1
_chemical_formula_structural   Ho5(RhO6)2
_chemical_formula_sum   'Ho5 Rh2 O12'
_cell_volume   251.56518021
_cell_formula_units_Z   1
loop_
 _symmetry_equiv_pos_site_id
 _symmetry_equiv_pos_as_xyz
  1  'x, y, z'
loop_
 _atom_site_type_symbol
 _atom_site_label
 _atom_site_symmetry_multiplicity
 _atom_site_fract_x
 _atom_site_fract_y
 _atom_site_fract_z
 _atom_site_occupancy
  Ho  Ho0  1  0.301907  0.301907  0.360276  1
  Ho  Ho1  1  0.698093  0.698093  0.639724  1
  Ho  Ho2  1  0.309311  0.309311  0.829079  1
  Ho  Ho3  1  0.690689  0.690689  0.170921  1
  Ho  Ho4  1  0.000000  0.000000  0.500000  1
  Rh  Rh5  1  0.753041  0.246959  0.000000  1
  Rh  Rh6  1  0.246959  0.753041  0.000000  1
  O  O7  1  0.901692  0.432279  0.914752  1
  O  O8  1  0.432279  0.901692  0.914752  1
  O  O9  1  0.098308  0.567721  0.085248  1
  O  O10  1  0.567721  0.098308  0.085248  1
  O  O11  1  0.096981  0.598215  0.573518  1
  O  O12  1  0.598215  0.096981  0.573518  1
  O  O13  1  0.903019  0.401785  0.426482  1
  O  O14  1  0.401785  0.903019  0.426482  1
  O  O15  1  0.999796  0.999796  0.815990  1
  O  O16  1  0.000204  0.000204  0.184010  1
  O  O17  1  0.500218  0.500218  0.808440  1
  O  O18  1  0.499782  0.499782  0.191560  1
