# generated using pymatgen
data_Tb2Sm3(RhO6)2
_symmetry_space_group_name_H-M   'P 1'
_cell_length_a   6.94951213
_cell_length_b   6.94951212
_cell_length_c   7.40506300
_cell_angle_alpha   74.19913354
_cell_angle_beta   74.19913356
_cell_angle_gamma   51.13317402
_symmetry_Int_Tables_number   1
_chemical_formula_structural   Tb2Sm3(RhO6)2
_chemical_formula_sum   'Tb2 Sm3 Rh2 O12'
_cell_volume   265.46680239
_cell_formula_units_Z   1
loop_
 _symmetry_equiv_pos_site_id
 _symmetry_equiv_pos_as_xyz
  1  'x, y, z'
loop_
 _atom_site_type_symbol
 _atom_site_label
 _atom_site_symmetry_multiplicity
 _atom_site_fract_x
 _atom_site_fract_y
 _atom_site_fract_z
 _atom_site_occupancy
  Tb  Tb0  1  0.802965  0.802965  0.360483  1
  Tb  Tb1  1  0.197035  0.197035  0.639517  1
  Sm  Sm2  1  0.500000  0.500000  0.500000  1
  Sm  Sm3  1  0.191768  0.191768  0.170389  1
  Sm  Sm4  1  0.808232  0.808232  0.829611  1
  Rh  Rh5  1  0.746986  0.253014  0.000000  1
  Rh  Rh6  1  0.253014  0.746986  0.000000  1
  O  O7  1  0.998592  0.998592  0.186770  1
  O  O8  1  0.001408  0.001408  0.813230  1
  O  O9  1  0.498662  0.498662  0.822430  1
  O  O10  1  0.501338  0.501338  0.177570  1
  O  O11  1  0.594610  0.096489  0.571228  1
  O  O12  1  0.903511  0.405390  0.428772  1
  O  O13  1  0.405390  0.903511  0.428772  1
  O  O14  1  0.398398  0.930209  0.913906  1
  O  O15  1  0.069791  0.601602  0.086094  1
  O  O16  1  0.601602  0.069791  0.086094  1
  O  O17  1  0.930209  0.398398  0.913906  1
  O  O18  1  0.096489  0.594610  0.571228  1
