# generated using pymatgen
data_AlNi2AsPt3
_symmetry_space_group_name_H-M   'P 1'
_cell_length_a   4.05174500
_cell_length_b   3.61910000
_cell_length_c   6.91740800
_cell_angle_alpha   90.00000000
_cell_angle_beta   90.00000000
_cell_angle_gamma   90.00000000
_symmetry_Int_Tables_number   1
_chemical_formula_structural   AlNi2AsPt3
_chemical_formula_sum   'Al1 Ni2 As1 Pt3'
_cell_volume   101.43459045
_cell_formula_units_Z   1
loop_
 _symmetry_equiv_pos_site_id
 _symmetry_equiv_pos_as_xyz
  1  'x, y, z'
loop_
 _atom_site_type_symbol
 _atom_site_label
 _atom_site_symmetry_multiplicity
 _atom_site_fract_x
 _atom_site_fract_y
 _atom_site_fract_z
 _atom_site_occupancy
  Al  Al0  1  0.500000  0.500000  0.000000  1
  Ni  Ni1  1  0.000000  0.500000  0.285920  1
  Ni  Ni2  1  0.000000  0.500000  0.714080  1
  As  As3  1  0.000000  0.000000  0.500000  1
  Pt  Pt4  1  0.500000  0.000000  0.273352  1
  Pt  Pt5  1  0.500000  0.000000  0.726648  1
  Pt  Pt6  1  0.000000  0.000000  0.000000  1
