# generated using pymatgen
data_Sm2Ga5PdPt2
_symmetry_space_group_name_H-M   'P 1'
_cell_length_a   8.66688216
_cell_length_b   8.66688258
_cell_length_c   8.66688178
_cell_angle_alpha   140.29932812
_cell_angle_beta   107.25483782
_cell_angle_gamma   86.21490821
_symmetry_Int_Tables_number   1
_chemical_formula_structural   Sm2Ga5PdPt2
_chemical_formula_sum   'Sm4 Ga10 Pd2 Pt4'
_cell_volume   382.83940533
_cell_formula_units_Z   2
loop_
 _symmetry_equiv_pos_site_id
 _symmetry_equiv_pos_as_xyz
  1  'x, y, z'
loop_
 _atom_site_type_symbol
 _atom_site_label
 _atom_site_symmetry_multiplicity
 _atom_site_fract_x
 _atom_site_fract_y
 _atom_site_fract_z
 _atom_site_occupancy
  Sm  Sm0  1  0.637187  0.861244  0.775943  1
  Sm  Sm1  1  0.362813  0.138756  0.224057  1
  Sm  Sm2  1  0.085301  0.361244  0.724057  1
  Sm  Sm3  1  0.914699  0.638756  0.275943  1
  Ga  Ga4  1  0.288761  0.038761  0.750000  1
  Ga  Ga5  1  0.711239  0.961239  0.250000  1
  Ga  Ga6  1  0.711239  0.461239  0.750000  1
  Ga  Ga7  1  0.288761  0.538761  0.250000  1
  Ga  Ga8  1  0.432717  0.596433  0.836284  1
  Ga  Ga9  1  0.567283  0.403567  0.163716  1
  Ga  Ga10  1  0.760149  0.096433  0.663716  1
  Ga  Ga11  1  0.239851  0.903567  0.336284  1
  Ga  Ga12  1  0.000000  0.750000  0.750000  1
  Ga  Ga13  1  0.000000  0.250000  0.250000  1
  Pd  Pd14  1  0.500000  0.750000  0.250000  1
  Pd  Pd15  1  0.500000  0.250000  0.750000  1
  Pt  Pt16  1  0.246791  0.644704  0.602088  1
  Pt  Pt17  1  0.753209  0.355296  0.397912  1
  Pt  Pt18  1  0.042615  0.144704  0.897912  1
  Pt  Pt19  1  0.957385  0.855296  0.102088  1
