# generated using pymatgen
data_Eu(Al5Ru)2
_symmetry_space_group_name_H-M   'P 1'
_cell_length_a   6.91269256
_cell_length_b   6.91269244
_cell_length_c   9.18738300
_cell_angle_alpha   90.00000000
_cell_angle_beta   90.00000000
_cell_angle_gamma   96.88354815
_symmetry_Int_Tables_number   1
_chemical_formula_structural   Eu(Al5Ru)2
_chemical_formula_sum   'Eu2 Al20 Ru4'
_cell_volume   435.85745496
_cell_formula_units_Z   2
loop_
 _symmetry_equiv_pos_site_id
 _symmetry_equiv_pos_as_xyz
  1  'x, y, z'
loop_
 _atom_site_type_symbol
 _atom_site_label
 _atom_site_symmetry_multiplicity
 _atom_site_fract_x
 _atom_site_fract_y
 _atom_site_fract_z
 _atom_site_occupancy
  Eu  Eu0  1  0.878936  0.121064  0.750000  1
  Eu  Eu1  1  0.121064  0.878936  0.250000  1
  Al  Al2  1  0.774447  0.774447  0.000000  1
  Al  Al3  1  0.774447  0.774447  0.500000  1
  Al  Al4  1  0.225553  0.225553  0.000000  1
  Al  Al5  1  0.225553  0.225553  0.500000  1
  Al  Al6  1  0.623396  0.376604  0.952246  1
  Al  Al7  1  0.376604  0.623396  0.047754  1
  Al  Al8  1  0.623396  0.376604  0.547754  1
  Al  Al9  1  0.376604  0.623396  0.452246  1
  Al  Al10  1  0.840958  0.159042  0.400431  1
  Al  Al11  1  0.159042  0.840958  0.599569  1
  Al  Al12  1  0.840958  0.159042  0.099569  1
  Al  Al13  1  0.159042  0.840958  0.900431  1
  Al  Al14  1  0.412913  0.138714  0.750000  1
  Al  Al15  1  0.138714  0.412913  0.250000  1
  Al  Al16  1  0.587087  0.861286  0.250000  1
  Al  Al17  1  0.861286  0.587087  0.750000  1
  Al  Al18  1  0.522171  0.779614  0.750000  1
  Al  Al19  1  0.779614  0.522171  0.250000  1
  Al  Al20  1  0.477829  0.220386  0.250000  1
  Al  Al21  1  0.220386  0.477829  0.750000  1
  Ru  Ru22  1  0.500000  0.000000  0.000000  1
  Ru  Ru23  1  0.000000  0.500000  0.000000  1
  Ru  Ru24  1  0.500000  0.000000  0.500000  1
  Ru  Ru25  1  0.000000  0.500000  0.500000  1
