# generated using pymatgen
data_SrYb3(Si3Pd5)4
_symmetry_space_group_name_H-M   'P 1'
_cell_length_a   4.03058300
_cell_length_b   19.86137104
_cell_length_c   7.30472202
_cell_angle_alpha   89.99243244
_cell_angle_beta   90.00000000
_cell_angle_gamma   90.00000000
_symmetry_Int_Tables_number   1
_chemical_formula_structural   SrYb3(Si3Pd5)4
_chemical_formula_sum   'Sr1 Yb3 Si12 Pd20'
_cell_volume   584.76420872
_cell_formula_units_Z   1
loop_
 _symmetry_equiv_pos_site_id
 _symmetry_equiv_pos_as_xyz
  1  'x, y, z'
loop_
 _atom_site_type_symbol
 _atom_site_label
 _atom_site_symmetry_multiplicity
 _atom_site_fract_x
 _atom_site_fract_y
 _atom_site_fract_z
 _atom_site_occupancy
  Sr  Sr0  1  0.750000  0.642376  0.123143  1
  Yb  Yb1  1  0.250000  0.356133  0.879640  1
  Yb  Yb2  1  0.250000  0.857650  0.621299  1
  Yb  Yb3  1  0.750000  0.143123  0.378494  1
  Si  Si4  1  0.750000  0.740194  0.627992  1
  Si  Si5  1  0.250000  0.259905  0.371050  1
  Si  Si6  1  0.250000  0.763597  0.127468  1
  Si  Si7  1  0.750000  0.239300  0.871574  1
  Si  Si8  1  0.750000  0.924743  0.349035  1
  Si  Si9  1  0.250000  0.076758  0.651484  1
  Si  Si10  1  0.250000  0.574898  0.842779  1
  Si  Si11  1  0.750000  0.423195  0.151251  1
  Si  Si12  1  0.750000  0.917142  0.906702  1
  Si  Si13  1  0.250000  0.084304  0.092751  1
  Si  Si14  1  0.250000  0.582965  0.417928  1
  Si  Si15  1  0.750000  0.413862  0.592750  1
  Pd  Pd16  1  0.750000  0.801777  0.329309  1
  Pd  Pd17  1  0.250000  0.199790  0.671768  1
  Pd  Pd18  1  0.250000  0.702023  0.822398  1
  Pd  Pd19  1  0.750000  0.299713  0.171133  1
  Pd  Pd20  1  0.750000  0.993104  0.625914  1
  Pd  Pd21  1  0.250000  0.007872  0.374508  1
  Pd  Pd22  1  0.250000  0.504794  0.126107  1
  Pd  Pd23  1  0.750000  0.491711  0.872744  1
  Pd  Pd24  1  0.750000  0.510961  0.380773  1
  Pd  Pd25  1  0.250000  0.484057  0.623693  1
  Pd  Pd26  1  0.250000  0.987467  0.876743  1
  Pd  Pd27  1  0.750000  0.013468  0.122792  1
  Pd  Pd28  1  0.750000  0.798209  0.929742  1
  Pd  Pd29  1  0.250000  0.203495  0.068452  1
  Pd  Pd30  1  0.250000  0.705144  0.433144  1
  Pd  Pd31  1  0.750000  0.295260  0.568033  1
  Pd  Pd32  1  0.750000  0.617042  0.641549  1
  Pd  Pd33  1  0.250000  0.382153  0.355260  1
  Pd  Pd34  1  0.250000  0.884970  0.144883  1
  Pd  Pd35  1  0.750000  0.116842  0.855717  1
