# generated using pymatgen
data_DyZnCdCu2Pt
_symmetry_space_group_name_H-M   'P 1'
_cell_length_a   5.25837299
_cell_length_b   5.25837398
_cell_length_c   5.23161488
_cell_angle_alpha   59.04717972
_cell_angle_beta   59.04717237
_cell_angle_gamma   59.27944781
_symmetry_Int_Tables_number   1
_chemical_formula_structural   DyZnCdCu2Pt
_chemical_formula_sum   'Dy1 Zn1 Cd1 Cu2 Pt1'
_cell_volume   100.24560215
_cell_formula_units_Z   1
loop_
 _symmetry_equiv_pos_site_id
 _symmetry_equiv_pos_as_xyz
  1  'x, y, z'
loop_
 _atom_site_type_symbol
 _atom_site_label
 _atom_site_symmetry_multiplicity
 _atom_site_fract_x
 _atom_site_fract_y
 _atom_site_fract_z
 _atom_site_occupancy
  Dy  Dy0  1  0.999799  0.999799  0.994990  1
  Zn  Zn1  1  0.624741  0.624741  0.128571  1
  Cd  Cd2  1  0.248868  0.248868  0.247176  1
  Cu  Cu3  1  0.624391  0.127050  0.626646  1
  Cu  Cu4  1  0.127050  0.624391  0.626646  1
  Pt  Pt5  1  0.625149  0.625149  0.625972  1
