# generated using pymatgen
data_Pa2Al9ReRh2
_symmetry_space_group_name_H-M   'P 1'
_cell_length_a   7.59983195
_cell_length_b   7.59983269
_cell_length_c   9.29876500
_cell_angle_alpha   90.00000000
_cell_angle_beta   90.00000000
_cell_angle_gamma   117.92444730
_symmetry_Int_Tables_number   1
_chemical_formula_structural   Pa2Al9ReRh2
_chemical_formula_sum   'Pa4 Al18 Re2 Rh4'
_cell_volume   474.53935377
_cell_formula_units_Z   2
loop_
 _symmetry_equiv_pos_site_id
 _symmetry_equiv_pos_as_xyz
  1  'x, y, z'
loop_
 _atom_site_type_symbol
 _atom_site_label
 _atom_site_symmetry_multiplicity
 _atom_site_fract_x
 _atom_site_fract_y
 _atom_site_fract_z
 _atom_site_occupancy
  Pa  Pa0  1  0.995499  0.701487  0.750000  1
  Pa  Pa1  1  0.004501  0.298513  0.250000  1
  Pa  Pa2  1  0.701487  0.995499  0.750000  1
  Pa  Pa3  1  0.298513  0.004501  0.250000  1
  Al  Al4  1  0.152805  0.152805  0.750000  1
  Al  Al5  1  0.847195  0.847195  0.250000  1
  Al  Al6  1  0.006434  0.349031  0.581897  1
  Al  Al7  1  0.993566  0.650969  0.418103  1
  Al  Al8  1  0.993566  0.650969  0.081897  1
  Al  Al9  1  0.349031  0.006434  0.918103  1
  Al  Al10  1  0.006434  0.349031  0.918103  1
  Al  Al11  1  0.650969  0.993566  0.081897  1
  Al  Al12  1  0.650969  0.993566  0.418103  1
  Al  Al13  1  0.349031  0.006434  0.581897  1
  Al  Al14  1  0.336564  0.336564  0.041526  1
  Al  Al15  1  0.663436  0.663436  0.958474  1
  Al  Al16  1  0.663436  0.663436  0.541526  1
  Al  Al17  1  0.336564  0.336564  0.458474  1
  Al  Al18  1  0.350214  0.565990  0.750000  1
  Al  Al19  1  0.649786  0.434010  0.250000  1
  Al  Al20  1  0.565990  0.350214  0.750000  1
  Al  Al21  1  0.434010  0.649786  0.250000  1
  Re  Re22  1  0.000000  0.000000  0.500000  1
  Re  Re23  1  0.000000  0.000000  0.000000  1
  Rh  Rh24  1  0.673827  0.326173  0.500000  1
  Rh  Rh25  1  0.326173  0.673827  0.500000  1
  Rh  Rh26  1  0.326173  0.673827  0.000000  1
  Rh  Rh27  1  0.673827  0.326173  0.000000  1
