# generated using pymatgen
data_Sm3Dy2Co14P12Ru5
_symmetry_space_group_name_H-M   'P 1'
_cell_length_a   12.12896820
_cell_length_b   12.14882391
_cell_length_c   3.75986600
_cell_angle_alpha   90.00000000
_cell_angle_beta   90.00000000
_cell_angle_gamma   119.86150936
_symmetry_Int_Tables_number   1
_chemical_formula_structural   Sm3Dy2Co14P12Ru5
_chemical_formula_sum   'Sm3 Dy2 Co14 P12 Ru5'
_cell_volume   480.46911010
_cell_formula_units_Z   1
loop_
 _symmetry_equiv_pos_site_id
 _symmetry_equiv_pos_as_xyz
  1  'x, y, z'
loop_
 _atom_site_type_symbol
 _atom_site_label
 _atom_site_symmetry_multiplicity
 _atom_site_fract_x
 _atom_site_fract_y
 _atom_site_fract_z
 _atom_site_occupancy
  Sm  Sm0  1  0.662875  0.334140  0.000000  1
  Sm  Sm1  1  0.333352  0.666050  0.000000  1
  Sm  Sm2  1  0.185293  0.184226  0.500000  1
  Dy  Dy3  1  0.816576  0.000033  0.500000  1
  Dy  Dy4  1  0.999852  0.817443  0.500000  1
  Co  Co5  1  0.826964  0.198797  0.000000  1
  Co  Co6  1  0.801429  0.628630  0.000000  1
  Co  Co7  1  0.375638  0.178597  0.000000  1
  Co  Co8  1  0.194163  0.818833  0.000000  1
  Co  Co9  1  0.624203  0.803782  0.000000  1
  Co  Co10  1  0.181080  0.375933  0.000000  1
  Co  Co11  1  0.480160  0.359453  0.500000  1
  Co  Co12  1  0.129913  0.642906  0.500000  1
  Co  Co13  1  0.514010  0.870206  0.500000  1
  Co  Co14  1  0.358188  0.483636  0.500000  1
  Co  Co15  1  0.717257  0.718791  0.500000  1
  Co  Co16  1  0.280649  0.997665  0.500000  1
  Co  Co17  1  0.001570  0.282550  0.500000  1
  Co  Co18  1  0.998626  0.998708  0.000000  1
  P  P19  1  0.365424  0.365482  0.000000  1
  P  P20  1  0.633069  0.995085  0.000000  1
  P  P21  1  0.004510  0.638748  0.000000  1
  P  P22  1  0.838817  0.313480  0.500000  1
  P  P23  1  0.683369  0.524343  0.500000  1
  P  P24  1  0.472169  0.165087  0.500000  1
  P  P25  1  0.311568  0.835019  0.500000  1
  P  P26  1  0.522970  0.687513  0.500000  1
  P  P27  1  0.166370  0.475761  0.500000  1
  P  P28  1  0.819155  0.821188  0.000000  1
  P  P29  1  0.179498  0.997690  0.000000  1
  P  P30  1  0.000721  0.179680  0.000000  1
  Ru  Ru31  1  0.553143  0.555019  0.000000  1
  Ru  Ru32  1  0.440509  0.991659  0.000000  1
  Ru  Ru33  1  0.007648  0.449194  0.000000  1
  Ru  Ru34  1  0.642136  0.122985  0.500000  1
  Ru  Ru35  1  0.877126  0.521686  0.500000  1
