# generated using pymatgen
data_Li2Co3Ni6Mo3As7
_symmetry_space_group_name_H-M   'P 1'
_cell_length_a   9.41510600
_cell_length_b   9.41510652
_cell_length_c   3.77491600
_cell_angle_alpha   90.00000000
_cell_angle_beta   90.00000000
_cell_angle_gamma   120.00000520
_symmetry_Int_Tables_number   1
_chemical_formula_structural   Li2Co3Ni6Mo3As7
_chemical_formula_sum   'Li2 Co3 Ni6 Mo3 As7'
_cell_volume   289.79330832
_cell_formula_units_Z   1
loop_
 _symmetry_equiv_pos_site_id
 _symmetry_equiv_pos_as_xyz
  1  'x, y, z'
loop_
 _atom_site_type_symbol
 _atom_site_label
 _atom_site_symmetry_multiplicity
 _atom_site_fract_x
 _atom_site_fract_y
 _atom_site_fract_z
 _atom_site_occupancy
  Li  Li0  1  0.333333  0.666667  0.000000  1
  Li  Li1  1  0.000000  0.000000  0.500000  1
  Co  Co2  1  0.504124  0.453894  0.000000  1
  Co  Co3  1  0.546106  0.050230  0.000000  1
  Co  Co4  1  0.949770  0.495876  0.000000  1
  Ni  Ni5  1  0.278321  0.380615  0.500000  1
  Ni  Ni6  1  0.619385  0.897705  0.500000  1
  Ni  Ni7  1  0.102295  0.721679  0.500000  1
  Ni  Ni8  1  0.721502  0.763170  0.000000  1
  Ni  Ni9  1  0.236830  0.958333  0.000000  1
  Ni  Ni10  1  0.041667  0.278498  0.000000  1
  Mo  Mo11  1  0.762710  0.553143  0.500000  1
  Mo  Mo12  1  0.446857  0.209567  0.500000  1
  Mo  Mo13  1  0.790433  0.237290  0.500000  1
  As  As14  1  0.962253  0.752959  0.000000  1
  As  As15  1  0.247041  0.209293  0.000000  1
  As  As16  1  0.790707  0.037747  0.000000  1
  As  As17  1  0.666667  0.333333  0.000000  1
  As  As18  1  0.535474  0.620711  0.500000  1
  As  As19  1  0.379289  0.914764  0.500000  1
  As  As20  1  0.085236  0.464526  0.500000  1
