# generated using pymatgen
data_Tb16Cd2FeNi3Ag2
_symmetry_space_group_name_H-M   'P 1'
_cell_length_a   9.49993641
_cell_length_b   9.49993495
_cell_length_c   9.51529139
_cell_angle_alpha   60.09130397
_cell_angle_beta   60.09130580
_cell_angle_gamma   60.13546179
_symmetry_Int_Tables_number   1
_chemical_formula_structural   Tb16Cd2FeNi3Ag2
_chemical_formula_sum   'Tb16 Cd2 Fe1 Ni3 Ag2'
_cell_volume   608.68173483
_cell_formula_units_Z   1
loop_
 _symmetry_equiv_pos_site_id
 _symmetry_equiv_pos_as_xyz
  1  'x, y, z'
loop_
 _atom_site_type_symbol
 _atom_site_label
 _atom_site_symmetry_multiplicity
 _atom_site_fract_x
 _atom_site_fract_y
 _atom_site_fract_z
 _atom_site_occupancy
  Tb  Tb0  1  0.347932  0.347932  0.348972  1
  Tb  Tb1  1  0.346093  0.346093  0.957871  1
  Tb  Tb2  1  0.347825  0.955372  0.347660  1
  Tb  Tb3  1  0.955372  0.347825  0.347660  1
  Tb  Tb4  1  0.815694  0.187539  0.188028  1
  Tb  Tb5  1  0.188694  0.810896  0.809848  1
  Tb  Tb6  1  0.187539  0.815694  0.188028  1
  Tb  Tb7  1  0.810896  0.188694  0.809848  1
  Tb  Tb8  1  0.188080  0.188080  0.815525  1
  Tb  Tb9  1  0.810320  0.810320  0.187329  1
  Tb  Tb10  1  0.933862  0.563636  0.564158  1
  Tb  Tb11  1  0.560085  0.935314  0.939238  1
  Tb  Tb12  1  0.563636  0.933862  0.564158  1
  Tb  Tb13  1  0.935314  0.560085  0.939238  1
  Tb  Tb14  1  0.562316  0.562316  0.937272  1
  Tb  Tb15  1  0.936581  0.936581  0.561441  1
  Cd  Cd16  1  0.581116  0.259760  0.579466  1
  Cd  Cd17  1  0.259760  0.581116  0.579466  1
  Fe  Fe18  1  0.142191  0.142191  0.142423  1
  Ni  Ni19  1  0.142942  0.142942  0.574284  1
  Ni  Ni20  1  0.142435  0.574546  0.142899  1
  Ni  Ni21  1  0.574546  0.142435  0.142899  1
  Ag  Ag22  1  0.582743  0.582743  0.581719  1
  Ag  Ag23  1  0.584029  0.584029  0.250566  1
