# generated using pymatgen
data_PrPaS6
_symmetry_space_group_name_H-M   'P 1'
_cell_length_a   5.44317431
_cell_length_b   4.03229800
_cell_length_c   9.43651300
_cell_angle_alpha   90.00000000
_cell_angle_beta   94.41574062
_cell_angle_gamma   90.00000000
_symmetry_Int_Tables_number   1
_chemical_formula_structural   PrPaS6
_chemical_formula_sum   'Pr1 Pa1 S6'
_cell_volume   206.50251482
_cell_formula_units_Z   1
loop_
 _symmetry_equiv_pos_site_id
 _symmetry_equiv_pos_as_xyz
  1  'x, y, z'
loop_
 _atom_site_type_symbol
 _atom_site_label
 _atom_site_symmetry_multiplicity
 _atom_site_fract_x
 _atom_site_fract_y
 _atom_site_fract_z
 _atom_site_occupancy
  Pr  Pr0  1  0.229839  0.250000  0.845956  1
  Pa  Pa1  1  0.769813  0.750001  0.144569  1
  S  S2  1  0.262408  0.750001  0.083226  1
  S  S3  1  0.984461  0.250000  0.313591  1
  S  S4  1  0.605656  0.250000  0.316383  1
  S  S5  1  0.394167  0.750001  0.667252  1
  S  S6  1  0.008922  0.750001  0.671383  1
  S  S7  1  0.744729  0.250000  0.957639  1
