# generated using pymatgen
data_DyLu5(Al3Os)8
_symmetry_space_group_name_H-M   'P 1'
_cell_length_a   8.76208940
_cell_length_b   8.76208959
_cell_length_c   9.57986800
_cell_angle_alpha   90.00000000
_cell_angle_beta   90.00000000
_cell_angle_gamma   119.96547814
_symmetry_Int_Tables_number   1
_chemical_formula_structural   DyLu5(Al3Os)8
_chemical_formula_sum   'Dy1 Lu5 Al24 Os8'
_cell_volume   637.17172724
_cell_formula_units_Z   1
loop_
 _symmetry_equiv_pos_site_id
 _symmetry_equiv_pos_as_xyz
  1  'x, y, z'
loop_
 _atom_site_type_symbol
 _atom_site_label
 _atom_site_symmetry_multiplicity
 _atom_site_fract_x
 _atom_site_fract_y
 _atom_site_fract_z
 _atom_site_occupancy
  Dy  Dy0  1  0.806335  0.193665  0.750000  1
  Lu  Lu1  1  0.195435  0.391210  0.250000  1
  Lu  Lu2  1  0.804154  0.608391  0.750000  1
  Lu  Lu3  1  0.608790  0.804565  0.250000  1
  Lu  Lu4  1  0.391609  0.195846  0.750000  1
  Lu  Lu5  1  0.195447  0.804553  0.250000  1
  Al  Al6  1  0.333243  0.666757  0.021434  1
  Al  Al7  1  0.666544  0.333456  0.979661  1
  Al  Al8  1  0.666544  0.333456  0.520339  1
  Al  Al9  1  0.333243  0.666757  0.478566  1
  Al  Al10  1  0.164070  0.327407  0.576524  1
  Al  Al11  1  0.836546  0.673198  0.422847  1
  Al  Al12  1  0.672593  0.835930  0.576524  1
  Al  Al13  1  0.836546  0.673198  0.077153  1
  Al  Al14  1  0.326802  0.163454  0.422847  1
  Al  Al15  1  0.164070  0.327407  0.923476  1
  Al  Al16  1  0.163375  0.836625  0.576509  1
  Al  Al17  1  0.326802  0.163454  0.077153  1
  Al  Al18  1  0.836420  0.163580  0.422156  1
  Al  Al19  1  0.672593  0.835930  0.923476  1
  Al  Al20  1  0.836420  0.163580  0.077844  1
  Al  Al21  1  0.163375  0.836625  0.923491  1
  Al  Al22  1  0.561272  0.123049  0.250000  1
  Al  Al23  1  0.437341  0.876096  0.750000  1
  Al  Al24  1  0.876951  0.438728  0.250000  1
  Al  Al25  1  0.123904  0.562659  0.750000  1
  Al  Al26  1  0.561409  0.438591  0.250000  1
  Al  Al27  1  0.438525  0.561475  0.750000  1
  Al  Al28  1  0.999860  0.000140  0.250000  1
  Al  Al29  1  0.001493  0.998507  0.750000  1
  Os  Os30  1  0.499039  0.999553  0.000611  1
  Os  Os31  1  0.000447  0.500961  0.000611  1
  Os  Os32  1  0.499039  0.999553  0.499389  1
  Os  Os33  1  0.499812  0.500188  0.000067  1
  Os  Os34  1  0.000447  0.500961  0.499389  1
  Os  Os35  1  0.499812  0.500188  0.499933  1
  Os  Os36  1  0.999848  0.000152  0.000107  1
  Os  Os37  1  0.999848  0.000152  0.499893  1
