# generated using pymatgen
data_Tb2Ce2Bi3Sb
_symmetry_space_group_name_H-M   'P 1'
_cell_length_a   7.92787692
_cell_length_b   7.92787746
_cell_length_c   7.95216068
_cell_angle_alpha   131.88905714
_cell_angle_beta   131.88907126
_cell_angle_gamma   70.46350127
_symmetry_Int_Tables_number   1
_chemical_formula_structural   Tb2Ce2Bi3Sb
_chemical_formula_sum   'Tb2 Ce2 Bi3 Sb1'
_cell_volume   271.33152616
_cell_formula_units_Z   1
loop_
 _symmetry_equiv_pos_site_id
 _symmetry_equiv_pos_as_xyz
  1  'x, y, z'
loop_
 _atom_site_type_symbol
 _atom_site_label
 _atom_site_symmetry_multiplicity
 _atom_site_fract_x
 _atom_site_fract_y
 _atom_site_fract_z
 _atom_site_occupancy
  Tb  Tb0  1  0.245977  0.245977  0.000058  1
  Tb  Tb1  1  0.754023  0.754023  0.999942  1
  Ce  Ce2  1  0.500000  0.000000  0.500000  1
  Ce  Ce3  1  0.000000  0.500000  0.500000  1
  Bi  Bi4  1  0.500000  0.500000  0.000000  1
  Bi  Bi5  1  0.750046  0.249954  0.500000  1
  Bi  Bi6  1  0.249954  0.750046  0.500000  1
  Sb  Sb7  1  0.000000  0.000000  0.000000  1
