# generated using pymatgen
data_NbNi11Sn3Rh
_symmetry_space_group_name_H-M   'P 1'
_cell_length_a   3.75096700
_cell_length_b   3.75657900
_cell_length_c   14.89429200
_cell_angle_alpha   90.00000000
_cell_angle_beta   90.00000000
_cell_angle_gamma   90.00000000
_symmetry_Int_Tables_number   1
_chemical_formula_structural   NbNi11Sn3Rh
_chemical_formula_sum   'Nb1 Ni11 Sn3 Rh1'
_cell_volume   209.87254723
_cell_formula_units_Z   1
loop_
 _symmetry_equiv_pos_site_id
 _symmetry_equiv_pos_as_xyz
  1  'x, y, z'
loop_
 _atom_site_type_symbol
 _atom_site_label
 _atom_site_symmetry_multiplicity
 _atom_site_fract_x
 _atom_site_fract_y
 _atom_site_fract_z
 _atom_site_occupancy
  Nb  Nb0  1  0.000000  0.000000  0.997901  1
  Ni  Ni1  1  0.500000  0.500000  0.994065  1
  Ni  Ni2  1  0.500000  0.500000  0.253120  1
  Ni  Ni3  1  0.500000  0.500000  0.501667  1
  Ni  Ni4  1  0.500000  0.500000  0.750355  1
  Ni  Ni5  1  0.500000  0.000000  0.377187  1
  Ni  Ni6  1  0.500000  0.000000  0.626079  1
  Ni  Ni7  1  0.500000  0.000000  0.876210  1
  Ni  Ni8  1  0.000000  0.500000  0.119260  1
  Ni  Ni9  1  0.000000  0.500000  0.377368  1
  Ni  Ni10  1  0.000000  0.500000  0.626082  1
  Ni  Ni11  1  0.000000  0.500000  0.876682  1
  Sn  Sn12  1  0.000000  0.000000  0.253043  1
  Sn  Sn13  1  0.000000  0.000000  0.501230  1
  Sn  Sn14  1  0.000000  0.000000  0.750060  1
  Rh  Rh15  1  0.500000  0.000000  0.119691  1
