# generated using pymatgen
data_Zr6Ni17P12Pd
_symmetry_space_group_name_H-M   'P 1'
_cell_length_a   3.67286000
_cell_length_b   10.37287500
_cell_length_c   12.13156600
_cell_angle_alpha   89.99739923
_cell_angle_beta   90.00193538
_cell_angle_gamma   90.00068568
_symmetry_Int_Tables_number   1
_chemical_formula_structural   Zr6Ni17P12Pd
_chemical_formula_sum   'Zr6 Ni17 P12 Pd1'
_cell_volume   462.18982863
_cell_formula_units_Z   1
loop_
 _symmetry_equiv_pos_site_id
 _symmetry_equiv_pos_as_xyz
  1  'x, y, z'
loop_
 _atom_site_type_symbol
 _atom_site_label
 _atom_site_symmetry_multiplicity
 _atom_site_fract_x
 _atom_site_fract_y
 _atom_site_fract_z
 _atom_site_occupancy
  Zr  Zr0  1  0.751929  0.000019  0.472516  1
  Zr  Zr1  1  0.251871  0.499977  0.524774  1
  Zr  Zr2  1  0.251837  0.677646  0.794584  1
  Zr  Zr3  1  0.251835  0.322308  0.794608  1
  Zr  Zr4  1  0.751861  0.821213  0.205661  1
  Zr  Zr5  1  0.751860  0.178809  0.205618  1
  Ni  Ni6  1  0.751772  0.999971  0.012881  1
  Ni  Ni7  1  0.251652  0.500068  0.985319  1
  Ni  Ni8  1  0.251984  0.200603  0.566915  1
  Ni  Ni9  1  0.251971  0.799449  0.566932  1
  Ni  Ni10  1  0.751953  0.300604  0.431121  1
  Ni  Ni11  1  0.751945  0.699355  0.431130  1
  Ni  Ni12  1  0.251714  0.623271  0.293285  1
  Ni  Ni13  1  0.251709  0.376706  0.293278  1
  Ni  Ni14  1  0.751774  0.873766  0.705298  1
  Ni  Ni15  1  0.751772  0.126212  0.705143  1
  Ni  Ni16  1  0.251714  0.172729  0.008873  1
  Ni  Ni17  1  0.251761  0.827283  0.008947  1
  Ni  Ni18  1  0.751783  0.334283  0.998000  1
  Ni  Ni19  1  0.751756  0.665740  0.997829  1
  Ni  Ni20  1  0.751519  0.499932  0.165153  1
  Ni  Ni21  1  0.251928  0.000030  0.299181  1
  Ni  Ni22  1  0.751937  0.499953  0.699989  1
  P  P23  1  0.251955  0.184329  0.382522  1
  P  P24  1  0.251955  0.815696  0.382547  1
  P  P25  1  0.751949  0.316756  0.615652  1
  P  P26  1  0.751942  0.683212  0.615664  1
  P  P27  1  0.251805  0.000025  0.122102  1
  P  P28  1  0.751739  0.499989  0.876998  1
  P  P29  1  0.251776  0.652524  0.113774  1
  P  P30  1  0.251756  0.347474  0.113738  1
  P  P31  1  0.751794  0.837683  0.890128  1
  P  P32  1  0.751790  0.162329  0.890138  1
  P  P33  1  0.251862  0.000013  0.641419  1
  P  P34  1  0.751750  0.499983  0.351116  1
  Pd  Pd35  1  0.251693  0.000060  0.837170  1
