# generated using pymatgen
data_Cs3Pa7Se12
_symmetry_space_group_name_H-M   'P 1'
_cell_length_a   13.74829152
_cell_length_b   13.74829155
_cell_length_c   13.46481169
_cell_angle_alpha   70.91964859
_cell_angle_beta   70.91964907
_cell_angle_gamma   17.07499228
_symmetry_Int_Tables_number   1
_chemical_formula_structural   Cs3Pa7Se12
_chemical_formula_sum   'Cs3 Pa7 Se12'
_cell_volume   705.28003714
_cell_formula_units_Z   1
loop_
 _symmetry_equiv_pos_site_id
 _symmetry_equiv_pos_as_xyz
  1  'x, y, z'
loop_
 _atom_site_type_symbol
 _atom_site_label
 _atom_site_symmetry_multiplicity
 _atom_site_fract_x
 _atom_site_fract_y
 _atom_site_fract_z
 _atom_site_occupancy
  Cs  Cs0  1  0.643912  0.643912  0.120618  1
  Cs  Cs1  1  0.361444  0.361444  0.864197  1
  Cs  Cs2  1  0.025357  0.025357  0.436326  1
  Pa  Pa3  1  0.310715  0.310715  0.511812  1
  Pa  Pa4  1  0.714426  0.714426  0.763923  1
  Pa  Pa5  1  0.091569  0.091569  0.738717  1
  Pa  Pa6  1  0.285239  0.285239  0.233177  1
  Pa  Pa7  1  0.907402  0.907402  0.259173  1
  Pa  Pa8  1  0.688432  0.688432  0.486371  1
  Pa  Pa9  1  0.499997  0.499997  0.002260  1
  Se  Se10  1  0.577143  0.577143  0.596908  1
  Se  Se11  1  0.798227  0.798227  0.372463  1
  Se  Se12  1  0.224601  0.224601  0.899264  1
  Se  Se13  1  0.776720  0.776720  0.096752  1
  Se  Se14  1  0.825806  0.825806  0.651656  1
  Se  Se15  1  0.172905  0.172905  0.345103  1
  Se  Se16  1  0.607074  0.607074  0.882387  1
  Se  Se17  1  0.982307  0.982307  0.863916  1
  Se  Se18  1  0.392414  0.392414  0.115119  1
  Se  Se19  1  0.018568  0.018568  0.141707  1
  Se  Se20  1  0.421554  0.421554  0.401818  1
  Se  Se21  1  0.200839  0.200839  0.625330  1
