# generated using pymatgen
data_Hf4Al24Ir2Pt7
_symmetry_space_group_name_H-M   'P 1'
_cell_length_a   7.44469201
_cell_length_b   7.44620373
_cell_length_c   12.90060266
_cell_angle_alpha   84.40933438
_cell_angle_beta   101.07823967
_cell_angle_gamma   119.90625272
_symmetry_Int_Tables_number   1
_chemical_formula_structural   Hf4Al24Ir2Pt7
_chemical_formula_sum   'Hf4 Al24 Ir2 Pt7'
_cell_volume   608.36169411
_cell_formula_units_Z   1
loop_
 _symmetry_equiv_pos_site_id
 _symmetry_equiv_pos_as_xyz
  1  'x, y, z'
loop_
 _atom_site_type_symbol
 _atom_site_label
 _atom_site_symmetry_multiplicity
 _atom_site_fract_x
 _atom_site_fract_y
 _atom_site_fract_z
 _atom_site_occupancy
  Hf  Hf0  1  0.731335  0.999097  0.188705  1
  Hf  Hf1  1  0.267454  0.001403  0.811046  1
  Hf  Hf2  1  0.060322  0.669341  0.188669  1
  Hf  Hf3  1  0.939307  0.331580  0.811530  1
  Al  Al4  1  0.814280  0.874397  0.817694  1
  Al  Al5  1  0.186318  0.124939  0.182291  1
  Al  Al6  1  0.986921  0.669443  0.942279  1
  Al  Al7  1  0.018208  0.334174  0.056992  1
  Al  Al8  1  0.391786  0.662541  0.819258  1
  Al  Al9  1  0.607766  0.336646  0.182093  1
  Al  Al10  1  0.887206  0.665052  0.679359  1
  Al  Al11  1  0.113206  0.334765  0.320222  1
  Al  Al12  1  0.602506  0.452065  0.817109  1
  Al  Al13  1  0.397957  0.548804  0.181581  1
  Al  Al14  1  0.230759  0.338119  0.677430  1
  Al  Al15  1  0.769306  0.661820  0.322569  1
  Al  Al16  1  0.852915  0.332867  0.561345  1
  Al  Al17  1  0.187270  0.999638  0.560950  1
  Al  Al18  1  0.813616  0.000452  0.439030  1
  Al  Al19  1  0.349719  0.993849  0.057700  1
  Al  Al20  1  0.646979  0.000904  0.942885  1
  Al  Al21  1  0.558766  0.994632  0.679870  1
  Al  Al22  1  0.441484  0.004719  0.320587  1
  Al  Al23  1  0.521867  0.667527  0.563849  1
  Al  Al24  1  0.478184  0.332461  0.435870  1
  Al  Al25  1  0.685994  0.673445  0.048359  1
  Al  Al26  1  0.310548  0.330168  0.951735  1
  Al  Al27  1  0.147043  0.666209  0.439007  1
  Ir  Ir28  1  0.327835  0.672715  0.000363  1
  Ir  Ir29  1  0.999669  0.000322  0.000013  1
  Pt  Pt30  1  0.545682  0.322445  0.637850  1
  Pt  Pt31  1  0.454466  0.677104  0.361536  1
  Pt  Pt32  1  0.890487  0.010243  0.640155  1
  Pt  Pt33  1  0.109859  0.989201  0.359807  1
  Pt  Pt34  1  0.672283  0.327302  0.999609  1
  Pt  Pt35  1  0.202633  0.666430  0.640193  1
  Pt  Pt36  1  0.798062  0.333183  0.360460  1
