# generated using pymatgen
data_Zr6Ti3Al13MoPd6
_symmetry_space_group_name_H-M   'P 1'
_cell_length_a   8.87247717
_cell_length_b   8.87076985
_cell_length_c   8.87120981
_cell_angle_alpha   59.67305624
_cell_angle_beta   59.68023809
_cell_angle_gamma   59.67733575
_symmetry_Int_Tables_number   1
_chemical_formula_structural   Zr6Ti3Al13MoPd6
_chemical_formula_sum   'Zr6 Ti3 Al13 Mo1 Pd6'
_cell_volume   490.08819605
_cell_formula_units_Z   1
loop_
 _symmetry_equiv_pos_site_id
 _symmetry_equiv_pos_as_xyz
  1  'x, y, z'
loop_
 _atom_site_type_symbol
 _atom_site_label
 _atom_site_symmetry_multiplicity
 _atom_site_fract_x
 _atom_site_fract_y
 _atom_site_fract_z
 _atom_site_occupancy
  Zr  Zr0  1  0.692025  0.692075  0.307286  1
  Zr  Zr1  1  0.308971  0.690798  0.308939  1
  Zr  Zr2  1  0.690871  0.308941  0.308801  1
  Zr  Zr3  1  0.308769  0.308895  0.690905  1
  Zr  Zr4  1  0.692098  0.307302  0.692120  1
  Zr  Zr5  1  0.307384  0.691980  0.691950  1
  Ti  Ti6  1  0.881789  0.881844  0.354397  1
  Ti  Ti7  1  0.881711  0.354497  0.881768  1
  Ti  Ti8  1  0.354369  0.881872  0.881826  1
  Al  Al9  1  0.880284  0.880261  0.880259  1
  Al  Al10  1  0.119118  0.119301  0.643071  1
  Al  Al11  1  0.119139  0.643195  0.119119  1
  Al  Al12  1  0.643034  0.119327  0.119130  1
  Al  Al13  1  0.119300  0.119465  0.119308  1
  Al  Al14  1  0.666094  0.665876  0.002629  1
  Al  Al15  1  0.665971  0.002723  0.666021  1
  Al  Al16  1  0.002626  0.665854  0.666125  1
  Al  Al17  1  0.665116  0.664898  0.665170  1
  Al  Al18  1  0.334949  0.334926  0.995942  1
  Al  Al19  1  0.334921  0.995987  0.334930  1
  Al  Al20  1  0.995942  0.334922  0.334956  1
  Al  Al21  1  0.334416  0.334399  0.334422  1
  Mo  Mo22  1  0.000618  0.000609  0.000375  1
  Pd  Pd23  1  0.999962  0.999865  0.500139  1
  Pd  Pd24  1  0.500221  0.999848  0.500368  1
  Pd  Pd25  1  0.000026  0.500150  0.500220  1
  Pd  Pd26  1  0.500169  0.500278  0.999954  1
  Pd  Pd27  1  0.000000  0.500059  0.999962  1
  Pd  Pd28  1  0.500107  0.999852  0.999907  1
