# generated using pymatgen
data_Tb5Nd(Ir8Rh)2
_symmetry_space_group_name_H-M   'P 1'
_cell_length_a   5.32202901
_cell_length_b   5.32171730
_cell_length_c   17.49845300
_cell_angle_alpha   90.00000000
_cell_angle_beta   90.00000000
_cell_angle_gamma   120.00126757
_symmetry_Int_Tables_number   1
_chemical_formula_structural   Tb5Nd(Ir8Rh)2
_chemical_formula_sum   'Tb5 Nd1 Ir16 Rh2'
_cell_volume   429.19413445
_cell_formula_units_Z   1
loop_
 _symmetry_equiv_pos_site_id
 _symmetry_equiv_pos_as_xyz
  1  'x, y, z'
loop_
 _atom_site_type_symbol
 _atom_site_label
 _atom_site_symmetry_multiplicity
 _atom_site_fract_x
 _atom_site_fract_y
 _atom_site_fract_z
 _atom_site_occupancy
  Tb  Tb0  1  0.333331  0.666662  0.541482  1
  Tb  Tb1  1  0.666652  0.333327  0.040700  1
  Tb  Tb2  1  0.666652  0.333327  0.459300  1
  Tb  Tb3  1  0.333331  0.666662  0.958518  1
  Tb  Tb4  1  0.333314  0.666651  0.750000  1
  Nd  Nd5  1  0.666682  0.333349  0.250000  1
  Ir  Ir6  1  0.167458  0.334960  0.125641  1
  Ir  Ir7  1  0.832477  0.664879  0.626373  1
  Ir  Ir8  1  0.665053  0.832533  0.125643  1
  Ir  Ir9  1  0.167458  0.832505  0.125646  1
  Ir  Ir10  1  0.832472  0.167583  0.626377  1
  Ir  Ir11  1  0.335095  0.167543  0.626377  1
  Ir  Ir12  1  0.832477  0.664879  0.873627  1
  Ir  Ir13  1  0.832472  0.167583  0.873623  1
  Ir  Ir14  1  0.335095  0.167543  0.873623  1
  Ir  Ir15  1  0.665053  0.832533  0.374357  1
  Ir  Ir16  1  0.167458  0.832505  0.374354  1
  Ir  Ir17  1  0.167458  0.334960  0.374359  1
  Ir  Ir18  1  0.999963  0.999986  0.250000  1
  Ir  Ir19  1  0.000055  0.000020  0.750000  1
  Ir  Ir20  1  0.999998  0.999996  0.999662  1
  Ir  Ir21  1  0.999998  0.999996  0.500338  1
  Rh  Rh22  1  0.333442  0.666742  0.250000  1
  Rh  Rh23  1  0.666557  0.333275  0.750000  1
