# generated using pymatgen
data_Tb5Sm3(Ho3Sn4)4
_symmetry_space_group_name_H-M   'P 1'
_cell_length_a   8.04706469
_cell_length_b   8.20158622
_cell_length_c   15.48086956
_cell_angle_alpha   90.05254659
_cell_angle_beta   90.16488199
_cell_angle_gamma   89.91301312
_symmetry_Int_Tables_number   1
_chemical_formula_structural   Tb5Sm3(Ho3Sn4)4
_chemical_formula_sum   'Tb5 Sm3 Ho12 Sn16'
_cell_volume   1021.71135278
_cell_formula_units_Z   1
loop_
 _symmetry_equiv_pos_site_id
 _symmetry_equiv_pos_as_xyz
  1  'x, y, z'
loop_
 _atom_site_type_symbol
 _atom_site_label
 _atom_site_symmetry_multiplicity
 _atom_site_fract_x
 _atom_site_fract_y
 _atom_site_fract_z
 _atom_site_occupancy
  Tb  Tb0  1  0.518803  0.321369  0.902655  1
  Tb  Tb1  1  0.017873  0.179263  0.597279  1
  Tb  Tb2  1  0.482501  0.679178  0.402705  1
  Tb  Tb3  1  0.981606  0.820133  0.097596  1
  Tb  Tb4  1  0.481804  0.678781  0.096867  1
  Sm  Sm5  1  0.983604  0.820855  0.403253  1
  Sm  Sm6  1  0.516036  0.321004  0.596025  1
  Sm  Sm7  1  0.016680  0.179140  0.904031  1
  Ho  Ho8  1  0.364432  0.836721  0.877494  1
  Ho  Ho9  1  0.863219  0.663431  0.622685  1
  Ho  Ho10  1  0.636457  0.163212  0.376652  1
  Ho  Ho11  1  0.135712  0.336970  0.122476  1
  Ho  Ho12  1  0.635454  0.163143  0.122889  1
  Ho  Ho13  1  0.136303  0.336865  0.376896  1
  Ho  Ho14  1  0.364031  0.836797  0.622923  1
  Ho  Ho15  1  0.865104  0.662807  0.877647  1
  Ho  Ho16  1  0.196193  0.503095  0.750233  1
  Ho  Ho17  1  0.696112  0.996833  0.750143  1
  Ho  Ho18  1  0.803820  0.497087  0.249580  1
  Ho  Ho19  1  0.304045  0.003069  0.249686  1
  Sn  Sn20  1  0.297206  0.036477  0.042589  1
  Sn  Sn21  1  0.797452  0.461516  0.457772  1
  Sn  Sn22  1  0.702727  0.962058  0.541832  1
  Sn  Sn23  1  0.205476  0.538849  0.958697  1
  Sn  Sn24  1  0.702052  0.959880  0.959187  1
  Sn  Sn25  1  0.201330  0.540455  0.540861  1
  Sn  Sn26  1  0.298545  0.039940  0.458855  1
  Sn  Sn27  1  0.795390  0.461904  0.041675  1
  Sn  Sn28  1  0.562143  0.620085  0.750290  1
  Sn  Sn29  1  0.062071  0.879388  0.750037  1
  Sn  Sn30  1  0.438064  0.380599  0.249968  1
  Sn  Sn31  1  0.938185  0.120136  0.249751  1
  Sn  Sn32  1  0.326710  0.146442  0.750429  1
  Sn  Sn33  1  0.826798  0.353582  0.749498  1
  Sn  Sn34  1  0.671978  0.852432  0.249610  1
  Sn  Sn35  1  0.174083  0.646503  0.249233  1
