# generated using pymatgen
data_HfV2MoCl18
_symmetry_space_group_name_H-M   'P 1'
_cell_length_a   7.61175682
_cell_length_b   9.49285909
_cell_length_c   10.00768800
_cell_angle_alpha   101.72784165
_cell_angle_beta   96.95557009
_cell_angle_gamma   96.10556166
_symmetry_Int_Tables_number   1
_chemical_formula_structural   HfV2MoCl18
_chemical_formula_sum   'Hf1 V2 Mo1 Cl18'
_cell_volume   696.41111376
_cell_formula_units_Z   1
loop_
 _symmetry_equiv_pos_site_id
 _symmetry_equiv_pos_as_xyz
  1  'x, y, z'
loop_
 _atom_site_type_symbol
 _atom_site_label
 _atom_site_symmetry_multiplicity
 _atom_site_fract_x
 _atom_site_fract_y
 _atom_site_fract_z
 _atom_site_occupancy
  Hf  Hf0  1  0.883409  0.361744  0.318903  1
  V  V1  1  0.546887  0.189424  0.779931  1
  V  V2  1  0.454403  0.809778  0.220284  1
  Mo  Mo3  1  0.109414  0.629160  0.668284  1
  Cl  Cl4  1  0.658716  0.894550  0.121327  1
  Cl  Cl5  1  0.339998  0.105266  0.877590  1
  Cl  Cl6  1  0.202309  0.487745  0.460684  1
  Cl  Cl7  1  0.806381  0.523676  0.554301  1
  Cl  Cl8  1  0.082749  0.813373  0.553632  1
  Cl  Cl9  1  0.920683  0.180130  0.452908  1
  Cl  Cl10  1  0.000556  0.754642  0.855719  1
  Cl  Cl11  1  0.011728  0.239827  0.133027  1
  Cl  Cl12  1  0.115797  0.426976  0.760854  1
  Cl  Cl13  1  0.888227  0.584695  0.237647  1
  Cl  Cl14  1  0.404423  0.712104  0.754898  1
  Cl  Cl15  1  0.575381  0.289586  0.246328  1
  Cl  Cl16  1  0.438363  0.194379  0.576673  1
  Cl  Cl17  1  0.560180  0.807024  0.424800  1
  Cl  Cl18  1  0.750938  0.053543  0.774498  1
  Cl  Cl19  1  0.248893  0.943205  0.225929  1
  Cl  Cl20  1  0.658020  0.400865  0.889752  1
  Cl  Cl21  1  0.342544  0.598310  0.112032  1
