# generated using pymatgen
data_Sm3Dy5Tc3B24Os
_symmetry_space_group_name_H-M   'P 1'
_cell_length_a   3.70841500
_cell_length_b   9.20593895
_cell_length_c   11.62137303
_cell_angle_alpha   89.94292750
_cell_angle_beta   90.00000000
_cell_angle_gamma   90.00000000
_symmetry_Int_Tables_number   1
_chemical_formula_structural   Sm3Dy5Tc3B24Os
_chemical_formula_sum   'Sm3 Dy5 Tc3 B24 Os1'
_cell_volume   396.74699476
_cell_formula_units_Z   1
loop_
 _symmetry_equiv_pos_site_id
 _symmetry_equiv_pos_as_xyz
  1  'x, y, z'
loop_
 _atom_site_type_symbol
 _atom_site_label
 _atom_site_symmetry_multiplicity
 _atom_site_fract_x
 _atom_site_fract_y
 _atom_site_fract_z
 _atom_site_occupancy
  Sm  Sm0  1  0.000000  0.323345  0.413780  1
  Sm  Sm1  1  0.000000  0.675815  0.584793  1
  Sm  Sm2  1  0.000000  0.823025  0.086938  1
  Dy  Dy3  1  0.000000  0.177795  0.914609  1
  Dy  Dy4  1  0.000000  0.942483  0.369386  1
  Dy  Dy5  1  0.000000  0.058552  0.630727  1
  Dy  Dy6  1  0.000000  0.442406  0.130244  1
  Dy  Dy7  1  0.000000  0.556889  0.869239  1
  Tc  Tc8  1  0.000000  0.638769  0.319797  1
  Tc  Tc9  1  0.000000  0.360674  0.681464  1
  Tc  Tc10  1  0.000000  0.138160  0.177989  1
  B  B11  1  0.500000  0.553898  0.431624  1
  B  B12  1  0.500000  0.445809  0.568389  1
  B  B13  1  0.500000  0.054280  0.067085  1
  B  B14  1  0.500000  0.946751  0.931819  1
  B  B15  1  0.500000  0.748528  0.417309  1
  B  B16  1  0.500000  0.251105  0.583137  1
  B  B17  1  0.500000  0.248960  0.081289  1
  B  B18  1  0.500000  0.751748  0.916936  1
  B  B19  1  0.500000  0.790911  0.266178  1
  B  B20  1  0.500000  0.208667  0.735339  1
  B  B21  1  0.500000  0.290668  0.233489  1
  B  B22  1  0.500000  0.710085  0.766110  1
  B  B23  1  0.500000  0.630187  0.186232  1
  B  B24  1  0.500000  0.368717  0.815139  1
  B  B25  1  0.500000  0.129958  0.313074  1
  B  B26  1  0.500000  0.870100  0.686757  1
  B  B27  1  0.500000  0.983416  0.212034  1
  B  B28  1  0.500000  0.017065  0.788347  1
  B  B29  1  0.500000  0.483369  0.287312  1
  B  B30  1  0.500000  0.515917  0.712625  1
  B  B31  1  0.500000  0.599993  0.027612  1
  B  B32  1  0.500000  0.399200  0.971765  1
  B  B33  1  0.500000  0.099706  0.472453  1
  B  B34  1  0.500000  0.900567  0.528152  1
  Os  Os35  1  0.000000  0.862483  0.820831  1
