# generated using pymatgen
data_Gd2MnCrC3
_symmetry_space_group_name_H-M   'P 1'
_cell_length_a   5.43975561
_cell_length_b   5.43975478
_cell_length_c   5.59294790
_cell_angle_alpha   75.73303010
_cell_angle_beta   75.73303349
_cell_angle_gamma   36.70936386
_symmetry_Int_Tables_number   1
_chemical_formula_structural   Gd2MnCrC3
_chemical_formula_sum   'Gd2 Mn1 Cr1 C3'
_cell_volume   95.53599948
_cell_formula_units_Z   1
loop_
 _symmetry_equiv_pos_site_id
 _symmetry_equiv_pos_as_xyz
  1  'x, y, z'
loop_
 _atom_site_type_symbol
 _atom_site_label
 _atom_site_symmetry_multiplicity
 _atom_site_fract_x
 _atom_site_fract_y
 _atom_site_fract_z
 _atom_site_occupancy
  Gd  Gd0  1  0.398301  0.398301  0.818658  1
  Gd  Gd1  1  0.605845  0.605845  0.184281  1
  Mn  Mn2  1  0.158577  0.158577  0.606834  1
  Cr  Cr3  1  0.842313  0.842313  0.397886  1
  C  C4  1  0.000656  0.000656  0.501133  1
  C  C5  1  0.705561  0.705561  0.716694  1
  C  C6  1  0.288747  0.288747  0.274513  1
