# generated using pymatgen
data_Ba2DyBrO3
_symmetry_space_group_name_H-M   'P 1'
_cell_length_a   4.45561600
_cell_length_b   4.45561600
_cell_length_c   15.60055700
_cell_angle_alpha   90.00000000
_cell_angle_beta   90.00000000
_cell_angle_gamma   90.00000000
_symmetry_Int_Tables_number   1
_chemical_formula_structural   Ba2DyBrO3
_chemical_formula_sum   'Ba4 Dy2 Br2 O6'
_cell_volume   309.71027531
_cell_formula_units_Z   2
loop_
 _symmetry_equiv_pos_site_id
 _symmetry_equiv_pos_as_xyz
  1  'x, y, z'
loop_
 _atom_site_type_symbol
 _atom_site_label
 _atom_site_symmetry_multiplicity
 _atom_site_fract_x
 _atom_site_fract_y
 _atom_site_fract_z
 _atom_site_occupancy
  Ba  Ba0  1  0.000000  0.500000  0.660565  1
  Ba  Ba1  1  0.500000  0.000000  0.339435  1
  Ba  Ba2  1  0.500000  0.000000  0.091778  1
  Ba  Ba3  1  0.000000  0.500000  0.908222  1
  Dy  Dy4  1  0.000000  0.500000  0.209111  1
  Dy  Dy5  1  0.500000  0.000000  0.790889  1
  Br  Br6  1  0.500000  0.000000  0.578419  1
  Br  Br7  1  0.000000  0.500000  0.421581  1
  O  O8  1  0.000000  0.000000  0.768974  1
  O  O9  1  0.500000  0.500000  0.768974  1
  O  O10  1  0.000000  0.000000  0.231026  1
  O  O11  1  0.500000  0.000000  0.928420  1
  O  O12  1  0.500000  0.500000  0.231026  1
  O  O13  1  0.000000  0.500000  0.071580  1
