# generated using pymatgen
data_Yb5Ce3(OsC2)4
_symmetry_space_group_name_H-M   'P 1'
_cell_length_a   5.14404100
_cell_length_b   6.39816096
_cell_length_c   10.33510660
_cell_angle_alpha   89.74201990
_cell_angle_beta   90.00000000
_cell_angle_gamma   90.00000000
_symmetry_Int_Tables_number   1
_chemical_formula_structural   Yb5Ce3(OsC2)4
_chemical_formula_sum   'Yb5 Ce3 Os4 C8'
_cell_volume   340.14973838
_cell_formula_units_Z   1
loop_
 _symmetry_equiv_pos_site_id
 _symmetry_equiv_pos_as_xyz
  1  'x, y, z'
loop_
 _atom_site_type_symbol
 _atom_site_label
 _atom_site_symmetry_multiplicity
 _atom_site_fract_x
 _atom_site_fract_y
 _atom_site_fract_z
 _atom_site_occupancy
  Yb  Yb0  1  0.250000  0.202864  0.945931  1
  Yb  Yb1  1  0.250000  0.528968  0.227384  1
  Yb  Yb2  1  0.750000  0.466327  0.775428  1
  Yb  Yb3  1  0.750000  0.969349  0.731594  1
  Yb  Yb4  1  0.250000  0.030854  0.266910  1
  Ce  Ce5  1  0.250000  0.699996  0.551609  1
  Ce  Ce6  1  0.750000  0.299036  0.447373  1
  Ce  Ce7  1  0.750000  0.802622  0.051859  1
  Os  Os8  1  0.250000  0.729961  0.857908  1
  Os  Os9  1  0.750000  0.273520  0.140476  1
  Os  Os10  1  0.750000  0.773506  0.356155  1
  Os  Os11  1  0.250000  0.230335  0.648260  1
  C  C12  1  0.250000  0.476220  0.753212  1
  C  C13  1  0.750000  0.531604  0.245175  1
  C  C14  1  0.750000  0.032092  0.253785  1
  C  C15  1  0.250000  0.967118  0.741524  1
  C  C16  1  0.250000  0.800487  0.037228  1
  C  C17  1  0.750000  0.187986  0.967389  1
  C  C18  1  0.750000  0.686007  0.534969  1
  C  C19  1  0.250000  0.311150  0.465832  1
