# generated using pymatgen
data_NaNd4S5
_symmetry_space_group_name_H-M   'P 1'
_cell_length_a   10.80329685
_cell_length_b   10.80329694
_cell_length_c   10.80329664
_cell_angle_alpha   158.37322128
_cell_angle_beta   149.02443691
_cell_angle_gamma   38.09477785
_symmetry_Int_Tables_number   1
_chemical_formula_structural   NaNd4S5
_chemical_formula_sum   'Na1 Nd4 S5'
_cell_volume   238.83492357
_cell_formula_units_Z   1
loop_
 _symmetry_equiv_pos_site_id
 _symmetry_equiv_pos_as_xyz
  1  'x, y, z'
loop_
 _atom_site_type_symbol
 _atom_site_label
 _atom_site_symmetry_multiplicity
 _atom_site_fract_x
 _atom_site_fract_y
 _atom_site_fract_z
 _atom_site_occupancy
  Na  Na0  1  0.000000  0.000000  0.000000  1
  Nd  Nd1  1  0.600386  0.600386  0.000000  1
  Nd  Nd2  1  0.201976  0.201976  0.000000  1
  Nd  Nd3  1  0.798024  0.798024  0.000000  1
  Nd  Nd4  1  0.399614  0.399614  0.000000  1
  S  S5  1  0.898484  0.398484  0.500000  1
  S  S6  1  0.698442  0.198442  0.500000  1
  S  S7  1  0.301558  0.801558  0.500000  1
  S  S8  1  0.500000  0.000000  0.500000  1
  S  S9  1  0.101516  0.601516  0.500000  1
