# generated using pymatgen
data_K2Zr6SiCl15
_symmetry_space_group_name_H-M   'P 1'
_cell_length_a   10.12414400
_cell_length_b   10.12414473
_cell_length_c   14.38136200
_cell_angle_alpha   90.00000000
_cell_angle_beta   90.00000000
_cell_angle_gamma   110.16018788
_symmetry_Int_Tables_number   1
_chemical_formula_structural   K2Zr6SiCl15
_chemical_formula_sum   'K4 Zr12 Si2 Cl30'
_cell_volume   1383.75319380
_cell_formula_units_Z   2
loop_
 _symmetry_equiv_pos_site_id
 _symmetry_equiv_pos_as_xyz
  1  'x, y, z'
loop_
 _atom_site_type_symbol
 _atom_site_label
 _atom_site_symmetry_multiplicity
 _atom_site_fract_x
 _atom_site_fract_y
 _atom_site_fract_z
 _atom_site_occupancy
  K  K0  1  0.000000  0.000000  0.250000  1
  K  K1  1  0.000000  0.000000  0.750000  1
  K  K2  1  0.500000  0.000000  0.000000  1
  K  K3  1  0.000000  0.500000  0.500000  1
  Zr  Zr4  1  0.005267  0.262409  0.000000  1
  Zr  Zr5  1  0.994733  0.737591  0.000000  1
  Zr  Zr6  1  0.737591  0.994733  0.500000  1
  Zr  Zr7  1  0.262409  0.005267  0.500000  1
  Zr  Zr8  1  0.817816  0.437364  0.120733  1
  Zr  Zr9  1  0.182184  0.562636  0.879267  1
  Zr  Zr10  1  0.182184  0.562636  0.120733  1
  Zr  Zr11  1  0.562636  0.182184  0.379267  1
  Zr  Zr12  1  0.817816  0.437364  0.879267  1
  Zr  Zr13  1  0.437364  0.817816  0.620733  1
  Zr  Zr14  1  0.437364  0.817816  0.379267  1
  Zr  Zr15  1  0.562636  0.182184  0.620733  1
  Si  Si16  1  0.000000  0.500000  0.000000  1
  Si  Si17  1  0.500000  0.000000  0.500000  1
  Cl  Cl18  1  0.622998  0.377002  0.250000  1
  Cl  Cl19  1  0.377002  0.622998  0.750000  1
  Cl  Cl20  1  0.377002  0.622998  0.250000  1
  Cl  Cl21  1  0.622998  0.377002  0.750000  1
  Cl  Cl22  1  0.000000  0.500000  0.255925  1
  Cl  Cl23  1  0.000000  0.500000  0.744075  1
  Cl  Cl24  1  0.500000  0.000000  0.244075  1
  Cl  Cl25  1  0.500000  0.000000  0.755925  1
  Cl  Cl26  1  0.193767  0.307825  0.129592  1
  Cl  Cl27  1  0.806233  0.692175  0.870408  1
  Cl  Cl28  1  0.806233  0.692175  0.129592  1
  Cl  Cl29  1  0.692175  0.806233  0.370408  1
  Cl  Cl30  1  0.193767  0.307825  0.870408  1
  Cl  Cl31  1  0.307825  0.193767  0.629592  1
  Cl  Cl32  1  0.307825  0.193767  0.370408  1
  Cl  Cl33  1  0.692175  0.806233  0.629592  1
  Cl  Cl34  1  0.388494  0.641073  0.000000  1
  Cl  Cl35  1  0.611506  0.358927  0.000000  1
  Cl  Cl36  1  0.358927  0.611506  0.500000  1
  Cl  Cl37  1  0.641073  0.388494  0.500000  1
  Cl  Cl38  1  0.826803  0.192304  0.375141  1
  Cl  Cl39  1  0.173197  0.807696  0.624859  1
  Cl  Cl40  1  0.173197  0.807696  0.375141  1
  Cl  Cl41  1  0.807696  0.173197  0.124859  1
  Cl  Cl42  1  0.826803  0.192304  0.624859  1
  Cl  Cl43  1  0.192304  0.826803  0.875141  1
  Cl  Cl44  1  0.192304  0.826803  0.124859  1
  Cl  Cl45  1  0.807696  0.173197  0.875141  1
  Cl  Cl46  1  0.000000  0.000000  0.000000  1
  Cl  Cl47  1  0.000000  0.000000  0.500000  1
