# generated using pymatgen
data_Pr7PaInRh6
_symmetry_space_group_name_H-M   'P 1'
_cell_length_a   7.72312196
_cell_length_b   7.72312097
_cell_length_c   7.72312177
_cell_angle_alpha   68.94912958
_cell_angle_beta   68.94912884
_cell_angle_gamma   68.94911933
_symmetry_Int_Tables_number   1
_chemical_formula_structural   Pr7PaInRh6
_chemical_formula_sum   'Pr7 Pa1 In1 Rh6'
_cell_volume   386.95871168
_cell_formula_units_Z   1
loop_
 _symmetry_equiv_pos_site_id
 _symmetry_equiv_pos_as_xyz
  1  'x, y, z'
loop_
 _atom_site_type_symbol
 _atom_site_label
 _atom_site_symmetry_multiplicity
 _atom_site_fract_x
 _atom_site_fract_y
 _atom_site_fract_z
 _atom_site_occupancy
  Pr  Pr0  1  0.189368  0.189368  0.189368  1
  Pr  Pr1  1  0.149342  0.379415  0.681632  1
  Pr  Pr2  1  0.681632  0.149342  0.379415  1
  Pr  Pr3  1  0.379415  0.681632  0.149342  1
  Pr  Pr4  1  0.850467  0.616508  0.325528  1
  Pr  Pr5  1  0.325528  0.850467  0.616508  1
  Pr  Pr6  1  0.616508  0.325528  0.850467  1
  Pa  Pa7  1  0.812595  0.812595  0.812595  1
  In  In8  1  0.999192  0.999192  0.999192  1
  Rh  Rh9  1  0.951433  0.148199  0.597832  1
  Rh  Rh10  1  0.597832  0.951433  0.148199  1
  Rh  Rh11  1  0.148199  0.597832  0.951433  1
  Rh  Rh12  1  0.029373  0.809230  0.459886  1
  Rh  Rh13  1  0.459886  0.029373  0.809230  1
  Rh  Rh14  1  0.809230  0.459886  0.029373  1
