# generated using pymatgen
data_Nd19SmSi15Se
_symmetry_space_group_name_H-M   'P 1'
_cell_length_a   7.89563676
_cell_length_b   7.93844720
_cell_length_c   14.98471432
_cell_angle_alpha   89.10568479
_cell_angle_beta   90.20688423
_cell_angle_gamma   90.24508298
_symmetry_Int_Tables_number   1
_chemical_formula_structural   Nd19SmSi15Se
_chemical_formula_sum   'Nd19 Sm1 Si15 Se1'
_cell_volume   939.09943783
_cell_formula_units_Z   1
loop_
 _symmetry_equiv_pos_site_id
 _symmetry_equiv_pos_as_xyz
  1  'x, y, z'
loop_
 _atom_site_type_symbol
 _atom_site_label
 _atom_site_symmetry_multiplicity
 _atom_site_fract_x
 _atom_site_fract_y
 _atom_site_fract_z
 _atom_site_occupancy
  Nd  Nd0  1  0.983303  0.138761  0.628614  1
  Nd  Nd1  1  0.867307  0.016208  0.875666  1
  Nd  Nd2  1  0.131673  0.976953  0.379982  1
  Nd  Nd3  1  0.510192  0.640621  0.618481  1
  Nd  Nd4  1  0.368643  0.487381  0.876496  1
  Nd  Nd5  1  0.638809  0.506177  0.372304  1
  Nd  Nd6  1  0.013631  0.868913  0.123905  1
  Nd  Nd7  1  0.627281  0.988041  0.450461  1
  Nd  Nd8  1  0.373568  0.008775  0.951873  1
  Nd  Nd9  1  0.989252  0.625057  0.548460  1
  Nd  Nd10  1  0.488508  0.865949  0.204484  1
  Nd  Nd11  1  0.515802  0.142509  0.707344  1
  Nd  Nd12  1  0.872824  0.493470  0.800022  1
  Nd  Nd13  1  0.125760  0.501793  0.292235  1
  Nd  Nd14  1  0.009096  0.370243  0.049077  1
  Nd  Nd15  1  0.307818  0.326166  0.497063  1
  Nd  Nd16  1  0.190098  0.814494  0.755528  1
  Nd  Nd17  1  0.811708  0.181271  0.250097  1
  Nd  Nd18  1  0.685467  0.688064  0.998862  1
  Sm  Sm19  1  0.485084  0.363457  0.124665  1
  Si  Si20  1  0.708451  0.074338  0.060342  1
  Si  Si21  1  0.925421  0.282080  0.441933  1
  Si  Si22  1  0.428050  0.200113  0.309275  1
  Si  Si23  1  0.572112  0.791462  0.806668  1
  Si  Si24  1  0.208743  0.434985  0.689832  1
  Si  Si25  1  0.787220  0.570322  0.188114  1
  Si  Si26  1  0.072730  0.708807  0.942570  1
  Si  Si27  1  0.801055  0.836559  0.694511  1
  Si  Si28  1  0.202451  0.157966  0.198000  1
  Si  Si29  1  0.836443  0.799079  0.302986  1
  Si  Si30  1  0.340461  0.679533  0.424223  1
  Si  Si31  1  0.661541  0.298986  0.947427  1
  Si  Si32  1  0.697619  0.337115  0.554235  1
  Si  Si33  1  0.298853  0.659132  0.056532  1
  Si  Si34  1  0.163690  0.204210  0.805323  1
  Se  Se35  1  0.299335  0.961008  0.572410  1
