# generated using pymatgen
data_Sc8Ta10NbSi16Rh
_symmetry_space_group_name_H-M   'P 1'
_cell_length_a   6.65229141
_cell_length_b   6.91085687
_cell_length_c   13.06633112
_cell_angle_alpha   90.00142486
_cell_angle_beta   89.98432165
_cell_angle_gamma   90.60650501
_symmetry_Int_Tables_number   1
_chemical_formula_structural   Sc8Ta10NbSi16Rh
_chemical_formula_sum   'Sc8 Ta10 Nb1 Si16 Rh1'
_cell_volume   600.66520528
_cell_formula_units_Z   1
loop_
 _symmetry_equiv_pos_site_id
 _symmetry_equiv_pos_as_xyz
  1  'x, y, z'
loop_
 _atom_site_type_symbol
 _atom_site_label
 _atom_site_symmetry_multiplicity
 _atom_site_fract_x
 _atom_site_fract_y
 _atom_site_fract_z
 _atom_site_occupancy
  Sc  Sc0  1  0.496201  0.676090  0.592787  1
  Sc  Sc1  1  0.001864  0.828027  0.907413  1
  Sc  Sc2  1  0.498544  0.326876  0.094707  1
  Sc  Sc3  1  0.000022  0.172959  0.403424  1
  Sc  Sc4  1  0.498420  0.326910  0.405086  1
  Sc  Sc5  1  0.999979  0.172902  0.096322  1
  Sc  Sc6  1  0.495995  0.675751  0.907243  1
  Sc  Sc7  1  0.001874  0.827468  0.592719  1
  Ta  Ta8  1  0.669883  0.170557  0.627664  1
  Ta  Ta9  1  0.161808  0.323077  0.873068  1
  Ta  Ta10  1  0.335631  0.825921  0.124316  1
  Ta  Ta11  1  0.835648  0.674019  0.377194  1
  Ta  Ta12  1  0.335576  0.825890  0.375584  1
  Ta  Ta13  1  0.835859  0.673906  0.122748  1
  Ta  Ta14  1  0.670327  0.170597  0.872449  1
  Ta  Ta15  1  0.340810  0.999705  0.750264  1
  Ta  Ta16  1  0.162108  0.507136  0.249952  1
  Ta  Ta17  1  0.661703  0.993777  0.249990  1
  Nb  Nb18  1  0.162320  0.323415  0.626781  1
  Si  Si19  1  0.670129  0.968000  0.460506  1
  Si  Si20  1  0.169258  0.532316  0.037928  1
  Si  Si21  1  0.333072  0.034635  0.959499  1
  Si  Si22  1  0.830549  0.465551  0.541519  1
  Si  Si23  1  0.333562  0.034434  0.540564  1
  Si  Si24  1  0.830496  0.465630  0.958683  1
  Si  Si25  1  0.670370  0.968014  0.039570  1
  Si  Si26  1  0.169008  0.532269  0.461732  1
  Si  Si27  1  0.469881  0.389317  0.750091  1
  Si  Si28  1  0.964876  0.102232  0.749836  1
  Si  Si29  1  0.538795  0.613027  0.249995  1
  Si  Si30  1  0.037809  0.886735  0.249984  1
  Si  Si31  1  0.706192  0.855484  0.750078  1
  Si  Si32  1  0.196565  0.633257  0.750129  1
  Si  Si33  1  0.295289  0.138381  0.250007  1
  Si  Si34  1  0.792801  0.363318  0.249941  1
  Rh  Rh35  1  0.826772  0.522414  0.750227  1
