# generated using pymatgen
data_Er8Re3TcB24
_symmetry_space_group_name_H-M   'P 1'
_cell_length_a   3.65815000
_cell_length_b   9.12968329
_cell_length_c   11.50033036
_cell_angle_alpha   90.02886113
_cell_angle_beta   90.00000000
_cell_angle_gamma   90.00000000
_symmetry_Int_Tables_number   1
_chemical_formula_structural   Er8Re3TcB24
_chemical_formula_sum   'Er8 Re3 Tc1 B24'
_cell_volume   384.08512036
_cell_formula_units_Z   1
loop_
 _symmetry_equiv_pos_site_id
 _symmetry_equiv_pos_as_xyz
  1  'x, y, z'
loop_
 _atom_site_type_symbol
 _atom_site_label
 _atom_site_symmetry_multiplicity
 _atom_site_fract_x
 _atom_site_fract_y
 _atom_site_fract_z
 _atom_site_occupancy
  Er  Er0  1  0.000000  0.323951  0.413689  1
  Er  Er1  1  0.000000  0.676430  0.586035  1
  Er  Er2  1  0.000000  0.823538  0.086268  1
  Er  Er3  1  0.000000  0.176481  0.913779  1
  Er  Er4  1  0.000000  0.942559  0.369990  1
  Er  Er5  1  0.000000  0.056440  0.629658  1
  Er  Er6  1  0.000000  0.444079  0.130397  1
  Er  Er7  1  0.000000  0.556462  0.870357  1
  Re  Re8  1  0.000000  0.361014  0.679158  1
  Re  Re9  1  0.000000  0.139073  0.179272  1
  Re  Re10  1  0.000000  0.860966  0.820803  1
  Tc  Tc11  1  0.000000  0.639195  0.320679  1
  B  B12  1  0.500000  0.553445  0.433080  1
  B  B13  1  0.500000  0.446778  0.566625  1
  B  B14  1  0.500000  0.053283  0.066700  1
  B  B15  1  0.500000  0.946721  0.933288  1
  B  B16  1  0.500000  0.749433  0.419211  1
  B  B17  1  0.500000  0.250229  0.580658  1
  B  B18  1  0.500000  0.249855  0.080651  1
  B  B19  1  0.500000  0.750247  0.919326  1
  B  B20  1  0.500000  0.792630  0.265479  1
  B  B21  1  0.500000  0.207024  0.734430  1
  B  B22  1  0.500000  0.292984  0.234559  1
  B  B23  1  0.500000  0.707044  0.765523  1
  B  B24  1  0.500000  0.631388  0.185458  1
  B  B25  1  0.500000  0.368807  0.814677  1
  B  B26  1  0.500000  0.131125  0.314740  1
  B  B27  1  0.500000  0.868777  0.685268  1
  B  B28  1  0.500000  0.981966  0.211939  1
  B  B29  1  0.500000  0.017918  0.788011  1
  B  B30  1  0.500000  0.482355  0.288156  1
  B  B31  1  0.500000  0.517952  0.712006  1
  B  B32  1  0.500000  0.600381  0.028161  1
  B  B33  1  0.500000  0.399739  0.972071  1
  B  B34  1  0.500000  0.100147  0.471843  1
  B  B35  1  0.500000  0.899587  0.528057  1
