# generated using pymatgen
data_Ba4Ho(IrO6)2
_symmetry_space_group_name_H-M   'P 1'
_cell_length_a   10.10200350
_cell_length_b   10.10200329
_cell_length_c   10.10200376
_cell_angle_alpha   33.91817651
_cell_angle_beta   33.91817661
_cell_angle_gamma   33.91817666
_symmetry_Int_Tables_number   1
_chemical_formula_structural   Ba4Ho(IrO6)2
_chemical_formula_sum   'Ba4 Ho1 Ir2 O12'
_cell_volume   286.09214639
_cell_formula_units_Z   1
loop_
 _symmetry_equiv_pos_site_id
 _symmetry_equiv_pos_as_xyz
  1  'x, y, z'
loop_
 _atom_site_type_symbol
 _atom_site_label
 _atom_site_symmetry_multiplicity
 _atom_site_fract_x
 _atom_site_fract_y
 _atom_site_fract_z
 _atom_site_occupancy
  Ba  Ba0  1  0.712234  0.712234  0.712234  1
  Ba  Ba1  1  0.287766  0.287766  0.287766  1
  Ba  Ba2  1  0.866494  0.866494  0.866494  1
  Ba  Ba3  1  0.133506  0.133506  0.133506  1
  Ho  Ho4  1  0.000000  0.000000  0.000000  1
  Ir  Ir5  1  0.579845  0.579845  0.579845  1
  Ir  Ir6  1  0.420155  0.420155  0.420155  1
  O  O7  1  0.221938  0.690592  0.221938  1
  O  O8  1  0.221938  0.221938  0.690592  1
  O  O9  1  0.690592  0.221938  0.221938  1
  O  O10  1  0.778062  0.309408  0.778062  1
  O  O11  1  0.778062  0.778062  0.309408  1
  O  O12  1  0.309408  0.778062  0.778062  1
  O  O13  1  0.386991  0.859011  0.386991  1
  O  O14  1  0.386991  0.386991  0.859011  1
  O  O15  1  0.859011  0.386991  0.386991  1
  O  O16  1  0.613009  0.140989  0.613009  1
  O  O17  1  0.613009  0.613009  0.140989  1
  O  O18  1  0.140989  0.613009  0.613009  1
