# generated using pymatgen
data_La4In16Rh3Au5
_symmetry_space_group_name_H-M   'P 1'
_cell_length_a   4.69575100
_cell_length_b   7.34009884
_cell_length_c   19.01754238
_cell_angle_alpha   90.32671139
_cell_angle_beta   90.00000000
_cell_angle_gamma   90.00000000
_symmetry_Int_Tables_number   1
_chemical_formula_structural   La4In16Rh3Au5
_chemical_formula_sum   'La4 In16 Rh3 Au5'
_cell_volume   655.47223463
_cell_formula_units_Z   1
loop_
 _symmetry_equiv_pos_site_id
 _symmetry_equiv_pos_as_xyz
  1  'x, y, z'
loop_
 _atom_site_type_symbol
 _atom_site_label
 _atom_site_symmetry_multiplicity
 _atom_site_fract_x
 _atom_site_fract_y
 _atom_site_fract_z
 _atom_site_occupancy
  La  La0  1  0.750000  0.974121  0.640030  1
  La  La1  1  0.250000  0.474696  0.858419  1
  La  La2  1  0.750000  0.523961  0.141570  1
  La  La3  1  0.250000  0.025676  0.358101  1
  In  In4  1  0.250000  0.233083  0.193920  1
  In  In5  1  0.250000  0.504915  0.420903  1
  In  In6  1  0.250000  0.994574  0.925077  1
  In  In7  1  0.250000  0.825901  0.190913  1
  In  In8  1  0.250000  0.681356  0.689790  1
  In  In9  1  0.250000  0.256093  0.693818  1
  In  In10  1  0.250000  0.164024  0.535475  1
  In  In11  1  0.750000  0.003218  0.077489  1
  In  In12  1  0.750000  0.166662  0.813503  1
  In  In13  1  0.250000  0.338874  0.036610  1
  In  In14  1  0.750000  0.841487  0.462292  1
  In  In15  1  0.750000  0.657345  0.965311  1
  In  In16  1  0.750000  0.771333  0.810620  1
  In  In17  1  0.750000  0.503036  0.571304  1
  In  In18  1  0.750000  0.327455  0.308378  1
  In  In19  1  0.750000  0.734303  0.305011  1
  Rh  Rh20  1  0.250000  0.967008  0.783191  1
  Rh  Rh21  1  0.750000  0.032749  0.219045  1
  Rh  Rh22  1  0.250000  0.533367  0.280229  1
  Au  Au23  1  0.250000  0.751492  0.540355  1
  Au  Au24  1  0.250000  0.748747  0.041749  1
  Au  Au25  1  0.750000  0.248545  0.457471  1
  Au  Au26  1  0.750000  0.250544  0.960169  1
  Au  Au27  1  0.750000  0.465430  0.719252  1
