# generated using pymatgen
data_Ce8Ta12Si15P
_symmetry_space_group_name_H-M   'P 1'
_cell_length_a   6.92695674
_cell_length_b   7.13005693
_cell_length_c   13.44828300
_cell_angle_alpha   89.98075424
_cell_angle_beta   89.90900605
_cell_angle_gamma   90.09844821
_symmetry_Int_Tables_number   1
_chemical_formula_structural   Ce8Ta12Si15P
_chemical_formula_sum   'Ce8 Ta12 Si15 P1'
_cell_volume   664.20340678
_cell_formula_units_Z   1
loop_
 _symmetry_equiv_pos_site_id
 _symmetry_equiv_pos_as_xyz
  1  'x, y, z'
loop_
 _atom_site_type_symbol
 _atom_site_label
 _atom_site_symmetry_multiplicity
 _atom_site_fract_x
 _atom_site_fract_y
 _atom_site_fract_z
 _atom_site_occupancy
  Ce  Ce0  1  0.003927  0.168247  0.094434  1
  Ce  Ce1  1  0.996330  0.831667  0.905245  1
  Ce  Ce2  1  0.496654  0.668117  0.905209  1
  Ce  Ce3  1  0.998124  0.828011  0.594390  1
  Ce  Ce4  1  0.503851  0.331432  0.094405  1
  Ce  Ce5  1  0.004298  0.172735  0.406582  1
  Ce  Ce6  1  0.501386  0.330120  0.405320  1
  Ce  Ce7  1  0.495012  0.668458  0.594717  1
  Ta  Ta8  1  0.161965  0.493395  0.749370  1
  Ta  Ta9  1  0.838031  0.505873  0.250145  1
  Ta  Ta10  1  0.338117  0.993629  0.250388  1
  Ta  Ta11  1  0.662167  0.006281  0.749534  1
  Ta  Ta12  1  0.336031  0.174845  0.624534  1
  Ta  Ta13  1  0.661287  0.828316  0.374597  1
  Ta  Ta14  1  0.163379  0.668889  0.377127  1
  Ta  Ta15  1  0.664078  0.826763  0.125590  1
  Ta  Ta16  1  0.839917  0.328940  0.623521  1
  Ta  Ta17  1  0.336168  0.173819  0.874393  1
  Ta  Ta18  1  0.836649  0.326694  0.874281  1
  Ta  Ta19  1  0.163383  0.673472  0.125753  1
  Si  Si20  1  0.039286  0.124117  0.749477  1
  Si  Si21  1  0.961444  0.875247  0.251218  1
  Si  Si22  1  0.460060  0.624373  0.250269  1
  Si  Si23  1  0.540835  0.374551  0.749743  1
  Si  Si24  1  0.297097  0.878405  0.749948  1
  Si  Si25  1  0.704132  0.123401  0.250202  1
  Si  Si26  1  0.203482  0.377239  0.249466  1
  Si  Si27  1  0.796625  0.622783  0.749883  1
  Si  Si28  1  0.831955  0.542988  0.455568  1
  Si  Si29  1  0.338644  0.959565  0.457106  1
  Si  Si30  1  0.840042  0.540035  0.042790  1
  Si  Si31  1  0.661533  0.040625  0.543260  1
  Si  Si32  1  0.159899  0.460122  0.956819  1
  Si  Si33  1  0.660074  0.040219  0.956956  1
  Si  Si34  1  0.340211  0.959591  0.042770  1
  P  P35  1  0.163923  0.457037  0.544988  1
