# generated using pymatgen
data_Ho5CoSeO12
_symmetry_space_group_name_H-M   'P 1'
_cell_length_a   6.76149658
_cell_length_b   6.76149638
_cell_length_c   7.16598571
_cell_angle_alpha   74.52750378
_cell_angle_beta   74.52750380
_cell_angle_gamma   50.21482314
_symmetry_Int_Tables_number   1
_chemical_formula_structural   Ho5CoSeO12
_chemical_formula_sum   'Ho5 Co1 Se1 O12'
_cell_volume   240.58052447
_cell_formula_units_Z   1
loop_
 _symmetry_equiv_pos_site_id
 _symmetry_equiv_pos_as_xyz
  1  'x, y, z'
loop_
 _atom_site_type_symbol
 _atom_site_label
 _atom_site_symmetry_multiplicity
 _atom_site_fract_x
 _atom_site_fract_y
 _atom_site_fract_z
 _atom_site_occupancy
  Ho  Ho0  1  0.289278  0.315181  0.358189  1
  Ho  Ho1  1  0.684819  0.710722  0.641811  1
  Ho  Ho2  1  0.304026  0.306026  0.835586  1
  Ho  Ho3  1  0.693974  0.695974  0.164414  1
  Ho  Ho4  1  0.989799  0.010201  0.500000  1
  Co  Co5  1  0.255417  0.744583  0.000000  1
  Se  Se6  1  0.765866  0.234134  0.000000  1
  O  O7  1  0.899371  0.409187  0.921187  1
  O  O8  1  0.428518  0.901498  0.920299  1
  O  O9  1  0.098502  0.571482  0.079701  1
  O  O10  1  0.590813  0.100629  0.078813  1
  O  O11  1  0.089505  0.603209  0.579070  1
  O  O12  1  0.593604  0.105438  0.571165  1
  O  O13  1  0.894562  0.406396  0.428835  1
  O  O14  1  0.396791  0.910495  0.420930  1
  O  O15  1  0.994549  0.005575  0.825884  1
  O  O16  1  0.994425  0.005451  0.174116  1
  O  O17  1  0.517930  0.481749  0.824848  1
  O  O18  1  0.518251  0.482070  0.175152  1
