# generated using pymatgen
data_Gd3P4Rh7
_symmetry_space_group_name_H-M   'P 1'
_cell_length_a   7.95989920
_cell_length_b   7.95989850
_cell_length_c   9.42910700
_cell_angle_alpha   56.53155594
_cell_angle_beta   56.53155925
_cell_angle_gamma   29.49158328
_symmetry_Int_Tables_number   1
_chemical_formula_structural   Gd3P4Rh7
_chemical_formula_sum   'Gd3 P4 Rh7'
_cell_volume   241.60205962
_cell_formula_units_Z   1
loop_
 _symmetry_equiv_pos_site_id
 _symmetry_equiv_pos_as_xyz
  1  'x, y, z'
loop_
 _atom_site_type_symbol
 _atom_site_label
 _atom_site_symmetry_multiplicity
 _atom_site_fract_x
 _atom_site_fract_y
 _atom_site_fract_z
 _atom_site_occupancy
  Gd  Gd0  1  0.671151  0.671151  0.330535  1
  Gd  Gd1  1  0.328849  0.328849  0.669465  1
  Gd  Gd2  1  0.000000  0.000000  0.000000  1
  P  P3  1  0.332468  0.332468  0.278108  1
  P  P4  1  0.667532  0.667532  0.721892  1
  P  P5  1  0.892546  0.892546  0.822279  1
  P  P6  1  0.107454  0.107454  0.177721  1
  Rh  Rh7  1  0.300329  0.300329  0.049021  1
  Rh  Rh8  1  0.699671  0.699671  0.950979  1
  Rh  Rh9  1  0.506188  0.506188  0.734581  1
  Rh  Rh10  1  0.829747  0.829747  0.419533  1
  Rh  Rh11  1  0.493812  0.493812  0.265419  1
  Rh  Rh12  1  0.170253  0.170253  0.580467  1
  Rh  Rh13  1  0.000000  0.000000  0.500000  1
