# generated using pymatgen
data_Li2TbHo7(Sc5Si8)2
_symmetry_space_group_name_H-M   'P 1'
_cell_length_a   6.99748904
_cell_length_b   7.39749400
_cell_length_c   14.00122951
_cell_angle_alpha   90.03029019
_cell_angle_beta   90.00678783
_cell_angle_gamma   89.94515920
_symmetry_Int_Tables_number   1
_chemical_formula_structural   Li2TbHo7(Sc5Si8)2
_chemical_formula_sum   'Li2 Tb1 Ho7 Sc10 Si16'
_cell_volume   724.75757129
_cell_formula_units_Z   1
loop_
 _symmetry_equiv_pos_site_id
 _symmetry_equiv_pos_as_xyz
  1  'x, y, z'
loop_
 _atom_site_type_symbol
 _atom_site_label
 _atom_site_symmetry_multiplicity
 _atom_site_fract_x
 _atom_site_fract_y
 _atom_site_fract_z
 _atom_site_occupancy
  Li  Li0  1  0.159861  0.506681  0.749986  1
  Li  Li1  1  0.840087  0.493472  0.250080  1
  Tb  Tb2  1  0.010053  0.183566  0.098114  1
  Ho  Ho3  1  0.989526  0.815909  0.901484  1
  Ho  Ho4  1  0.484834  0.674286  0.902427  1
  Ho  Ho5  1  0.989531  0.815923  0.598366  1
  Ho  Ho6  1  0.515251  0.325796  0.097482  1
  Ho  Ho7  1  0.010437  0.184019  0.401580  1
  Ho  Ho8  1  0.515301  0.325706  0.402595  1
  Ho  Ho9  1  0.484752  0.674272  0.597464  1
  Sc  Sc10  1  0.341930  0.003012  0.250120  1
  Sc  Sc11  1  0.658222  0.996806  0.749986  1
  Sc  Sc12  1  0.325796  0.181731  0.626054  1
  Sc  Sc13  1  0.674180  0.818211  0.374059  1
  Sc  Sc14  1  0.165299  0.675141  0.373150  1
  Sc  Sc15  1  0.674093  0.818110  0.126055  1
  Sc  Sc16  1  0.834700  0.324861  0.626933  1
  Sc  Sc17  1  0.325957  0.181737  0.873866  1
  Sc  Sc18  1  0.834518  0.325036  0.872990  1
  Sc  Sc19  1  0.165364  0.675107  0.126947  1
  Si  Si20  1  0.029041  0.101143  0.749956  1
  Si  Si21  1  0.970758  0.898302  0.250249  1
  Si  Si22  1  0.465328  0.613421  0.250068  1
  Si  Si23  1  0.534624  0.386691  0.749984  1
  Si  Si24  1  0.287288  0.879498  0.750007  1
  Si  Si25  1  0.712272  0.120219  0.250354  1
  Si  Si26  1  0.221290  0.373207  0.250263  1
  Si  Si27  1  0.779185  0.627258  0.749972  1
  Si  Si28  1  0.160211  0.461447  0.533197  1
  Si  Si29  1  0.839823  0.538543  0.466831  1
  Si  Si30  1  0.343163  0.966830  0.461205  1
  Si  Si31  1  0.839687  0.539182  0.032969  1
  Si  Si32  1  0.656777  0.033202  0.538830  1
  Si  Si33  1  0.160373  0.462104  0.966593  1
  Si  Si34  1  0.656584  0.033115  0.961130  1
  Si  Si35  1  0.343904  0.966453  0.038652  1
