# generated using pymatgen
data_YCdIO6
_symmetry_space_group_name_H-M   'P 1'
_cell_length_a   5.03756100
_cell_length_b   5.03412900
_cell_length_c   9.94372600
_cell_angle_alpha   90.00000000
_cell_angle_beta   90.00000000
_cell_angle_gamma   90.00000000
_symmetry_Int_Tables_number   1
_chemical_formula_structural   YCdIO6
_chemical_formula_sum   'Y2 Cd2 I2 O12'
_cell_volume   252.17022564
_cell_formula_units_Z   2
loop_
 _symmetry_equiv_pos_site_id
 _symmetry_equiv_pos_as_xyz
  1  'x, y, z'
loop_
 _atom_site_type_symbol
 _atom_site_label
 _atom_site_symmetry_multiplicity
 _atom_site_fract_x
 _atom_site_fract_y
 _atom_site_fract_z
 _atom_site_occupancy
  Y  Y0  1  0.000000  0.000000  0.342390  1
  Y  Y1  1  0.500000  0.500000  0.157610  1
  Cd  Cd2  1  0.000000  0.000000  0.668790  1
  Cd  Cd3  1  0.500000  0.500000  0.831210  1
  I  I4  1  0.500000  0.500000  0.501072  1
  I  I5  1  0.000000  0.000000  0.998928  1
  O  O6  1  0.682673  0.683089  0.637847  1
  O  O7  1  0.317327  0.316911  0.637847  1
  O  O8  1  0.817327  0.183089  0.862153  1
  O  O9  1  0.182673  0.816911  0.862153  1
  O  O10  1  0.320862  0.320720  0.352955  1
  O  O11  1  0.679138  0.679280  0.352955  1
  O  O12  1  0.179138  0.820720  0.147045  1
  O  O13  1  0.820862  0.179280  0.147045  1
  O  O14  1  0.732299  0.732302  0.007511  1
  O  O15  1  0.267701  0.267698  0.007511  1
  O  O16  1  0.767701  0.232302  0.492489  1
  O  O17  1  0.232299  0.767698  0.492489  1
