# generated using pymatgen
data_Ba4CuRh2O9
_symmetry_space_group_name_H-M   'P 1'
_cell_length_a   8.34104044
_cell_length_b   10.19097435
_cell_length_c   10.19427700
_cell_angle_alpha   119.58511046
_cell_angle_beta   89.98148080
_cell_angle_gamma   90.17542592
_symmetry_Int_Tables_number   1
_chemical_formula_structural   Ba4CuRh2O9
_chemical_formula_sum   'Ba12 Cu3 Rh6 O27'
_cell_volume   753.56561268
_cell_formula_units_Z   3
loop_
 _symmetry_equiv_pos_site_id
 _symmetry_equiv_pos_as_xyz
  1  'x, y, z'
loop_
 _atom_site_type_symbol
 _atom_site_label
 _atom_site_symmetry_multiplicity
 _atom_site_fract_x
 _atom_site_fract_y
 _atom_site_fract_z
 _atom_site_occupancy
  Ba  Ba0  1  0.499534  0.637477  0.638006  1
  Ba  Ba1  1  0.504429  0.351119  0.992129  1
  Ba  Ba2  1  0.494983  0.991033  0.358343  1
  Ba  Ba3  1  0.246542  0.661100  0.971006  1
  Ba  Ba4  1  0.254590  0.016758  0.686406  1
  Ba  Ba5  1  0.252784  0.303988  0.330304  1
  Ba  Ba6  1  0.746408  0.331275  0.303226  1
  Ba  Ba7  1  0.750021  0.679637  0.015336  1
  Ba  Ba8  1  0.749333  0.972847  0.668164  1
  Ba  Ba9  1  0.999251  0.666591  0.667694  1
  Ba  Ba10  1  0.998651  0.326480  0.994116  1
  Ba  Ba11  1  0.000892  0.994678  0.331303  1
  Cu  Cu12  1  0.740144  0.269738  0.604751  1
  Cu  Cu13  1  0.260344  0.604445  0.270942  1
  Cu  Cu14  1  0.500143  0.934264  0.998862  1
  Rh  Rh15  1  0.164206  0.006199  0.001513  1
  Rh  Rh16  1  0.836297  0.003735  0.000307  1
  Rh  Rh17  1  0.077942  0.336705  0.668106  1
  Rh  Rh18  1  0.923058  0.672113  0.340804  1
  Rh  Rh19  1  0.403024  0.335287  0.666533  1
  Rh  Rh20  1  0.596666  0.667497  0.336979  1
  O  O21  1  0.998782  0.151743  0.154312  1
  O  O22  1  0.999423  0.852042  0.003770  1
  O  O23  1  0.001907  0.999379  0.849205  1
  O  O24  1  0.283566  0.174640  0.007265  1
  O  O25  1  0.317946  0.991419  0.146932  1
  O  O26  1  0.318770  0.854087  0.848356  1
  O  O27  1  0.684523  0.842076  0.852555  1
  O  O28  1  0.716532  0.163957  0.989698  1
  O  O29  1  0.679039  0.001485  0.150471  1
  O  O30  1  0.238566  0.166430  0.513239  1
  O  O31  1  0.240751  0.482113  0.649999  1
  O  O32  1  0.241949  0.343258  0.823462  1
  O  O33  1  0.758118  0.827010  0.344715  1
  O  O34  1  0.759383  0.650433  0.483140  1
  O  O35  1  0.761818  0.518932  0.172689  1
  O  O36  1  0.077697  0.515908  0.329239  1
  O  O37  1  0.079886  0.679628  0.196204  1
  O  O38  1  0.039136  0.831350  0.509398  1
  O  O39  1  0.961042  0.506194  0.827829  1
  O  O40  1  0.921532  0.190693  0.673681  1
  O  O41  1  0.922132  0.324256  0.511803  1
  O  O42  1  0.444335  0.502768  0.317323  1
  O  O43  1  0.440872  0.673052  0.187735  1
  O  O44  1  0.468744  0.822633  0.507693  1
  O  O45  1  0.529684  0.505906  0.823900  1
  O  O46  1  0.557751  0.186424  0.674001  1
  O  O47  1  0.556871  0.316219  0.503559  1
