# generated using pymatgen
data_Tb11Nd8Si16Mo
_symmetry_space_group_name_H-M   'P 1'
_cell_length_a   7.71469990
_cell_length_b   7.71469990
_cell_length_c   14.41603493
_cell_angle_alpha   90.20674603
_cell_angle_beta   89.79325397
_cell_angle_gamma   90.10734031
_symmetry_Int_Tables_number   1
_chemical_formula_structural   Tb11Nd8Si16Mo
_chemical_formula_sum   'Tb11 Nd8 Si16 Mo1'
_cell_volume   857.98065060
_cell_formula_units_Z   1
loop_
 _symmetry_equiv_pos_site_id
 _symmetry_equiv_pos_as_xyz
  1  'x, y, z'
loop_
 _atom_site_type_symbol
 _atom_site_label
 _atom_site_symmetry_multiplicity
 _atom_site_fract_x
 _atom_site_fract_y
 _atom_site_fract_z
 _atom_site_occupancy
  Tb  Tb0  1  0.486929  0.366186  0.127038  1
  Tb  Tb1  1  0.994066  0.142345  0.621156  1
  Tb  Tb2  1  0.863335  0.011050  0.873978  1
  Tb  Tb3  1  0.142345  0.994066  0.378844  1
  Tb  Tb4  1  0.507863  0.631648  0.620892  1
  Tb  Tb5  1  0.366186  0.486929  0.872962  1
  Tb  Tb6  1  0.631648  0.507863  0.379108  1
  Tb  Tb7  1  0.011050  0.863335  0.126022  1
  Tb  Tb8  1  0.185449  0.814051  0.747283  1
  Tb  Tb9  1  0.814051  0.185449  0.252717  1
  Tb  Tb10  1  0.686303  0.686303  0.000000  1
  Nd  Nd11  1  0.629914  0.994528  0.456365  1
  Nd  Nd12  1  0.363520  0.009529  0.955511  1
  Nd  Nd13  1  0.994528  0.629914  0.543635  1
  Nd  Nd14  1  0.490638  0.863548  0.208867  1
  Nd  Nd15  1  0.504534  0.139221  0.700697  1
  Nd  Nd16  1  0.863548  0.490638  0.791133  1
  Nd  Nd17  1  0.139221  0.504534  0.299303  1
  Nd  Nd18  1  0.009529  0.363520  0.044489  1
  Si  Si19  1  0.289538  0.941928  0.560729  1
  Si  Si20  1  0.711176  0.068471  0.062371  1
  Si  Si21  1  0.941928  0.289538  0.439271  1
  Si  Si22  1  0.427098  0.216046  0.321424  1
  Si  Si23  1  0.569568  0.790172  0.808912  1
  Si  Si24  1  0.216046  0.427098  0.678576  1
  Si  Si25  1  0.790172  0.569568  0.191088  1
  Si  Si26  1  0.068471  0.711176  0.937629  1
  Si  Si27  1  0.797140  0.843361  0.691010  1
  Si  Si28  1  0.201335  0.157163  0.195280  1
  Si  Si29  1  0.843361  0.797140  0.308990  1
  Si  Si30  1  0.338868  0.690756  0.445457  1
  Si  Si31  1  0.657775  0.300751  0.943372  1
  Si  Si32  1  0.690756  0.338868  0.554543  1
  Si  Si33  1  0.300751  0.657775  0.056628  1
  Si  Si34  1  0.157163  0.201335  0.804720  1
  Mo  Mo35  1  0.314195  0.314195  0.500000  1
