# generated using pymatgen
data_TbYb2P4Pd7
_symmetry_space_group_name_H-M   'P 1'
_cell_length_a   7.90492532
_cell_length_b   7.90492515
_cell_length_c   9.32617336
_cell_angle_alpha   55.79531304
_cell_angle_beta   55.79531572
_cell_angle_gamma   29.73757693
_symmetry_Int_Tables_number   1
_chemical_formula_structural   TbYb2P4Pd7
_chemical_formula_sum   'Tb1 Yb2 P4 Pd7'
_cell_volume   235.14708412
_cell_formula_units_Z   1
loop_
 _symmetry_equiv_pos_site_id
 _symmetry_equiv_pos_as_xyz
  1  'x, y, z'
loop_
 _atom_site_type_symbol
 _atom_site_label
 _atom_site_symmetry_multiplicity
 _atom_site_fract_x
 _atom_site_fract_y
 _atom_site_fract_z
 _atom_site_occupancy
  Tb  Tb0  1  0.000000  0.000000  0.000000  1
  Yb  Yb1  1  0.676624  0.676624  0.325286  1
  Yb  Yb2  1  0.323376  0.323376  0.674714  1
  P  P3  1  0.340764  0.340764  0.257586  1
  P  P4  1  0.659236  0.659236  0.742414  1
  P  P5  1  0.894054  0.894054  0.821291  1
  P  P6  1  0.105946  0.105946  0.178709  1
  Pd  Pd7  1  0.301911  0.301911  0.038139  1
  Pd  Pd8  1  0.698089  0.698089  0.961861  1
  Pd  Pd9  1  0.509630  0.509630  0.716478  1
  Pd  Pd10  1  0.826255  0.826255  0.423190  1
  Pd  Pd11  1  0.490370  0.490370  0.283522  1
  Pd  Pd12  1  0.173745  0.173745  0.576810  1
  Pd  Pd13  1  0.000000  0.000000  0.500000  1
