# generated using pymatgen
data_Tm16Lu4Sn7Pb9
_symmetry_space_group_name_H-M   'P 1'
_cell_length_a   8.06400552
_cell_length_b   8.08925053
_cell_length_c   15.37520500
_cell_angle_alpha   90.00000000
_cell_angle_beta   90.00000000
_cell_angle_gamma   90.04130126
_symmetry_Int_Tables_number   1
_chemical_formula_structural   Tm16Lu4Sn7Pb9
_chemical_formula_sum   'Tm16 Lu4 Sn7 Pb9'
_cell_volume   1002.95143608
_cell_formula_units_Z   1
loop_
 _symmetry_equiv_pos_site_id
 _symmetry_equiv_pos_as_xyz
  1  'x, y, z'
loop_
 _atom_site_type_symbol
 _atom_site_label
 _atom_site_symmetry_multiplicity
 _atom_site_fract_x
 _atom_site_fract_y
 _atom_site_fract_z
 _atom_site_occupancy
  Tm  Tm0  1  0.382210  0.839372  0.876512  1
  Tm  Tm1  1  0.882435  0.660678  0.623501  1
  Tm  Tm2  1  0.617811  0.160417  0.376920  1
  Tm  Tm3  1  0.117992  0.338048  0.122677  1
  Tm  Tm4  1  0.617811  0.160417  0.123080  1
  Tm  Tm5  1  0.117992  0.338048  0.377323  1
  Tm  Tm6  1  0.382210  0.839372  0.623488  1
  Tm  Tm7  1  0.882435  0.660678  0.876499  1
  Tm  Tm8  1  0.541247  0.325479  0.895377  1
  Tm  Tm9  1  0.042090  0.174243  0.604448  1
  Tm  Tm10  1  0.461424  0.674272  0.397149  1
  Tm  Tm11  1  0.956221  0.827667  0.101925  1
  Tm  Tm12  1  0.461424  0.674272  0.102851  1
  Tm  Tm13  1  0.956221  0.827667  0.398075  1
  Tm  Tm14  1  0.541247  0.325479  0.604623  1
  Tm  Tm15  1  0.042090  0.174243  0.895552  1
  Lu  Lu16  1  0.212624  0.504081  0.750000  1
  Lu  Lu17  1  0.712506  0.995772  0.750000  1
  Lu  Lu18  1  0.785087  0.494126  0.250000  1
  Lu  Lu19  1  0.288689  0.006992  0.250000  1
  Sn  Sn20  1  0.577384  0.623626  0.750000  1
  Sn  Sn21  1  0.077243  0.876690  0.750000  1
  Sn  Sn22  1  0.423105  0.375801  0.250000  1
  Sn  Sn23  1  0.922560  0.122960  0.250000  1
  Sn  Sn24  1  0.349426  0.150410  0.750000  1
  Sn  Sn25  1  0.849844  0.349063  0.750000  1
  Sn  Sn26  1  0.650497  0.848622  0.250000  1
  Pb  Pb27  1  0.279400  0.030235  0.041744  1
  Pb  Pb28  1  0.779895  0.467874  0.458693  1
  Pb  Pb29  1  0.720254  0.969871  0.542264  1
  Pb  Pb30  1  0.221032  0.530939  0.958079  1
  Pb  Pb31  1  0.720254  0.969871  0.957736  1
  Pb  Pb32  1  0.221032  0.530939  0.541921  1
  Pb  Pb33  1  0.279400  0.030235  0.458256  1
  Pb  Pb34  1  0.779895  0.467874  0.041307  1
  Pb  Pb35  1  0.147010  0.653667  0.250000  1
