# generated using pymatgen
data_Dy13Y3(In3Rh)2
_symmetry_space_group_name_H-M   'P 1'
_cell_length_a   10.44796000
_cell_length_b   10.44796029
_cell_length_c   7.05437600
_cell_angle_alpha   90.00002742
_cell_angle_beta   89.99996710
_cell_angle_gamma   119.99996742
_symmetry_Int_Tables_number   1
_chemical_formula_structural   Dy13Y3(In3Rh)2
_chemical_formula_sum   'Dy13 Y3 In6 Rh2'
_cell_volume   666.88721687
_cell_formula_units_Z   1
loop_
 _symmetry_equiv_pos_site_id
 _symmetry_equiv_pos_as_xyz
  1  'x, y, z'
loop_
 _atom_site_type_symbol
 _atom_site_label
 _atom_site_symmetry_multiplicity
 _atom_site_fract_x
 _atom_site_fract_y
 _atom_site_fract_z
 _atom_site_occupancy
  Dy  Dy0  1  0.466090  0.533910  0.480004  1
  Dy  Dy1  1  0.067821  0.533910  0.480004  1
  Dy  Dy2  1  0.466090  0.932179  0.480004  1
  Dy  Dy3  1  0.533499  0.466501  0.980507  1
  Dy  Dy4  1  0.933003  0.466501  0.980507  1
  Dy  Dy5  1  0.533499  0.066997  0.980507  1
  Dy  Dy6  1  0.823573  0.176427  0.276023  1
  Dy  Dy7  1  0.352855  0.176427  0.276023  1
  Dy  Dy8  1  0.823573  0.647146  0.276023  1
  Dy  Dy9  1  0.176292  0.823708  0.775859  1
  Dy  Dy10  1  0.647417  0.823708  0.775859  1
  Dy  Dy11  1  0.176292  0.352583  0.775859  1
  Dy  Dy12  1  0.333333  0.666667  0.100412  1
  Y  Y13  1  0.666667  0.333333  0.601297  1
  Y  Y14  1  0.000000  0.000000  0.495800  1
  Y  Y15  1  0.000000  0.000000  0.996202  1
  In  In16  1  0.162795  0.837205  0.233573  1
  In  In17  1  0.674410  0.837205  0.233573  1
  In  In18  1  0.162795  0.325590  0.233572  1
  In  In19  1  0.837223  0.162777  0.733363  1
  In  In20  1  0.325552  0.162777  0.733363  1
  In  In21  1  0.837223  0.674448  0.733363  1
  Rh  Rh22  1  0.333333  0.666667  0.707908  1
  Rh  Rh23  1  0.666667  0.333333  0.204952  1
