# generated using pymatgen
data_SmY11Fe2I17
_symmetry_space_group_name_H-M   'P 1'
_cell_length_a   9.75713138
_cell_length_b   11.75466099
_cell_length_c   11.73335273
_cell_angle_alpha   93.59115236
_cell_angle_beta   104.66948025
_cell_angle_gamma   114.24890470
_symmetry_Int_Tables_number   1
_chemical_formula_structural   SmY11Fe2I17
_chemical_formula_sum   'Sm1 Y11 Fe2 I17'
_cell_volume   1165.61323055
_cell_formula_units_Z   1
loop_
 _symmetry_equiv_pos_site_id
 _symmetry_equiv_pos_as_xyz
  1  'x, y, z'
loop_
 _atom_site_type_symbol
 _atom_site_label
 _atom_site_symmetry_multiplicity
 _atom_site_fract_x
 _atom_site_fract_y
 _atom_site_fract_z
 _atom_site_occupancy
  Sm  Sm0  1  0.858116  0.712933  0.845698  1
  Y  Y1  1  0.051796  0.501159  0.320472  1
  Y  Y2  1  0.990007  0.809536  0.585031  1
  Y  Y3  1  0.654131  0.241632  0.281846  1
  Y  Y4  1  0.008005  0.192396  0.410378  1
  Y  Y5  1  0.219674  0.670859  0.985718  1
  Y  Y6  1  0.255943  0.980425  0.889589  1
  Y  Y7  1  0.338266  0.757797  0.720361  1
  Y  Y8  1  0.945845  0.493725  0.678368  1
  Y  Y9  1  0.746919  0.023965  0.111822  1
  Y  Y10  1  0.144548  0.287684  0.154092  1
  Y  Y11  1  0.782876  0.327833  0.018617  1
  Fe  Fe12  1  0.100816  0.737375  0.785769  1
  Fe  Fe13  1  0.896785  0.262311  0.214659  1
  I  I14  1  0.783165  0.528496  0.418196  1
  I  I15  1  0.645197  0.414517  0.761413  1
  I  I16  1  0.845668  0.897021  0.326761  1
  I  I17  1  0.329851  0.214660  0.368509  1
  I  I18  1  0.156434  0.103134  0.672533  1
  I  I19  1  0.584417  0.051087  0.842738  1
  I  I20  1  0.759065  0.188289  0.539680  1
  I  I21  1  0.548043  0.712299  0.953517  1
  I  I22  1  0.356813  0.581817  0.238113  1
  I  I23  1  0.217283  0.472836  0.584298  1
  I  I24  1  0.059002  0.369260  0.896764  1
  I  I25  1  0.448643  0.288633  0.045080  1
  I  I26  1  0.001401  0.001200  0.999746  1
  I  I27  1  0.241275  0.810827  0.462295  1
  I  I28  1  0.412651  0.946581  0.156143  1
  I  I29  1  0.672282  0.787897  0.627425  1
  I  I30  1  0.945081  0.631818  0.104374  1
