# generated using pymatgen
data_TbZr7Ti9Si16Tc3
_symmetry_space_group_name_H-M   'P 1'
_cell_length_a   6.81037382
_cell_length_b   6.81891593
_cell_length_c   12.57494425
_cell_angle_alpha   89.68976496
_cell_angle_beta   90.11521444
_cell_angle_gamma   89.94450165
_symmetry_Int_Tables_number   1
_chemical_formula_structural   TbZr7Ti9Si16Tc3
_chemical_formula_sum   'Tb1 Zr7 Ti9 Si16 Tc3'
_cell_volume   583.96242350
_cell_formula_units_Z   1
loop_
 _symmetry_equiv_pos_site_id
 _symmetry_equiv_pos_as_xyz
  1  'x, y, z'
loop_
 _atom_site_type_symbol
 _atom_site_label
 _atom_site_symmetry_multiplicity
 _atom_site_fract_x
 _atom_site_fract_y
 _atom_site_fract_z
 _atom_site_occupancy
  Tb  Tb0  1  0.997070  0.662709  0.030306  1
  Zr  Zr1  1  0.343359  0.995048  0.469248  1
  Zr  Zr2  1  0.503883  0.844251  0.718710  1
  Zr  Zr3  1  0.496175  0.158642  0.219092  1
  Zr  Zr4  1  0.841269  0.500624  0.282803  1
  Zr  Zr5  1  0.160227  0.498250  0.781443  1
  Zr  Zr6  1  0.653877  0.005853  0.966744  1
  Zr  Zr7  1  0.999117  0.339629  0.532857  1
  Ti  Ti8  1  0.331729  0.331459  0.999328  1
  Ti  Ti9  1  0.166764  0.830628  0.251101  1
  Ti  Ti10  1  0.832119  0.170626  0.749380  1
  Ti  Ti11  1  0.669025  0.667465  0.499747  1
  Ti  Ti12  1  0.654402  0.496066  0.874478  1
  Ti  Ti13  1  0.345145  0.499846  0.378444  1
  Ti  Ti14  1  0.839708  0.993710  0.373059  1
  Ti  Ti15  1  0.001063  0.155626  0.129108  1
  Ti  Ti16  1  0.997921  0.844074  0.626498  1
  Si  Si17  1  0.209907  0.131309  0.676657  1
  Si  Si18  1  0.371553  0.710676  0.926060  1
  Si  Si19  1  0.632511  0.291172  0.428248  1
  Si  Si20  1  0.700834  0.369522  0.071372  1
  Si  Si21  1  0.298446  0.627704  0.572567  1
  Si  Si22  1  0.784831  0.870071  0.179755  1
  Si  Si23  1  0.131393  0.204361  0.323688  1
  Si  Si24  1  0.873322  0.799535  0.818385  1
  Si  Si25  1  0.294009  0.959842  0.064304  1
  Si  Si26  1  0.539125  0.790976  0.313427  1
  Si  Si27  1  0.459128  0.209777  0.812250  1
  Si  Si28  1  0.792374  0.543977  0.686553  1
  Si  Si29  1  0.206561  0.455230  0.189339  1
  Si  Si30  1  0.709506  0.042515  0.562424  1
  Si  Si31  1  0.955848  0.287757  0.937807  1
  Si  Si32  1  0.045197  0.705796  0.437849  1
  Tc  Tc33  1  0.165800  0.010692  0.870947  1
  Tc  Tc34  1  0.489171  0.656018  0.122567  1
  Tc  Tc35  1  0.507635  0.338564  0.623456  1
