# generated using pymatgen
data_Na12V3CoS8(O4F)8
_symmetry_space_group_name_H-M   'P 1'
_cell_length_a   6.75612100
_cell_length_b   9.01049200
_cell_length_c   14.19045000
_cell_angle_alpha   90.00000000
_cell_angle_beta   90.00000000
_cell_angle_gamma   90.00000000
_symmetry_Int_Tables_number   1
_chemical_formula_structural   Na12V3CoS8(O4F)8
_chemical_formula_sum   'Na12 V3 Co1 S8 O32 F8'
_cell_volume   863.85746839
_cell_formula_units_Z   1
loop_
 _symmetry_equiv_pos_site_id
 _symmetry_equiv_pos_as_xyz
  1  'x, y, z'
loop_
 _atom_site_type_symbol
 _atom_site_label
 _atom_site_symmetry_multiplicity
 _atom_site_fract_x
 _atom_site_fract_y
 _atom_site_fract_z
 _atom_site_occupancy
  Na  Na0  1  0.519407  0.669447  0.903533  1
  Na  Na1  1  0.018108  0.833101  0.596274  1
  Na  Na2  1  0.481892  0.166899  0.596274  1
  Na  Na3  1  0.980593  0.330553  0.903533  1
  Na  Na4  1  0.481365  0.332609  0.096080  1
  Na  Na5  1  0.981202  0.167286  0.403910  1
  Na  Na6  1  0.518798  0.832714  0.403910  1
  Na  Na7  1  0.018635  0.667391  0.096080  1
  Na  Na8  1  0.750000  0.000000  0.047272  1
  Na  Na9  1  0.250000  0.500000  0.451050  1
  Na  Na10  1  0.250000  0.000000  0.950380  1
  Na  Na11  1  0.750000  0.500000  0.548665  1
  V  V12  1  0.250000  0.500000  0.697146  1
  V  V13  1  0.250000  0.000000  0.197234  1
  V  V14  1  0.750000  0.500000  0.302587  1
  Co  Co15  1  0.750000  0.000000  0.802085  1
  S  S16  1  0.001148  0.695000  0.857249  1
  S  S17  1  0.503660  0.807562  0.643495  1
  S  S18  1  0.996340  0.192438  0.643495  1
  S  S19  1  0.498852  0.305000  0.857249  1
  S  S20  1  0.997865  0.306832  0.142548  1
  S  S21  1  0.497825  0.193148  0.357442  1
  S  S22  1  0.002175  0.806852  0.357442  1
  S  S23  1  0.502135  0.693168  0.142548  1
  O  O24  1  0.447537  0.443156  0.799910  1
  O  O25  1  0.944268  0.054002  0.700150  1
  O  O26  1  0.555732  0.945998  0.700150  1
  O  O27  1  0.052463  0.556844  0.799910  1
  O  O28  1  0.553508  0.554449  0.199315  1
  O  O29  1  0.053263  0.945362  0.300476  1
  O  O30  1  0.446737  0.054638  0.300476  1
  O  O31  1  0.946492  0.445551  0.199315  1
  O  O32  1  0.183445  0.767010  0.889597  1
  O  O33  1  0.684789  0.734164  0.610833  1
  O  O34  1  0.815211  0.265836  0.610833  1
  O  O35  1  0.316555  0.232990  0.889597  1
  O  O36  1  0.815967  0.233993  0.110390  1
  O  O37  1  0.315735  0.265754  0.389775  1
  O  O38  1  0.184265  0.734246  0.389775  1
  O  O39  1  0.684033  0.766007  0.110390  1
  O  O40  1  0.876855  0.644299  0.936465  1
  O  O41  1  0.378501  0.858191  0.564393  1
  O  O42  1  0.121499  0.141809  0.564393  1
  O  O43  1  0.623145  0.355701  0.936465  1
  O  O44  1  0.122444  0.356835  0.063209  1
  O  O45  1  0.622504  0.143019  0.436740  1
  O  O46  1  0.877496  0.856981  0.436740  1
  O  O47  1  0.377556  0.643165  0.063209  1
  O  O48  1  0.386386  0.708834  0.707969  1
  O  O49  1  0.882764  0.793143  0.792695  1
  O  O50  1  0.617236  0.206857  0.792695  1
  O  O51  1  0.113614  0.291166  0.707969  1
  O  O52  1  0.614598  0.291526  0.292681  1
  O  O53  1  0.114800  0.208858  0.207498  1
  O  O54  1  0.385200  0.791142  0.207498  1
  O  O55  1  0.885402  0.708474  0.292681  1
  F  F56  1  0.579361  0.932247  0.901973  1
  F  F57  1  0.076126  0.570965  0.596966  1
  F  F58  1  0.423874  0.429035  0.596966  1
  F  F59  1  0.920639  0.067753  0.901973  1
  F  F60  1  0.423888  0.070906  0.097365  1
  F  F61  1  0.923896  0.429051  0.402856  1
  F  F62  1  0.576104  0.570949  0.402856  1
  F  F63  1  0.076112  0.929094  0.097365  1
