# generated using pymatgen
data_Ta5Nb3(GaC3)2
_symmetry_space_group_name_H-M   'P 1'
_cell_length_a   3.15734300
_cell_length_b   3.15734304
_cell_length_c   24.05317000
_cell_angle_alpha   90.00000000
_cell_angle_beta   90.00000000
_cell_angle_gamma   120.00001009
_symmetry_Int_Tables_number   1
_chemical_formula_structural   Ta5Nb3(GaC3)2
_chemical_formula_sum   'Ta5 Nb3 Ga2 C6'
_cell_volume   207.65693613
_cell_formula_units_Z   1
loop_
 _symmetry_equiv_pos_site_id
 _symmetry_equiv_pos_as_xyz
  1  'x, y, z'
loop_
 _atom_site_type_symbol
 _atom_site_label
 _atom_site_symmetry_multiplicity
 _atom_site_fract_x
 _atom_site_fract_y
 _atom_site_fract_z
 _atom_site_occupancy
  Ta  Ta0  1  0.000000  0.000000  0.157849  1
  Ta  Ta1  1  0.333333  0.666667  0.444245  1
  Ta  Ta2  1  0.666667  0.333333  0.944335  1
  Ta  Ta3  1  0.666667  0.333333  0.555743  1
  Ta  Ta4  1  0.333333  0.666667  0.055654  1
  Nb  Nb5  1  0.000000  0.000000  0.341850  1
  Nb  Nb6  1  0.000000  0.000000  0.841896  1
  Nb  Nb7  1  0.000000  0.000000  0.658061  1
  Ga  Ga8  1  0.666667  0.333333  0.749992  1
  Ga  Ga9  1  0.333333  0.666667  0.249977  1
  C  C10  1  0.666667  0.333333  0.391841  1
  C  C11  1  0.333333  0.666667  0.891829  1
  C  C12  1  0.333333  0.666667  0.608176  1
  C  C13  1  0.000000  0.000000  0.999956  1
  C  C14  1  0.666667  0.333333  0.108599  1
  C  C15  1  0.000000  0.000000  0.499996  1
