# generated using pymatgen
data_Nd3Er3TcBi2
_symmetry_space_group_name_H-M   'P 1'
_cell_length_a   8.40585000
_cell_length_b   8.40584931
_cell_length_c   4.35666800
_cell_angle_alpha   90.00000000
_cell_angle_beta   90.00000000
_cell_angle_gamma   119.99998697
_symmetry_Int_Tables_number   1
_chemical_formula_structural   Nd3Er3TcBi2
_chemical_formula_sum   'Nd3 Er3 Tc1 Bi2'
_cell_volume   266.59278443
_cell_formula_units_Z   1
loop_
 _symmetry_equiv_pos_site_id
 _symmetry_equiv_pos_as_xyz
  1  'x, y, z'
loop_
 _atom_site_type_symbol
 _atom_site_label
 _atom_site_symmetry_multiplicity
 _atom_site_fract_x
 _atom_site_fract_y
 _atom_site_fract_z
 _atom_site_occupancy
  Nd  Nd0  1  0.000000  0.607244  0.500000  1
  Nd  Nd1  1  0.392756  0.392756  0.500000  1
  Nd  Nd2  1  0.607244  0.000000  0.500000  1
  Er  Er3  1  0.227576  0.000000  0.000000  1
  Er  Er4  1  0.772424  0.772424  0.000000  1
  Er  Er5  1  0.000000  0.227576  0.000000  1
  Tc  Tc6  1  0.000000  0.000000  0.500000  1
  Bi  Bi7  1  0.333333  0.666667  0.000000  1
  Bi  Bi8  1  0.666667  0.333333  0.000000  1
