# generated using pymatgen
data_Tm2Lu10Fe3PdPb
_symmetry_space_group_name_H-M   'P 1'
_cell_length_a   8.09989522
_cell_length_b   8.10032146
_cell_length_c   8.10155610
_cell_angle_alpha   111.16952228
_cell_angle_beta   106.82470405
_cell_angle_gamma   110.44807398
_symmetry_Int_Tables_number   1
_chemical_formula_structural   Tm2Lu10Fe3PdPb
_chemical_formula_sum   'Tm2 Lu10 Fe3 Pd1 Pb1'
_cell_volume   408.54673730
_cell_formula_units_Z   1
loop_
 _symmetry_equiv_pos_site_id
 _symmetry_equiv_pos_as_xyz
  1  'x, y, z'
loop_
 _atom_site_type_symbol
 _atom_site_label
 _atom_site_symmetry_multiplicity
 _atom_site_fract_x
 _atom_site_fract_y
 _atom_site_fract_z
 _atom_site_occupancy
  Tm  Tm0  1  0.693857  0.311705  0.005572  1
  Tm  Tm1  1  0.306143  0.688295  0.994428  1
  Lu  Lu2  1  0.191254  0.455078  0.265132  1
  Lu  Lu3  1  0.808746  0.544922  0.734868  1
  Lu  Lu4  1  0.189950  0.926110  0.734870  1
  Lu  Lu5  1  0.970180  0.189144  0.779691  1
  Lu  Lu6  1  0.810050  0.073890  0.265130  1
  Lu  Lu7  1  0.029820  0.810856  0.220309  1
  Lu  Lu8  1  0.409525  0.190538  0.220364  1
  Lu  Lu9  1  0.590475  0.809462  0.779636  1
  Lu  Lu10  1  0.306656  0.311248  0.617923  1
  Lu  Lu11  1  0.693344  0.688752  0.382077  1
  Fe  Fe12  1  0.382273  0.382259  0.000039  1
  Fe  Fe13  1  0.617727  0.617741  0.999961  1
  Fe  Fe14  1  0.000000  0.000000  0.000000  1
  Pd  Pd15  1  0.000000  0.500000  0.500000  1
  Pb  Pb16  1  0.500000  0.000000  0.500000  1
