# generated using pymatgen
data_Ho3Tm2Ru2C7
_symmetry_space_group_name_H-M   'P 1'
_cell_length_a   8.13717861
_cell_length_b   8.10022072
_cell_length_c   3.48094200
_cell_angle_alpha   90.00000000
_cell_angle_beta   90.00000000
_cell_angle_gamma   121.63160142
_symmetry_Int_Tables_number   1
_chemical_formula_structural   Ho3Tm2Ru2C7
_chemical_formula_sum   'Ho3 Tm2 Ru2 C7'
_cell_volume   195.35314893
_cell_formula_units_Z   1
loop_
 _symmetry_equiv_pos_site_id
 _symmetry_equiv_pos_as_xyz
  1  'x, y, z'
loop_
 _atom_site_type_symbol
 _atom_site_label
 _atom_site_symmetry_multiplicity
 _atom_site_fract_x
 _atom_site_fract_y
 _atom_site_fract_z
 _atom_site_occupancy
  Ho  Ho0  1  0.500000  0.500000  0.000000  1
  Ho  Ho1  1  0.076764  0.337009  0.500000  1
  Ho  Ho2  1  0.923236  0.662991  0.500000  1
  Tm  Tm3  1  0.657911  0.922091  0.500000  1
  Tm  Tm4  1  0.342089  0.077909  0.500000  1
  Ru  Ru5  1  0.713707  0.286711  0.000000  1
  Ru  Ru6  1  0.286293  0.713289  0.000000  1
  C  C7  1  0.629444  0.371006  0.500000  1
  C  C8  1  0.370556  0.628994  0.500000  1
  C  C9  1  0.000000  0.000000  0.000000  1
  C  C10  1  0.173937  0.169143  0.000000  1
  C  C11  1  0.826063  0.830857  0.000000  1
  C  C12  1  0.000000  0.500000  0.000000  1
  C  C13  1  0.500000  0.000000  0.000000  1
