# generated using pymatgen
data_Ho3Er2Mo2C7
_symmetry_space_group_name_H-M   'P 1'
_cell_length_a   8.36781846
_cell_length_b   8.36766718
_cell_length_c   3.41835900
_cell_angle_alpha   90.00000000
_cell_angle_beta   90.00000000
_cell_angle_gamma   122.41086961
_symmetry_Int_Tables_number   1
_chemical_formula_structural   Ho3Er2Mo2C7
_chemical_formula_sum   'Ho3 Er2 Mo2 C7'
_cell_volume   202.06596753
_cell_formula_units_Z   1
loop_
 _symmetry_equiv_pos_site_id
 _symmetry_equiv_pos_as_xyz
  1  'x, y, z'
loop_
 _atom_site_type_symbol
 _atom_site_label
 _atom_site_symmetry_multiplicity
 _atom_site_fract_x
 _atom_site_fract_y
 _atom_site_fract_z
 _atom_site_occupancy
  Ho  Ho0  1  0.075360  0.333145  0.500000  1
  Ho  Ho1  1  0.924701  0.666840  0.500000  1
  Ho  Ho2  1  0.666666  0.924765  0.500000  1
  Er  Er3  1  0.499797  0.499807  0.000000  1
  Er  Er4  1  0.334391  0.076028  0.500000  1
  Mo  Mo5  1  0.711766  0.287989  0.000000  1
  Mo  Mo6  1  0.287880  0.712190  0.000000  1
  C  C7  1  0.623053  0.376316  0.500000  1
  C  C8  1  0.376542  0.623457  0.500000  1
  C  C9  1  0.000130  0.999883  0.000000  1
  C  C10  1  0.168597  0.167530  0.000000  1
  C  C11  1  0.831849  0.831984  0.000000  1
  C  C12  1  0.999893  0.499927  0.000000  1
  C  C13  1  0.499374  0.000139  0.000000  1
