# generated using pymatgen
data_Rb4V2Te8Pd
_symmetry_space_group_name_H-M   'P 1'
_cell_length_a   14.22549500
_cell_length_b   8.01320214
_cell_length_c   10.47110208
_cell_angle_alpha   85.77369046
_cell_angle_beta   90.00000000
_cell_angle_gamma   90.00000000
_symmetry_Int_Tables_number   1
_chemical_formula_structural   Rb4V2Te8Pd
_chemical_formula_sum   'Rb8 V4 Te16 Pd2'
_cell_volume   1190.37366975
_cell_formula_units_Z   2
loop_
 _symmetry_equiv_pos_site_id
 _symmetry_equiv_pos_as_xyz
  1  'x, y, z'
loop_
 _atom_site_type_symbol
 _atom_site_label
 _atom_site_symmetry_multiplicity
 _atom_site_fract_x
 _atom_site_fract_y
 _atom_site_fract_z
 _atom_site_occupancy
  Rb  Rb0  1  0.134512  0.811120  0.677120  1
  Rb  Rb1  1  0.634512  0.188880  0.822880  1
  Rb  Rb2  1  0.865488  0.188880  0.322880  1
  Rb  Rb3  1  0.365488  0.811120  0.177120  1
  Rb  Rb4  1  0.355075  0.263765  0.545638  1
  Rb  Rb5  1  0.855075  0.736235  0.954362  1
  Rb  Rb6  1  0.644925  0.736235  0.454362  1
  Rb  Rb7  1  0.144925  0.263765  0.045638  1
  V  V8  1  0.425771  0.744176  0.772931  1
  V  V9  1  0.925771  0.255824  0.727069  1
  V  V10  1  0.574229  0.255824  0.227069  1
  V  V11  1  0.074229  0.744176  0.272931  1
  Te  Te12  1  0.098158  0.306668  0.671209  1
  Te  Te13  1  0.598158  0.693332  0.828791  1
  Te  Te14  1  0.901842  0.693332  0.328791  1
  Te  Te15  1  0.401842  0.306668  0.171209  1
  Te  Te16  1  0.395558  0.745987  0.539385  1
  Te  Te17  1  0.895558  0.254013  0.960615  1
  Te  Te18  1  0.604442  0.254013  0.460615  1
  Te  Te19  1  0.104442  0.745987  0.039385  1
  Te  Te20  1  0.165929  0.506232  0.382508  1
  Te  Te21  1  0.665929  0.493768  0.117492  1
  Te  Te22  1  0.834071  0.493768  0.617492  1
  Te  Te23  1  0.334071  0.506232  0.882508  1
  Te  Te24  1  0.368830  0.013408  0.849181  1
  Te  Te25  1  0.868830  0.986592  0.650819  1
  Te  Te26  1  0.631170  0.986592  0.150819  1
  Te  Te27  1  0.131170  0.013408  0.349181  1
  Pd  Pd28  1  0.000000  0.500000  0.500000  1
  Pd  Pd29  1  0.500000  0.500000  0.000000  1
