# generated using pymatgen
data_Tm8MgInNi2
_symmetry_space_group_name_H-M   'P 1'
_cell_length_a   9.46109914
_cell_length_b   9.46109966
_cell_length_c   9.43154000
_cell_angle_alpha   60.10329152
_cell_angle_beta   60.10328971
_cell_angle_gamma   60.26423790
_symmetry_Int_Tables_number   1
_chemical_formula_structural   Tm8MgInNi2
_chemical_formula_sum   'Tm16 Mg2 In2 Ni4'
_cell_volume   599.08657446
_cell_formula_units_Z   2
loop_
 _symmetry_equiv_pos_site_id
 _symmetry_equiv_pos_as_xyz
  1  'x, y, z'
loop_
 _atom_site_type_symbol
 _atom_site_label
 _atom_site_symmetry_multiplicity
 _atom_site_fract_x
 _atom_site_fract_y
 _atom_site_fract_z
 _atom_site_occupancy
  Tm  Tm0  1  0.596138  0.596138  0.595840  1
  Tm  Tm1  1  0.596138  0.596138  0.211885  1
  Tm  Tm2  1  0.600873  0.205668  0.596730  1
  Tm  Tm3  1  0.205668  0.600873  0.596730  1
  Tm  Tm4  1  0.061723  0.437110  0.438534  1
  Tm  Tm5  1  0.437110  0.061723  0.062634  1
  Tm  Tm6  1  0.437110  0.061723  0.438534  1
  Tm  Tm7  1  0.061723  0.437110  0.062634  1
  Tm  Tm8  1  0.435340  0.435340  0.064660  1
  Tm  Tm9  1  0.060695  0.060695  0.439305  1
  Tm  Tm10  1  0.185489  0.814367  0.814179  1
  Tm  Tm11  1  0.814367  0.185489  0.185964  1
  Tm  Tm12  1  0.814367  0.185489  0.814179  1
  Tm  Tm13  1  0.185489  0.814367  0.185964  1
  Tm  Tm14  1  0.814502  0.814502  0.185498  1
  Tm  Tm15  1  0.185942  0.185942  0.814058  1
  Mg  Mg16  1  0.829383  0.514399  0.828108  1
  Mg  Mg17  1  0.514399  0.829383  0.828108  1
  In  In18  1  0.832141  0.832141  0.833387  1
  In  In19  1  0.832141  0.832141  0.502330  1
  Ni  Ni20  1  0.392130  0.392130  0.393541  1
  Ni  Ni21  1  0.392130  0.392130  0.822200  1
  Ni  Ni22  1  0.390252  0.824751  0.392499  1
  Ni  Ni23  1  0.824751  0.390252  0.392499  1
