# generated using pymatgen
data_Yb20SiBi8Sb3
_symmetry_space_group_name_H-M   'P 1'
_cell_length_a   8.28660475
_cell_length_b   9.72015600
_cell_length_c   12.68823406
_cell_angle_alpha   90.00000000
_cell_angle_beta   89.75021171
_cell_angle_gamma   90.00000000
_symmetry_Int_Tables_number   1
_chemical_formula_structural   Yb20SiBi8Sb3
_chemical_formula_sum   'Yb20 Si1 Bi8 Sb3'
_cell_volume   1021.99062880
_cell_formula_units_Z   1
loop_
 _symmetry_equiv_pos_site_id
 _symmetry_equiv_pos_as_xyz
  1  'x, y, z'
loop_
 _atom_site_type_symbol
 _atom_site_label
 _atom_site_symmetry_multiplicity
 _atom_site_fract_x
 _atom_site_fract_y
 _atom_site_fract_z
 _atom_site_occupancy
  Yb  Yb0  1  0.448244  0.750000  0.003083  1
  Yb  Yb1  1  0.961739  0.250000  0.495283  1
  Yb  Yb2  1  0.538252  0.250000  0.997011  1
  Yb  Yb3  1  0.039442  0.750000  0.502579  1
  Yb  Yb4  1  0.649480  0.750000  0.292566  1
  Yb  Yb5  1  0.151510  0.250000  0.208484  1
  Yb  Yb6  1  0.348076  0.250000  0.709008  1
  Yb  Yb7  1  0.860218  0.750000  0.800806  1
  Yb  Yb8  1  0.315612  0.750000  0.729739  1
  Yb  Yb9  1  0.819104  0.250000  0.772290  1
  Yb  Yb10  1  0.682117  0.250000  0.271098  1
  Yb  Yb11  1  0.171973  0.750000  0.216586  1
  Yb  Yb12  1  0.308983  0.459455  0.424101  1
  Yb  Yb13  1  0.817985  0.548316  0.071242  1
  Yb  Yb14  1  0.691760  0.957645  0.577471  1
  Yb  Yb15  1  0.185168  0.026843  0.927405  1
  Yb  Yb16  1  0.691760  0.542355  0.577471  1
  Yb  Yb17  1  0.185168  0.473157  0.927405  1
  Yb  Yb18  1  0.308983  0.040545  0.424101  1
  Yb  Yb19  1  0.817985  0.951684  0.071242  1
  Si  Si20  1  0.076248  0.750000  0.984318  1
  Bi  Bi21  1  0.439959  0.010652  0.171121  1
  Bi  Bi22  1  0.935785  0.988114  0.328743  1
  Bi  Bi23  1  0.561312  0.511004  0.828992  1
  Bi  Bi24  1  0.064232  0.487381  0.670470  1
  Bi  Bi25  1  0.561312  0.988996  0.828992  1
  Bi  Bi26  1  0.064232  0.012619  0.670470  1
  Bi  Bi27  1  0.439959  0.489348  0.171121  1
  Bi  Bi28  1  0.935785  0.511886  0.328743  1
  Sb  Sb29  1  0.577064  0.250000  0.516267  1
  Sb  Sb30  1  0.925842  0.250000  0.014998  1
  Sb  Sb31  1  0.424711  0.750000  0.486793  1
