# generated using pymatgen
data_UBrCl3O
_symmetry_space_group_name_H-M   'P 1'
_cell_length_a   4.12178953
_cell_length_b   7.25532513
_cell_length_c   7.31840920
_cell_angle_alpha   94.11591144
_cell_angle_beta   106.34798260
_cell_angle_gamma   73.45810258
_symmetry_Int_Tables_number   1
_chemical_formula_structural   UBrCl3O
_chemical_formula_sum   'U1 Br1 Cl3 O1'
_cell_volume   201.30789649
_cell_formula_units_Z   1
loop_
 _symmetry_equiv_pos_site_id
 _symmetry_equiv_pos_as_xyz
  1  'x, y, z'
loop_
 _atom_site_type_symbol
 _atom_site_label
 _atom_site_symmetry_multiplicity
 _atom_site_fract_x
 _atom_site_fract_y
 _atom_site_fract_z
 _atom_site_occupancy
  U  U0  1  0.061497  0.002604  0.004132  1
  Br  Br1  1  0.003391  0.806346  0.682724  1
  Cl  Cl2  1  0.310478  0.695822  0.188482  1
  Cl  Cl3  1  0.818164  0.307565  0.817338  1
  Cl  Cl4  1  0.123571  0.186634  0.305244  1
  O  O5  1  0.560898  0.001029  0.002078  1
