# generated using pymatgen
data_Na3Ga3FeAgBr16
_symmetry_space_group_name_H-M   'P 1'
_cell_length_a   7.55376546
_cell_length_b   7.86061989
_cell_length_c   14.62546134
_cell_angle_alpha   86.92402551
_cell_angle_beta   89.91910651
_cell_angle_gamma   89.81638812
_symmetry_Int_Tables_number   1
_chemical_formula_structural   Na3Ga3FeAgBr16
_chemical_formula_sum   'Na3 Ga3 Fe1 Ag1 Br16'
_cell_volume   867.16380926
_cell_formula_units_Z   1
loop_
 _symmetry_equiv_pos_site_id
 _symmetry_equiv_pos_as_xyz
  1  'x, y, z'
loop_
 _atom_site_type_symbol
 _atom_site_label
 _atom_site_symmetry_multiplicity
 _atom_site_fract_x
 _atom_site_fract_y
 _atom_site_fract_z
 _atom_site_occupancy
  Na  Na0  1  0.490059  0.841154  0.869865  1
  Na  Na1  1  0.507271  0.152776  0.132387  1
  Na  Na2  1  0.991913  0.157582  0.630522  1
  Ga  Ga3  1  0.176226  0.711432  0.599510  1
  Ga  Ga4  1  0.824972  0.292714  0.397923  1
  Ga  Ga5  1  0.682960  0.289778  0.898526  1
  Fe  Fe6  1  0.314814  0.711093  0.104797  1
  Ag  Ag7  1  0.012881  0.844530  0.365122  1
  Br  Br8  1  0.199404  0.456351  0.689879  1
  Br  Br9  1  0.814106  0.552433  0.309656  1
  Br  Br10  1  0.697073  0.544031  0.806893  1
  Br  Br11  1  0.307018  0.452729  0.191914  1
  Br  Br12  1  0.315407  0.933284  0.679534  1
  Br  Br13  1  0.700997  0.062718  0.316942  1
  Br  Br14  1  0.815132  0.064040  0.817834  1
  Br  Br15  1  0.175974  0.925842  0.189400  1
  Br  Br16  1  0.171709  0.693373  0.963647  1
  Br  Br17  1  0.823303  0.308921  0.040682  1
  Br  Br18  1  0.676775  0.310475  0.538372  1
  Br  Br19  1  0.306894  0.694394  0.453329  1
  Br  Br20  1  0.879432  0.801426  0.572454  1
  Br  Br21  1  0.119802  0.197424  0.428231  1
  Br  Br22  1  0.384895  0.201633  0.928284  1
  Br  Br23  1  0.610985  0.799869  0.074299  1
