# generated using pymatgen
data_PrY2U5F30
_symmetry_space_group_name_H-M   'P 1'
_cell_length_a   8.60802828
_cell_length_b   8.61348187
_cell_length_c   8.60802900
_cell_angle_alpha   100.34877203
_cell_angle_beta   100.10440989
_cell_angle_gamma   100.34877431
_symmetry_Int_Tables_number   1
_chemical_formula_structural   PrY2U5F30
_chemical_formula_sum   'Pr1 Y2 U5 F30'
_cell_volume   603.25149019
_cell_formula_units_Z   1
loop_
 _symmetry_equiv_pos_site_id
 _symmetry_equiv_pos_as_xyz
  1  'x, y, z'
loop_
 _atom_site_type_symbol
 _atom_site_label
 _atom_site_symmetry_multiplicity
 _atom_site_fract_x
 _atom_site_fract_y
 _atom_site_fract_z
 _atom_site_occupancy
  Pr  Pr0  1  0.820769  0.250000  0.679231  1
  Y  Y1  1  0.250833  0.250000  0.249167  1
  Y  Y2  1  0.181167  0.750000  0.318833  1
  U  U3  1  0.248724  0.679306  0.820648  1
  U  U4  1  0.679352  0.820694  0.251276  1
  U  U5  1  0.750105  0.750000  0.749895  1
  U  U6  1  0.318257  0.176846  0.745227  1
  U  U7  1  0.754773  0.323154  0.181743  1
  F  F8  1  0.953479  0.542190  0.249001  1
  F  F9  1  0.818441  0.358077  0.446165  1
  F  F10  1  0.491213  0.724198  0.713893  1
  F  F11  1  0.351224  0.449757  0.818808  1
  F  F12  1  0.010392  0.787828  0.775160  1
  F  F13  1  0.747311  0.029847  0.458233  1
  F  F14  1  0.940831  0.844508  0.316566  1
  F  F15  1  0.225501  0.219159  0.983279  1
  F  F16  1  0.772835  0.005080  0.788186  1
  F  F17  1  0.324708  0.945991  0.853760  1
  F  F18  1  0.275668  0.277297  0.515150  1
  F  F19  1  0.455767  0.812508  0.342991  1
  F  F20  1  0.540916  0.250000  0.959084  1
  F  F21  1  0.266063  0.511490  0.277587  1
  F  F22  1  0.157009  0.687492  0.044233  1
  F  F23  1  0.849405  0.324830  0.959652  1
  F  F24  1  0.711814  0.494920  0.727165  1
  F  F25  1  0.470695  0.750000  0.029305  1
  F  F26  1  0.540348  0.175170  0.650595  1
  F  F27  1  0.724840  0.712172  0.489608  1
  F  F28  1  0.681192  0.050243  0.148776  1
  F  F29  1  0.222413  0.988510  0.233937  1
  F  F30  1  0.786107  0.775802  0.008787  1
  F  F31  1  0.053835  0.141923  0.681559  1
  F  F32  1  0.250999  0.957810  0.546521  1
  F  F33  1  0.984850  0.222703  0.224332  1
  F  F34  1  0.646240  0.554009  0.175292  1
  F  F35  1  0.516721  0.280841  0.274499  1
  F  F36  1  0.183434  0.655492  0.559169  1
  F  F37  1  0.041767  0.470153  0.752689  1
