# generated using pymatgen
data_Li3Ca3DySi8Ag
_symmetry_space_group_name_H-M   'P 1'
_cell_length_a   3.80687200
_cell_length_b   7.85557719
_cell_length_c   10.48175371
_cell_angle_alpha   90.07079036
_cell_angle_beta   90.00000000
_cell_angle_gamma   90.00000000
_symmetry_Int_Tables_number   1
_chemical_formula_structural   Li3Ca3DySi8Ag
_chemical_formula_sum   'Li3 Ca3 Dy1 Si8 Ag1'
_cell_volume   313.45845905
_cell_formula_units_Z   1
loop_
 _symmetry_equiv_pos_site_id
 _symmetry_equiv_pos_as_xyz
  1  'x, y, z'
loop_
 _atom_site_type_symbol
 _atom_site_label
 _atom_site_symmetry_multiplicity
 _atom_site_fract_x
 _atom_site_fract_y
 _atom_site_fract_z
 _atom_site_occupancy
  Li  Li0  1  0.250000  0.998797  0.389176  1
  Li  Li1  1  0.250000  0.497790  0.108772  1
  Li  Li2  1  0.750000  0.508550  0.890170  1
  Ca  Ca3  1  0.750000  0.868786  0.135026  1
  Ca  Ca4  1  0.250000  0.633220  0.637223  1
  Ca  Ca5  1  0.750000  0.361955  0.365571  1
  Dy  Dy6  1  0.250000  0.129003  0.866302  1
  Si  Si7  1  0.750000  0.270098  0.062652  1
  Si  Si8  1  0.250000  0.737558  0.931270  1
  Si  Si9  1  0.750000  0.766929  0.431425  1
  Si  Si10  1  0.250000  0.232416  0.570372  1
  Si  Si11  1  0.750000  0.844489  0.825630  1
  Si  Si12  1  0.250000  0.163131  0.170112  1
  Si  Si13  1  0.750000  0.330719  0.684416  1
  Si  Si14  1  0.250000  0.665558  0.324757  1
  Ag  Ag15  1  0.750000  0.991001  0.607127  1
