# generated using pymatgen
data_TbEr4Bi3O14
_symmetry_space_group_name_H-M   'P 1'
_cell_length_a   6.56244178
_cell_length_b   6.57662192
_cell_length_c   7.70774172
_cell_angle_alpha   106.85400224
_cell_angle_beta   89.65507205
_cell_angle_gamma   98.87299093
_symmetry_Int_Tables_number   1
_chemical_formula_structural   TbEr4Bi3O14
_chemical_formula_sum   'Tb1 Er4 Bi3 O14'
_cell_volume   314.29384512
_cell_formula_units_Z   1
loop_
 _symmetry_equiv_pos_site_id
 _symmetry_equiv_pos_as_xyz
  1  'x, y, z'
loop_
 _atom_site_type_symbol
 _atom_site_label
 _atom_site_symmetry_multiplicity
 _atom_site_fract_x
 _atom_site_fract_y
 _atom_site_fract_z
 _atom_site_occupancy
  Tb  Tb0  1  0.741690  0.479272  0.619127  1
  Er  Er1  1  0.462478  0.007244  0.252794  1
  Er  Er2  1  0.536745  0.998271  0.751276  1
  Er  Er3  1  0.273616  0.535935  0.883448  1
  Er  Er4  1  0.734957  0.460170  0.112044  1
  Bi  Bi5  1  0.994391  0.999842  0.500521  1
  Bi  Bi6  1  0.999466  0.996467  0.997860  1
  Bi  Bi7  1  0.279806  0.530962  0.386739  1
  O  O8  1  0.455051  0.654587  0.163717  1
  O  O9  1  0.552715  0.350867  0.837258  1
  O  O10  1  0.303230  0.918800  0.950490  1
  O  O11  1  0.697831  0.078818  0.050875  1
  O  O12  1  0.299576  0.932909  0.517541  1
  O  O13  1  0.696347  0.082977  0.491233  1
  O  O14  1  0.549915  0.360851  0.340699  1
  O  O15  1  0.459418  0.640849  0.660384  1
  O  O16  1  0.927106  0.659818  0.952810  1
  O  O17  1  0.069930  0.328261  0.028105  1
  O  O18  1  0.068876  0.343265  0.631051  1
  O  O19  1  0.904253  0.661702  0.376869  1
  O  O20  1  0.867255  0.897931  0.725008  1
  O  O21  1  0.125343  0.080204  0.270153  1
