# generated using pymatgen
data_Ga4Hg11AsP3Br16
_symmetry_space_group_name_H-M   'P 1'
_cell_length_a   7.80592100
_cell_length_b   7.85072031
_cell_length_c   22.61954288
_cell_angle_alpha   98.15800071
_cell_angle_beta   90.00000000
_cell_angle_gamma   119.81141703
_symmetry_Int_Tables_number   1
_chemical_formula_structural   Ga4Hg11AsP3Br16
_chemical_formula_sum   'Ga4 Hg11 As1 P3 Br16'
_cell_volume   1186.54188907
_cell_formula_units_Z   1
loop_
 _symmetry_equiv_pos_site_id
 _symmetry_equiv_pos_as_xyz
  1  'x, y, z'
loop_
 _atom_site_type_symbol
 _atom_site_label
 _atom_site_symmetry_multiplicity
 _atom_site_fract_x
 _atom_site_fract_y
 _atom_site_fract_z
 _atom_site_occupancy
  Ga  Ga0  1  0.361360  0.722721  0.110829  1
  Ga  Ga1  1  0.757750  0.515500  0.385817  1
  Ga  Ga2  1  0.242253  0.484507  0.614230  1
  Ga  Ga3  1  0.638607  0.277217  0.889176  1
  Hg  Hg4  1  0.000980  0.001960  0.004080  1
  Hg  Hg5  1  0.032811  0.065622  0.124294  1
  Hg  Hg6  1  0.235719  0.969321  0.279349  1
  Hg  Hg7  1  0.733602  0.969321  0.279349  1
  Hg  Hg8  1  0.236025  0.472051  0.283747  1
  Hg  Hg9  1  0.470920  0.941840  0.438257  1
  Hg  Hg10  1  0.526614  0.053229  0.557698  1
  Hg  Hg11  1  0.761588  0.523177  0.713559  1
  Hg  Hg12  1  0.271172  0.032850  0.718547  1
  Hg  Hg13  1  0.761679  0.032850  0.718547  1
  Hg  Hg14  1  0.968767  0.937534  0.883824  1
  As  As15  1  0.941945  0.883892  0.765064  1
  P  P16  1  0.059290  0.118580  0.238828  1
  P  P17  1  0.415077  0.830156  0.324964  1
  P  P18  1  0.583786  0.167573  0.670197  1
  Br  Br19  1  0.334999  0.669997  0.007124  1
  Br  Br20  1  0.047788  0.582858  0.151659  1
  Br  Br21  1  0.535070  0.582858  0.151659  1
  Br  Br22  1  0.533641  0.067283  0.152171  1
  Br  Br23  1  0.737610  0.475221  0.279894  1
  Br  Br24  1  0.429888  0.357480  0.414808  1
  Br  Br25  1  0.927593  0.357480  0.414808  1
  Br  Br26  1  0.929335  0.858673  0.422225  1
  Br  Br27  1  0.070702  0.141404  0.577414  1
  Br  Br28  1  0.072436  0.642037  0.584614  1
  Br  Br29  1  0.569601  0.642037  0.584614  1
  Br  Br30  1  0.262493  0.524985  0.719970  1
  Br  Br31  1  0.466387  0.932774  0.848191  1
  Br  Br32  1  0.465126  0.417468  0.848686  1
  Br  Br33  1  0.952342  0.417468  0.848686  1
  Br  Br34  1  0.665039  0.330080  0.993123  1
