# generated using pymatgen
data_Tm6VB14Os
_symmetry_space_group_name_H-M   'P 1'
_cell_length_a   7.98970610
_cell_length_b   7.98970662
_cell_length_c   9.27665500
_cell_angle_alpha   90.00000000
_cell_angle_beta   90.00000000
_cell_angle_gamma   155.09743052
_symmetry_Int_Tables_number   1
_chemical_formula_structural   Tm6VB14Os
_chemical_formula_sum   'Tm6 V1 B14 Os1'
_cell_volume   249.35267777
_cell_formula_units_Z   1
loop_
 _symmetry_equiv_pos_site_id
 _symmetry_equiv_pos_as_xyz
  1  'x, y, z'
loop_
 _atom_site_type_symbol
 _atom_site_label
 _atom_site_symmetry_multiplicity
 _atom_site_fract_x
 _atom_site_fract_y
 _atom_site_fract_z
 _atom_site_occupancy
  Tm  Tm0  1  0.893632  0.106368  0.440439  1
  Tm  Tm1  1  0.105900  0.894100  0.559511  1
  Tm  Tm2  1  0.893632  0.106368  0.059561  1
  Tm  Tm3  1  0.105900  0.894100  0.940489  1
  Tm  Tm4  1  0.243403  0.756597  0.250000  1
  Tm  Tm5  1  0.755487  0.244513  0.750000  1
  V  V6  1  0.051836  0.948164  0.250000  1
  B  B7  1  0.728411  0.271589  0.467059  1
  B  B8  1  0.273074  0.726926  0.534974  1
  B  B9  1  0.728411  0.271589  0.032941  1
  B  B10  1  0.273074  0.726926  0.965026  1
  B  B11  1  0.632840  0.367160  0.149771  1
  B  B12  1  0.368223  0.631777  0.850600  1
  B  B13  1  0.632840  0.367160  0.350229  1
  B  B14  1  0.368223  0.631777  0.649400  1
  B  B15  1  0.519747  0.480253  0.093482  1
  B  B16  1  0.480028  0.519972  0.905247  1
  B  B17  1  0.519747  0.480253  0.406518  1
  B  B18  1  0.480028  0.519972  0.594753  1
  B  B19  1  0.454577  0.545423  0.250000  1
  B  B20  1  0.544721  0.455279  0.750000  1
  Os  Os21  1  0.946263  0.053737  0.750000  1
