# generated using pymatgen
data_Nd3LuO6
_symmetry_space_group_name_H-M   'P 1'
_cell_length_a   6.92030345
_cell_length_b   6.92030252
_cell_length_c   6.92030222
_cell_angle_alpha   92.09775900
_cell_angle_beta   92.09776306
_cell_angle_gamma   92.09774654
_symmetry_Int_Tables_number   1
_chemical_formula_structural   Nd3LuO6
_chemical_formula_sum   'Nd6 Lu2 O12'
_cell_volume   330.73432498
_cell_formula_units_Z   2
loop_
 _symmetry_equiv_pos_site_id
 _symmetry_equiv_pos_as_xyz
  1  'x, y, z'
loop_
 _atom_site_type_symbol
 _atom_site_label
 _atom_site_symmetry_multiplicity
 _atom_site_fract_x
 _atom_site_fract_y
 _atom_site_fract_z
 _atom_site_occupancy
  Nd  Nd0  1  0.558852  0.065462  0.253118  1
  Nd  Nd1  1  0.065462  0.253118  0.558852  1
  Nd  Nd2  1  0.746882  0.441148  0.934538  1
  Nd  Nd3  1  0.253118  0.558852  0.065462  1
  Nd  Nd4  1  0.934538  0.746882  0.441148  1
  Nd  Nd5  1  0.441148  0.934538  0.746882  1
  Lu  Lu6  1  0.000000  0.000000  0.000000  1
  Lu  Lu7  1  0.500000  0.500000  0.500000  1
  O  O8  1  0.694565  0.086142  0.933962  1
  O  O9  1  0.913858  0.066038  0.305435  1
  O  O10  1  0.406555  0.194510  0.536042  1
  O  O11  1  0.066038  0.305435  0.913858  1
  O  O12  1  0.536042  0.406555  0.194510  1
  O  O13  1  0.805490  0.463958  0.593445  1
  O  O14  1  0.194510  0.536042  0.406555  1
  O  O15  1  0.463958  0.593445  0.805490  1
  O  O16  1  0.933962  0.694565  0.086142  1
  O  O17  1  0.593445  0.805490  0.463958  1
  O  O18  1  0.086142  0.933962  0.694565  1
  O  O19  1  0.305435  0.913858  0.066038  1
