# generated using pymatgen
data_SrLi5La3Sb8
_symmetry_space_group_name_H-M   'P 1'
_cell_length_a   4.45776900
_cell_length_b   4.45776900
_cell_length_c   22.40236100
_cell_angle_alpha   90.00000000
_cell_angle_beta   90.00000000
_cell_angle_gamma   90.00000000
_symmetry_Int_Tables_number   1
_chemical_formula_structural   SrLi5La3Sb8
_chemical_formula_sum   'Sr1 Li5 La3 Sb8'
_cell_volume   445.17309694
_cell_formula_units_Z   1
loop_
 _symmetry_equiv_pos_site_id
 _symmetry_equiv_pos_as_xyz
  1  'x, y, z'
loop_
 _atom_site_type_symbol
 _atom_site_label
 _atom_site_symmetry_multiplicity
 _atom_site_fract_x
 _atom_site_fract_y
 _atom_site_fract_z
 _atom_site_occupancy
  Sr  Sr0  1  0.000000  0.000000  0.124115  1
  Li  Li1  1  0.500000  0.000000  0.254420  1
  Li  Li2  1  0.500000  0.000000  0.747950  1
  Li  Li3  1  0.000000  0.500000  0.254420  1
  Li  Li4  1  0.000000  0.500000  0.747950  1
  Li  Li5  1  0.500000  0.500000  0.063512  1
  La  La6  1  0.500000  0.500000  0.384300  1
  La  La7  1  0.500000  0.500000  0.874637  1
  La  La8  1  0.000000  0.000000  0.619315  1
  Sb  Sb9  1  0.500000  0.000000  0.988571  1
  Sb  Sb10  1  0.500000  0.000000  0.502043  1
  Sb  Sb11  1  0.000000  0.500000  0.988571  1
  Sb  Sb12  1  0.000000  0.500000  0.502043  1
  Sb  Sb13  1  0.500000  0.500000  0.181547  1
  Sb  Sb14  1  0.500000  0.500000  0.669709  1
  Sb  Sb15  1  0.000000  0.000000  0.335395  1
  Sb  Sb16  1  0.000000  0.000000  0.825303  1
