# generated using pymatgen
data_Lu5ScB4(Ir4Ru)2
_symmetry_space_group_name_H-M   'P 1'
_cell_length_a   3.12341400
_cell_length_b   9.78416200
_cell_length_c   9.78416200
_cell_angle_alpha   90.00000000
_cell_angle_beta   90.00000000
_cell_angle_gamma   90.00000000
_symmetry_Int_Tables_number   1
_chemical_formula_structural   Lu5ScB4(Ir4Ru)2
_chemical_formula_sum   'Lu5 Sc1 B4 Ir8 Ru2'
_cell_volume   299.00387888
_cell_formula_units_Z   1
loop_
 _symmetry_equiv_pos_site_id
 _symmetry_equiv_pos_as_xyz
  1  'x, y, z'
loop_
 _atom_site_type_symbol
 _atom_site_label
 _atom_site_symmetry_multiplicity
 _atom_site_fract_x
 _atom_site_fract_y
 _atom_site_fract_z
 _atom_site_occupancy
  Lu  Lu0  1  0.000000  0.175380  0.673174  1
  Lu  Lu1  1  0.000000  0.824620  0.326826  1
  Lu  Lu2  1  0.000000  0.326826  0.175380  1
  Lu  Lu3  1  0.000000  0.673174  0.824620  1
  Lu  Lu4  1  0.000000  0.000000  0.000000  1
  Sc  Sc5  1  0.000000  0.500000  0.500000  1
  B  B6  1  0.000000  0.618143  0.120380  1
  B  B7  1  0.000000  0.381857  0.879620  1
  B  B8  1  0.000000  0.879620  0.618143  1
  B  B9  1  0.000000  0.120380  0.381857  1
  Ir  Ir10  1  0.500000  0.073060  0.227047  1
  Ir  Ir11  1  0.500000  0.926940  0.772953  1
  Ir  Ir12  1  0.500000  0.772953  0.073060  1
  Ir  Ir13  1  0.500000  0.429472  0.722623  1
  Ir  Ir14  1  0.500000  0.227047  0.926940  1
  Ir  Ir15  1  0.500000  0.570528  0.277377  1
  Ir  Ir16  1  0.500000  0.722623  0.570528  1
  Ir  Ir17  1  0.500000  0.277377  0.429472  1
  Ru  Ru18  1  0.500000  0.000000  0.500000  1
  Ru  Ru19  1  0.500000  0.500000  0.000000  1
