# generated using pymatgen
data_Al3SiNiBO9
_symmetry_space_group_name_H-M   'P 1'
_cell_length_a   11.04519400
_cell_length_b   5.79591300
_cell_length_c   10.45743300
_cell_angle_alpha   90.00000000
_cell_angle_beta   90.00000000
_cell_angle_gamma   90.00000000
_symmetry_Int_Tables_number   1
_chemical_formula_structural   Al3SiNiBO9
_chemical_formula_sum   'Al12 Si4 Ni4 B4 O36'
_cell_volume   669.45331573
_cell_formula_units_Z   4
loop_
 _symmetry_equiv_pos_site_id
 _symmetry_equiv_pos_as_xyz
  1  'x, y, z'
loop_
 _atom_site_type_symbol
 _atom_site_label
 _atom_site_symmetry_multiplicity
 _atom_site_fract_x
 _atom_site_fract_y
 _atom_site_fract_z
 _atom_site_occupancy
  Al  Al0  1  0.000000  0.000000  0.000000  1
  Al  Al1  1  0.500000  0.000000  0.000000  1
  Al  Al2  1  0.000000  0.500000  0.000000  1
  Al  Al3  1  0.500000  0.500000  0.000000  1
  Al  Al4  1  0.052123  0.750001  0.226515  1
  Al  Al5  1  0.552123  0.750001  0.273485  1
  Al  Al6  1  0.000000  0.000000  0.500000  1
  Al  Al7  1  0.500000  0.000000  0.500000  1
  Al  Al8  1  0.000000  0.500000  0.500000  1
  Al  Al9  1  0.500000  0.500000  0.500000  1
  Al  Al10  1  0.447877  0.250000  0.726514  1
  Al  Al11  1  0.947877  0.250000  0.773486  1
  Si  Si12  1  0.737451  0.750001  0.066282  1
  Si  Si13  1  0.237451  0.750001  0.433718  1
  Si  Si14  1  0.762550  0.250000  0.566283  1
  Si  Si15  1  0.262549  0.250000  0.933717  1
  Ni  Ni16  1  0.281588  0.750001  0.093523  1
  Ni  Ni17  1  0.781588  0.750001  0.406477  1
  Ni  Ni18  1  0.218412  0.250000  0.593523  1
  Ni  Ni19  1  0.718412  0.250000  0.906477  1
  B  B20  1  0.998742  0.250000  0.249064  1
  B  B21  1  0.498742  0.250000  0.250937  1
  B  B22  1  0.501258  0.750001  0.749064  1
  B  B23  1  0.001258  0.750001  0.750936  1
  O  O24  1  0.670475  0.520772  0.009529  1
  O  O25  1  0.670475  0.979229  0.009529  1
  O  O26  1  0.880809  0.750001  0.025354  1
  O  O27  1  0.100600  0.750001  0.047804  1
  O  O28  1  0.477022  0.750001  0.118232  1
  O  O29  1  0.502157  0.250000  0.121604  1
  O  O30  1  0.998205  0.045285  0.180748  1
  O  O31  1  0.998205  0.454715  0.180748  1
  O  O32  1  0.711349  0.750001  0.223803  1
  O  O33  1  0.211349  0.750001  0.276197  1
  O  O34  1  0.498205  0.045285  0.319252  1
  O  O35  1  0.498205  0.454715  0.319252  1
  O  O36  1  0.002157  0.250000  0.378397  1
  O  O37  1  0.977022  0.750001  0.381768  1
  O  O38  1  0.600600  0.750001  0.452195  1
  O  O39  1  0.380809  0.750001  0.474646  1
  O  O40  1  0.170474  0.520772  0.490471  1
  O  O41  1  0.170474  0.979229  0.490471  1
  O  O42  1  0.829526  0.020771  0.509529  1
  O  O43  1  0.829526  0.479229  0.509529  1
  O  O44  1  0.619192  0.250000  0.525354  1
  O  O45  1  0.399400  0.250000  0.547804  1
  O  O46  1  0.022978  0.250000  0.618232  1
  O  O47  1  0.997844  0.750001  0.621603  1
  O  O48  1  0.501795  0.545286  0.680748  1
  O  O49  1  0.501795  0.954715  0.680748  1
  O  O50  1  0.788652  0.250000  0.723804  1
  O  O51  1  0.288651  0.250000  0.776196  1
  O  O52  1  0.001795  0.545286  0.819252  1
  O  O53  1  0.001795  0.954715  0.819252  1
  O  O54  1  0.497843  0.750001  0.878397  1
  O  O55  1  0.522979  0.250000  0.881768  1
  O  O56  1  0.899400  0.250000  0.952196  1
  O  O57  1  0.119192  0.250000  0.974645  1
  O  O58  1  0.329526  0.020771  0.990471  1
  O  O59  1  0.329526  0.479229  0.990471  1
