# generated using pymatgen
data_Cs4Na2NdTlAs4
_symmetry_space_group_name_H-M   'P 1'
_cell_length_a   9.97361840
_cell_length_b   9.97361801
_cell_length_c   9.97361735
_cell_angle_alpha   137.37529478
_cell_angle_beta   61.05636658
_cell_angle_gamma   138.42983666
_symmetry_Int_Tables_number   1
_chemical_formula_structural   Cs4Na2NdTlAs4
_chemical_formula_sum   'Cs4 Na2 Nd1 Tl1 As4'
_cell_volume   440.88082597
_cell_formula_units_Z   1
loop_
 _symmetry_equiv_pos_site_id
 _symmetry_equiv_pos_as_xyz
  1  'x, y, z'
loop_
 _atom_site_type_symbol
 _atom_site_label
 _atom_site_symmetry_multiplicity
 _atom_site_fract_x
 _atom_site_fract_y
 _atom_site_fract_z
 _atom_site_occupancy
  Cs  Cs0  1  0.831266  0.239600  0.055784  1
  Cs  Cs1  1  0.668734  0.724518  0.408335  1
  Cs  Cs2  1  0.316184  0.260400  0.591665  1
  Cs  Cs3  1  0.183816  0.775482  0.944216  1
  Na  Na4  1  0.249999  0.249999  0.000000  1
  Na  Na5  1  0.749999  0.749999  0.000000  1
  Nd  Nd6  1  0.749999  0.249999  0.500000  1
  Tl  Tl7  1  0.249999  0.749999  0.500000  1
  As  As8  1  0.401458  0.768782  0.179680  1
  As  As9  1  0.098542  0.278222  0.367325  1
  As  As10  1  0.910897  0.731218  0.632675  1
  As  As11  1  0.589103  0.221778  0.820321  1
