# generated using pymatgen
data_Ti3Cu3N
_symmetry_space_group_name_H-M   'P 1'
_cell_length_a   7.92870033
_cell_length_b   7.92869977
_cell_length_c   7.92870000
_cell_angle_alpha   59.99999905
_cell_angle_beta   60.00000138
_cell_angle_gamma   59.99999618
_symmetry_Int_Tables_number   1
_chemical_formula_structural   Ti3Cu3N
_chemical_formula_sum   'Ti12 Cu12 N4'
_cell_volume   352.44467529
_cell_formula_units_Z   4
loop_
 _symmetry_equiv_pos_site_id
 _symmetry_equiv_pos_as_xyz
  1  'x, y, z'
loop_
 _atom_site_type_symbol
 _atom_site_label
 _atom_site_symmetry_multiplicity
 _atom_site_fract_x
 _atom_site_fract_y
 _atom_site_fract_z
 _atom_site_occupancy
  Ti  Ti0  1  0.935873  0.564127  0.564127  1
  Ti  Ti1  1  0.685873  0.314127  0.685873  1
  Ti  Ti2  1  0.935873  0.564127  0.935873  1
  Ti  Ti3  1  0.564127  0.935873  0.935873  1
  Ti  Ti4  1  0.314127  0.685873  0.314127  1
  Ti  Ti5  1  0.564127  0.935873  0.564127  1
  Ti  Ti6  1  0.685873  0.685873  0.314127  1
  Ti  Ti7  1  0.935873  0.935873  0.564127  1
  Ti  Ti8  1  0.314127  0.314127  0.685873  1
  Ti  Ti9  1  0.685873  0.314127  0.314127  1
  Ti  Ti10  1  0.564127  0.564127  0.935873  1
  Ti  Ti11  1  0.314127  0.685873  0.685873  1
  Cu  Cu12  1  0.252793  0.915736  0.915736  1
  Cu  Cu13  1  0.334264  0.334264  0.334264  1
  Cu  Cu14  1  0.334264  0.334264  0.997207  1
  Cu  Cu15  1  0.915736  0.252793  0.915736  1
  Cu  Cu16  1  0.915736  0.915736  0.915736  1
  Cu  Cu17  1  0.997207  0.334264  0.334264  1
  Cu  Cu18  1  0.915736  0.915736  0.252793  1
  Cu  Cu19  1  0.334264  0.997207  0.334264  1
  Cu  Cu20  1  0.125000  0.625000  0.125000  1
  Cu  Cu21  1  0.125000  0.125000  0.625000  1
  Cu  Cu22  1  0.625000  0.125000  0.125000  1
  Cu  Cu23  1  0.125000  0.125000  0.125000  1
  N  N24  1  0.625000  0.125000  0.625000  1
  N  N25  1  0.625000  0.625000  0.125000  1
  N  N26  1  0.125000  0.625000  0.625000  1
  N  N27  1  0.625000  0.625000  0.625000  1
