# generated using pymatgen
data_Tm2V2ReSi4
_symmetry_space_group_name_H-M   'P 1'
_cell_length_a   6.75819700
_cell_length_b   6.75819700
_cell_length_c   12.52714500
_cell_angle_alpha   90.00000000
_cell_angle_beta   90.00000000
_cell_angle_gamma   90.00000000
_symmetry_Int_Tables_number   1
_chemical_formula_structural   Tm2V2ReSi4
_chemical_formula_sum   'Tm8 V8 Re4 Si16'
_cell_volume   572.15513337
_cell_formula_units_Z   4
loop_
 _symmetry_equiv_pos_site_id
 _symmetry_equiv_pos_as_xyz
  1  'x, y, z'
loop_
 _atom_site_type_symbol
 _atom_site_label
 _atom_site_symmetry_multiplicity
 _atom_site_fract_x
 _atom_site_fract_y
 _atom_site_fract_z
 _atom_site_occupancy
  Tm  Tm0  1  0.000539  0.663973  0.029518  1
  Tm  Tm1  1  0.836027  0.500539  0.279518  1
  Tm  Tm2  1  0.163973  0.499461  0.779518  1
  Tm  Tm3  1  0.500539  0.836027  0.720482  1
  Tm  Tm4  1  0.499461  0.163973  0.220482  1
  Tm  Tm5  1  0.999461  0.336027  0.529518  1
  Tm  Tm6  1  0.663973  0.000539  0.970482  1
  Tm  Tm7  1  0.336027  0.999461  0.470482  1
  V  V8  1  0.001102  0.161822  0.124736  1
  V  V9  1  0.338178  0.501102  0.374736  1
  V  V10  1  0.661822  0.498898  0.874736  1
  V  V11  1  0.501102  0.338178  0.625264  1
  V  V12  1  0.498898  0.661822  0.125264  1
  V  V13  1  0.998898  0.838178  0.624736  1
  V  V14  1  0.161822  0.001102  0.875264  1
  V  V15  1  0.838178  0.998898  0.375264  1
  Re  Re16  1  0.332986  0.332986  0.000000  1
  Re  Re17  1  0.167014  0.832986  0.250000  1
  Re  Re18  1  0.832986  0.167014  0.750000  1
  Re  Re19  1  0.667014  0.667014  0.500000  1
  Si  Si20  1  0.288079  0.961642  0.064756  1
  Si  Si21  1  0.538358  0.788079  0.314756  1
  Si  Si22  1  0.461642  0.211921  0.814756  1
  Si  Si23  1  0.788079  0.538358  0.685244  1
  Si  Si24  1  0.211921  0.461642  0.185244  1
  Si  Si25  1  0.711921  0.038358  0.564756  1
  Si  Si26  1  0.961642  0.288079  0.935244  1
  Si  Si27  1  0.038358  0.711921  0.435244  1
  Si  Si28  1  0.701458  0.377102  0.066326  1
  Si  Si29  1  0.122898  0.201458  0.316326  1
  Si  Si30  1  0.877102  0.798542  0.816326  1
  Si  Si31  1  0.201458  0.122898  0.683674  1
  Si  Si32  1  0.798542  0.877102  0.183674  1
  Si  Si33  1  0.298542  0.622898  0.566326  1
  Si  Si34  1  0.377102  0.701458  0.933674  1
  Si  Si35  1  0.622898  0.298542  0.433674  1
