# generated using pymatgen
data_CsMn2(Sb6Pt)2
_symmetry_space_group_name_H-M   'P 1'
_cell_length_a   8.18918740
_cell_length_b   8.18918692
_cell_length_c   8.16543596
_cell_angle_alpha   109.55410835
_cell_angle_beta   109.39034330
_cell_angle_gamma   109.58679655
_symmetry_Int_Tables_number   1
_chemical_formula_structural   CsMn2(Sb6Pt)2
_chemical_formula_sum   'Cs1 Mn2 Sb12 Pt2'
_cell_volume   420.92637664
_cell_formula_units_Z   1
loop_
 _symmetry_equiv_pos_site_id
 _symmetry_equiv_pos_as_xyz
  1  'x, y, z'
loop_
 _atom_site_type_symbol
 _atom_site_label
 _atom_site_symmetry_multiplicity
 _atom_site_fract_x
 _atom_site_fract_y
 _atom_site_fract_z
 _atom_site_occupancy
  Cs  Cs0  1  0.000000  0.000000  0.000000  1
  Mn  Mn1  1  0.500000  0.000000  0.000000  1
  Mn  Mn2  1  0.000000  0.500000  0.000000  1
  Sb  Sb3  1  0.169605  0.816070  0.667337  1
  Sb  Sb4  1  0.148734  0.502268  0.332663  1
  Sb  Sb5  1  0.498939  0.666831  0.850590  1
  Sb  Sb6  1  0.333967  0.835062  0.169029  1
  Sb  Sb7  1  0.816242  0.648349  0.149410  1
  Sb  Sb8  1  0.648714  0.846854  0.495568  1
  Sb  Sb9  1  0.183758  0.351651  0.850590  1
  Sb  Sb10  1  0.666033  0.164938  0.830971  1
  Sb  Sb11  1  0.351286  0.153146  0.504432  1
  Sb  Sb12  1  0.501061  0.333169  0.149410  1
  Sb  Sb13  1  0.851266  0.497732  0.667337  1
  Sb  Sb14  1  0.830395  0.183930  0.332663  1
  Pt  Pt15  1  0.500000  0.500000  0.500000  1
  Pt  Pt16  1  0.000000  0.000000  0.500000  1
