# generated using pymatgen
data_Tb4Ho8Ir3Os
_symmetry_space_group_name_H-M   'P 1'
_cell_length_a   6.39515200
_cell_length_b   7.27406610
_cell_length_c   9.08377100
_cell_angle_alpha   90.00000000
_cell_angle_beta   90.00000000
_cell_angle_gamma   90.00927878
_symmetry_Int_Tables_number   1
_chemical_formula_structural   Tb4Ho8Ir3Os
_chemical_formula_sum   'Tb4 Ho8 Ir3 Os1'
_cell_volume   422.56574241
_cell_formula_units_Z   1
loop_
 _symmetry_equiv_pos_site_id
 _symmetry_equiv_pos_as_xyz
  1  'x, y, z'
loop_
 _atom_site_type_symbol
 _atom_site_label
 _atom_site_symmetry_multiplicity
 _atom_site_fract_x
 _atom_site_fract_y
 _atom_site_fract_z
 _atom_site_occupancy
  Tb  Tb0  1  0.871278  0.534722  0.250000  1
  Tb  Tb1  1  0.627319  0.035467  0.250000  1
  Tb  Tb2  1  0.130782  0.464864  0.750000  1
  Tb  Tb3  1  0.372226  0.963714  0.750000  1
  Ho  Ho4  1  0.326258  0.678466  0.064442  1
  Ho  Ho5  1  0.171575  0.174955  0.436163  1
  Ho  Ho6  1  0.671561  0.323083  0.563044  1
  Ho  Ho7  1  0.831167  0.823692  0.939424  1
  Ho  Ho8  1  0.671561  0.323083  0.936956  1
  Ho  Ho9  1  0.831167  0.823692  0.560576  1
  Ho  Ho10  1  0.326258  0.678466  0.435558  1
  Ho  Ho11  1  0.171575  0.174955  0.063837  1
  Ir  Ir12  1  0.455301  0.385629  0.250000  1
  Ir  Ir13  1  0.956399  0.115534  0.750000  1
  Ir  Ir14  1  0.547116  0.615033  0.750000  1
  Os  Os15  1  0.038457  0.884643  0.250000  1
