# generated using pymatgen
data_K2VCuTe4
_symmetry_space_group_name_H-M   'P 1'
_cell_length_a   14.68651136
_cell_length_b   13.14228972
_cell_length_c   7.80312457
_cell_angle_alpha   84.98903506
_cell_angle_beta   63.05404201
_cell_angle_gamma   31.95692637
_symmetry_Int_Tables_number   1
_chemical_formula_structural   K2VCuTe4
_chemical_formula_sum   'K4 V2 Cu2 Te8'
_cell_volume   552.00611247
_cell_formula_units_Z   2
loop_
 _symmetry_equiv_pos_site_id
 _symmetry_equiv_pos_as_xyz
  1  'x, y, z'
loop_
 _atom_site_type_symbol
 _atom_site_label
 _atom_site_symmetry_multiplicity
 _atom_site_fract_x
 _atom_site_fract_y
 _atom_site_fract_z
 _atom_site_occupancy
  K  K0  1  0.680476  0.680476  0.319524  1
  K  K1  1  0.319524  0.319524  0.680476  1
  K  K2  1  0.569524  0.569524  0.930476  1
  K  K3  1  0.930476  0.930476  0.569524  1
  V  V4  1  0.500000  0.500000  0.500000  1
  V  V5  1  0.750000  0.750000  0.750000  1
  Cu  Cu6  1  0.000000  0.000000  0.000000  1
  Cu  Cu7  1  0.250000  0.250000  0.250000  1
  Te  Te8  1  0.350266  0.034462  0.945370  1
  Te  Te9  1  0.669902  0.945370  0.034462  1
  Te  Te10  1  0.945370  0.669902  0.350266  1
  Te  Te11  1  0.034462  0.350266  0.669902  1
  Te  Te12  1  0.899734  0.215538  0.304630  1
  Te  Te13  1  0.580098  0.304630  0.215538  1
  Te  Te14  1  0.304630  0.580098  0.899734  1
  Te  Te15  1  0.215538  0.899734  0.580098  1
