# generated using pymatgen
data_CaAc7(GePd)8
_symmetry_space_group_name_H-M   'P 1'
_cell_length_a   4.64455200
_cell_length_b   7.98626639
_cell_length_c   15.24131700
_cell_angle_alpha   90.03385547
_cell_angle_beta   90.00000000
_cell_angle_gamma   90.00000000
_symmetry_Int_Tables_number   1
_chemical_formula_structural   CaAc7(GePd)8
_chemical_formula_sum   'Ca1 Ac7 Ge8 Pd8'
_cell_volume   565.34042670
_cell_formula_units_Z   1
loop_
 _symmetry_equiv_pos_site_id
 _symmetry_equiv_pos_as_xyz
  1  'x, y, z'
loop_
 _atom_site_type_symbol
 _atom_site_label
 _atom_site_symmetry_multiplicity
 _atom_site_fract_x
 _atom_site_fract_y
 _atom_site_fract_z
 _atom_site_occupancy
  Ca  Ca0  1  0.500000  0.786938  0.252095  1
  Ac  Ac1  1  0.000000  0.226651  0.753189  1
  Ac  Ac2  1  0.000000  0.202260  0.247005  1
  Ac  Ac3  1  0.500000  0.774688  0.746421  1
  Ac  Ac4  1  0.000000  0.283377  0.495145  1
  Ac  Ac5  1  0.500000  0.713766  0.005092  1
  Ac  Ac6  1  0.000000  0.290208  0.004639  1
  Ac  Ac7  1  0.500000  0.713990  0.495243  1
  Ge  Ge8  1  0.000000  0.589539  0.862658  1
  Ge  Ge9  1  0.000000  0.590591  0.156016  1
  Ge  Ge10  1  0.500000  0.412302  0.635988  1
  Ge  Ge11  1  0.500000  0.423332  0.346317  1
  Ge  Ge12  1  0.000000  0.913400  0.398492  1
  Ge  Ge13  1  0.000000  0.919103  0.593847  1
  Ge  Ge14  1  0.500000  0.078040  0.097863  1
  Ge  Ge15  1  0.500000  0.080440  0.906833  1
  Pd  Pd16  1  0.000000  0.921196  0.888400  1
  Pd  Pd17  1  0.000000  0.910396  0.117243  1
  Pd  Pd18  1  0.500000  0.080200  0.612600  1
  Pd  Pd19  1  0.500000  0.081551  0.381691  1
  Pd  Pd20  1  0.000000  0.585671  0.341321  1
  Pd  Pd21  1  0.000000  0.582991  0.639982  1
  Pd  Pd22  1  0.500000  0.423753  0.160182  1
  Pd  Pd23  1  0.500000  0.415618  0.861737  1
