# generated using pymatgen
data_Mg3In9Ir3Rh
_symmetry_space_group_name_H-M   'P 1'
_cell_length_a   7.06768243
_cell_length_b   7.13544801
_cell_length_c   7.17102800
_cell_angle_alpha   90.00000000
_cell_angle_beta   90.00000000
_cell_angle_gamma   89.95496727
_symmetry_Int_Tables_number   1
_chemical_formula_structural   Mg3In9Ir3Rh
_chemical_formula_sum   'Mg3 In9 Ir3 Rh1'
_cell_volume   361.64257892
_cell_formula_units_Z   1
loop_
 _symmetry_equiv_pos_site_id
 _symmetry_equiv_pos_as_xyz
  1  'x, y, z'
loop_
 _atom_site_type_symbol
 _atom_site_label
 _atom_site_symmetry_multiplicity
 _atom_site_fract_x
 _atom_site_fract_y
 _atom_site_fract_z
 _atom_site_occupancy
  Mg  Mg0  1  0.999141  0.500780  0.500000  1
  Mg  Mg1  1  0.500652  0.999745  0.000000  1
  Mg  Mg2  1  0.500918  0.998887  0.500000  1
  In  In3  1  0.998721  0.500639  0.000000  1
  In  In4  1  0.345778  0.661707  0.240167  1
  In  In5  1  0.655024  0.338588  0.240120  1
  In  In6  1  0.162964  0.157328  0.733615  1
  In  In7  1  0.836181  0.842115  0.733670  1
  In  In8  1  0.655024  0.338588  0.759880  1
  In  In9  1  0.345778  0.661707  0.759833  1
  In  In10  1  0.836181  0.842115  0.266330  1
  In  In11  1  0.162964  0.157328  0.266385  1
  Ir  Ir12  1  0.151018  0.847884  0.500000  1
  Ir  Ir13  1  0.849643  0.152783  0.500000  1
  Ir  Ir14  1  0.347963  0.347492  0.000000  1
  Rh  Rh15  1  0.652051  0.652312  0.000000  1
