# generated using pymatgen
data_Ho2Tm2Al17GeIr6
_symmetry_space_group_name_H-M   'P 1'
_cell_length_a   7.53940805
_cell_length_b   7.53940751
_cell_length_c   9.43207000
_cell_angle_alpha   90.00000000
_cell_angle_beta   90.00000000
_cell_angle_gamma   119.57492392
_symmetry_Int_Tables_number   1
_chemical_formula_structural   Ho2Tm2Al17GeIr6
_chemical_formula_sum   'Ho2 Tm2 Al17 Ge1 Ir6'
_cell_volume   466.29038220
_cell_formula_units_Z   1
loop_
 _symmetry_equiv_pos_site_id
 _symmetry_equiv_pos_as_xyz
  1  'x, y, z'
loop_
 _atom_site_type_symbol
 _atom_site_label
 _atom_site_symmetry_multiplicity
 _atom_site_fract_x
 _atom_site_fract_y
 _atom_site_fract_z
 _atom_site_occupancy
  Ho  Ho0  1  0.994676  0.677155  0.250000  1
  Ho  Ho1  1  0.677155  0.994676  0.250000  1
  Tm  Tm2  1  0.003261  0.328213  0.750000  1
  Tm  Tm3  1  0.328213  0.003261  0.750000  1
  Al  Al4  1  0.871976  0.871976  0.750000  1
  Al  Al5  1  0.000190  0.338014  0.073966  1
  Al  Al6  1  0.998432  0.664496  0.924089  1
  Al  Al7  1  0.998432  0.664496  0.575911  1
  Al  Al8  1  0.338014  0.000190  0.426034  1
  Al  Al9  1  0.000190  0.338014  0.426034  1
  Al  Al10  1  0.664496  0.998432  0.575911  1
  Al  Al11  1  0.664496  0.998432  0.924089  1
  Al  Al12  1  0.338014  0.000190  0.073966  1
  Al  Al13  1  0.332088  0.332088  0.560378  1
  Al  Al14  1  0.663670  0.663670  0.447963  1
  Al  Al15  1  0.663670  0.663670  0.052037  1
  Al  Al16  1  0.332088  0.332088  0.939622  1
  Al  Al17  1  0.337455  0.554263  0.250000  1
  Al  Al18  1  0.661076  0.450512  0.750000  1
  Al  Al19  1  0.554263  0.337455  0.250000  1
  Al  Al20  1  0.450512  0.661076  0.750000  1
  Ge  Ge21  1  0.136884  0.136884  0.250000  1
  Ir  Ir22  1  0.669690  0.326217  0.999859  1
  Ir  Ir23  1  0.326217  0.669690  0.999859  1
  Ir  Ir24  1  0.326217  0.669690  0.500141  1
  Ir  Ir25  1  0.669690  0.326217  0.500141  1
  Ir  Ir26  1  0.999468  0.999468  0.000925  1
  Ir  Ir27  1  0.999468  0.999468  0.499075  1
