# generated using pymatgen
data_Pr3Er3Al17Si7Os8
_symmetry_space_group_name_H-M   'P 1'
_cell_length_a   8.74347403
_cell_length_b   8.72678971
_cell_length_c   9.56268300
_cell_angle_alpha   90.00000000
_cell_angle_beta   90.00000000
_cell_angle_gamma   120.12527158
_symmetry_Int_Tables_number   1
_chemical_formula_structural   Pr3Er3Al17Si7Os8
_chemical_formula_sum   'Pr3 Er3 Al17 Si7 Os8'
_cell_volume   631.10166018
_cell_formula_units_Z   1
loop_
 _symmetry_equiv_pos_site_id
 _symmetry_equiv_pos_as_xyz
  1  'x, y, z'
loop_
 _atom_site_type_symbol
 _atom_site_label
 _atom_site_symmetry_multiplicity
 _atom_site_fract_x
 _atom_site_fract_y
 _atom_site_fract_z
 _atom_site_occupancy
  Pr  Pr0  1  0.809936  0.619332  0.750000  1
  Pr  Pr1  1  0.382066  0.188285  0.750000  1
  Pr  Pr2  1  0.805556  0.189464  0.750000  1
  Er  Er3  1  0.193698  0.389675  0.250000  1
  Er  Er4  1  0.609397  0.806168  0.250000  1
  Er  Er5  1  0.196578  0.804323  0.250000  1
  Al  Al6  1  0.165819  0.332551  0.571705  1
  Al  Al7  1  0.834901  0.672567  0.417777  1
  Al  Al8  1  0.668796  0.833824  0.570950  1
  Al  Al9  1  0.834901  0.672567  0.082223  1
  Al  Al10  1  0.328094  0.165120  0.418961  1
  Al  Al11  1  0.165819  0.332551  0.928295  1
  Al  Al12  1  0.164988  0.833090  0.569568  1
  Al  Al13  1  0.328094  0.165120  0.081039  1
  Al  Al14  1  0.836166  0.163316  0.418657  1
  Al  Al15  1  0.668796  0.833824  0.929050  1
  Al  Al16  1  0.836166  0.163316  0.081343  1
  Al  Al17  1  0.164988  0.833090  0.930432  1
  Al  Al18  1  0.129522  0.567974  0.750000  1
  Al  Al19  1  0.564018  0.435473  0.250000  1
  Al  Al20  1  0.437898  0.568308  0.750000  1
  Al  Al21  1  0.999760  0.999231  0.250000  1
  Al  Al22  1  0.999481  0.001331  0.750000  1
  Si  Si23  1  0.333451  0.664715  0.043081  1
  Si  Si24  1  0.666144  0.335846  0.969283  1
  Si  Si25  1  0.666144  0.335846  0.530717  1
  Si  Si26  1  0.333451  0.664715  0.456919  1
  Si  Si27  1  0.564239  0.122847  0.250000  1
  Si  Si28  1  0.434484  0.869272  0.750000  1
  Si  Si29  1  0.876014  0.435150  0.250000  1
  Os  Os30  1  0.499605  0.998457  0.006382  1
  Os  Os31  1  0.000679  0.500412  0.011045  1
  Os  Os32  1  0.499605  0.998457  0.493618  1
  Os  Os33  1  0.499414  0.501297  0.004498  1
  Os  Os34  1  0.000679  0.500412  0.488955  1
  Os  Os35  1  0.499414  0.501297  0.495502  1
  Os  Os36  1  0.000619  0.000390  0.000560  1
  Os  Os37  1  0.000619  0.000390  0.499440  1
