# generated using pymatgen
data_Ta6ReSi6Mo3W2
_symmetry_space_group_name_H-M   'P 1'
_cell_length_a   7.69074957
_cell_length_b   7.69656182
_cell_length_c   7.69061111
_cell_angle_alpha   126.47600807
_cell_angle_beta   128.47139077
_cell_angle_gamma   77.47252516
_symmetry_Int_Tables_number   1
_chemical_formula_structural   Ta6ReSi6Mo3W2
_chemical_formula_sum   'Ta6 Re1 Si6 Mo3 W2'
_cell_volume   278.00185509
_cell_formula_units_Z   1
loop_
 _symmetry_equiv_pos_site_id
 _symmetry_equiv_pos_as_xyz
  1  'x, y, z'
loop_
 _atom_site_type_symbol
 _atom_site_label
 _atom_site_symmetry_multiplicity
 _atom_site_fract_x
 _atom_site_fract_y
 _atom_site_fract_z
 _atom_site_occupancy
  Ta  Ta0  1  0.550391  0.092341  0.042655  1
  Ta  Ta1  1  0.449532  0.495839  0.547496  1
  Ta  Ta2  1  0.948546  0.495675  0.046001  1
  Ta  Ta3  1  0.049546  0.091952  0.541866  1
  Ta  Ta4  1  0.752346  0.903284  0.651929  1
  Ta  Ta5  1  0.251172  0.902954  0.151073  1
  Re  Re6  1  0.370457  0.495920  0.125727  1
  Si  Si7  1  0.748918  0.499972  0.251101  1
  Si  Si8  1  0.248637  0.499832  0.751038  1
  Si  Si9  1  0.333566  0.826091  0.492849  1
  Si  Si10  1  0.667378  0.163590  0.495803  1
  Si  Si11  1  0.833122  0.827968  0.994756  1
  Si  Si12  1  0.169112  0.165519  0.996693  1
  Mo  Mo13  1  0.129473  0.754957  0.625495  1
  Mo  Mo14  1  0.869390  0.495756  0.625889  1
  Mo  Mo15  1  0.628579  0.754062  0.125239  1
  W  W16  1  0.499294  0.237746  0.738398  1
  W  W17  1  0.000541  0.238740  0.238190  1
