# generated using pymatgen
data_ErTl(SO4)2
_symmetry_space_group_name_H-M   'P 1'
_cell_length_a   5.41600600
_cell_length_b   5.41600605
_cell_length_c   8.08013400
_cell_angle_alpha   90.00000000
_cell_angle_beta   90.00000000
_cell_angle_gamma   119.99997524
_symmetry_Int_Tables_number   1
_chemical_formula_structural   ErTl(SO4)2
_chemical_formula_sum   'Er1 Tl1 S2 O8'
_cell_volume   205.26153914
_cell_formula_units_Z   1
loop_
 _symmetry_equiv_pos_site_id
 _symmetry_equiv_pos_as_xyz
  1  'x, y, z'
loop_
 _atom_site_type_symbol
 _atom_site_label
 _atom_site_symmetry_multiplicity
 _atom_site_fract_x
 _atom_site_fract_y
 _atom_site_fract_z
 _atom_site_occupancy
  Er  Er0  1  0.000000  0.000000  0.000000  1
  Tl  Tl1  1  0.000000  0.000000  0.500000  1
  S  S2  1  0.333333  0.666667  0.233884  1
  S  S3  1  0.666667  0.333333  0.766116  1
  O  O4  1  0.177173  0.369529  0.167492  1
  O  O5  1  0.630471  0.807644  0.167492  1
  O  O6  1  0.369529  0.177173  0.832508  1
  O  O7  1  0.192356  0.822827  0.167492  1
  O  O8  1  0.807644  0.630471  0.832508  1
  O  O9  1  0.822827  0.192356  0.832508  1
  O  O10  1  0.333333  0.666667  0.414017  1
  O  O11  1  0.666667  0.333333  0.585983  1
