# generated using pymatgen
data_Li3Zr5Co12(NiP3)4
_symmetry_space_group_name_H-M   'P 1'
_cell_length_a   11.88098684
_cell_length_b   11.91996700
_cell_length_c   3.63875800
_cell_angle_alpha   90.00000000
_cell_angle_beta   90.00000000
_cell_angle_gamma   120.02325750
_symmetry_Int_Tables_number   1
_chemical_formula_structural   Li3Zr5Co12(NiP3)4
_chemical_formula_sum   'Li3 Zr5 Co12 Ni4 P12'
_cell_volume   446.17943041
_cell_formula_units_Z   1
loop_
 _symmetry_equiv_pos_site_id
 _symmetry_equiv_pos_as_xyz
  1  'x, y, z'
loop_
 _atom_site_type_symbol
 _atom_site_label
 _atom_site_symmetry_multiplicity
 _atom_site_fract_x
 _atom_site_fract_y
 _atom_site_fract_z
 _atom_site_occupancy
  Li  Li0  1  0.443656  0.443063  0.000000  1
  Li  Li1  1  0.557453  0.000704  0.000000  1
  Li  Li2  1  0.000392  0.557458  0.000000  1
  Zr  Zr3  1  0.666961  0.332269  0.000000  1
  Zr  Zr4  1  0.333221  0.666247  0.000000  1
  Zr  Zr5  1  0.817687  0.817222  0.500000  1
  Zr  Zr6  1  0.185312  0.000958  0.500000  1
  Zr  Zr7  1  0.999222  0.185586  0.500000  1
  Co  Co8  1  0.197330  0.378040  0.000000  1
  Co  Co9  1  0.180797  0.803031  0.000000  1
  Co  Co10  1  0.822289  0.621399  0.000000  1
  Co  Co11  1  0.798702  0.176001  0.000000  1
  Co  Co12  1  0.377301  0.200775  0.000000  1
  Co  Co13  1  0.873380  0.351299  0.500000  1
  Co  Co14  1  0.477782  0.124627  0.500000  1
  Co  Co15  1  0.999555  0.999585  0.000000  1
  Co  Co16  1  0.716527  0.999086  0.500000  1
  Co  Co17  1  0.000300  0.717927  0.500000  1
  Co  Co18  1  0.621325  0.820321  0.000000  1
  Co  Co19  1  0.281788  0.282817  0.500000  1
  Ni  Ni20  1  0.126068  0.482968  0.500000  1
  Ni  Ni21  1  0.356335  0.873823  0.500000  1
  Ni  Ni22  1  0.520549  0.644526  0.500000  1
  Ni  Ni23  1  0.646387  0.519955  0.500000  1
  P  P24  1  0.645690  0.643948  0.000000  1
  P  P25  1  0.361333  0.004612  0.000000  1
  P  P26  1  0.994363  0.356620  0.000000  1
  P  P27  1  0.481776  0.312316  0.500000  1
  P  P28  1  0.682427  0.166264  0.500000  1
  P  P29  1  0.835273  0.515893  0.500000  1
  P  P30  1  0.519074  0.832069  0.500000  1
  P  P31  1  0.167786  0.687905  0.500000  1
  P  P32  1  0.822035  0.000276  0.000000  1
  P  P33  1  0.000540  0.822193  0.000000  1
  P  P34  1  0.312503  0.480457  0.500000  1
  P  P35  1  0.176879  0.177759  0.000000  1
