# generated using pymatgen
data_SmHo4Hf3(P3Ir4)4
_symmetry_space_group_name_H-M   'P 1'
_cell_length_a   12.84839700
_cell_length_b   12.84839619
_cell_length_c   3.95402100
_cell_angle_alpha   90.00000000
_cell_angle_beta   90.00000000
_cell_angle_gamma   119.94098103
_symmetry_Int_Tables_number   1
_chemical_formula_structural   SmHo4Hf3(P3Ir4)4
_chemical_formula_sum   'Sm1 Ho4 Hf3 P12 Ir16'
_cell_volume   565.62089473
_cell_formula_units_Z   1
loop_
 _symmetry_equiv_pos_site_id
 _symmetry_equiv_pos_as_xyz
  1  'x, y, z'
loop_
 _atom_site_type_symbol
 _atom_site_label
 _atom_site_symmetry_multiplicity
 _atom_site_fract_x
 _atom_site_fract_y
 _atom_site_fract_z
 _atom_site_occupancy
  Sm  Sm0  1  0.184936  0.184936  0.500000  1
  Ho  Ho1  1  0.333272  0.666709  0.000000  1
  Ho  Ho2  1  0.666709  0.333272  0.000000  1
  Ho  Ho3  1  0.815324  0.999925  0.500000  1
  Ho  Ho4  1  0.999925  0.815324  0.500000  1
  Hf  Hf5  1  0.449211  0.999719  0.000000  1
  Hf  Hf6  1  0.999719  0.449211  0.000000  1
  Hf  Hf7  1  0.551634  0.551634  0.000000  1
  P  P8  1  0.174820  0.998791  0.000000  1
  P  P9  1  0.998791  0.174820  0.000000  1
  P  P10  1  0.824225  0.824225  0.000000  1
  P  P11  1  0.169667  0.482974  0.500000  1
  P  P12  1  0.516927  0.686790  0.500000  1
  P  P13  1  0.313371  0.830050  0.500000  1
  P  P14  1  0.686790  0.516927  0.500000  1
  P  P15  1  0.830050  0.313371  0.500000  1
  P  P16  1  0.482974  0.169667  0.500000  1
  P  P17  1  0.649965  0.000045  0.000000  1
  P  P18  1  0.000045  0.649965  0.000000  1
  P  P19  1  0.351896  0.351896  0.000000  1
  Ir  Ir20  1  0.358231  0.492946  0.500000  1
  Ir  Ir21  1  0.507129  0.864976  0.500000  1
  Ir  Ir22  1  0.134889  0.642016  0.500000  1
  Ir  Ir23  1  0.864976  0.507129  0.500000  1
  Ir  Ir24  1  0.642016  0.134889  0.500000  1
  Ir  Ir25  1  0.492946  0.358231  0.500000  1
  Ir  Ir26  1  0.177777  0.373825  0.000000  1
  Ir  Ir27  1  0.628536  0.806539  0.000000  1
  Ir  Ir28  1  0.193347  0.821740  0.000000  1
  Ir  Ir29  1  0.806539  0.628536  0.000000  1
  Ir  Ir30  1  0.821740  0.193347  0.000000  1
  Ir  Ir31  1  0.373825  0.177777  0.000000  1
  Ir  Ir32  1  0.280992  0.999221  0.500000  1
  Ir  Ir33  1  0.999221  0.280992  0.500000  1
  Ir  Ir34  1  0.719051  0.719051  0.500000  1
  Ir  Ir35  1  0.998533  0.998533  0.000000  1
