# generated using pymatgen
data_Pa3(SiPd)4
_symmetry_space_group_name_H-M   'P 1'
_cell_length_a   8.03002247
_cell_length_b   8.03002247
_cell_length_c   8.03002345
_cell_angle_alpha   149.36166506
_cell_angle_beta   130.10175667
_cell_angle_gamma   59.69862398
_symmetry_Int_Tables_number   1
_chemical_formula_structural   Pa3(SiPd)4
_chemical_formula_sum   'Pa3 Si4 Pd4'
_cell_volume   200.19094951
_cell_formula_units_Z   1
loop_
 _symmetry_equiv_pos_site_id
 _symmetry_equiv_pos_as_xyz
  1  'x, y, z'
loop_
 _atom_site_type_symbol
 _atom_site_label
 _atom_site_symmetry_multiplicity
 _atom_site_fract_x
 _atom_site_fract_y
 _atom_site_fract_z
 _atom_site_occupancy
  Pa  Pa0  1  0.375026  0.875026  0.500000  1
  Pa  Pa1  1  0.624985  0.124985  0.500000  1
  Pa  Pa2  1  0.000054  0.000054  0.000000  1
  Si  Si3  1  0.788293  0.788293  0.000000  1
  Si  Si4  1  0.211655  0.211655  0.000000  1
  Si  Si5  1  0.314136  0.500031  0.814105  1
  Si  Si6  1  0.685926  0.500031  0.185895  1
  Pd  Pd7  1  0.375051  0.671134  0.703917  1
  Pd  Pd8  1  0.032703  0.328829  0.703876  1
  Pd  Pd9  1  0.967218  0.671134  0.296083  1
  Pd  Pd10  1  0.624953  0.328829  0.296124  1
