# generated using pymatgen
data_Pr2GaSi3Ir5Rh
_symmetry_space_group_name_H-M   'P 1'
_cell_length_a   6.76418463
_cell_length_b   6.75670379
_cell_length_c   6.77181717
_cell_angle_alpha   130.41599397
_cell_angle_beta   114.18743506
_cell_angle_gamma   86.69380879
_symmetry_Int_Tables_number   1
_chemical_formula_structural   Pr2GaSi3Ir5Rh
_chemical_formula_sum   'Pr2 Ga1 Si3 Ir5 Rh1'
_cell_volume   205.08790192
_cell_formula_units_Z   1
loop_
 _symmetry_equiv_pos_site_id
 _symmetry_equiv_pos_as_xyz
  1  'x, y, z'
loop_
 _atom_site_type_symbol
 _atom_site_label
 _atom_site_symmetry_multiplicity
 _atom_site_fract_x
 _atom_site_fract_y
 _atom_site_fract_z
 _atom_site_occupancy
  Pr  Pr0  1  0.249018  0.969180  0.718649  1
  Pr  Pr1  1  0.751496  0.021816  0.270372  1
  Ga  Ga2  1  0.090895  0.300621  0.212201  1
  Si  Si3  1  0.931917  0.726394  0.793272  1
  Si  Si4  1  0.405183  0.619810  0.215890  1
  Si  Si5  1  0.573230  0.366049  0.791505  1
  Ir  Ir6  1  0.978052  0.503857  0.978592  1
  Ir  Ir7  1  0.283075  0.996399  0.278734  1
  Ir  Ir8  1  0.717466  0.995638  0.712962  1
  Ir  Ir9  1  0.232544  0.498282  0.736518  1
  Ir  Ir10  1  0.761667  0.498567  0.265902  1
  Rh  Rh11  1  0.525456  0.503385  0.525403  1
