# generated using pymatgen
data_Cs2CrFeSe4
_symmetry_space_group_name_H-M   'P 1'
_cell_length_a   7.61291460
_cell_length_b   7.61291483
_cell_length_c   5.60681970
_cell_angle_alpha   79.48359391
_cell_angle_beta   79.48360294
_cell_angle_gamma   117.57868399
_symmetry_Int_Tables_number   1
_chemical_formula_structural   Cs2CrFeSe4
_chemical_formula_sum   'Cs2 Cr1 Fe1 Se4'
_cell_volume   269.57114158
_cell_formula_units_Z   1
loop_
 _symmetry_equiv_pos_site_id
 _symmetry_equiv_pos_as_xyz
  1  'x, y, z'
loop_
 _atom_site_type_symbol
 _atom_site_label
 _atom_site_symmetry_multiplicity
 _atom_site_fract_x
 _atom_site_fract_y
 _atom_site_fract_z
 _atom_site_occupancy
  Cs  Cs0  1  0.145413  0.854587  0.000000  1
  Cs  Cs1  1  0.854385  0.145615  0.500000  1
  Cr  Cr2  1  0.501128  0.498872  0.000000  1
  Fe  Fe3  1  0.498875  0.501125  0.500000  1
  Se  Se4  1  0.217267  0.419742  0.851052  1
  Se  Se5  1  0.580258  0.782733  0.148948  1
  Se  Se6  1  0.782907  0.580232  0.665451  1
  Se  Se7  1  0.419768  0.217093  0.334549  1
