# generated using pymatgen
data_Er12Co2BiRu3
_symmetry_space_group_name_H-M   'P 1'
_cell_length_a   8.30589277
_cell_length_b   8.30589146
_cell_length_c   8.30589262
_cell_angle_alpha   109.94786408
_cell_angle_beta   112.73910076
_cell_angle_gamma   105.80114179
_symmetry_Int_Tables_number   1
_chemical_formula_structural   Er12Co2BiRu3
_chemical_formula_sum   'Er12 Co2 Bi1 Ru3'
_cell_volume   439.47411786
_cell_formula_units_Z   1
loop_
 _symmetry_equiv_pos_site_id
 _symmetry_equiv_pos_as_xyz
  1  'x, y, z'
loop_
 _atom_site_type_symbol
 _atom_site_label
 _atom_site_symmetry_multiplicity
 _atom_site_fract_x
 _atom_site_fract_y
 _atom_site_fract_z
 _atom_site_occupancy
  Er  Er0  1  0.276268  0.177969  0.454237  1
  Er  Er1  1  0.723732  0.822031  0.545763  1
  Er  Er2  1  0.276268  0.822031  0.098299  1
  Er  Er3  1  0.723732  0.177969  0.901701  1
  Er  Er4  1  0.636829  0.318695  0.318134  1
  Er  Er5  1  0.363171  0.681305  0.681866  1
  Er  Er6  1  0.000562  0.318695  0.681866  1
  Er  Er7  1  0.999438  0.681305  0.318134  1
  Er  Er8  1  0.226330  0.415430  0.189100  1
  Er  Er9  1  0.773670  0.584570  0.810900  1
  Er  Er10  1  0.226330  0.037230  0.810900  1
  Er  Er11  1  0.773670  0.962770  0.189100  1
  Co  Co12  1  0.389842  0.889842  0.500000  1
  Co  Co13  1  0.610158  0.110158  0.500000  1
  Bi  Bi14  1  0.500000  0.500000  0.000000  1
  Ru  Ru15  1  0.000000  0.338947  0.338947  1
  Ru  Ru16  1  0.000000  0.661053  0.661053  1
  Ru  Ru17  1  0.000000  0.000000  0.000000  1
