# generated using pymatgen
data_Pr2Co17Si8Ru
_symmetry_space_group_name_H-M   'P 1'
_cell_length_a   7.96973059
_cell_length_b   8.00893658
_cell_length_c   7.98450483
_cell_angle_alpha   121.86438615
_cell_angle_beta   121.70765015
_cell_angle_gamma   86.96998131
_symmetry_Int_Tables_number   1
_chemical_formula_structural   Pr2Co17Si8Ru
_chemical_formula_sum   'Pr2 Co17 Si8 Ru1'
_cell_volume   349.99165044
_cell_formula_units_Z   1
loop_
 _symmetry_equiv_pos_site_id
 _symmetry_equiv_pos_as_xyz
  1  'x, y, z'
loop_
 _atom_site_type_symbol
 _atom_site_label
 _atom_site_symmetry_multiplicity
 _atom_site_fract_x
 _atom_site_fract_y
 _atom_site_fract_z
 _atom_site_occupancy
  Pr  Pr0  1  0.749853  0.750681  0.000923  1
  Pr  Pr1  1  0.248930  0.249758  0.999077  1
  Co  Co2  1  0.448247  0.949968  0.758523  1
  Co  Co3  1  0.189724  0.691445  0.241477  1
  Co  Co4  1  0.548172  0.043235  0.236589  1
  Co  Co5  1  0.948434  0.191175  0.500000  1
  Co  Co6  1  0.198505  0.928923  0.129179  1
  Co  Co7  1  0.800219  0.069064  0.869904  1
  Co  Co8  1  0.430315  0.699160  0.130096  1
  Co  Co9  1  0.569325  0.299744  0.870821  1
  Co  Co10  1  0.701297  0.573118  0.264381  1
  Co  Co11  1  0.300273  0.430196  0.731828  1
  Co  Co12  1  0.936916  0.808736  0.735619  1
  Co  Co13  1  0.311146  0.549635  0.500000  1
  Co  Co14  1  0.811584  0.306647  0.763411  1
  Co  Co15  1  0.002466  0.502178  0.500000  1
  Co  Co16  1  0.500258  0.000548  0.500000  1
  Co  Co17  1  0.068446  0.198369  0.268172  1
  Co  Co18  1  0.051596  0.810510  0.500000  1
  Si  Si19  1  0.290488  0.789217  0.834992  1
  Si  Si20  1  0.051557  0.545681  0.840309  1
  Si  Si21  1  0.541793  0.716174  0.500000  1
  Si  Si22  1  0.790560  0.954160  0.500000  1
  Si  Si23  1  0.445941  0.285229  0.500000  1
  Si  Si24  1  0.955497  0.454225  0.165008  1
  Si  Si25  1  0.711248  0.205372  0.159691  1
  Si  Si26  1  0.209734  0.046655  0.500000  1
  Ru  Ru27  1  0.687478  0.450197  0.500000  1
