# generated using pymatgen
data_LaYU2(Al3Ir)6
_symmetry_space_group_name_H-M   'P 1'
_cell_length_a   7.60493602
_cell_length_b   7.62950639
_cell_length_c   9.48159200
_cell_angle_alpha   90.00000000
_cell_angle_beta   90.00000000
_cell_angle_gamma   119.49859115
_symmetry_Int_Tables_number   1
_chemical_formula_structural   LaYU2(Al3Ir)6
_chemical_formula_sum   'La1 Y1 U2 Al18 Ir6'
_cell_volume   478.82419408
_cell_formula_units_Z   1
loop_
 _symmetry_equiv_pos_site_id
 _symmetry_equiv_pos_as_xyz
  1  'x, y, z'
loop_
 _atom_site_type_symbol
 _atom_site_label
 _atom_site_symmetry_multiplicity
 _atom_site_fract_x
 _atom_site_fract_y
 _atom_site_fract_z
 _atom_site_occupancy
  La  La0  1  0.996404  0.671183  0.750000  1
  Y  Y1  1  0.003786  0.327395  0.250000  1
  U  U2  1  0.669999  0.995453  0.750000  1
  U  U3  1  0.328919  0.004007  0.250000  1
  Al  Al4  1  0.129260  0.132883  0.750000  1
  Al  Al5  1  0.870724  0.871783  0.250000  1
  Al  Al6  1  0.002652  0.334314  0.572611  1
  Al  Al7  1  0.997337  0.662438  0.420443  1
  Al  Al8  1  0.997337  0.662438  0.079557  1
  Al  Al9  1  0.337035  0.003798  0.928342  1
  Al  Al10  1  0.002652  0.334314  0.927389  1
  Al  Al11  1  0.665502  0.999472  0.074612  1
  Al  Al12  1  0.665502  0.999472  0.425388  1
  Al  Al13  1  0.337035  0.003798  0.571658  1
  Al  Al14  1  0.333527  0.334648  0.055044  1
  Al  Al15  1  0.664726  0.665740  0.950597  1
  Al  Al16  1  0.664726  0.665740  0.549403  1
  Al  Al17  1  0.333527  0.334648  0.444956  1
  Al  Al18  1  0.345629  0.548284  0.750000  1
  Al  Al19  1  0.657317  0.450441  0.250000  1
  Al  Al20  1  0.544677  0.335250  0.750000  1
  Al  Al21  1  0.450288  0.660963  0.250000  1
  Ir  Ir22  1  0.671038  0.327131  0.499048  1
  Ir  Ir23  1  0.328810  0.672467  0.498848  1
  Ir  Ir24  1  0.328810  0.672467  0.001152  1
  Ir  Ir25  1  0.671038  0.327131  0.000952  1
  Ir  Ir26  1  0.000874  0.001170  0.498462  1
  Ir  Ir27  1  0.000874  0.001170  0.001538  1
