# generated using pymatgen
data_Gd2Zn2AsPO2
_symmetry_space_group_name_H-M   'P 1'
_cell_length_a   3.98541964
_cell_length_b   3.98542025
_cell_length_c   10.57454215
_cell_angle_alpha   100.86199843
_cell_angle_beta   100.86200009
_cell_angle_gamma   59.99999828
_symmetry_Int_Tables_number   1
_chemical_formula_structural   Gd2Zn2AsPO2
_chemical_formula_sum   'Gd2 Zn2 As1 P1 O2'
_cell_volume   141.97355620
_cell_formula_units_Z   1
loop_
 _symmetry_equiv_pos_site_id
 _symmetry_equiv_pos_as_xyz
  1  'x, y, z'
loop_
 _atom_site_type_symbol
 _atom_site_label
 _atom_site_symmetry_multiplicity
 _atom_site_fract_x
 _atom_site_fract_y
 _atom_site_fract_z
 _atom_site_occupancy
  Gd  Gd0  1  0.378715  0.378715  0.136143  1
  Gd  Gd1  1  0.619910  0.619910  0.859730  1
  Zn  Zn2  1  0.806060  0.806060  0.418182  1
  Zn  Zn3  1  0.197662  0.197662  0.592985  1
  As  As4  1  0.111152  0.111152  0.333456  1
  P  P5  1  0.888230  0.888230  0.664694  1
  O  O6  1  0.693517  0.693517  0.080553  1
  O  O7  1  0.304752  0.304752  0.914257  1
