# generated using pymatgen
data_Y4Cd2CuPd3
_symmetry_space_group_name_H-M   'P 1'
_cell_length_a   7.69077409
_cell_length_b   7.69077409
_cell_length_c   3.75815900
_cell_angle_alpha   90.00000000
_cell_angle_beta   90.00000000
_cell_angle_gamma   89.57420534
_symmetry_Int_Tables_number   1
_chemical_formula_structural   Y4Cd2CuPd3
_chemical_formula_sum   'Y4 Cd2 Cu1 Pd3'
_cell_volume   222.28147346
_cell_formula_units_Z   1
loop_
 _symmetry_equiv_pos_site_id
 _symmetry_equiv_pos_as_xyz
  1  'x, y, z'
loop_
 _atom_site_type_symbol
 _atom_site_label
 _atom_site_symmetry_multiplicity
 _atom_site_fract_x
 _atom_site_fract_y
 _atom_site_fract_z
 _atom_site_occupancy
  Y  Y0  1  0.675983  0.173559  0.500000  1
  Y  Y1  1  0.326441  0.824017  0.500000  1
  Y  Y2  1  0.173181  0.326819  0.500000  1
  Y  Y3  1  0.824548  0.675452  0.500000  1
  Cd  Cd4  1  0.003158  0.001056  0.000000  1
  Cd  Cd5  1  0.498944  0.496842  0.000000  1
  Cu  Cu6  1  0.377159  0.122841  0.000000  1
  Pd  Pd7  1  0.127689  0.627914  0.000000  1
  Pd  Pd8  1  0.872086  0.372311  0.000000  1
  Pd  Pd9  1  0.620812  0.879188  0.000000  1
