# generated using pymatgen
data_Pr7Tc4C9
_symmetry_space_group_name_H-M   'P 1'
_cell_length_a   6.56153208
_cell_length_b   6.56153330
_cell_length_c   12.06204282
_cell_angle_alpha   71.50251389
_cell_angle_beta   71.50250994
_cell_angle_gamma   47.89192831
_symmetry_Int_Tables_number   1
_chemical_formula_structural   Pr7Tc4C9
_chemical_formula_sum   'Pr7 Tc4 C9'
_cell_volume   361.31165850
_cell_formula_units_Z   1
loop_
 _symmetry_equiv_pos_site_id
 _symmetry_equiv_pos_as_xyz
  1  'x, y, z'
loop_
 _atom_site_type_symbol
 _atom_site_label
 _atom_site_symmetry_multiplicity
 _atom_site_fract_x
 _atom_site_fract_y
 _atom_site_fract_z
 _atom_site_occupancy
  Pr  Pr0  1  0.374999  0.374999  0.840879  1
  Pr  Pr1  1  0.143629  0.143629  0.685829  1
  Pr  Pr2  1  0.856371  0.856371  0.314171  1
  Pr  Pr3  1  0.138366  0.138366  0.379625  1
  Pr  Pr4  1  0.861634  0.861634  0.620375  1
  Pr  Pr5  1  0.000000  0.000000  0.000000  1
  Pr  Pr6  1  0.625001  0.625001  0.159121  1
  Tc  Tc7  1  0.356179  0.356179  0.139125  1
  Tc  Tc8  1  0.568453  0.568453  0.569127  1
  Tc  Tc9  1  0.431547  0.431547  0.430873  1
  Tc  Tc10  1  0.643821  0.643821  0.860875  1
  C  C11  1  0.380519  0.380519  0.290166  1
  C  C12  1  0.925803  0.925803  0.817138  1
  C  C13  1  0.393999  0.393999  0.611783  1
  C  C14  1  0.191791  0.191791  0.142063  1
  C  C15  1  0.808209  0.808209  0.857937  1
  C  C16  1  0.500000  0.500000  0.000000  1
  C  C17  1  0.074197  0.074197  0.182862  1
  C  C18  1  0.619481  0.619481  0.709834  1
  C  C19  1  0.606001  0.606001  0.388217  1
