# generated using pymatgen
data_Sc4Al5Tc2Mo
_symmetry_space_group_name_H-M   'P 1'
_cell_length_a   5.37978229
_cell_length_b   5.38045102
_cell_length_c   8.55940100
_cell_angle_alpha   90.00000000
_cell_angle_beta   90.00000000
_cell_angle_gamma   120.00410592
_symmetry_Int_Tables_number   1
_chemical_formula_structural   Sc4Al5Tc2Mo
_chemical_formula_sum   'Sc4 Al5 Tc2 Mo1'
_cell_volume   214.55538472
_cell_formula_units_Z   1
loop_
 _symmetry_equiv_pos_site_id
 _symmetry_equiv_pos_as_xyz
  1  'x, y, z'
loop_
 _atom_site_type_symbol
 _atom_site_label
 _atom_site_symmetry_multiplicity
 _atom_site_fract_x
 _atom_site_fract_y
 _atom_site_fract_z
 _atom_site_occupancy
  Sc  Sc0  1  0.333869  0.666936  0.444896  1
  Sc  Sc1  1  0.663409  0.331704  0.554534  1
  Sc  Sc2  1  0.663409  0.331704  0.945466  1
  Sc  Sc3  1  0.333869  0.666936  0.055104  1
  Al  Al4  1  0.831958  0.165409  0.250000  1
  Al  Al5  1  0.831958  0.666550  0.250000  1
  Al  Al6  1  0.326359  0.163179  0.250000  1
  Al  Al7  1  0.190159  0.845900  0.750000  1
  Al  Al8  1  0.190159  0.344257  0.750000  1
  Tc  Tc9  1  0.977166  0.988582  0.506842  1
  Tc  Tc10  1  0.977166  0.988582  0.993158  1
  Mo  Mo11  1  0.680520  0.840259  0.750000  1
