# generated using pymatgen
data_Ho11LuTl20
_symmetry_space_group_name_H-M   'P 1'
_cell_length_a   6.63090566
_cell_length_b   10.49939000
_cell_length_c   12.41137601
_cell_angle_alpha   90.00000000
_cell_angle_beta   89.88340223
_cell_angle_gamma   90.00000000
_symmetry_Int_Tables_number   1
_chemical_formula_structural   Ho11LuTl20
_chemical_formula_sum   'Ho11 Lu1 Tl20'
_cell_volume   864.08397486
_cell_formula_units_Z   1
loop_
 _symmetry_equiv_pos_site_id
 _symmetry_equiv_pos_as_xyz
  1  'x, y, z'
loop_
 _atom_site_type_symbol
 _atom_site_label
 _atom_site_symmetry_multiplicity
 _atom_site_fract_x
 _atom_site_fract_y
 _atom_site_fract_z
 _atom_site_occupancy
  Ho  Ho0  1  0.858339  0.750000  0.048224  1
  Ho  Ho1  1  0.642072  0.750000  0.547707  1
  Ho  Ho2  1  0.140687  0.250000  0.951649  1
  Ho  Ho3  1  0.887284  0.508129  0.359477  1
  Ho  Ho4  1  0.612393  0.993098  0.859275  1
  Ho  Ho5  1  0.114262  0.007959  0.639687  1
  Ho  Ho6  1  0.386779  0.492945  0.140081  1
  Ho  Ho7  1  0.114262  0.492041  0.639687  1
  Ho  Ho8  1  0.386779  0.007055  0.140081  1
  Ho  Ho9  1  0.887284  0.991871  0.359477  1
  Ho  Ho10  1  0.612393  0.506902  0.859275  1
  Lu  Lu11  1  0.357885  0.250000  0.453933  1
  Tl  Tl12  1  0.868322  0.038921  0.103460  1
  Tl  Tl13  1  0.632847  0.461506  0.602865  1
  Tl  Tl14  1  0.130807  0.538501  0.896498  1
  Tl  Tl15  1  0.368922  0.963711  0.396644  1
  Tl  Tl16  1  0.130807  0.961499  0.896498  1
  Tl  Tl17  1  0.368922  0.536289  0.396644  1
  Tl  Tl18  1  0.868322  0.461079  0.103460  1
  Tl  Tl19  1  0.632847  0.038494  0.602865  1
  Tl  Tl20  1  0.148106  0.750000  0.240354  1
  Tl  Tl21  1  0.352254  0.750000  0.739980  1
  Tl  Tl22  1  0.851615  0.250000  0.759413  1
  Tl  Tl23  1  0.644368  0.250000  0.261443  1
  Tl  Tl24  1  0.399572  0.750000  0.007556  1
  Tl  Tl25  1  0.101593  0.750000  0.508135  1
  Tl  Tl26  1  0.598980  0.250000  0.993023  1
  Tl  Tl27  1  0.902658  0.250000  0.490950  1
  Tl  Tl28  1  0.632318  0.750000  0.278474  1
  Tl  Tl29  1  0.865830  0.750000  0.778208  1
  Tl  Tl30  1  0.366973  0.250000  0.721329  1
  Tl  Tl31  1  0.133515  0.250000  0.223648  1
