# generated using pymatgen
data_Sm4Lu4B24MoRu3
_symmetry_space_group_name_H-M   'P 1'
_cell_length_a   3.65866500
_cell_length_b   9.14926980
_cell_length_c   11.57669758
_cell_angle_alpha   89.86042903
_cell_angle_beta   90.00000000
_cell_angle_gamma   90.00000000
_symmetry_Int_Tables_number   1
_chemical_formula_structural   Sm4Lu4B24MoRu3
_chemical_formula_sum   'Sm4 Lu4 B24 Mo1 Ru3'
_cell_volume   387.51853509
_cell_formula_units_Z   1
loop_
 _symmetry_equiv_pos_site_id
 _symmetry_equiv_pos_as_xyz
  1  'x, y, z'
loop_
 _atom_site_type_symbol
 _atom_site_label
 _atom_site_symmetry_multiplicity
 _atom_site_fract_x
 _atom_site_fract_y
 _atom_site_fract_z
 _atom_site_occupancy
  Sm  Sm0  1  0.000000  0.321945  0.413805  1
  Sm  Sm1  1  0.000000  0.677432  0.584511  1
  Sm  Sm2  1  0.000000  0.821216  0.086338  1
  Sm  Sm3  1  0.000000  0.177080  0.915177  1
  Lu  Lu4  1  0.000000  0.945568  0.372121  1
  Lu  Lu5  1  0.000000  0.057381  0.629225  1
  Lu  Lu6  1  0.000000  0.443591  0.127453  1
  Lu  Lu7  1  0.000000  0.556460  0.870347  1
  B  B8  1  0.500000  0.552590  0.433853  1
  B  B9  1  0.500000  0.444425  0.569641  1
  B  B10  1  0.500000  0.055694  0.069098  1
  B  B11  1  0.500000  0.944328  0.931059  1
  B  B12  1  0.500000  0.753367  0.419350  1
  B  B13  1  0.500000  0.249868  0.583241  1
  B  B14  1  0.500000  0.250535  0.082636  1
  B  B15  1  0.500000  0.749241  0.916879  1
  B  B16  1  0.500000  0.795220  0.264848  1
  B  B17  1  0.500000  0.208153  0.734462  1
  B  B18  1  0.500000  0.291292  0.233264  1
  B  B19  1  0.500000  0.708702  0.765673  1
  B  B20  1  0.500000  0.630297  0.182677  1
  B  B21  1  0.500000  0.369287  0.815478  1
  B  B22  1  0.500000  0.130073  0.314515  1
  B  B23  1  0.500000  0.870463  0.685032  1
  B  B24  1  0.500000  0.984710  0.213845  1
  B  B25  1  0.500000  0.015857  0.786746  1
  B  B26  1  0.500000  0.479584  0.285177  1
  B  B27  1  0.500000  0.515103  0.714065  1
  B  B28  1  0.500000  0.600384  0.025687  1
  B  B29  1  0.500000  0.399272  0.971811  1
  B  B30  1  0.500000  0.101117  0.473244  1
  B  B31  1  0.500000  0.901423  0.528402  1
  Mo  Mo32  1  0.000000  0.639081  0.319621  1
  Ru  Ru33  1  0.000000  0.359131  0.682283  1
  Ru  Ru34  1  0.000000  0.139609  0.179748  1
  Ru  Ru35  1  0.000000  0.860521  0.818687  1
