# generated using pymatgen
data_Nd2Tm2LuSn4
_symmetry_space_group_name_H-M   'P 1'
_cell_length_a   8.02346600
_cell_length_b   8.17283600
_cell_length_c   15.44223000
_cell_angle_alpha   90.00000000
_cell_angle_beta   90.00000000
_cell_angle_gamma   90.00000000
_symmetry_Int_Tables_number   1
_chemical_formula_structural   Nd2Tm2LuSn4
_chemical_formula_sum   'Nd8 Tm8 Lu4 Sn16'
_cell_volume   1012.61607519
_cell_formula_units_Z   4
loop_
 _symmetry_equiv_pos_site_id
 _symmetry_equiv_pos_as_xyz
  1  'x, y, z'
loop_
 _atom_site_type_symbol
 _atom_site_label
 _atom_site_symmetry_multiplicity
 _atom_site_fract_x
 _atom_site_fract_y
 _atom_site_fract_z
 _atom_site_occupancy
  Nd  Nd0  1  0.518272  0.321544  0.903134  1
  Nd  Nd1  1  0.018272  0.178456  0.596866  1
  Nd  Nd2  1  0.481728  0.678456  0.403134  1
  Nd  Nd3  1  0.981728  0.821544  0.096866  1
  Nd  Nd4  1  0.481728  0.678456  0.096866  1
  Nd  Nd5  1  0.981728  0.821544  0.403134  1
  Nd  Nd6  1  0.518272  0.321544  0.596866  1
  Nd  Nd7  1  0.018272  0.178456  0.903134  1
  Tm  Tm8  1  0.363333  0.836553  0.876752  1
  Tm  Tm9  1  0.863333  0.663447  0.623248  1
  Tm  Tm10  1  0.636667  0.163447  0.376752  1
  Tm  Tm11  1  0.136667  0.336553  0.123248  1
  Tm  Tm12  1  0.636667  0.163447  0.123248  1
  Tm  Tm13  1  0.136667  0.336553  0.376752  1
  Tm  Tm14  1  0.363333  0.836553  0.623248  1
  Tm  Tm15  1  0.863333  0.663447  0.876752  1
  Lu  Lu16  1  0.195542  0.504726  0.750000  1
  Lu  Lu17  1  0.695542  0.995274  0.750000  1
  Lu  Lu18  1  0.804458  0.495274  0.250000  1
  Lu  Lu19  1  0.304458  0.004726  0.250000  1
  Sn  Sn20  1  0.301051  0.040324  0.042288  1
  Sn  Sn21  1  0.801051  0.459676  0.457712  1
  Sn  Sn22  1  0.698949  0.959676  0.542288  1
  Sn  Sn23  1  0.198949  0.540324  0.957712  1
  Sn  Sn24  1  0.698949  0.959676  0.957712  1
  Sn  Sn25  1  0.198949  0.540324  0.542288  1
  Sn  Sn26  1  0.301051  0.040324  0.457712  1
  Sn  Sn27  1  0.801051  0.459676  0.042288  1
  Sn  Sn28  1  0.561568  0.623532  0.750000  1
  Sn  Sn29  1  0.061568  0.876468  0.750000  1
  Sn  Sn30  1  0.438432  0.376468  0.250000  1
  Sn  Sn31  1  0.938432  0.123532  0.250000  1
  Sn  Sn32  1  0.326782  0.144596  0.750000  1
  Sn  Sn33  1  0.826782  0.355404  0.750000  1
  Sn  Sn34  1  0.673218  0.855404  0.250000  1
  Sn  Sn35  1  0.173218  0.644596  0.250000  1
