# generated using pymatgen
data_Sr(InPd2)2
_symmetry_space_group_name_H-M   'P 1'
_cell_length_a   7.25028974
_cell_length_b   7.25028929
_cell_length_c   7.25028971
_cell_angle_alpha   110.57540309
_cell_angle_beta   110.57539737
_cell_angle_gamma   107.28473898
_symmetry_Int_Tables_number   1
_chemical_formula_structural   Sr(InPd2)2
_chemical_formula_sum   'Sr2 In4 Pd8'
_cell_volume   293.07030952
_cell_formula_units_Z   2
loop_
 _symmetry_equiv_pos_site_id
 _symmetry_equiv_pos_as_xyz
  1  'x, y, z'
loop_
 _atom_site_type_symbol
 _atom_site_label
 _atom_site_symmetry_multiplicity
 _atom_site_fract_x
 _atom_site_fract_y
 _atom_site_fract_z
 _atom_site_occupancy
  Sr  Sr0  1  0.250000  0.250000  0.000000  1
  Sr  Sr1  1  0.750000  0.750000  0.000000  1
  In  In2  1  0.848685  0.651315  0.500000  1
  In  In3  1  0.651315  0.151315  0.802632  1
  In  In4  1  0.348685  0.848685  0.197368  1
  In  In5  1  0.151315  0.348685  0.500000  1
  Pd  Pd6  1  0.188122  0.981082  0.500000  1
  Pd  Pd7  1  0.688122  0.188122  0.207041  1
  Pd  Pd8  1  0.981082  0.481082  0.792959  1
  Pd  Pd9  1  0.481082  0.688122  0.500000  1
  Pd  Pd10  1  0.518918  0.311878  0.500000  1
  Pd  Pd11  1  0.311878  0.811878  0.792959  1
  Pd  Pd12  1  0.811878  0.018918  0.500000  1
  Pd  Pd13  1  0.018918  0.518918  0.207041  1
