# generated using pymatgen
data_NdBRu2C
_symmetry_space_group_name_H-M   'P 1'
_cell_length_a   6.74365101
_cell_length_b   5.92812087
_cell_length_c   5.56123260
_cell_angle_alpha   71.80074249
_cell_angle_beta   56.62547809
_cell_angle_gamma   51.57377643
_symmetry_Int_Tables_number   1
_chemical_formula_structural   NdBRu2C
_chemical_formula_sum   'Nd2 B2 Ru4 C2'
_cell_volume   145.29886636
_cell_formula_units_Z   2
loop_
 _symmetry_equiv_pos_site_id
 _symmetry_equiv_pos_as_xyz
  1  'x, y, z'
loop_
 _atom_site_type_symbol
 _atom_site_label
 _atom_site_symmetry_multiplicity
 _atom_site_fract_x
 _atom_site_fract_y
 _atom_site_fract_z
 _atom_site_occupancy
  Nd  Nd0  1  0.000000  0.000000  0.000000  1
  Nd  Nd1  1  0.250000  0.250000  0.250000  1
  B  B2  1  0.568564  0.931436  0.568564  1
  B  B3  1  0.931436  0.568564  0.931436  1
  Ru  Ru4  1  0.631728  0.631728  0.368272  1
  Ru  Ru5  1  0.368272  0.368272  0.631728  1
  Ru  Ru6  1  0.608732  0.608732  0.891268  1
  Ru  Ru7  1  0.891268  0.891268  0.608732  1
  C  C8  1  0.318678  0.681322  0.318678  1
  C  C9  1  0.681322  0.318678  0.681322  1
