# generated using pymatgen
data_Dy4Tm8Tc3Ru
_symmetry_space_group_name_H-M   'P 1'
_cell_length_a   6.23580010
_cell_length_b   7.35286007
_cell_length_c   9.01208800
_cell_angle_alpha   90.00000000
_cell_angle_beta   90.00000000
_cell_angle_gamma   90.00231273
_symmetry_Int_Tables_number   1
_chemical_formula_structural   Dy4Tm8Tc3Ru
_chemical_formula_sum   'Dy4 Tm8 Tc3 Ru1'
_cell_volume   413.21293572
_cell_formula_units_Z   1
loop_
 _symmetry_equiv_pos_site_id
 _symmetry_equiv_pos_as_xyz
  1  'x, y, z'
loop_
 _atom_site_type_symbol
 _atom_site_label
 _atom_site_symmetry_multiplicity
 _atom_site_fract_x
 _atom_site_fract_y
 _atom_site_fract_z
 _atom_site_occupancy
  Dy  Dy0  1  0.629296  0.041482  0.250000  1
  Dy  Dy1  1  0.375294  0.959599  0.750000  1
  Dy  Dy2  1  0.124600  0.460693  0.750000  1
  Dy  Dy3  1  0.875468  0.541772  0.250000  1
  Tm  Tm4  1  0.161129  0.175210  0.062690  1
  Tm  Tm5  1  0.836489  0.823677  0.937103  1
  Tm  Tm6  1  0.660655  0.324426  0.937746  1
  Tm  Tm7  1  0.836489  0.823677  0.562897  1
  Tm  Tm8  1  0.338053  0.675917  0.062265  1
  Tm  Tm9  1  0.161129  0.175210  0.437310  1
  Tm  Tm10  1  0.338053  0.675917  0.437735  1
  Tm  Tm11  1  0.660655  0.324426  0.562254  1
  Tc  Tc12  1  0.460310  0.384768  0.250000  1
  Tc  Tc13  1  0.541255  0.615489  0.750000  1
  Tc  Tc14  1  0.960814  0.113547  0.750000  1
  Ru  Ru15  1  0.040311  0.884191  0.250000  1
