# generated using pymatgen
data_Lu3NiSn3PtRh
_symmetry_space_group_name_H-M   'P 1'
_cell_length_a   7.52605500
_cell_length_b   7.52605541
_cell_length_c   3.68793100
_cell_angle_alpha   90.00000000
_cell_angle_beta   90.00000000
_cell_angle_gamma   120.00000261
_symmetry_Int_Tables_number   1
_chemical_formula_structural   Lu3NiSn3PtRh
_chemical_formula_sum   'Lu3 Ni1 Sn3 Pt1 Rh1'
_cell_volume   180.90401520
_cell_formula_units_Z   1
loop_
 _symmetry_equiv_pos_site_id
 _symmetry_equiv_pos_as_xyz
  1  'x, y, z'
loop_
 _atom_site_type_symbol
 _atom_site_label
 _atom_site_symmetry_multiplicity
 _atom_site_fract_x
 _atom_site_fract_y
 _atom_site_fract_z
 _atom_site_occupancy
  Lu  Lu0  1  0.400750  0.404196  0.500000  1
  Lu  Lu1  1  0.595804  0.996555  0.500000  1
  Lu  Lu2  1  0.003445  0.599250  0.500000  1
  Ni  Ni3  1  0.000000  0.000000  0.500000  1
  Sn  Sn4  1  0.743432  0.746088  0.000000  1
  Sn  Sn5  1  0.253912  0.997344  0.000000  1
  Sn  Sn6  1  0.002656  0.256568  0.000000  1
  Pt  Pt7  1  0.666667  0.333333  0.000000  1
  Rh  Rh8  1  0.333333  0.666667  0.000000  1
