# generated using pymatgen
data_TbPr15(HgRh)4
_symmetry_space_group_name_H-M   'P 1'
_cell_length_a   9.98172270
_cell_length_b   9.98172187
_cell_length_c   9.95906900
_cell_angle_alpha   60.07504728
_cell_angle_beta   60.07505000
_cell_angle_gamma   60.13289417
_symmetry_Int_Tables_number   1
_chemical_formula_structural   TbPr15(HgRh)4
_chemical_formula_sum   'Tb1 Pr15 Hg4 Rh4'
_cell_volume   703.13982890
_cell_formula_units_Z   1
loop_
 _symmetry_equiv_pos_site_id
 _symmetry_equiv_pos_as_xyz
  1  'x, y, z'
loop_
 _atom_site_type_symbol
 _atom_site_label
 _atom_site_symmetry_multiplicity
 _atom_site_fract_x
 _atom_site_fract_y
 _atom_site_fract_z
 _atom_site_occupancy
  Tb  Tb0  1  0.059980  0.059980  0.440020  1
  Pr  Pr1  1  0.302132  0.899168  0.899351  1
  Pr  Pr2  1  0.689614  0.310564  0.686743  1
  Pr  Pr3  1  0.310564  0.689614  0.313079  1
  Pr  Pr4  1  0.059696  0.438830  0.440374  1
  Pr  Pr5  1  0.689614  0.310564  0.313079  1
  Pr  Pr6  1  0.438830  0.059696  0.440374  1
  Pr  Pr7  1  0.438830  0.059696  0.061099  1
  Pr  Pr8  1  0.900351  0.900351  0.897334  1
  Pr  Pr9  1  0.059696  0.438830  0.061099  1
  Pr  Pr10  1  0.899168  0.302132  0.899351  1
  Pr  Pr11  1  0.310564  0.689614  0.686743  1
  Pr  Pr12  1  0.900351  0.900351  0.301965  1
  Pr  Pr13  1  0.440862  0.440862  0.059138  1
  Pr  Pr14  1  0.311960  0.311960  0.688040  1
  Pr  Pr15  1  0.688324  0.688324  0.311676  1
  Hg  Hg16  1  0.002505  0.666976  0.665259  1
  Hg  Hg17  1  0.666976  0.002505  0.665259  1
  Hg  Hg18  1  0.665799  0.665799  0.001778  1
  Hg  Hg19  1  0.665799  0.665799  0.666624  1
  Rh  Rh20  1  0.106836  0.106836  0.674337  1
  Rh  Rh21  1  0.107461  0.677249  0.107644  1
  Rh  Rh22  1  0.106836  0.106836  0.111989  1
  Rh  Rh23  1  0.677249  0.107461  0.107644  1
