# generated using pymatgen
data_Pr4Dy3Er9(CdIr)4
_symmetry_space_group_name_H-M   'P 1'
_cell_length_a   9.68989442
_cell_length_b   9.68373097
_cell_length_c   9.68655655
_cell_angle_alpha   60.03506009
_cell_angle_beta   59.96358403
_cell_angle_gamma   60.06355609
_symmetry_Int_Tables_number   1
_chemical_formula_structural   Pr4Dy3Er9(CdIr)4
_chemical_formula_sum   'Pr4 Dy3 Er9 Cd4 Ir4'
_cell_volume   643.01270969
_cell_formula_units_Z   1
loop_
 _symmetry_equiv_pos_site_id
 _symmetry_equiv_pos_as_xyz
  1  'x, y, z'
loop_
 _atom_site_type_symbol
 _atom_site_label
 _atom_site_symmetry_multiplicity
 _atom_site_fract_x
 _atom_site_fract_y
 _atom_site_fract_z
 _atom_site_occupancy
  Pr  Pr0  1  0.561569  0.938584  0.562203  1
  Pr  Pr1  1  0.938600  0.561569  0.937644  1
  Pr  Pr2  1  0.562009  0.562030  0.937976  1
  Pr  Pr3  1  0.938162  0.938148  0.561850  1
  Dy  Dy4  1  0.811497  0.811493  0.188507  1
  Dy  Dy5  1  0.947171  0.551473  0.554002  1
  Dy  Dy6  1  0.551497  0.947152  0.947340  1
  Er  Er7  1  0.349868  0.346817  0.345061  1
  Er  Er8  1  0.346760  0.349945  0.958247  1
  Er  Er9  1  0.346918  0.956804  0.350329  1
  Er  Er10  1  0.956814  0.346944  0.345955  1
  Er  Er11  1  0.813100  0.185865  0.186794  1
  Er  Er12  1  0.185873  0.813090  0.814244  1
  Er  Er13  1  0.188224  0.810832  0.189374  1
  Er  Er14  1  0.810899  0.188217  0.811514  1
  Er  Er15  1  0.188567  0.188597  0.811383  1
  Cd  Cd16  1  0.582184  0.577987  0.578310  1
  Cd  Cd17  1  0.577986  0.582188  0.261516  1
  Cd  Cd18  1  0.578249  0.261074  0.582346  1
  Cd  Cd19  1  0.261083  0.578260  0.578326  1
  Ir  Ir20  1  0.147005  0.139122  0.137958  1
  Ir  Ir21  1  0.139103  0.147014  0.575931  1
  Ir  Ir22  1  0.141399  0.575414  0.144784  1
  Ir  Ir23  1  0.575461  0.141378  0.138406  1
