# generated using pymatgen
data_GdTcH5
_symmetry_space_group_name_H-M   'P 1'
_cell_length_a   4.64723300
_cell_length_b   4.44961100
_cell_length_c   11.72470700
_cell_angle_alpha   90.00000000
_cell_angle_beta   90.00000000
_cell_angle_gamma   90.00000000
_symmetry_Int_Tables_number   1
_chemical_formula_structural   GdTcH5
_chemical_formula_sum   'Gd4 Tc4 H20'
_cell_volume   242.44793591
_cell_formula_units_Z   4
loop_
 _symmetry_equiv_pos_site_id
 _symmetry_equiv_pos_as_xyz
  1  'x, y, z'
loop_
 _atom_site_type_symbol
 _atom_site_label
 _atom_site_symmetry_multiplicity
 _atom_site_fract_x
 _atom_site_fract_y
 _atom_site_fract_z
 _atom_site_occupancy
  Gd  Gd0  1  0.249806  0.247312  0.645690  1
  Gd  Gd1  1  0.749806  0.252688  0.354310  1
  Gd  Gd2  1  0.250194  0.752688  0.145690  1
  Gd  Gd3  1  0.750194  0.747312  0.854310  1
  Tc  Tc4  1  0.249549  0.211527  0.915015  1
  Tc  Tc5  1  0.749549  0.288473  0.084985  1
  Tc  Tc6  1  0.250451  0.788473  0.415015  1
  Tc  Tc7  1  0.750451  0.711527  0.584985  1
  H  H8  1  0.483290  0.513880  0.497739  1
  H  H9  1  0.983290  0.986120  0.502261  1
  H  H10  1  0.016710  0.486120  0.997739  1
  H  H11  1  0.516710  0.013880  0.002261  1
  H  H12  1  0.250306  0.894755  0.834314  1
  H  H13  1  0.750306  0.605245  0.165686  1
  H  H14  1  0.249694  0.105245  0.334314  1
  H  H15  1  0.749694  0.394755  0.665686  1
  H  H16  1  0.984694  0.284393  0.816113  1
  H  H17  1  0.484694  0.215607  0.183887  1
  H  H18  1  0.515306  0.715607  0.316113  1
  H  H19  1  0.015306  0.784393  0.683887  1
  H  H20  1  0.513414  0.286458  0.815955  1
  H  H21  1  0.013414  0.213542  0.184045  1
  H  H22  1  0.986586  0.713542  0.315955  1
  H  H23  1  0.486586  0.786458  0.684045  1
  H  H24  1  0.982799  0.013689  0.002456  1
  H  H25  1  0.482799  0.486311  0.997544  1
  H  H26  1  0.517201  0.986311  0.502456  1
  H  H27  1  0.017201  0.513689  0.497544  1
