# generated using pymatgen
data_Tm4Pt11Au
_symmetry_space_group_name_H-M   'P 1'
_cell_length_a   4.13537900
_cell_length_b   5.79239680
_cell_length_c   11.60214537
_cell_angle_alpha   89.76450310
_cell_angle_beta   90.00000000
_cell_angle_gamma   90.00000000
_symmetry_Int_Tables_number   1
_chemical_formula_structural   Tm4Pt11Au
_chemical_formula_sum   'Tm4 Pt11 Au1'
_cell_volume   277.91261299
_cell_formula_units_Z   1
loop_
 _symmetry_equiv_pos_site_id
 _symmetry_equiv_pos_as_xyz
  1  'x, y, z'
loop_
 _atom_site_type_symbol
 _atom_site_label
 _atom_site_symmetry_multiplicity
 _atom_site_fract_x
 _atom_site_fract_y
 _atom_site_fract_z
 _atom_site_occupancy
  Tm  Tm0  1  0.500000  0.754010  0.375003  1
  Tm  Tm1  1  0.500000  0.737357  0.870974  1
  Tm  Tm2  1  0.500000  0.262643  0.129026  1
  Tm  Tm3  1  0.500000  0.245990  0.624997  1
  Pt  Pt4  1  0.000000  0.008005  0.251659  1
  Pt  Pt5  1  0.000000  0.991995  0.748341  1
  Pt  Pt6  1  0.000000  0.500000  0.000000  1
  Pt  Pt7  1  0.000000  0.500000  0.500000  1
  Pt  Pt8  1  0.000000  0.508889  0.250341  1
  Pt  Pt9  1  0.000000  0.491111  0.749659  1
  Pt  Pt10  1  0.500000  0.253946  0.376169  1
  Pt  Pt11  1  0.500000  0.243105  0.874539  1
  Pt  Pt12  1  0.500000  0.756895  0.125461  1
  Pt  Pt13  1  0.500000  0.746054  0.623831  1
  Pt  Pt14  1  0.000000  0.000000  0.500000  1
  Au  Au15  1  0.000000  0.000000  0.000000  1
