# generated using pymatgen
data_HoEr11InCo4Au
_symmetry_space_group_name_H-M   'P 1'
_cell_length_a   8.24882556
_cell_length_b   8.24882605
_cell_length_c   8.24702367
_cell_angle_alpha   111.11058275
_cell_angle_beta   110.66032661
_cell_angle_gamma   106.68798324
_symmetry_Int_Tables_number   1
_chemical_formula_structural   HoEr11InCo4Au
_chemical_formula_sum   'Ho1 Er11 In1 Co4 Au1'
_cell_volume   431.15698088
_cell_formula_units_Z   1
loop_
 _symmetry_equiv_pos_site_id
 _symmetry_equiv_pos_as_xyz
  1  'x, y, z'
loop_
 _atom_site_type_symbol
 _atom_site_label
 _atom_site_symmetry_multiplicity
 _atom_site_fract_x
 _atom_site_fract_y
 _atom_site_fract_z
 _atom_site_occupancy
  Ho  Ho0  1  0.186704  0.290481  0.477186  1
  Er  Er1  1  0.813434  0.709486  0.522919  1
  Er  Er2  1  0.186623  0.709605  0.896228  1
  Er  Er3  1  0.813223  0.290451  0.103674  1
  Er  Er4  1  0.315780  0.619652  0.303748  1
  Er  Er5  1  0.684466  0.380443  0.696232  1
  Er  Er6  1  0.315789  0.011766  0.696232  1
  Er  Er7  1  0.684094  0.987968  0.303748  1
  Er  Er8  1  0.427007  0.222483  0.204255  1
  Er  Er9  1  0.573385  0.777855  0.795812  1
  Er  Er10  1  0.017957  0.222427  0.795812  1
  Er  Er11  1  0.981772  0.777248  0.204255  1
  In  In12  1  0.500020  0.500014  0.000034  1
  Co  Co13  1  0.112601  0.612902  0.500069  1
  Co  Co14  1  0.887167  0.387468  0.500069  1
  Co  Co15  1  0.377420  0.999948  0.377368  1
  Co  Co16  1  0.622617  0.999950  0.622567  1
  Au  Au17  1  0.999941  0.999853  0.999794  1
