# generated using pymatgen
data_PrTmHgIrO7
_symmetry_space_group_name_H-M   'P 1'
_cell_length_a   6.44000566
_cell_length_b   6.69806515
_cell_length_c   7.63817200
_cell_angle_alpha   90.00000000
_cell_angle_beta   90.00000000
_cell_angle_gamma   112.71857240
_symmetry_Int_Tables_number   1
_chemical_formula_structural   PrTmHgIrO7
_chemical_formula_sum   'Pr2 Tm2 Hg2 Ir2 O14'
_cell_volume   303.91381442
_cell_formula_units_Z   2
loop_
 _symmetry_equiv_pos_site_id
 _symmetry_equiv_pos_as_xyz
  1  'x, y, z'
loop_
 _atom_site_type_symbol
 _atom_site_label
 _atom_site_symmetry_multiplicity
 _atom_site_fract_x
 _atom_site_fract_y
 _atom_site_fract_z
 _atom_site_occupancy
  Pr  Pr0  1  0.000000  0.000000  0.000000  1
  Pr  Pr1  1  0.000000  0.000000  0.500000  1
  Tm  Tm2  1  0.955305  0.489107  0.750000  1
  Tm  Tm3  1  0.044695  0.510893  0.250000  1
  Hg  Hg4  1  0.484021  0.980081  0.750000  1
  Hg  Hg5  1  0.515979  0.019919  0.250000  1
  Ir  Ir6  1  0.500000  0.500000  0.000000  1
  Ir  Ir7  1  0.500000  0.500000  0.500000  1
  O  O8  1  0.607190  0.515252  0.750000  1
  O  O9  1  0.392810  0.484748  0.250000  1
  O  O10  1  0.840078  0.126444  0.750000  1
  O  O11  1  0.159922  0.873556  0.250000  1
  O  O12  1  0.127155  0.851011  0.750000  1
  O  O13  1  0.872845  0.148989  0.250000  1
  O  O14  1  0.421475  0.200295  0.997943  1
  O  O15  1  0.578525  0.799705  0.497943  1
  O  O16  1  0.169836  0.434505  0.966281  1
  O  O17  1  0.830164  0.565495  0.466281  1
  O  O18  1  0.421475  0.200295  0.502057  1
  O  O19  1  0.578525  0.799705  0.002057  1
  O  O20  1  0.830164  0.565495  0.033719  1
  O  O21  1  0.169836  0.434505  0.533719  1
