# generated using pymatgen
data_Zr3Sc5P12IrRh15
_symmetry_space_group_name_H-M   'P 1'
_cell_length_a   12.80911700
_cell_length_b   12.80911612
_cell_length_c   3.86858300
_cell_angle_alpha   90.00000000
_cell_angle_beta   90.00000000
_cell_angle_gamma   119.99999968
_symmetry_Int_Tables_number   1
_chemical_formula_structural   Zr3Sc5P12IrRh15
_chemical_formula_sum   'Zr3 Sc5 P12 Ir1 Rh15'
_cell_volume   549.69388735
_cell_formula_units_Z   1
loop_
 _symmetry_equiv_pos_site_id
 _symmetry_equiv_pos_as_xyz
  1  'x, y, z'
loop_
 _atom_site_type_symbol
 _atom_site_label
 _atom_site_symmetry_multiplicity
 _atom_site_fract_x
 _atom_site_fract_y
 _atom_site_fract_z
 _atom_site_occupancy
  Zr  Zr0  1  0.447250  0.000000  0.000000  1
  Zr  Zr1  1  0.000000  0.447250  0.000000  1
  Zr  Zr2  1  0.552750  0.552750  0.000000  1
  Sc  Sc3  1  0.333333  0.666667  0.000000  1
  Sc  Sc4  1  0.666667  0.333333  0.000000  1
  Sc  Sc5  1  0.817042  0.000000  0.500000  1
  Sc  Sc6  1  0.000000  0.817042  0.500000  1
  Sc  Sc7  1  0.182958  0.182958  0.500000  1
  P  P8  1  0.173982  0.000000  0.000000  1
  P  P9  1  0.000000  0.173982  0.000000  1
  P  P10  1  0.826018  0.826018  0.000000  1
  P  P11  1  0.171606  0.484636  0.500000  1
  P  P12  1  0.515364  0.686969  0.500000  1
  P  P13  1  0.313031  0.828394  0.500000  1
  P  P14  1  0.686969  0.515364  0.500000  1
  P  P15  1  0.828394  0.313031  0.500000  1
  P  P16  1  0.484636  0.171606  0.500000  1
  P  P17  1  0.653088  0.000000  0.000000  1
  P  P18  1  0.000000  0.653088  0.000000  1
  P  P19  1  0.346912  0.346912  0.000000  1
  Ir  Ir20  1  0.000000  0.000000  0.000000  1
  Rh  Rh21  1  0.356042  0.489126  0.500000  1
  Rh  Rh22  1  0.510874  0.866916  0.500000  1
  Rh  Rh23  1  0.133084  0.643958  0.500000  1
  Rh  Rh24  1  0.866916  0.510874  0.500000  1
  Rh  Rh25  1  0.643958  0.133084  0.500000  1
  Rh  Rh26  1  0.489126  0.356042  0.500000  1
  Rh  Rh27  1  0.177714  0.370764  0.000000  1
  Rh  Rh28  1  0.629236  0.806951  0.000000  1
  Rh  Rh29  1  0.193049  0.822286  0.000000  1
  Rh  Rh30  1  0.806951  0.629236  0.000000  1
  Rh  Rh31  1  0.822286  0.193049  0.000000  1
  Rh  Rh32  1  0.370764  0.177714  0.000000  1
  Rh  Rh33  1  0.275926  0.000000  0.500000  1
  Rh  Rh34  1  0.000000  0.275926  0.500000  1
  Rh  Rh35  1  0.724074  0.724074  0.500000  1
