# generated using pymatgen
data_Li2SmY(WO4)4
_symmetry_space_group_name_H-M   'P 1'
_cell_length_a   10.11994128
_cell_length_b   6.06137600
_cell_length_c   5.08226550
_cell_angle_alpha   89.99997927
_cell_angle_beta   92.78346261
_cell_angle_gamma   90.00000623
_symmetry_Int_Tables_number   1
_chemical_formula_structural   Li2SmY(WO4)4
_chemical_formula_sum   'Li2 Sm1 Y1 W4 O16'
_cell_volume   311.38227066
_cell_formula_units_Z   1
loop_
 _symmetry_equiv_pos_site_id
 _symmetry_equiv_pos_as_xyz
  1  'x, y, z'
loop_
 _atom_site_type_symbol
 _atom_site_label
 _atom_site_symmetry_multiplicity
 _atom_site_fract_x
 _atom_site_fract_y
 _atom_site_fract_z
 _atom_site_occupancy
  Li  Li0  1  0.750000  0.751501  0.250000  1
  Li  Li1  1  0.250000  0.242841  0.750000  1
  Sm  Sm2  1  0.250000  0.673567  0.250001  1
  Y  Y3  1  0.750000  0.340274  0.750000  1
  W  W4  1  0.488590  0.168900  0.245739  1
  W  W5  1  0.011410  0.168900  0.254262  1
  W  W6  1  0.984683  0.831593  0.756475  1
  W  W7  1  0.515317  0.831592  0.743525  1
  O  O8  1  0.890476  0.909583  0.058234  1
  O  O9  1  0.405213  0.892696  0.051507  1
  O  O10  1  0.365439  0.355405  0.093346  1
  O  O11  1  0.889368  0.361368  0.109650  1
  O  O12  1  0.610632  0.361368  0.390350  1
  O  O13  1  0.134561  0.355405  0.406655  1
  O  O14  1  0.094787  0.892696  0.448494  1
  O  O15  1  0.609524  0.909583  0.441767  1
  O  O16  1  0.390362  0.083145  0.542061  1
  O  O17  1  0.902072  0.114430  0.567204  1
  O  O18  1  0.861950  0.647157  0.596341  1
  O  O19  1  0.394691  0.631632  0.611235  1
  O  O20  1  0.105309  0.631633  0.888766  1
  O  O21  1  0.638050  0.647157  0.903660  1
  O  O22  1  0.597928  0.114430  0.932797  1
  O  O23  1  0.109638  0.083146  0.957940  1
