# generated using pymatgen
data_Tb4Dy3YPt4
_symmetry_space_group_name_H-M   'P 1'
_cell_length_a   4.77631200
_cell_length_b   7.19543190
_cell_length_c   8.84473835
_cell_angle_alpha   89.92677198
_cell_angle_beta   90.00000000
_cell_angle_gamma   90.00000000
_symmetry_Int_Tables_number   1
_chemical_formula_structural   Tb4Dy3YPt4
_chemical_formula_sum   'Tb4 Dy3 Y1 Pt4'
_cell_volume   303.97242647
_cell_formula_units_Z   1
loop_
 _symmetry_equiv_pos_site_id
 _symmetry_equiv_pos_as_xyz
  1  'x, y, z'
loop_
 _atom_site_type_symbol
 _atom_site_label
 _atom_site_symmetry_multiplicity
 _atom_site_fract_x
 _atom_site_fract_y
 _atom_site_fract_z
 _atom_site_occupancy
  Tb  Tb0  1  0.750000  0.645071  0.419823  1
  Tb  Tb1  1  0.250000  0.990118  0.331685  1
  Tb  Tb2  1  0.250000  0.489800  0.167864  1
  Tb  Tb3  1  0.750000  0.010198  0.668803  1
  Dy  Dy4  1  0.250000  0.855541  0.920028  1
  Dy  Dy5  1  0.250000  0.355026  0.580271  1
  Dy  Dy6  1  0.750000  0.144616  0.080095  1
  Y  Y7  1  0.750000  0.510211  0.831352  1
  Pt  Pt8  1  0.250000  0.257475  0.906602  1
  Pt  Pt9  1  0.250000  0.757868  0.594161  1
  Pt  Pt10  1  0.750000  0.742886  0.092670  1
  Pt  Pt11  1  0.750000  0.241190  0.406648  1
