# generated using pymatgen
data_Tb5Hf(Be2Ir5)2
_symmetry_space_group_name_H-M   'P 1'
_cell_length_a   9.85928800
_cell_length_b   9.85928800
_cell_length_c   3.33794500
_cell_angle_alpha   90.00000000
_cell_angle_beta   90.00000000
_cell_angle_gamma   90.00000000
_symmetry_Int_Tables_number   1
_chemical_formula_structural   Tb5Hf(Be2Ir5)2
_chemical_formula_sum   'Tb5 Hf1 Be4 Ir10'
_cell_volume   324.46681253
_cell_formula_units_Z   1
loop_
 _symmetry_equiv_pos_site_id
 _symmetry_equiv_pos_as_xyz
  1  'x, y, z'
loop_
 _atom_site_type_symbol
 _atom_site_label
 _atom_site_symmetry_multiplicity
 _atom_site_fract_x
 _atom_site_fract_y
 _atom_site_fract_z
 _atom_site_occupancy
  Tb  Tb0  1  0.175663  0.676762  0.000000  1
  Tb  Tb1  1  0.323238  0.175663  0.000000  1
  Tb  Tb2  1  0.824337  0.323238  0.000000  1
  Tb  Tb3  1  0.500000  0.500000  0.000000  1
  Tb  Tb4  1  0.676762  0.824337  0.000000  1
  Hf  Hf5  1  0.000000  0.000000  0.000000  1
  Be  Be6  1  0.379418  0.880550  0.000000  1
  Be  Be7  1  0.119450  0.379418  0.000000  1
  Be  Be8  1  0.880550  0.620582  0.000000  1
  Be  Be9  1  0.620582  0.119450  0.000000  1
  Ir  Ir10  1  0.216766  0.933738  0.500000  1
  Ir  Ir11  1  0.933738  0.783234  0.500000  1
  Ir  Ir12  1  0.427406  0.725252  0.500000  1
  Ir  Ir13  1  0.572594  0.274748  0.500000  1
  Ir  Ir14  1  0.725252  0.572594  0.500000  1
  Ir  Ir15  1  0.274748  0.427406  0.500000  1
  Ir  Ir16  1  0.066262  0.216766  0.500000  1
  Ir  Ir17  1  0.000000  0.500000  0.500000  1
  Ir  Ir18  1  0.500000  0.000000  0.500000  1
  Ir  Ir19  1  0.783234  0.066262  0.500000  1
