# generated using pymatgen
data_Fe7(SbO6)2
_symmetry_space_group_name_H-M   'P 1'
_cell_length_a   6.17622535
_cell_length_b   6.17622593
_cell_length_c   13.67970800
_cell_angle_alpha   78.04667257
_cell_angle_beta   78.04667143
_cell_angle_gamma   89.99590755
_symmetry_Int_Tables_number   1
_chemical_formula_structural   Fe7(SbO6)2
_chemical_formula_sum   'Fe14 Sb4 O24'
_cell_volume   498.93828877
_cell_formula_units_Z   2
loop_
 _symmetry_equiv_pos_site_id
 _symmetry_equiv_pos_as_xyz
  1  'x, y, z'
loop_
 _atom_site_type_symbol
 _atom_site_label
 _atom_site_symmetry_multiplicity
 _atom_site_fract_x
 _atom_site_fract_y
 _atom_site_fract_z
 _atom_site_occupancy
  Fe  Fe0  1  0.704523  0.982173  0.574648  1
  Fe  Fe1  1  0.017827  0.295477  0.925352  1
  Fe  Fe2  1  0.338114  0.822413  0.836959  1
  Fe  Fe3  1  0.982173  0.704523  0.074648  1
  Fe  Fe4  1  0.364945  0.635055  0.250000  1
  Fe  Fe5  1  0.822413  0.338114  0.336959  1
  Fe  Fe6  1  0.661886  0.177587  0.163041  1
  Fe  Fe7  1  0.295477  0.017827  0.425352  1
  Fe  Fe8  1  0.177587  0.661886  0.663041  1
  Fe  Fe9  1  0.500000  0.500000  0.500000  1
  Fe  Fe10  1  0.000000  0.500000  0.500000  1
  Fe  Fe11  1  0.635055  0.364945  0.750000  1
  Fe  Fe12  1  0.500000  0.000000  0.000000  1
  Fe  Fe13  1  0.500000  0.500000  0.000000  1
  Sb  Sb14  1  0.825968  0.834105  0.334645  1
  Sb  Sb15  1  0.174032  0.165895  0.665355  1
  Sb  Sb16  1  0.834105  0.825968  0.834645  1
  Sb  Sb17  1  0.165895  0.174032  0.165355  1
  O  O18  1  0.285648  0.750383  0.992771  1
  O  O19  1  0.926322  0.390417  0.174417  1
  O  O20  1  0.242530  0.241631  0.012944  1
  O  O21  1  0.609583  0.073678  0.325583  1
  O  O22  1  0.923726  0.930842  0.175919  1
  O  O23  1  0.758369  0.757470  0.487056  1
  O  O24  1  0.249617  0.714352  0.507229  1
  O  O25  1  0.396305  0.393702  0.669600  1
  O  O26  1  0.603695  0.606298  0.330400  1
  O  O27  1  0.950487  0.396450  0.664469  1
  O  O28  1  0.241631  0.242530  0.512944  1
  O  O29  1  0.750383  0.285648  0.492771  1
  O  O30  1  0.076274  0.069158  0.824081  1
  O  O31  1  0.603550  0.049513  0.835531  1
  O  O32  1  0.757470  0.758369  0.987056  1
  O  O33  1  0.390417  0.926322  0.674417  1
  O  O34  1  0.930842  0.923726  0.675919  1
  O  O35  1  0.073678  0.609583  0.825583  1
  O  O36  1  0.606298  0.603695  0.830400  1
  O  O37  1  0.393702  0.396305  0.169600  1
  O  O38  1  0.069158  0.076274  0.324081  1
  O  O39  1  0.714352  0.249617  0.007229  1
  O  O40  1  0.396450  0.950487  0.164469  1
  O  O41  1  0.049513  0.603550  0.335531  1
