# generated using pymatgen
data_SrCdSbH
_symmetry_space_group_name_H-M   'P 1'
_cell_length_a   4.55725000
_cell_length_b   4.56558600
_cell_length_c   18.20074200
_cell_angle_alpha   90.00000000
_cell_angle_beta   90.00000000
_cell_angle_gamma   90.00000000
_symmetry_Int_Tables_number   1
_chemical_formula_structural   SrCdSbH
_chemical_formula_sum   'Sr4 Cd4 Sb4 H4'
_cell_volume   378.69404417
_cell_formula_units_Z   4
loop_
 _symmetry_equiv_pos_site_id
 _symmetry_equiv_pos_as_xyz
  1  'x, y, z'
loop_
 _atom_site_type_symbol
 _atom_site_label
 _atom_site_symmetry_multiplicity
 _atom_site_fract_x
 _atom_site_fract_y
 _atom_site_fract_z
 _atom_site_occupancy
  Sr  Sr0  1  0.250000  0.752509  0.563832  1
  Sr  Sr1  1  0.750000  0.247491  0.436168  1
  Sr  Sr2  1  0.750000  0.252509  0.936168  1
  Sr  Sr3  1  0.250000  0.747491  0.063832  1
  Cd  Cd4  1  0.250000  0.260853  0.750006  1
  Cd  Cd5  1  0.750000  0.739147  0.249994  1
  Cd  Cd6  1  0.750000  0.760853  0.749994  1
  Cd  Cd7  1  0.250000  0.239147  0.250006  1
  Sb  Sb8  1  0.250000  0.742412  0.354487  1
  Sb  Sb9  1  0.750000  0.257588  0.645513  1
  Sb  Sb10  1  0.750000  0.242412  0.145513  1
  Sb  Sb11  1  0.250000  0.757588  0.854487  1
  H  H12  1  0.250000  0.250256  0.000011  1
  H  H13  1  0.750000  0.749744  0.999989  1
  H  H14  1  0.750000  0.750256  0.499989  1
  H  H15  1  0.250000  0.249744  0.500011  1
