# generated using pymatgen
data_Y12Th4MgZn2Ir4Au
_symmetry_space_group_name_H-M   'P 1'
_cell_length_a   9.69312581
_cell_length_b   9.72145477
_cell_length_c   9.72146300
_cell_angle_alpha   59.84586040
_cell_angle_beta   59.81556913
_cell_angle_gamma   59.81572389
_symmetry_Int_Tables_number   1
_chemical_formula_structural   Y12Th4MgZn2Ir4Au
_chemical_formula_sum   'Y12 Th4 Mg1 Zn2 Ir4 Au1'
_cell_volume   645.19397403
_cell_formula_units_Z   1
loop_
 _symmetry_equiv_pos_site_id
 _symmetry_equiv_pos_as_xyz
  1  'x, y, z'
loop_
 _atom_site_type_symbol
 _atom_site_label
 _atom_site_symmetry_multiplicity
 _atom_site_fract_x
 _atom_site_fract_y
 _atom_site_fract_z
 _atom_site_occupancy
  Y  Y0  1  0.058992  0.440857  0.440857  1
  Y  Y1  1  0.436464  0.062323  0.062323  1
  Y  Y2  1  0.438519  0.061522  0.438734  1
  Y  Y3  1  0.058634  0.439879  0.059492  1
  Y  Y4  1  0.438519  0.438734  0.061522  1
  Y  Y5  1  0.058634  0.059491  0.439878  1
  Y  Y6  1  0.183057  0.814557  0.814557  1
  Y  Y7  1  0.813428  0.185169  0.185169  1
  Y  Y8  1  0.813403  0.185468  0.814990  1
  Y  Y9  1  0.181166  0.813835  0.189296  1
  Y  Y10  1  0.813403  0.814990  0.185468  1
  Y  Y11  1  0.181166  0.189296  0.813835  1
  Th  Th12  1  0.600600  0.599685  0.599685  1
  Th  Th13  1  0.602369  0.600171  0.197537  1
  Th  Th14  1  0.602369  0.197537  0.600171  1
  Th  Th15  1  0.188446  0.604388  0.604388  1
  Mg  Mg16  1  0.536904  0.820965  0.820965  1
  Zn  Zn17  1  0.832843  0.835494  0.492222  1
  Zn  Zn18  1  0.832842  0.492222  0.835494  1
  Ir  Ir19  1  0.392020  0.394508  0.394509  1
  Ir  Ir20  1  0.391680  0.394794  0.818208  1
  Ir  Ir21  1  0.391680  0.818207  0.394794  1
  Ir  Ir22  1  0.818101  0.394333  0.394333  1
  Au  Au23  1  0.834760  0.841570  0.841569  1
