# generated using pymatgen
data_Hf2Sc3P12Ru19
_symmetry_space_group_name_H-M   'P 1'
_cell_length_a   12.39887100
_cell_length_b   12.39887189
_cell_length_c   3.93230900
_cell_angle_alpha   90.00000000
_cell_angle_beta   90.00000000
_cell_angle_gamma   120.00000030
_symmetry_Int_Tables_number   1
_chemical_formula_structural   Hf2Sc3P12Ru19
_chemical_formula_sum   'Hf2 Sc3 P12 Ru19'
_cell_volume   523.53121582
_cell_formula_units_Z   1
loop_
 _symmetry_equiv_pos_site_id
 _symmetry_equiv_pos_as_xyz
  1  'x, y, z'
loop_
 _atom_site_type_symbol
 _atom_site_label
 _atom_site_symmetry_multiplicity
 _atom_site_fract_x
 _atom_site_fract_y
 _atom_site_fract_z
 _atom_site_occupancy
  Hf  Hf0  1  0.666667  0.333333  0.000000  1
  Hf  Hf1  1  0.333333  0.666667  0.000000  1
  Sc  Sc2  1  0.000000  0.184084  0.500000  1
  Sc  Sc3  1  0.815916  0.815916  0.500000  1
  Sc  Sc4  1  0.184084  0.000000  0.500000  1
  P  P5  1  0.000000  0.818515  0.000000  1
  P  P6  1  0.181485  0.181485  0.000000  1
  P  P7  1  0.818515  0.000000  0.000000  1
  P  P8  1  0.694798  0.172639  0.500000  1
  P  P9  1  0.827361  0.522159  0.500000  1
  P  P10  1  0.477841  0.305202  0.500000  1
  P  P11  1  0.172639  0.694798  0.500000  1
  P  P12  1  0.522159  0.827361  0.500000  1
  P  P13  1  0.305202  0.477841  0.500000  1
  P  P14  1  0.000000  0.370437  0.000000  1
  P  P15  1  0.629563  0.629563  0.000000  1
  P  P16  1  0.370437  0.000000  0.000000  1
  Ru  Ru17  1  0.000000  0.554689  0.000000  1
  Ru  Ru18  1  0.445311  0.445311  0.000000  1
  Ru  Ru19  1  0.554689  0.000000  0.000000  1
  Ru  Ru20  1  0.000000  0.720531  0.500000  1
  Ru  Ru21  1  0.279469  0.279469  0.500000  1
  Ru  Ru22  1  0.720531  0.000000  0.500000  1
  Ru  Ru23  1  0.810303  0.185608  0.000000  1
  Ru  Ru24  1  0.814392  0.624695  0.000000  1
  Ru  Ru25  1  0.375305  0.189697  0.000000  1
  Ru  Ru26  1  0.185608  0.810303  0.000000  1
  Ru  Ru27  1  0.624695  0.814392  0.000000  1
  Ru  Ru28  1  0.189697  0.375305  0.000000  1
  Ru  Ru29  1  0.870759  0.366746  0.500000  1
  Ru  Ru30  1  0.633254  0.504012  0.500000  1
  Ru  Ru31  1  0.495988  0.129241  0.500000  1
  Ru  Ru32  1  0.366746  0.870759  0.500000  1
  Ru  Ru33  1  0.504012  0.633254  0.500000  1
  Ru  Ru34  1  0.129241  0.495988  0.500000  1
  Ru  Ru35  1  0.000000  0.000000  0.000000  1
