# generated using pymatgen
data_LiNd9Te10
_symmetry_space_group_name_H-M   'P 1'
_cell_length_a   7.70904029
_cell_length_b   8.90475828
_cell_length_c   10.00345300
_cell_angle_alpha   103.09760125
_cell_angle_beta   97.22871567
_cell_angle_gamma   106.82441781
_symmetry_Int_Tables_number   1
_chemical_formula_structural   LiNd9Te10
_chemical_formula_sum   'Li1 Nd9 Te10'
_cell_volume   626.57489953
_cell_formula_units_Z   1
loop_
 _symmetry_equiv_pos_site_id
 _symmetry_equiv_pos_as_xyz
  1  'x, y, z'
loop_
 _atom_site_type_symbol
 _atom_site_label
 _atom_site_symmetry_multiplicity
 _atom_site_fract_x
 _atom_site_fract_y
 _atom_site_fract_z
 _atom_site_occupancy
  Li  Li0  1  0.000000  0.500000  0.000000  1
  Nd  Nd1  1  0.803107  0.600859  0.594572  1
  Nd  Nd2  1  0.590355  0.195641  0.199813  1
  Nd  Nd3  1  0.409645  0.804359  0.800187  1
  Nd  Nd4  1  0.602545  0.705016  0.205279  1
  Nd  Nd5  1  0.196893  0.399141  0.405428  1
  Nd  Nd6  1  0.397455  0.294984  0.794721  1
  Nd  Nd7  1  0.000000  0.000000  0.000000  1
  Nd  Nd8  1  0.200942  0.903019  0.404282  1
  Nd  Nd9  1  0.799058  0.096981  0.595718  1
  Te  Te10  1  0.709225  0.643038  0.903144  1
  Te  Te11  1  0.501952  0.252566  0.499098  1
  Te  Te12  1  0.712023  0.165428  0.904954  1
  Te  Te13  1  0.287977  0.834572  0.095046  1
  Te  Te14  1  0.498048  0.747434  0.500902  1
  Te  Te15  1  0.095725  0.454374  0.714213  1
  Te  Te16  1  0.290775  0.356962  0.096856  1
  Te  Te17  1  0.901316  0.051548  0.298345  1
  Te  Te18  1  0.098684  0.948452  0.701655  1
  Te  Te19  1  0.904275  0.545626  0.285787  1
