# generated using pymatgen
data_LiCeCu4P3
_symmetry_space_group_name_H-M   'P 1'
_cell_length_a   3.91562000
_cell_length_b   10.88202800
_cell_length_c   12.46247600
_cell_angle_alpha   90.00000000
_cell_angle_beta   90.00000000
_cell_angle_gamma   90.00000000
_symmetry_Int_Tables_number   1
_chemical_formula_structural   LiCeCu4P3
_chemical_formula_sum   'Li4 Ce4 Cu16 P12'
_cell_volume   531.02468759
_cell_formula_units_Z   4
loop_
 _symmetry_equiv_pos_site_id
 _symmetry_equiv_pos_as_xyz
  1  'x, y, z'
loop_
 _atom_site_type_symbol
 _atom_site_label
 _atom_site_symmetry_multiplicity
 _atom_site_fract_x
 _atom_site_fract_y
 _atom_site_fract_z
 _atom_site_occupancy
  Li  Li0  1  0.250000  0.700456  0.988956  1
  Li  Li1  1  0.250000  0.799544  0.488956  1
  Li  Li2  1  0.750000  0.299544  0.011044  1
  Li  Li3  1  0.750000  0.200456  0.511044  1
  Ce  Ce4  1  0.250000  0.582720  0.707730  1
  Ce  Ce5  1  0.250000  0.917280  0.207730  1
  Ce  Ce6  1  0.750000  0.417280  0.292270  1
  Ce  Ce7  1  0.750000  0.082720  0.792270  1
  Cu  Cu8  1  0.250000  0.401663  0.493177  1
  Cu  Cu9  1  0.250000  0.098337  0.993177  1
  Cu  Cu10  1  0.750000  0.598337  0.506823  1
  Cu  Cu11  1  0.750000  0.901663  0.006823  1
  Cu  Cu12  1  0.250000  0.216585  0.169453  1
  Cu  Cu13  1  0.250000  0.283415  0.669453  1
  Cu  Cu14  1  0.750000  0.783415  0.830547  1
  Cu  Cu15  1  0.750000  0.716585  0.330547  1
  Cu  Cu16  1  0.250000  0.871233  0.700411  1
  Cu  Cu17  1  0.250000  0.628767  0.200411  1
  Cu  Cu18  1  0.750000  0.128767  0.299589  1
  Cu  Cu19  1  0.750000  0.371233  0.799589  1
  Cu  Cu20  1  0.250000  0.462987  0.934912  1
  Cu  Cu21  1  0.250000  0.037013  0.434912  1
  Cu  Cu22  1  0.750000  0.537013  0.065088  1
  Cu  Cu23  1  0.750000  0.962987  0.565088  1
  P  P24  1  0.250000  0.425937  0.120743  1
  P  P25  1  0.250000  0.074063  0.620743  1
  P  P26  1  0.750000  0.574063  0.879257  1
  P  P27  1  0.750000  0.925937  0.379257  1
  P  P28  1  0.250000  0.263158  0.861847  1
  P  P29  1  0.250000  0.236842  0.361847  1
  P  P30  1  0.750000  0.736842  0.138153  1
  P  P31  1  0.750000  0.763158  0.638153  1
  P  P32  1  0.250000  0.592150  0.391613  1
  P  P33  1  0.250000  0.907850  0.891613  1
  P  P34  1  0.750000  0.407850  0.608387  1
  P  P35  1  0.750000  0.092150  0.108387  1
