# generated using pymatgen
data_Sr5(Cu2Pd)2
_symmetry_space_group_name_H-M   'P 1'
_cell_length_a   15.59595393
_cell_length_b   15.59595414
_cell_length_c   4.37501600
_cell_angle_alpha   90.00000000
_cell_angle_beta   90.00000000
_cell_angle_gamma   164.03080739
_symmetry_Int_Tables_number   1
_chemical_formula_structural   Sr5(Cu2Pd)2
_chemical_formula_sum   'Sr5 Cu4 Pd2'
_cell_volume   292.76989659
_cell_formula_units_Z   1
loop_
 _symmetry_equiv_pos_site_id
 _symmetry_equiv_pos_as_xyz
  1  'x, y, z'
loop_
 _atom_site_type_symbol
 _atom_site_label
 _atom_site_symmetry_multiplicity
 _atom_site_fract_x
 _atom_site_fract_y
 _atom_site_fract_z
 _atom_site_occupancy
  Sr  Sr0  1  0.996055  0.003945  0.000000  1
  Sr  Sr1  1  0.616008  0.383990  0.000000  1
  Sr  Sr2  1  0.386682  0.613316  0.000000  1
  Sr  Sr3  1  0.803369  0.196629  0.500001  1
  Sr  Sr4  1  0.199121  0.800877  0.500001  1
  Cu  Cu5  1  0.274001  0.725997  0.000000  1
  Cu  Cu6  1  0.541579  0.458419  0.500001  1
  Cu  Cu7  1  0.460731  0.539267  0.500001  1
  Cu  Cu8  1  0.080529  0.919470  0.500001  1
  Pd  Pd9  1  0.726389  0.273609  0.000000  1
  Pd  Pd10  1  0.915528  0.084471  0.500001  1
