# generated using pymatgen
data_Cs2Pb2S3
_symmetry_space_group_name_H-M   'P 1'
_cell_length_a   9.27082984
_cell_length_b   9.27082931
_cell_length_c   9.27083000
_cell_angle_alpha   109.47126911
_cell_angle_beta   109.47126755
_cell_angle_gamma   109.47127106
_symmetry_Int_Tables_number   1
_chemical_formula_structural   Cs2Pb2S3
_chemical_formula_sum   'Cs4 Pb4 S6'
_cell_volume   613.38498413
_cell_formula_units_Z   2
loop_
 _symmetry_equiv_pos_site_id
 _symmetry_equiv_pos_as_xyz
  1  'x, y, z'
loop_
 _atom_site_type_symbol
 _atom_site_label
 _atom_site_symmetry_multiplicity
 _atom_site_fract_x
 _atom_site_fract_y
 _atom_site_fract_z
 _atom_site_occupancy
  Cs  Cs0  1  0.443449  0.500001  0.000001  1
  Cs  Cs1  1  0.056551  0.056551  0.056551  1
  Cs  Cs2  1  0.500001  0.000001  0.443449  1
  Cs  Cs3  1  0.000001  0.443449  0.500001  1
  Pb  Pb4  1  0.009142  0.500000  0.000000  1
  Pb  Pb5  1  0.500000  0.000000  0.009142  1
  Pb  Pb6  1  0.490859  0.490859  0.490859  1
  Pb  Pb7  1  0.000000  0.009142  0.500000  1
  S  S8  1  0.750000  0.951890  0.201889  1
  S  S9  1  0.548111  0.298111  0.250000  1
  S  S10  1  0.250000  0.548111  0.298111  1
  S  S11  1  0.298111  0.250000  0.548111  1
  S  S12  1  0.951890  0.201889  0.750000  1
  S  S13  1  0.201889  0.750000  0.951890  1
