# generated using pymatgen
data_Nd3Sm(IO4)4
_symmetry_space_group_name_H-M   'P 1'
_cell_length_a   5.74937664
_cell_length_b   5.75885508
_cell_length_c   11.16757149
_cell_angle_alpha   90.03386771
_cell_angle_beta   89.72134794
_cell_angle_gamma   90.08010976
_symmetry_Int_Tables_number   1
_chemical_formula_structural   Nd3Sm(IO4)4
_chemical_formula_sum   'Nd3 Sm1 I4 O16'
_cell_volume   369.75156138
_cell_formula_units_Z   1
loop_
 _symmetry_equiv_pos_site_id
 _symmetry_equiv_pos_as_xyz
  1  'x, y, z'
loop_
 _atom_site_type_symbol
 _atom_site_label
 _atom_site_symmetry_multiplicity
 _atom_site_fract_x
 _atom_site_fract_y
 _atom_site_fract_z
 _atom_site_occupancy
  Nd  Nd0  1  0.489232  0.316890  0.894853  1
  Nd  Nd1  1  0.504630  0.816523  0.107065  1
  Nd  Nd2  1  0.006877  0.817379  0.895004  1
  Sm  Sm3  1  0.986217  0.317683  0.102585  1
  I  I4  1  0.005865  0.325502  0.636750  1
  I  I5  1  0.996555  0.823890  0.361265  1
  I  I6  1  0.495605  0.825524  0.636850  1
  I  I7  1  0.508642  0.323575  0.363170  1
  O  O8  1  0.241019  0.068116  0.009562  1
  O  O9  1  0.753336  0.565855  0.992799  1
  O  O10  1  0.250946  0.565756  0.009021  1
  O  O11  1  0.742939  0.068033  0.993139  1
  O  O12  1  0.131921  0.432789  0.778223  1
  O  O13  1  0.868934  0.934848  0.221125  1
  O  O14  1  0.366828  0.932875  0.778293  1
  O  O15  1  0.637900  0.430723  0.221845  1
  O  O16  1  0.850622  0.082647  0.714583  1
  O  O17  1  0.149717  0.581116  0.282283  1
  O  O18  1  0.649121  0.583015  0.714613  1
  O  O19  1  0.356875  0.078253  0.286744  1
  O  O20  1  0.246780  0.165936  0.564362  1
  O  O21  1  0.755747  0.665118  0.434762  1
  O  O22  1  0.255906  0.665727  0.564351  1
  O  O23  1  0.747788  0.165872  0.436755  1
