# generated using pymatgen
data_Pr3Y5CdHgIr2
_symmetry_space_group_name_H-M   'P 1'
_cell_length_a   9.78878759
_cell_length_b   9.78878763
_cell_length_c   9.79876300
_cell_angle_alpha   59.96628738
_cell_angle_beta   59.96628724
_cell_angle_gamma   59.99967372
_symmetry_Int_Tables_number   1
_chemical_formula_structural   Pr3Y5CdHgIr2
_chemical_formula_sum   'Pr6 Y10 Cd2 Hg2 Ir4'
_cell_volume   663.57727807
_cell_formula_units_Z   2
loop_
 _symmetry_equiv_pos_site_id
 _symmetry_equiv_pos_as_xyz
  1  'x, y, z'
loop_
 _atom_site_type_symbol
 _atom_site_label
 _atom_site_symmetry_multiplicity
 _atom_site_fract_x
 _atom_site_fract_y
 _atom_site_fract_z
 _atom_site_occupancy
  Pr  Pr0  1  0.940788  0.558249  0.559543  1
  Pr  Pr1  1  0.558249  0.940788  0.941419  1
  Pr  Pr2  1  0.558249  0.940788  0.559543  1
  Pr  Pr3  1  0.940788  0.558249  0.941419  1
  Pr  Pr4  1  0.559004  0.559004  0.940996  1
  Pr  Pr5  1  0.940678  0.940678  0.559322  1
  Y  Y6  1  0.348196  0.348196  0.347131  1
  Y  Y7  1  0.348196  0.348196  0.956475  1
  Y  Y8  1  0.349069  0.954090  0.348420  1
  Y  Y9  1  0.954090  0.349069  0.348420  1
  Y  Y10  1  0.811287  0.187104  0.189469  1
  Y  Y11  1  0.187104  0.811287  0.812138  1
  Y  Y12  1  0.187104  0.811287  0.189469  1
  Y  Y13  1  0.811287  0.187104  0.812138  1
  Y  Y14  1  0.187517  0.187517  0.812483  1
  Y  Y15  1  0.810841  0.810841  0.189159  1
  Cd  Cd16  1  0.578718  0.263577  0.578852  1
  Cd  Cd17  1  0.263577  0.578718  0.578852  1
  Hg  Hg18  1  0.582173  0.582173  0.583503  1
  Hg  Hg19  1  0.582173  0.582173  0.252149  1
  Ir  Ir20  1  0.141447  0.141447  0.140761  1
  Ir  Ir21  1  0.141447  0.141447  0.576344  1
  Ir  Ir22  1  0.141361  0.576649  0.140995  1
  Ir  Ir23  1  0.576649  0.141361  0.140995  1
