# generated using pymatgen
data_Tm2As4O9
_symmetry_space_group_name_H-M   'P 1'
_cell_length_a   6.67530222
_cell_length_b   7.47968446
_cell_length_c   9.75700602
_cell_angle_alpha   94.81065722
_cell_angle_beta   104.15499027
_cell_angle_gamma   104.70206241
_symmetry_Int_Tables_number   1
_chemical_formula_structural   Tm2As4O9
_chemical_formula_sum   'Tm4 As8 O18'
_cell_volume   451.33750567
_cell_formula_units_Z   2
loop_
 _symmetry_equiv_pos_site_id
 _symmetry_equiv_pos_as_xyz
  1  'x, y, z'
loop_
 _atom_site_type_symbol
 _atom_site_label
 _atom_site_symmetry_multiplicity
 _atom_site_fract_x
 _atom_site_fract_y
 _atom_site_fract_z
 _atom_site_occupancy
  Tm  Tm0  1  0.242602  0.938478  0.614534  1
  Tm  Tm1  1  0.757398  0.061522  0.385466  1
  Tm  Tm2  1  0.721715  0.529106  0.410235  1
  Tm  Tm3  1  0.278285  0.470894  0.589765  1
  As  As4  1  0.684000  0.773186  0.079390  1
  As  As5  1  0.316000  0.226814  0.920610  1
  As  As6  1  0.169038  0.751638  0.912387  1
  As  As7  1  0.830962  0.248362  0.087613  1
  As  As8  1  0.743301  0.914282  0.709496  1
  As  As9  1  0.256699  0.085718  0.290504  1
  As  As10  1  0.809963  0.351730  0.701747  1
  As  As11  1  0.190037  0.648270  0.298253  1
  O  O12  1  0.724043  0.748263  0.261048  1
  O  O13  1  0.275957  0.251737  0.738952  1
  O  O14  1  0.315703  0.978379  0.867590  1
  O  O15  1  0.684297  0.021621  0.132410  1
  O  O16  1  0.609001  0.327423  0.985067  1
  O  O17  1  0.390999  0.672577  0.014933  1
  O  O18  1  0.125560  0.644276  0.736567  1
  O  O19  1  0.874440  0.355724  0.263433  1
  O  O20  1  0.848664  0.876547  0.558426  1
  O  O21  1  0.151336  0.123453  0.441574  1
  O  O22  1  0.479443  0.767029  0.665691  1
  O  O23  1  0.520557  0.232971  0.334309  1
  O  O24  1  0.373607  0.531768  0.380827  1
  O  O25  1  0.626393  0.468232  0.619173  1
  O  O26  1  0.089126  0.670258  0.455040  1
  O  O27  1  0.910874  0.329742  0.544960  1
  O  O28  1  0.380025  0.899969  0.359191  1
  O  O29  1  0.619975  0.100031  0.640809  1
