# generated using pymatgen
data_Yb2Co2PdO8
_symmetry_space_group_name_H-M   'P 1'
_cell_length_a   6.18487484
_cell_length_b   6.18487391
_cell_length_c   4.98361300
_cell_angle_alpha   72.41334970
_cell_angle_beta   72.41333298
_cell_angle_gamma   58.39171586
_symmetry_Int_Tables_number   1
_chemical_formula_structural   Yb2Co2PdO8
_chemical_formula_sum   'Yb2 Co2 Pd1 O8'
_cell_volume   152.32063715
_cell_formula_units_Z   1
loop_
 _symmetry_equiv_pos_site_id
 _symmetry_equiv_pos_as_xyz
  1  'x, y, z'
loop_
 _atom_site_type_symbol
 _atom_site_label
 _atom_site_symmetry_multiplicity
 _atom_site_fract_x
 _atom_site_fract_y
 _atom_site_fract_z
 _atom_site_occupancy
  Yb  Yb0  1  0.720333  0.726803  0.342505  1
  Yb  Yb1  1  0.273197  0.279667  0.657495  1
  Co  Co2  1  0.006499  0.993501  0.500000  1
  Co  Co3  1  0.256060  0.743940  0.000000  1
  Pd  Pd4  1  0.748702  0.251298  0.000000  1
  O  O5  1  0.377509  0.410405  0.958662  1
  O  O6  1  0.589595  0.622491  0.041338  1
  O  O7  1  0.912052  0.887244  0.905289  1
  O  O8  1  0.112756  0.087948  0.094711  1
  O  O9  1  0.316157  0.884708  0.610161  1
  O  O10  1  0.892008  0.320160  0.580724  1
  O  O11  1  0.115292  0.683843  0.389839  1
  O  O12  1  0.679840  0.107992  0.419276  1
