# generated using pymatgen
data_Nb6AlPt3N2
_symmetry_space_group_name_H-M   'P 1'
_cell_length_a   7.07770237
_cell_length_b   7.07245000
_cell_length_c   7.06043996
_cell_angle_alpha   90.00000000
_cell_angle_beta   89.47687486
_cell_angle_gamma   90.00000000
_symmetry_Int_Tables_number   1
_chemical_formula_structural   Nb6AlPt3N2
_chemical_formula_sum   'Nb12 Al2 Pt6 N4'
_cell_volume   353.40756638
_cell_formula_units_Z   2
loop_
 _symmetry_equiv_pos_site_id
 _symmetry_equiv_pos_as_xyz
  1  'x, y, z'
loop_
 _atom_site_type_symbol
 _atom_site_label
 _atom_site_symmetry_multiplicity
 _atom_site_fract_x
 _atom_site_fract_y
 _atom_site_fract_z
 _atom_site_occupancy
  Nb  Nb0  1  0.787273  0.955892  0.373426  1
  Nb  Nb1  1  0.702735  0.043725  0.875852  1
  Nb  Nb2  1  0.212727  0.455892  0.126574  1
  Nb  Nb3  1  0.297265  0.543725  0.624148  1
  Nb  Nb4  1  0.953425  0.379907  0.794153  1
  Nb  Nb5  1  0.046575  0.879907  0.705847  1
  Nb  Nb6  1  0.457269  0.128588  0.206113  1
  Nb  Nb7  1  0.542731  0.628588  0.293887  1
  Nb  Nb8  1  0.376893  0.790666  0.949318  1
  Nb  Nb9  1  0.870107  0.703313  0.038716  1
  Nb  Nb10  1  0.129893  0.203313  0.461284  1
  Nb  Nb11  1  0.623107  0.290666  0.550682  1
  Al  Al12  1  0.932088  0.568888  0.425611  1
  Al  Al13  1  0.067912  0.068888  0.074389  1
  Pt  Pt14  1  0.169900  0.815348  0.310564  1
  Pt  Pt15  1  0.302395  0.179203  0.828642  1
  Pt  Pt16  1  0.830100  0.315348  0.189436  1
  Pt  Pt17  1  0.697605  0.679203  0.671358  1
  Pt  Pt18  1  0.566594  0.434209  0.936838  1
  Pt  Pt19  1  0.433406  0.934209  0.563162  1
  N  N20  1  0.872904  0.125526  0.626330  1
  N  N21  1  0.619303  0.874735  0.123520  1
  N  N22  1  0.127096  0.625526  0.873670  1
  N  N23  1  0.380697  0.374735  0.376480  1
