# generated using pymatgen
data_La2TlBi3(SbO7)2
_symmetry_space_group_name_H-M   'P 1'
_cell_length_a   6.71133805
_cell_length_b   6.57384790
_cell_length_c   7.79225300
_cell_angle_alpha   90.00674596
_cell_angle_beta   89.99292269
_cell_angle_gamma   109.98879313
_symmetry_Int_Tables_number   1
_chemical_formula_structural   La2TlBi3(SbO7)2
_chemical_formula_sum   'La2 Tl1 Bi3 Sb2 O14'
_cell_volume   323.07885234
_cell_formula_units_Z   1
loop_
 _symmetry_equiv_pos_site_id
 _symmetry_equiv_pos_as_xyz
  1  'x, y, z'
loop_
 _atom_site_type_symbol
 _atom_site_label
 _atom_site_symmetry_multiplicity
 _atom_site_fract_x
 _atom_site_fract_y
 _atom_site_fract_z
 _atom_site_occupancy
  La  La0  1  0.497518  0.498534  0.502187  1
  La  La1  1  0.497495  0.498514  0.997817  1
  Tl  Tl2  1  0.492545  0.004620  0.250023  1
  Bi  Bi3  1  0.005900  0.532025  0.250007  1
  Bi  Bi4  1  0.520096  0.000637  0.750001  1
  Bi  Bi5  1  0.995379  0.472828  0.749995  1
  Sb  Sb6  1  0.001545  0.000280  0.499412  1
  Sb  Sb7  1  0.001526  0.000281  0.000583  1
  O  O8  1  0.313914  0.065468  0.528884  1
  O  O9  1  0.927317  0.680723  0.968274  1
  O  O10  1  0.687663  0.930415  0.024912  1
  O  O11  1  0.078317  0.320010  0.464583  1
  O  O12  1  0.927351  0.680728  0.531737  1
  O  O13  1  0.313894  0.065472  0.971096  1
  O  O14  1  0.078312  0.320014  0.035412  1
  O  O15  1  0.687678  0.930383  0.475084  1
  O  O16  1  0.616881  0.351274  0.249987  1
  O  O17  1  0.363171  0.623225  0.750016  1
  O  O18  1  0.630151  0.368661  0.749982  1
  O  O19  1  0.363983  0.656724  0.250014  1
  O  O20  1  0.046279  0.936385  0.249990  1
  O  O21  1  0.953086  0.062801  0.750001  1
