# generated using pymatgen
data_Th8CuSe17
_symmetry_space_group_name_H-M   'P 1'
_cell_length_a   8.50502573
_cell_length_b   8.50502600
_cell_length_c   11.14026552
_cell_angle_alpha   79.96617159
_cell_angle_beta   79.96616926
_cell_angle_gamma   64.50048694
_symmetry_Int_Tables_number   1
_chemical_formula_structural   Th8CuSe17
_chemical_formula_sum   'Th8 Cu1 Se17'
_cell_volume   711.73711196
_cell_formula_units_Z   1
loop_
 _symmetry_equiv_pos_site_id
 _symmetry_equiv_pos_as_xyz
  1  'x, y, z'
loop_
 _atom_site_type_symbol
 _atom_site_label
 _atom_site_symmetry_multiplicity
 _atom_site_fract_x
 _atom_site_fract_y
 _atom_site_fract_z
 _atom_site_occupancy
  Th  Th0  1  0.815849  0.304331  0.293984  1
  Th  Th1  1  0.304331  0.815849  0.293984  1
  Th  Th2  1  0.184151  0.695669  0.706016  1
  Th  Th3  1  0.695669  0.184151  0.706016  1
  Th  Th4  1  0.203161  0.203161  0.546540  1
  Th  Th5  1  0.796839  0.796839  0.453460  1
  Th  Th6  1  0.684005  0.684005  0.978725  1
  Th  Th7  1  0.315995  0.315995  0.021275  1
  Cu  Cu8  1  0.000000  0.000000  0.000000  1
  Se  Se9  1  0.822502  0.431690  0.532617  1
  Se  Se10  1  0.431690  0.822502  0.532617  1
  Se  Se11  1  0.177498  0.568310  0.467383  1
  Se  Se12  1  0.568310  0.177498  0.467383  1
  Se  Se13  1  0.947009  0.326370  0.029212  1
  Se  Se14  1  0.326370  0.947009  0.029212  1
  Se  Se15  1  0.052991  0.673630  0.970788  1
  Se  Se16  1  0.673630  0.052991  0.970788  1
  Se  Se17  1  0.210762  0.210762  0.280537  1
  Se  Se18  1  0.789238  0.789238  0.719463  1
  Se  Se19  1  0.052297  0.052297  0.777259  1
  Se  Se20  1  0.947703  0.947703  0.222741  1
  Se  Se21  1  0.300901  0.300901  0.755337  1
  Se  Se22  1  0.699099  0.699099  0.244663  1
  Se  Se23  1  0.519032  0.519032  0.831241  1
  Se  Se24  1  0.480968  0.480968  0.168759  1
  Se  Se25  1  0.000000  0.000000  0.500000  1
