# generated using pymatgen
data_LaYb3(Ir2O7)2
_symmetry_space_group_name_H-M   'P 1'
_cell_length_a   7.21832144
_cell_length_b   7.21832143
_cell_length_c   7.21832300
_cell_angle_alpha   60.12722462
_cell_angle_beta   60.12723383
_cell_angle_gamma   60.12722186
_symmetry_Int_Tables_number   1
_chemical_formula_structural   LaYb3(Ir2O7)2
_chemical_formula_sum   'La1 Yb3 Ir4 O14'
_cell_volume   266.71269231
_cell_formula_units_Z   1
loop_
 _symmetry_equiv_pos_site_id
 _symmetry_equiv_pos_as_xyz
  1  'x, y, z'
loop_
 _atom_site_type_symbol
 _atom_site_label
 _atom_site_symmetry_multiplicity
 _atom_site_fract_x
 _atom_site_fract_y
 _atom_site_fract_z
 _atom_site_occupancy
  La  La0  1  0.125000  0.125000  0.125000  1
  Yb  Yb1  1  0.125000  0.625000  0.125000  1
  Yb  Yb2  1  0.125000  0.125000  0.625000  1
  Yb  Yb3  1  0.625000  0.125000  0.125000  1
  Ir  Ir4  1  0.625000  0.625000  0.625000  1
  Ir  Ir5  1  0.125000  0.625000  0.625000  1
  Ir  Ir6  1  0.625000  0.125000  0.625000  1
  Ir  Ir7  1  0.625000  0.625000  0.125000  1
  O  O8  1  0.297961  0.702480  0.702480  1
  O  O9  1  0.553682  0.952922  0.952922  1
  O  O10  1  0.702480  0.297961  0.702480  1
  O  O11  1  0.297078  0.297078  0.696318  1
  O  O12  1  0.702480  0.702480  0.297961  1
  O  O13  1  0.998510  0.998510  0.998510  1
  O  O14  1  0.297078  0.696318  0.297078  1
  O  O15  1  0.952922  0.553682  0.952922  1
  O  O16  1  0.952922  0.952922  0.553682  1
  O  O17  1  0.547520  0.547520  0.952039  1
  O  O18  1  0.251490  0.251490  0.251490  1
  O  O19  1  0.547520  0.952039  0.547520  1
  O  O20  1  0.696318  0.297078  0.297078  1
  O  O21  1  0.952039  0.547520  0.547520  1
