# generated using pymatgen
data_Ce9HoIr6
_symmetry_space_group_name_H-M   'P 1'
_cell_length_a   11.19898580
_cell_length_b   11.12225209
_cell_length_c   6.13804400
_cell_angle_alpha   90.00000000
_cell_angle_beta   90.00000000
_cell_angle_gamma   91.81120995
_symmetry_Int_Tables_number   1
_chemical_formula_structural   Ce9HoIr6
_chemical_formula_sum   'Ce18 Ho2 Ir12'
_cell_volume   764.16016795
_cell_formula_units_Z   2
loop_
 _symmetry_equiv_pos_site_id
 _symmetry_equiv_pos_as_xyz
  1  'x, y, z'
loop_
 _atom_site_type_symbol
 _atom_site_label
 _atom_site_symmetry_multiplicity
 _atom_site_fract_x
 _atom_site_fract_y
 _atom_site_fract_z
 _atom_site_occupancy
  Ce  Ce0  1  0.093600  0.288060  0.131117  1
  Ce  Ce1  1  0.785741  0.413934  0.127519  1
  Ce  Ce2  1  0.214259  0.586066  0.127519  1
  Ce  Ce3  1  0.906400  0.711940  0.131117  1
  Ce  Ce4  1  0.411004  0.785283  0.370263  1
  Ce  Ce5  1  0.588996  0.214717  0.370263  1
  Ce  Ce6  1  0.286042  0.090441  0.370899  1
  Ce  Ce7  1  0.713958  0.909559  0.370899  1
  Ce  Ce8  1  0.409168  0.207689  0.867761  1
  Ce  Ce9  1  0.716359  0.093138  0.873030  1
  Ce  Ce10  1  0.283641  0.906862  0.873030  1
  Ce  Ce11  1  0.590832  0.792311  0.867761  1
  Ce  Ce12  1  0.087704  0.706763  0.629453  1
  Ce  Ce13  1  0.912296  0.293237  0.629453  1
  Ce  Ce14  1  0.000000  0.000000  0.033355  1
  Ce  Ce15  1  0.500000  0.500000  0.968767  1
  Ce  Ce16  1  0.500000  0.500000  0.511756  1
  Ce  Ce17  1  0.000000  0.000000  0.482722  1
  Ho  Ho18  1  0.210832  0.409501  0.629291  1
  Ho  Ho19  1  0.789168  0.590499  0.629291  1
  Ir  Ir20  1  0.161067  0.835176  0.254790  1
  Ir  Ir21  1  0.348314  0.346311  0.243014  1
  Ir  Ir22  1  0.651686  0.653689  0.243014  1
  Ir  Ir23  1  0.838933  0.164824  0.254790  1
  Ir  Ir24  1  0.340260  0.661067  0.749056  1
  Ir  Ir25  1  0.155417  0.148273  0.755353  1
  Ir  Ir26  1  0.844583  0.851727  0.755353  1
  Ir  Ir27  1  0.659740  0.338933  0.749056  1
  Ir  Ir28  1  0.000000  0.500000  0.389212  1
  Ir  Ir29  1  0.500000  0.000000  0.111336  1
  Ir  Ir30  1  0.500000  0.000000  0.608468  1
  Ir  Ir31  1  0.000000  0.500000  0.891294  1
