# generated using pymatgen
data_Tb2Pa(AlCo)3
_symmetry_space_group_name_H-M   'P 1'
_cell_length_a   7.09417017
_cell_length_b   7.23349033
_cell_length_c   3.68000400
_cell_angle_alpha   90.00000000
_cell_angle_beta   90.00000000
_cell_angle_gamma   120.65180535
_symmetry_Int_Tables_number   1
_chemical_formula_structural   Tb2Pa(AlCo)3
_chemical_formula_sum   'Tb2 Pa1 Al3 Co3'
_cell_volume   162.45696568
_cell_formula_units_Z   1
loop_
 _symmetry_equiv_pos_site_id
 _symmetry_equiv_pos_as_xyz
  1  'x, y, z'
loop_
 _atom_site_type_symbol
 _atom_site_label
 _atom_site_symmetry_multiplicity
 _atom_site_fract_x
 _atom_site_fract_y
 _atom_site_fract_z
 _atom_site_occupancy
  Tb  Tb0  1  0.417128  0.417778  0.500000  1
  Tb  Tb1  1  0.582872  0.000650  0.500000  1
  Pa  Pa2  1  0.000000  0.569063  0.500000  1
  Al  Al3  1  0.763868  0.761098  0.000000  1
  Al  Al4  1  0.236132  0.997230  0.000000  1
  Al  Al5  1  0.000000  0.225375  0.000000  1
  Co  Co6  1  0.286570  0.661542  0.000000  1
  Co  Co7  1  0.713430  0.374971  0.000000  1
  Co  Co8  1  0.000000  0.992292  0.500000  1
