# generated using pymatgen
data_Rb3Dy(BO3)2
_symmetry_space_group_name_H-M   'P 1'
_cell_length_a   5.67601300
_cell_length_b   7.13315200
_cell_length_c   9.53181300
_cell_angle_alpha   90.00000000
_cell_angle_beta   90.00000000
_cell_angle_gamma   90.00000000
_symmetry_Int_Tables_number   1
_chemical_formula_structural   Rb3Dy(BO3)2
_chemical_formula_sum   'Rb6 Dy2 B4 O12'
_cell_volume   385.92274349
_cell_formula_units_Z   2
loop_
 _symmetry_equiv_pos_site_id
 _symmetry_equiv_pos_as_xyz
  1  'x, y, z'
loop_
 _atom_site_type_symbol
 _atom_site_label
 _atom_site_symmetry_multiplicity
 _atom_site_fract_x
 _atom_site_fract_y
 _atom_site_fract_z
 _atom_site_occupancy
  Rb  Rb0  1  0.000000  0.233457  0.333673  1
  Rb  Rb1  1  0.000000  0.766543  0.666327  1
  Rb  Rb2  1  0.500000  0.733457  0.166327  1
  Rb  Rb3  1  0.500000  0.500000  0.500000  1
  Rb  Rb4  1  0.500000  0.266543  0.833673  1
  Rb  Rb5  1  0.000000  0.000000  0.000000  1
  Dy  Dy6  1  0.000000  0.500000  0.000000  1
  Dy  Dy7  1  0.500000  0.000000  0.500000  1
  B  B8  1  0.000000  0.768882  0.333283  1
  B  B9  1  0.000000  0.231118  0.666717  1
  B  B10  1  0.500000  0.731118  0.833283  1
  B  B11  1  0.500000  0.268882  0.166717  1
  O  O12  1  0.713480  0.312455  0.100166  1
  O  O13  1  0.213480  0.187545  0.600166  1
  O  O14  1  0.500000  0.183192  0.299417  1
  O  O15  1  0.713480  0.687545  0.899834  1
  O  O16  1  0.286520  0.312455  0.100166  1
  O  O17  1  0.213480  0.812455  0.399834  1
  O  O18  1  0.786520  0.187545  0.600166  1
  O  O19  1  0.286520  0.687545  0.899834  1
  O  O20  1  0.786520  0.812455  0.399834  1
  O  O21  1  0.000000  0.316808  0.799417  1
  O  O22  1  0.000000  0.683192  0.200583  1
  O  O23  1  0.500000  0.816808  0.700583  1
