# generated using pymatgen
data_Hf5Zr3(Ir2O)2
_symmetry_space_group_name_H-M   'P 1'
_cell_length_a   8.78219974
_cell_length_b   8.78219984
_cell_length_c   8.78219900
_cell_angle_alpha   59.99999941
_cell_angle_beta   59.99999902
_cell_angle_gamma   59.99999757
_symmetry_Int_Tables_number   1
_chemical_formula_structural   Hf5Zr3(Ir2O)2
_chemical_formula_sum   'Hf10 Zr6 Ir8 O4'
_cell_volume   478.95519547
_cell_formula_units_Z   2
loop_
 _symmetry_equiv_pos_site_id
 _symmetry_equiv_pos_as_xyz
  1  'x, y, z'
loop_
 _atom_site_type_symbol
 _atom_site_label
 _atom_site_symmetry_multiplicity
 _atom_site_fract_x
 _atom_site_fract_y
 _atom_site_fract_z
 _atom_site_occupancy
  Hf  Hf0  1  0.107777  0.630741  0.630741  1
  Hf  Hf1  1  0.630741  0.107777  0.630741  1
  Hf  Hf2  1  0.630741  0.630741  0.107777  1
  Hf  Hf3  1  0.630741  0.630741  0.630741  1
  Hf  Hf4  1  0.812772  0.812772  0.187228  1
  Hf  Hf5  1  0.187228  0.187228  0.812772  1
  Hf  Hf6  1  0.812772  0.187228  0.812772  1
  Hf  Hf7  1  0.187228  0.812772  0.187228  1
  Hf  Hf8  1  0.187228  0.812772  0.812772  1
  Hf  Hf9  1  0.812772  0.187228  0.187228  1
  Zr  Zr10  1  0.435378  0.435378  0.064622  1
  Zr  Zr11  1  0.064622  0.064622  0.435378  1
  Zr  Zr12  1  0.435378  0.064622  0.435378  1
  Zr  Zr13  1  0.064622  0.435378  0.064622  1
  Zr  Zr14  1  0.064622  0.435378  0.435378  1
  Zr  Zr15  1  0.435378  0.064622  0.064622  1
  Ir  Ir16  1  0.757735  0.414088  0.414088  1
  Ir  Ir17  1  0.414088  0.757735  0.414088  1
  Ir  Ir18  1  0.414088  0.414088  0.757735  1
  Ir  Ir19  1  0.414088  0.414088  0.414088  1
  Ir  Ir20  1  0.450690  0.849770  0.849770  1
  Ir  Ir21  1  0.849770  0.450690  0.849770  1
  Ir  Ir22  1  0.849770  0.849770  0.450690  1
  Ir  Ir23  1  0.849770  0.849770  0.849770  1
  O  O24  1  0.633298  0.122234  0.122234  1
  O  O25  1  0.122234  0.633298  0.122234  1
  O  O26  1  0.122234  0.122234  0.633298  1
  O  O27  1  0.122234  0.122234  0.122234  1
