# generated using pymatgen
data_Ta2Be8TcRu
_symmetry_space_group_name_H-M   'P 1'
_cell_length_a   4.48485300
_cell_length_b   4.48485444
_cell_length_c   7.33739400
_cell_angle_alpha   90.00000000
_cell_angle_beta   90.00000000
_cell_angle_gamma   119.99999678
_symmetry_Int_Tables_number   1
_chemical_formula_structural   Ta2Be8TcRu
_chemical_formula_sum   'Ta2 Be8 Tc1 Ru1'
_cell_volume   127.81124067
_cell_formula_units_Z   1
loop_
 _symmetry_equiv_pos_site_id
 _symmetry_equiv_pos_as_xyz
  1  'x, y, z'
loop_
 _atom_site_type_symbol
 _atom_site_label
 _atom_site_symmetry_multiplicity
 _atom_site_fract_x
 _atom_site_fract_y
 _atom_site_fract_z
 _atom_site_occupancy
  Ta  Ta0  1  0.333333  0.666667  0.060374  1
  Ta  Ta1  1  0.666667  0.333333  0.561684  1
  Be  Be2  1  0.168928  0.337854  0.750016  1
  Be  Be3  1  0.168928  0.831072  0.750016  1
  Be  Be4  1  0.335906  0.167955  0.250194  1
  Be  Be5  1  0.832045  0.664094  0.250194  1
  Be  Be6  1  0.000000  0.000000  0.001449  1
  Be  Be7  1  0.662146  0.831072  0.750016  1
  Be  Be8  1  0.832045  0.167955  0.250194  1
  Be  Be9  1  0.000000  0.000000  0.503816  1
  Tc  Tc10  1  0.333333  0.666667  0.436593  1
  Ru  Ru11  1  0.666667  0.333333  0.935451  1
