# generated using pymatgen
data_NdTm3CdIr
_symmetry_space_group_name_H-M   'P 1'
_cell_length_a   9.62092932
_cell_length_b   9.61341161
_cell_length_c   9.61341094
_cell_angle_alpha   60.05174608
_cell_angle_beta   59.97412615
_cell_angle_gamma   59.97412218
_symmetry_Int_Tables_number   1
_chemical_formula_structural   NdTm3CdIr
_chemical_formula_sum   'Nd4 Tm12 Cd4 Ir4'
_cell_volume   628.71890745
_cell_formula_units_Z   4
loop_
 _symmetry_equiv_pos_site_id
 _symmetry_equiv_pos_as_xyz
  1  'x, y, z'
loop_
 _atom_site_type_symbol
 _atom_site_label
 _atom_site_symmetry_multiplicity
 _atom_site_fract_x
 _atom_site_fract_y
 _atom_site_fract_z
 _atom_site_occupancy
  Nd  Nd0  1  0.562477  0.937523  0.562477  1
  Nd  Nd1  1  0.937523  0.562477  0.937523  1
  Nd  Nd2  1  0.562477  0.562477  0.937523  1
  Nd  Nd3  1  0.937523  0.937523  0.562477  1
  Tm  Tm4  1  0.350627  0.346334  0.346334  1
  Tm  Tm5  1  0.346334  0.350627  0.956704  1
  Tm  Tm6  1  0.346334  0.956704  0.350627  1
  Tm  Tm7  1  0.956704  0.346334  0.346334  1
  Tm  Tm8  1  0.814045  0.185955  0.185955  1
  Tm  Tm9  1  0.185955  0.814045  0.814045  1
  Tm  Tm10  1  0.188545  0.811455  0.188545  1
  Tm  Tm11  1  0.811455  0.188545  0.811455  1
  Tm  Tm12  1  0.188545  0.188545  0.811455  1
  Tm  Tm13  1  0.811455  0.811455  0.188545  1
  Tm  Tm14  1  0.946750  0.553250  0.553250  1
  Tm  Tm15  1  0.553250  0.946750  0.946750  1
  Cd  Cd16  1  0.583620  0.578406  0.578406  1
  Cd  Cd17  1  0.578406  0.583620  0.259568  1
  Cd  Cd18  1  0.578406  0.259568  0.583620  1
  Cd  Cd19  1  0.259568  0.578406  0.578406  1
  Ir  Ir20  1  0.146675  0.138866  0.138866  1
  Ir  Ir21  1  0.138866  0.146675  0.575592  1
  Ir  Ir22  1  0.138866  0.575592  0.146675  1
  Ir  Ir23  1  0.575592  0.138866  0.138866  1
