# generated using pymatgen
data_Tb3YVOs7
_symmetry_space_group_name_H-M   'P 1'
_cell_length_a   5.26018227
_cell_length_b   5.26018321
_cell_length_c   8.90229101
_cell_angle_alpha   89.99523228
_cell_angle_beta   90.00476631
_cell_angle_gamma   117.41111472
_symmetry_Int_Tables_number   1
_chemical_formula_structural   Tb3YVOs7
_chemical_formula_sum   'Tb3 Y1 V1 Os7'
_cell_volume   218.66659142
_cell_formula_units_Z   1
loop_
 _symmetry_equiv_pos_site_id
 _symmetry_equiv_pos_as_xyz
  1  'x, y, z'
loop_
 _atom_site_type_symbol
 _atom_site_label
 _atom_site_symmetry_multiplicity
 _atom_site_fract_x
 _atom_site_fract_y
 _atom_site_fract_z
 _atom_site_occupancy
  Tb  Tb0  1  0.330572  0.669428  0.436950  1
  Tb  Tb1  1  0.668696  0.331304  0.566126  1
  Tb  Tb2  1  0.668709  0.331291  0.933865  1
  Y  Y3  1  0.330558  0.669442  0.063090  1
  V  V4  1  0.835515  0.164485  0.249958  1
  Os  Os5  1  0.996400  0.003600  0.498734  1
  Os  Os6  1  0.996384  0.003616  0.001219  1
  Os  Os7  1  0.824022  0.651193  0.249966  1
  Os  Os8  1  0.348807  0.175978  0.249966  1
  Os  Os9  1  0.169988  0.830012  0.750065  1
  Os  Os10  1  0.174856  0.344508  0.750030  1
  Os  Os11  1  0.655492  0.825144  0.750030  1
