# generated using pymatgen
data_Rb6ScInAs4
_symmetry_space_group_name_H-M   'P 1'
_cell_length_a   9.55926779
_cell_length_b   9.55926801
_cell_length_c   9.55926788
_cell_angle_alpha   137.45587432
_cell_angle_beta   128.36273962
_cell_angle_gamma   69.05970311
_symmetry_Int_Tables_number   1
_chemical_formula_structural   Rb6ScInAs4
_chemical_formula_sum   'Rb6 Sc1 In1 As4'
_cell_volume   454.82830869
_cell_formula_units_Z   1
loop_
 _symmetry_equiv_pos_site_id
 _symmetry_equiv_pos_as_xyz
  1  'x, y, z'
loop_
 _atom_site_type_symbol
 _atom_site_label
 _atom_site_symmetry_multiplicity
 _atom_site_fract_x
 _atom_site_fract_y
 _atom_site_fract_z
 _atom_site_occupancy
  Rb  Rb0  1  0.009884  0.804226  0.187965  1
  Rb  Rb1  1  0.500000  0.750000  0.250000  1
  Rb  Rb2  1  0.616261  0.321918  0.312035  1
  Rb  Rb3  1  0.383739  0.695774  0.705658  1
  Rb  Rb4  1  0.500000  0.250000  0.750000  1
  Rb  Rb5  1  0.990116  0.178082  0.794342  1
  Sc  Sc6  1  0.000000  0.250000  0.250000  1
  In  In7  1  0.000000  0.750000  0.750000  1
  As  As8  1  0.087436  0.399886  0.677624  1
  As  As9  1  0.912564  0.590187  0.312449  1
  As  As10  1  0.277738  0.100114  0.187551  1
  As  As11  1  0.722262  0.909813  0.822376  1
