# generated using pymatgen
data_Lu16Sc4Ir7Rh5
_symmetry_space_group_name_H-M   'P 1'
_cell_length_a   10.54255107
_cell_length_b   10.54255112
_cell_length_c   6.15225900
_cell_angle_alpha   89.99318487
_cell_angle_beta   89.99318487
_cell_angle_gamma   90.04351497
_symmetry_Int_Tables_number   1
_chemical_formula_structural   Lu16Sc4Ir7Rh5
_chemical_formula_sum   'Lu16 Sc4 Ir7 Rh5'
_cell_volume   683.79497960
_cell_formula_units_Z   1
loop_
 _symmetry_equiv_pos_site_id
 _symmetry_equiv_pos_as_xyz
  1  'x, y, z'
loop_
 _atom_site_type_symbol
 _atom_site_label
 _atom_site_symmetry_multiplicity
 _atom_site_fract_x
 _atom_site_fract_y
 _atom_site_fract_z
 _atom_site_occupancy
  Lu  Lu0  1  0.287608  0.086382  0.378411  1
  Lu  Lu1  1  0.287907  0.913480  0.877715  1
  Lu  Lu2  1  0.711618  0.086438  0.877764  1
  Lu  Lu3  1  0.711555  0.911982  0.378331  1
  Lu  Lu4  1  0.586492  0.788015  0.878126  1
  Lu  Lu5  1  0.585221  0.212393  0.378144  1
  Lu  Lu6  1  0.413065  0.787940  0.378152  1
  Lu  Lu7  1  0.413261  0.212082  0.877961  1
  Lu  Lu8  1  0.211983  0.413503  0.621876  1
  Lu  Lu9  1  0.212059  0.586937  0.121858  1
  Lu  Lu10  1  0.787608  0.414777  0.121855  1
  Lu  Lu11  1  0.787918  0.586741  0.622043  1
  Lu  Lu12  1  0.913622  0.712397  0.121592  1
  Lu  Lu13  1  0.913561  0.288381  0.622232  1
  Lu  Lu14  1  0.086518  0.712098  0.622277  1
  Lu  Lu15  1  0.088016  0.288437  0.121677  1
  Sc  Sc16  1  0.000270  0.999608  0.500441  1
  Sc  Sc17  1  0.000391  0.999730  0.999562  1
  Sc  Sc18  1  0.499992  0.499905  0.999820  1
  Sc  Sc19  1  0.500096  0.500009  0.500177  1
  Ir  Ir20  1  0.850254  0.851323  0.750066  1
  Ir  Ir21  1  0.148681  0.149743  0.749930  1
  Ir  Ir22  1  0.149494  0.850512  0.250007  1
  Ir  Ir23  1  0.650213  0.349794  0.749995  1
  Ir  Ir24  1  0.649745  0.649631  0.249839  1
  Ir  Ir25  1  0.350366  0.350255  0.250157  1
  Ir  Ir26  1  0.350403  0.649590  0.749993  1
  Rh  Rh27  1  0.851558  0.148439  0.250002  1
  Rh  Rh28  1  0.500451  0.000166  0.125577  1
  Rh  Rh29  1  0.500389  0.000153  0.624864  1
  Rh  Rh30  1  0.999845  0.499607  0.875139  1
  Rh  Rh31  1  0.999840  0.499556  0.374419  1
