# generated using pymatgen
data_Er4ScOsRh2
_symmetry_space_group_name_H-M   'P 1'
_cell_length_a   10.64589900
_cell_length_b   10.64589900
_cell_length_c   6.26925900
_cell_angle_alpha   90.00000000
_cell_angle_beta   90.00000000
_cell_angle_gamma   90.00000000
_symmetry_Int_Tables_number   1
_chemical_formula_structural   Er4ScOsRh2
_chemical_formula_sum   'Er16 Sc4 Os4 Rh8'
_cell_volume   710.52750644
_cell_formula_units_Z   4
loop_
 _symmetry_equiv_pos_site_id
 _symmetry_equiv_pos_as_xyz
  1  'x, y, z'
loop_
 _atom_site_type_symbol
 _atom_site_label
 _atom_site_symmetry_multiplicity
 _atom_site_fract_x
 _atom_site_fract_y
 _atom_site_fract_z
 _atom_site_occupancy
  Er  Er0  1  0.290831  0.085017  0.374704  1
  Er  Er1  1  0.290831  0.914983  0.874704  1
  Er  Er2  1  0.709169  0.085017  0.874704  1
  Er  Er3  1  0.709169  0.914983  0.374704  1
  Er  Er4  1  0.585017  0.790831  0.874704  1
  Er  Er5  1  0.585017  0.209169  0.374704  1
  Er  Er6  1  0.414983  0.790831  0.374704  1
  Er  Er7  1  0.414983  0.209169  0.874704  1
  Er  Er8  1  0.209169  0.414983  0.625296  1
  Er  Er9  1  0.209169  0.585017  0.125296  1
  Er  Er10  1  0.790831  0.414983  0.125296  1
  Er  Er11  1  0.790831  0.585017  0.625296  1
  Er  Er12  1  0.914983  0.709169  0.125296  1
  Er  Er13  1  0.914983  0.290831  0.625296  1
  Er  Er14  1  0.085017  0.709169  0.625296  1
  Er  Er15  1  0.085017  0.290831  0.125296  1
  Sc  Sc16  1  0.000000  0.000000  0.500000  1
  Sc  Sc17  1  0.000000  0.000000  0.000000  1
  Sc  Sc18  1  0.500000  0.500000  0.000000  1
  Sc  Sc19  1  0.500000  0.500000  0.500000  1
  Os  Os20  1  0.500000  0.000000  0.123912  1
  Os  Os21  1  0.500000  0.000000  0.623912  1
  Os  Os22  1  0.000000  0.500000  0.876088  1
  Os  Os23  1  0.000000  0.500000  0.376088  1
  Rh  Rh24  1  0.853237  0.146763  0.250000  1
  Rh  Rh25  1  0.853237  0.853237  0.750000  1
  Rh  Rh26  1  0.146763  0.146763  0.750000  1
  Rh  Rh27  1  0.146763  0.853237  0.250000  1
  Rh  Rh28  1  0.646763  0.353237  0.750000  1
  Rh  Rh29  1  0.646763  0.646763  0.250000  1
  Rh  Rh30  1  0.353237  0.353237  0.250000  1
  Rh  Rh31  1  0.353237  0.646763  0.750000  1
