# generated using pymatgen
data_TmScB6Os
_symmetry_space_group_name_H-M   'P 1'
_cell_length_a   3.55324700
_cell_length_b   8.94405000
_cell_length_c   11.31534100
_cell_angle_alpha   90.00000000
_cell_angle_beta   90.00000000
_cell_angle_gamma   90.00000000
_symmetry_Int_Tables_number   1
_chemical_formula_structural   TmScB6Os
_chemical_formula_sum   'Tm4 Sc4 B24 Os4'
_cell_volume   359.60627619
_cell_formula_units_Z   4
loop_
 _symmetry_equiv_pos_site_id
 _symmetry_equiv_pos_as_xyz
  1  'x, y, z'
loop_
 _atom_site_type_symbol
 _atom_site_label
 _atom_site_symmetry_multiplicity
 _atom_site_fract_x
 _atom_site_fract_y
 _atom_site_fract_z
 _atom_site_occupancy
  Tm  Tm0  1  0.000000  0.819645  0.085612  1
  Tm  Tm1  1  0.000000  0.180355  0.914388  1
  Tm  Tm2  1  0.000000  0.319645  0.414388  1
  Tm  Tm3  1  0.000000  0.680355  0.585612  1
  Sc  Sc4  1  0.000000  0.445324  0.125666  1
  Sc  Sc5  1  0.000000  0.554676  0.874334  1
  Sc  Sc6  1  0.000000  0.945324  0.374334  1
  Sc  Sc7  1  0.000000  0.054676  0.625666  1
  B  B8  1  0.500000  0.054746  0.066478  1
  B  B9  1  0.500000  0.945254  0.933522  1
  B  B10  1  0.500000  0.554746  0.433522  1
  B  B11  1  0.500000  0.445254  0.566478  1
  B  B12  1  0.500000  0.253124  0.080694  1
  B  B13  1  0.500000  0.746876  0.919306  1
  B  B14  1  0.500000  0.753124  0.419306  1
  B  B15  1  0.500000  0.246876  0.580694  1
  B  B16  1  0.500000  0.293925  0.235093  1
  B  B17  1  0.500000  0.706075  0.764907  1
  B  B18  1  0.500000  0.793925  0.264907  1
  B  B19  1  0.500000  0.206075  0.735093  1
  B  B20  1  0.500000  0.129529  0.317647  1
  B  B21  1  0.500000  0.870471  0.682353  1
  B  B22  1  0.500000  0.629529  0.182353  1
  B  B23  1  0.500000  0.370471  0.817647  1
  B  B24  1  0.500000  0.481548  0.285867  1
  B  B25  1  0.500000  0.518452  0.714133  1
  B  B26  1  0.500000  0.981548  0.214133  1
  B  B27  1  0.500000  0.018452  0.785867  1
  B  B28  1  0.500000  0.100616  0.472822  1
  B  B29  1  0.500000  0.899384  0.527178  1
  B  B30  1  0.500000  0.600616  0.027178  1
  B  B31  1  0.500000  0.399384  0.972822  1
  Os  Os32  1  0.000000  0.139759  0.180998  1
  Os  Os33  1  0.000000  0.860241  0.819002  1
  Os  Os34  1  0.000000  0.639759  0.319002  1
  Os  Os35  1  0.000000  0.360241  0.680998  1
