# generated using pymatgen
data_ZnFeIr2(RhO6)2
_symmetry_space_group_name_H-M   'P 1'
_cell_length_a   4.57844790
_cell_length_b   4.57844790
_cell_length_c   9.40116000
_cell_angle_alpha   90.00000000
_cell_angle_beta   90.00000000
_cell_angle_gamma   89.65375558
_symmetry_Int_Tables_number   1
_chemical_formula_structural   ZnFeIr2(RhO6)2
_chemical_formula_sum   'Zn1 Fe1 Ir2 Rh2 O12'
_cell_volume   197.06525839
_cell_formula_units_Z   1
loop_
 _symmetry_equiv_pos_site_id
 _symmetry_equiv_pos_as_xyz
  1  'x, y, z'
loop_
 _atom_site_type_symbol
 _atom_site_label
 _atom_site_symmetry_multiplicity
 _atom_site_fract_x
 _atom_site_fract_y
 _atom_site_fract_z
 _atom_site_occupancy
  Zn  Zn0  1  0.000000  0.000000  0.665902  1
  Fe  Fe1  1  0.500000  0.500000  0.166464  1
  Ir  Ir2  1  0.500000  0.500000  0.498743  1
  Ir  Ir3  1  0.000000  0.000000  0.998765  1
  Rh  Rh4  1  0.500000  0.500000  0.835995  1
  Rh  Rh5  1  0.000000  0.000000  0.334563  1
  O  O6  1  0.203154  0.796846  0.496013  1
  O  O7  1  0.796846  0.203154  0.496013  1
  O  O8  1  0.299231  0.299231  0.002117  1
  O  O9  1  0.700769  0.700769  0.002117  1
  O  O10  1  0.190843  0.809157  0.164440  1
  O  O11  1  0.809157  0.190843  0.164440  1
  O  O12  1  0.313992  0.313992  0.664886  1
  O  O13  1  0.686008  0.686008  0.664886  1
  O  O14  1  0.805421  0.194579  0.838688  1
  O  O15  1  0.194579  0.805421  0.838688  1
  O  O16  1  0.692610  0.692610  0.333641  1
  O  O17  1  0.307390  0.307390  0.333641  1
