# generated using pymatgen
data_Y11In9Co4
_symmetry_space_group_name_H-M   'P 1'
_cell_length_a   13.06560833
_cell_length_b   13.06560895
_cell_length_c   3.64325800
_cell_angle_alpha   90.00000000
_cell_angle_beta   90.00000000
_cell_angle_gamma   112.37898294
_symmetry_Int_Tables_number   1
_chemical_formula_structural   Y11In9Co4
_chemical_formula_sum   'Y11 In9 Co4'
_cell_volume   575.10002330
_cell_formula_units_Z   1
loop_
 _symmetry_equiv_pos_site_id
 _symmetry_equiv_pos_as_xyz
  1  'x, y, z'
loop_
 _atom_site_type_symbol
 _atom_site_label
 _atom_site_symmetry_multiplicity
 _atom_site_fract_x
 _atom_site_fract_y
 _atom_site_fract_z
 _atom_site_occupancy
  Y  Y0  1  0.081749  0.416958  0.000000  1
  Y  Y1  1  0.918251  0.583042  0.000000  1
  Y  Y2  1  0.416958  0.081749  0.000000  1
  Y  Y3  1  0.583042  0.918251  0.000000  1
  Y  Y4  1  0.624797  0.375203  0.000000  1
  Y  Y5  1  0.375203  0.624797  0.000000  1
  Y  Y6  1  0.838161  0.161839  0.000000  1
  Y  Y7  1  0.161839  0.838161  0.000000  1
  Y  Y8  1  0.000000  0.000000  0.000000  1
  Y  Y9  1  0.313012  0.313012  0.000000  1
  Y  Y10  1  0.686988  0.686988  0.000000  1
  In  In11  1  0.840580  0.369792  0.500000  1
  In  In12  1  0.159420  0.630208  0.500000  1
  In  In13  1  0.369792  0.840580  0.500000  1
  In  In14  1  0.630208  0.159420  0.500000  1
  In  In15  1  0.077574  0.219831  0.500000  1
  In  In16  1  0.922426  0.780169  0.500000  1
  In  In17  1  0.219831  0.077574  0.500000  1
  In  In18  1  0.780169  0.922426  0.500000  1
  In  In19  1  0.500000  0.500000  0.500000  1
  Co  Co20  1  0.245806  0.448213  0.500000  1
  Co  Co21  1  0.754194  0.551787  0.500000  1
  Co  Co22  1  0.448213  0.245806  0.500000  1
  Co  Co23  1  0.551787  0.754194  0.500000  1
