# generated using pymatgen
data_Rb6(PdO3)5
_symmetry_space_group_name_H-M   'P 1'
_cell_length_a   7.81289775
_cell_length_b   7.81343491
_cell_length_c   7.81328719
_cell_angle_alpha   89.43447221
_cell_angle_beta   89.43845643
_cell_angle_gamma   89.43075904
_symmetry_Int_Tables_number   1
_chemical_formula_structural   Rb6(PdO3)5
_chemical_formula_sum   'Rb6 Pd5 O15'
_cell_volume   476.89732878
_cell_formula_units_Z   1
loop_
 _symmetry_equiv_pos_site_id
 _symmetry_equiv_pos_as_xyz
  1  'x, y, z'
loop_
 _atom_site_type_symbol
 _atom_site_label
 _atom_site_symmetry_multiplicity
 _atom_site_fract_x
 _atom_site_fract_y
 _atom_site_fract_z
 _atom_site_occupancy
  Rb  Rb0  1  0.319657  0.680342  0.999715  1
  Rb  Rb1  1  0.999741  0.319633  0.680367  1
  Rb  Rb2  1  0.680341  0.999764  0.319702  1
  Rb  Rb3  1  0.144844  0.854979  0.500080  1
  Rb  Rb4  1  0.500078  0.144822  0.854967  1
  Rb  Rb5  1  0.854970  0.500058  0.144810  1
  Pd  Pd6  1  0.499940  0.499913  0.499898  1
  Pd  Pd7  1  0.299252  0.299280  0.299215  1
  Pd  Pd8  1  0.700808  0.700772  0.700786  1
  Pd  Pd9  1  0.099573  0.099616  0.099622  1
  Pd  Pd10  1  0.900582  0.900560  0.900597  1
  O  O11  1  0.136382  0.000000  0.863636  1
  O  O12  1  0.863601  0.136379  0.000018  1
  O  O13  1  0.000012  0.863642  0.136374  1
  O  O14  1  0.053157  0.219346  0.322955  1
  O  O15  1  0.322967  0.053172  0.219337  1
  O  O16  1  0.219311  0.322951  0.053185  1
  O  O17  1  0.780704  0.946721  0.676990  1
  O  O18  1  0.676989  0.780713  0.946711  1
  O  O19  1  0.946746  0.676980  0.780724  1
  O  O20  1  0.346892  0.299360  0.552606  1
  O  O21  1  0.552610  0.346887  0.299340  1
  O  O22  1  0.299345  0.552621  0.346879  1
  O  O23  1  0.700992  0.652947  0.447556  1
  O  O24  1  0.447527  0.701005  0.652959  1
  O  O25  1  0.652976  0.447538  0.700973  1
