# generated using pymatgen
data_Na4GaPPt4
_symmetry_space_group_name_H-M   'P 1'
_cell_length_a   5.59260698
_cell_length_b   5.59260519
_cell_length_c   7.43415732
_cell_angle_alpha   82.08729440
_cell_angle_beta   82.08729348
_cell_angle_gamma   65.29326261
_symmetry_Int_Tables_number   1
_chemical_formula_structural   Na4GaPPt4
_chemical_formula_sum   'Na4 Ga1 P1 Pt4'
_cell_volume   208.39253611
_cell_formula_units_Z   1
loop_
 _symmetry_equiv_pos_site_id
 _symmetry_equiv_pos_as_xyz
  1  'x, y, z'
loop_
 _atom_site_type_symbol
 _atom_site_label
 _atom_site_symmetry_multiplicity
 _atom_site_fract_x
 _atom_site_fract_y
 _atom_site_fract_z
 _atom_site_occupancy
  Na  Na0  1  0.765689  0.517724  0.362040  1
  Na  Na1  1  0.482276  0.234311  0.137960  1
  Na  Na2  1  0.227868  0.473006  0.644912  1
  Na  Na3  1  0.526994  0.772132  0.855088  1
  Ga  Ga4  1  0.938769  0.061231  0.750000  1
  P  P5  1  0.046222  0.953778  0.250000  1
  Pt  Pt6  1  0.012329  0.726713  0.026800  1
  Pt  Pt7  1  0.273287  0.987671  0.473200  1
  Pt  Pt8  1  0.998403  0.271836  0.008742  1
  Pt  Pt9  1  0.728164  0.001597  0.491258  1
