# generated using pymatgen
data_Np6As3Se5
_symmetry_space_group_name_H-M   'P 1'
_cell_length_a   7.50798492
_cell_length_b   7.50798593
_cell_length_c   7.50798500
_cell_angle_alpha   109.47324082
_cell_angle_beta   109.47323661
_cell_angle_gamma   109.47323929
_symmetry_Int_Tables_number   1
_chemical_formula_structural   Np6As3Se5
_chemical_formula_sum   'Np6 As3 Se5'
_cell_volume   325.77360257
_cell_formula_units_Z   1
loop_
 _symmetry_equiv_pos_site_id
 _symmetry_equiv_pos_as_xyz
  1  'x, y, z'
loop_
 _atom_site_type_symbol
 _atom_site_label
 _atom_site_symmetry_multiplicity
 _atom_site_fract_x
 _atom_site_fract_y
 _atom_site_fract_z
 _atom_site_occupancy
  Np  Np0  1  0.252956  0.120279  0.867667  1
  Np  Np1  1  0.120279  0.867667  0.252956  1
  Np  Np2  1  0.749407  0.375642  0.628126  1
  Np  Np3  1  0.867667  0.252956  0.120279  1
  Np  Np4  1  0.628126  0.749407  0.375642  1
  Np  Np5  1  0.375642  0.628126  0.749407  1
  As  As6  1  0.500451  0.999444  0.655104  1
  As  As7  1  0.999444  0.655104  0.500451  1
  As  As8  1  0.655104  0.500451  0.999444  1
  Se  Se9  1  0.000619  0.154871  0.499932  1
  Se  Se10  1  0.848273  0.848273  0.848273  1
  Se  Se11  1  0.347228  0.347228  0.347228  1
  Se  Se12  1  0.154871  0.499932  0.000619  1
  Se  Se13  1  0.499932  0.000619  0.154871  1
