# generated using pymatgen
data_Tb3Lu7(InSb2)2
_symmetry_space_group_name_H-M   'P 1'
_cell_length_a   6.37539901
_cell_length_b   8.82920743
_cell_length_c   8.87018103
_cell_angle_alpha   119.89916342
_cell_angle_beta   90.00030056
_cell_angle_gamma   90.00023326
_symmetry_Int_Tables_number   1
_chemical_formula_structural   Tb3Lu7(InSb2)2
_chemical_formula_sum   'Tb3 Lu7 In2 Sb4'
_cell_volume   432.84518917
_cell_formula_units_Z   1
loop_
 _symmetry_equiv_pos_site_id
 _symmetry_equiv_pos_as_xyz
  1  'x, y, z'
loop_
 _atom_site_type_symbol
 _atom_site_label
 _atom_site_symmetry_multiplicity
 _atom_site_fract_x
 _atom_site_fract_y
 _atom_site_fract_z
 _atom_site_occupancy
  Tb  Tb0  1  0.750005  0.240388  0.000364  1
  Tb  Tb1  1  0.750017  0.760404  0.758004  1
  Tb  Tb2  1  0.250018  0.762140  0.000179  1
  Lu  Lu3  1  0.500488  0.333078  0.664548  1
  Lu  Lu4  1  0.500295  0.669003  0.336016  1
  Lu  Lu5  1  0.999700  0.669006  0.336014  1
  Lu  Lu6  1  0.999498  0.333080  0.664550  1
  Lu  Lu7  1  0.749999  0.002396  0.242497  1
  Lu  Lu8  1  0.249992  0.236805  0.242129  1
  Lu  Lu9  1  0.250006  0.994733  0.756986  1
  In  In10  1  0.249995  0.604458  0.603246  1
  In  In11  1  0.249999  0.001485  0.397238  1
  Sb  Sb12  1  0.749991  0.609249  0.002302  1
  Sb  Sb13  1  0.750005  0.391982  0.392441  1
  Sb  Sb14  1  0.749997  0.002501  0.603757  1
  Sb  Sb15  1  0.249999  0.389293  0.999729  1
