# generated using pymatgen
data_DyEr7(PI6)2
_symmetry_space_group_name_H-M   'P 1'
_cell_length_a   4.14243500
_cell_length_b   13.75958713
_cell_length_c   14.51292000
_cell_angle_alpha   90.04441389
_cell_angle_beta   90.00000000
_cell_angle_gamma   90.00000000
_symmetry_Int_Tables_number   1
_chemical_formula_structural   DyEr7(PI6)2
_chemical_formula_sum   'Dy1 Er7 P2 I12'
_cell_volume   827.21000043
_cell_formula_units_Z   1
loop_
 _symmetry_equiv_pos_site_id
 _symmetry_equiv_pos_as_xyz
  1  'x, y, z'
loop_
 _atom_site_type_symbol
 _atom_site_label
 _atom_site_symmetry_multiplicity
 _atom_site_fract_x
 _atom_site_fract_y
 _atom_site_fract_z
 _atom_site_occupancy
  Dy  Dy0  1  0.000000  0.392363  0.072334  1
  Er  Er1  1  0.500000  0.112723  0.350787  1
  Er  Er2  1  0.500000  0.887396  0.648951  1
  Er  Er3  1  0.500000  0.612898  0.149474  1
  Er  Er4  1  0.500000  0.387073  0.850711  1
  Er  Er5  1  0.000000  0.106776  0.571774  1
  Er  Er6  1  0.000000  0.893137  0.428350  1
  Er  Er7  1  0.000000  0.607756  0.927602  1
  P  P8  1  0.500000  0.000083  0.499915  1
  P  P9  1  0.500000  0.501338  0.999173  1
  I  I10  1  0.500000  0.244930  0.163217  1
  I  I11  1  0.500000  0.753200  0.837832  1
  I  I12  1  0.500000  0.747471  0.338264  1
  I  I13  1  0.500000  0.252700  0.661605  1
  I  I14  1  0.000000  0.259278  0.415963  1
  I  I15  1  0.000000  0.740628  0.584143  1
  I  I16  1  0.000000  0.759545  0.084242  1
  I  I17  1  0.000000  0.239801  0.914332  1
  I  I18  1  0.000000  0.999056  0.240776  1
  I  I19  1  0.000000  0.000598  0.759311  1
  I  I20  1  0.000000  0.500671  0.260814  1
  I  I21  1  0.000000  0.500581  0.740431  1
