# generated using pymatgen
data_YbPr7Sc12Si15Ag
_symmetry_space_group_name_H-M   'P 1'
_cell_length_a   7.28261360
_cell_length_b   7.52169725
_cell_length_c   14.35157079
_cell_angle_alpha   90.08700276
_cell_angle_beta   89.83605929
_cell_angle_gamma   90.18571520
_symmetry_Int_Tables_number   1
_chemical_formula_structural   YbPr7Sc12Si15Ag
_chemical_formula_sum   'Yb1 Pr7 Sc12 Si15 Ag1'
_cell_volume   786.13657180
_cell_formula_units_Z   1
loop_
 _symmetry_equiv_pos_site_id
 _symmetry_equiv_pos_as_xyz
  1  'x, y, z'
loop_
 _atom_site_type_symbol
 _atom_site_label
 _atom_site_symmetry_multiplicity
 _atom_site_fract_x
 _atom_site_fract_y
 _atom_site_fract_z
 _atom_site_occupancy
  Yb  Yb0  1  0.007589  0.173376  0.400115  1
  Pr  Pr1  1  0.513553  0.325069  0.399215  1
  Pr  Pr2  1  0.486896  0.672794  0.902685  1
  Pr  Pr3  1  0.492466  0.673242  0.600887  1
  Pr  Pr4  1  0.989394  0.833148  0.597085  1
  Pr  Pr5  1  0.987791  0.829078  0.902844  1
  Pr  Pr6  1  0.513450  0.327078  0.097630  1
  Pr  Pr7  1  0.012932  0.172449  0.096691  1
  Sc  Sc8  1  0.342771  0.170870  0.628152  1
  Sc  Sc9  1  0.667443  0.825705  0.373621  1
  Sc  Sc10  1  0.665004  0.000250  0.752004  1
  Sc  Sc11  1  0.166936  0.676114  0.371336  1
  Sc  Sc12  1  0.830357  0.322661  0.876132  1
  Sc  Sc13  1  0.821956  0.325455  0.624584  1
  Sc  Sc14  1  0.840153  0.501487  0.251502  1
  Sc  Sc15  1  0.337884  0.998258  0.249491  1
  Sc  Sc16  1  0.327508  0.173928  0.875963  1
  Sc  Sc17  1  0.168419  0.676802  0.125195  1
  Sc  Sc18  1  0.672109  0.825479  0.124842  1
  Sc  Sc19  1  0.161596  0.495870  0.753505  1
  Si  Si20  1  0.287169  0.882300  0.750940  1
  Si  Si21  1  0.465395  0.624805  0.247977  1
  Si  Si22  1  0.035187  0.129849  0.749121  1
  Si  Si23  1  0.535980  0.376400  0.752617  1
  Si  Si24  1  0.964730  0.876413  0.248996  1
  Si  Si25  1  0.711875  0.117525  0.248564  1
  Si  Si26  1  0.849430  0.537768  0.039352  1
  Si  Si27  1  0.348805  0.962385  0.040133  1
  Si  Si28  1  0.149610  0.463003  0.961242  1
  Si  Si29  1  0.650296  0.035602  0.539198  1
  Si  Si30  1  0.346869  0.960185  0.461568  1
  Si  Si31  1  0.839722  0.543755  0.457659  1
  Si  Si32  1  0.791626  0.617536  0.751428  1
  Si  Si33  1  0.212927  0.382779  0.248561  1
  Si  Si34  1  0.650918  0.036607  0.960268  1
  Ag  Ag35  1  0.153252  0.453978  0.538897  1
