# generated using pymatgen
data_Sm8Ho12Sn7Pb9
_symmetry_space_group_name_H-M   'P 1'
_cell_length_a   8.14461468
_cell_length_b   8.28468472
_cell_length_c   15.63453000
_cell_angle_alpha   90.00000000
_cell_angle_beta   90.00000000
_cell_angle_gamma   90.09292593
_symmetry_Int_Tables_number   1
_chemical_formula_structural   Sm8Ho12Sn7Pb9
_chemical_formula_sum   'Sm8 Ho12 Sn7 Pb9'
_cell_volume   1054.94735474
_cell_formula_units_Z   1
loop_
 _symmetry_equiv_pos_site_id
 _symmetry_equiv_pos_as_xyz
  1  'x, y, z'
loop_
 _atom_site_type_symbol
 _atom_site_label
 _atom_site_symmetry_multiplicity
 _atom_site_fract_x
 _atom_site_fract_y
 _atom_site_fract_z
 _atom_site_occupancy
  Sm  Sm0  1  0.519923  0.319591  0.900757  1
  Sm  Sm1  1  0.020038  0.178753  0.599677  1
  Sm  Sm2  1  0.480170  0.678924  0.400141  1
  Sm  Sm3  1  0.980049  0.821059  0.099861  1
  Sm  Sm4  1  0.480170  0.678924  0.099859  1
  Sm  Sm5  1  0.980049  0.821059  0.400139  1
  Sm  Sm6  1  0.519923  0.319591  0.599243  1
  Sm  Sm7  1  0.020038  0.178753  0.900323  1
  Ho  Ho8  1  0.364127  0.838041  0.876919  1
  Ho  Ho9  1  0.867345  0.663881  0.623606  1
  Ho  Ho10  1  0.634255  0.163716  0.375876  1
  Ho  Ho11  1  0.134167  0.336274  0.124113  1
  Ho  Ho12  1  0.634255  0.163716  0.124124  1
  Ho  Ho13  1  0.134167  0.336274  0.375887  1
  Ho  Ho14  1  0.364127  0.838041  0.623081  1
  Ho  Ho15  1  0.867345  0.663881  0.876394  1
  Ho  Ho16  1  0.195173  0.502108  0.750000  1
  Ho  Ho17  1  0.698386  0.999055  0.750000  1
  Ho  Ho18  1  0.802341  0.497073  0.250000  1
  Ho  Ho19  1  0.302372  0.003074  0.250000  1
  Sn  Sn20  1  0.063366  0.877482  0.750000  1
  Sn  Sn21  1  0.436616  0.377410  0.250000  1
  Sn  Sn22  1  0.936492  0.122472  0.250000  1
  Sn  Sn23  1  0.328079  0.144827  0.750000  1
  Sn  Sn24  1  0.829930  0.353251  0.750000  1
  Sn  Sn25  1  0.672428  0.855257  0.250000  1
  Sn  Sn26  1  0.172287  0.644770  0.250000  1
  Pb  Pb27  1  0.295201  0.038076  0.041748  1
  Pb  Pb28  1  0.795206  0.462126  0.458424  1
  Pb  Pb29  1  0.704798  0.962040  0.541657  1
  Pb  Pb30  1  0.204889  0.537764  0.958404  1
  Pb  Pb31  1  0.704798  0.962040  0.958343  1
  Pb  Pb32  1  0.204889  0.537764  0.541596  1
  Pb  Pb33  1  0.295201  0.038076  0.458252  1
  Pb  Pb34  1  0.795206  0.462126  0.041576  1
  Pb  Pb35  1  0.562196  0.622731  0.750000  1
