# generated using pymatgen
data_Dy6Tm2VOs3C8
_symmetry_space_group_name_H-M   'P 1'
_cell_length_a   5.08188300
_cell_length_b   6.52237314
_cell_length_c   9.75514338
_cell_angle_alpha   89.85681179
_cell_angle_beta   90.00000000
_cell_angle_gamma   90.00000000
_symmetry_Int_Tables_number   1
_chemical_formula_structural   Dy6Tm2VOs3C8
_chemical_formula_sum   'Dy6 Tm2 V1 Os3 C8'
_cell_volume   323.34235989
_cell_formula_units_Z   1
loop_
 _symmetry_equiv_pos_site_id
 _symmetry_equiv_pos_as_xyz
  1  'x, y, z'
loop_
 _atom_site_type_symbol
 _atom_site_label
 _atom_site_symmetry_multiplicity
 _atom_site_fract_x
 _atom_site_fract_y
 _atom_site_fract_z
 _atom_site_occupancy
  Dy  Dy0  1  0.250000  0.682977  0.556646  1
  Dy  Dy1  1  0.250000  0.175745  0.943666  1
  Dy  Dy2  1  0.250000  0.532452  0.210705  1
  Dy  Dy3  1  0.750000  0.466897  0.780994  1
  Dy  Dy4  1  0.750000  0.972647  0.715478  1
  Dy  Dy5  1  0.250000  0.029314  0.285598  1
  Tm  Tm6  1  0.750000  0.324637  0.443670  1
  Tm  Tm7  1  0.750000  0.822841  0.056108  1
  V  V8  1  0.250000  0.723627  0.866541  1
  Os  Os9  1  0.750000  0.277044  0.135400  1
  Os  Os10  1  0.750000  0.776349  0.364190  1
  Os  Os11  1  0.250000  0.225800  0.634396  1
  C  C12  1  0.250000  0.459306  0.761738  1
  C  C13  1  0.750000  0.542756  0.241413  1
  C  C14  1  0.750000  0.043067  0.260177  1
  C  C15  1  0.250000  0.956338  0.741281  1
  C  C16  1  0.250000  0.820516  0.051327  1
  C  C17  1  0.750000  0.171222  0.951623  1
  C  C18  1  0.750000  0.672988  0.550572  1
  C  C19  1  0.250000  0.323478  0.448478  1
