# generated using pymatgen
data_ZrNp(FeB4)2
_symmetry_space_group_name_H-M   'P 1'
_cell_length_a   5.85704960
_cell_length_b   11.34073627
_cell_length_c   3.30645800
_cell_angle_alpha   90.00000000
_cell_angle_beta   90.00000000
_cell_angle_gamma   90.28225959
_symmetry_Int_Tables_number   1
_chemical_formula_structural   ZrNp(FeB4)2
_chemical_formula_sum   'Zr2 Np2 Fe4 B16'
_cell_volume   219.62303754
_cell_formula_units_Z   2
loop_
 _symmetry_equiv_pos_site_id
 _symmetry_equiv_pos_as_xyz
  1  'x, y, z'
loop_
 _atom_site_type_symbol
 _atom_site_label
 _atom_site_symmetry_multiplicity
 _atom_site_fract_x
 _atom_site_fract_y
 _atom_site_fract_z
 _atom_site_occupancy
  Zr  Zr0  1  0.625919  0.352392  0.000000  1
  Zr  Zr1  1  0.374081  0.647608  0.000000  1
  Np  Np2  1  0.127617  0.151920  0.000000  1
  Np  Np3  1  0.872383  0.848080  0.000000  1
  Fe  Fe4  1  0.632182  0.089996  0.000000  1
  Fe  Fe5  1  0.367818  0.910004  0.000000  1
  Fe  Fe6  1  0.132555  0.412000  0.000000  1
  Fe  Fe7  1  0.867445  0.588000  0.000000  1
  B  B8  1  0.782847  0.187326  0.500000  1
  B  B9  1  0.217153  0.812674  0.500000  1
  B  B10  1  0.286266  0.315333  0.500000  1
  B  B11  1  0.713734  0.684667  0.500000  1
  B  B12  1  0.862294  0.033236  0.500000  1
  B  B13  1  0.137706  0.966763  0.500000  1
  B  B14  1  0.365530  0.467466  0.500000  1
  B  B15  1  0.634470  0.532535  0.500000  1
  B  B16  1  0.885191  0.454048  0.500000  1
  B  B17  1  0.114809  0.545952  0.500000  1
  B  B18  1  0.388158  0.046849  0.500000  1
  B  B19  1  0.611842  0.953151  0.500000  1
  B  B20  1  0.972682  0.310033  0.500000  1
  B  B21  1  0.027318  0.689967  0.500000  1
  B  B22  1  0.476216  0.193939  0.500000  1
  B  B23  1  0.523784  0.806061  0.500000  1
