# generated using pymatgen
data_DyLu(Re2Si)4
_symmetry_space_group_name_H-M   'P 1'
_cell_length_a   7.40684824
_cell_length_b   7.40684712
_cell_length_c   4.13439600
_cell_angle_alpha   90.00000000
_cell_angle_beta   90.00000000
_cell_angle_gamma   90.63691590
_symmetry_Int_Tables_number   1
_chemical_formula_structural   DyLu(Re2Si)4
_chemical_formula_sum   'Dy1 Lu1 Re8 Si4'
_cell_volume   226.80470760
_cell_formula_units_Z   1
loop_
 _symmetry_equiv_pos_site_id
 _symmetry_equiv_pos_as_xyz
  1  'x, y, z'
loop_
 _atom_site_type_symbol
 _atom_site_label
 _atom_site_symmetry_multiplicity
 _atom_site_fract_x
 _atom_site_fract_y
 _atom_site_fract_z
 _atom_site_occupancy
  Dy  Dy0  1  0.000000  0.000000  0.500000  1
  Lu  Lu1  1  0.500000  0.500000  0.000000  1
  Re  Re2  1  0.656552  0.903566  0.000000  1
  Re  Re3  1  0.160701  0.591156  0.500000  1
  Re  Re4  1  0.096434  0.343448  0.000000  1
  Re  Re5  1  0.903566  0.656552  0.000000  1
  Re  Re6  1  0.408844  0.839299  0.500000  1
  Re  Re7  1  0.591156  0.160701  0.500000  1
  Re  Re8  1  0.343448  0.096434  0.000000  1
  Re  Re9  1  0.839299  0.408844  0.500000  1
  Si  Si10  1  0.209972  0.790028  0.000000  1
  Si  Si11  1  0.790028  0.209972  0.000000  1
  Si  Si12  1  0.706650  0.706650  0.500000  1
  Si  Si13  1  0.293350  0.293350  0.500000  1
