# generated using pymatgen
data_La5MgGeRu3
_symmetry_space_group_name_H-M   'P 1'
_cell_length_a   8.68200631
_cell_length_b   8.68200571
_cell_length_c   8.68033991
_cell_angle_alpha   109.69408712
_cell_angle_beta   109.33230040
_cell_angle_gamma   109.39529529
_symmetry_Int_Tables_number   1
_chemical_formula_structural   La5MgGeRu3
_chemical_formula_sum   'La10 Mg2 Ge2 Ru6'
_cell_volume   503.62618052
_cell_formula_units_Z   2
loop_
 _symmetry_equiv_pos_site_id
 _symmetry_equiv_pos_as_xyz
  1  'x, y, z'
loop_
 _atom_site_type_symbol
 _atom_site_label
 _atom_site_symmetry_multiplicity
 _atom_site_fract_x
 _atom_site_fract_y
 _atom_site_fract_z
 _atom_site_occupancy
  La  La0  1  0.265271  0.698139  0.445659  1
  La  La1  1  0.752482  0.819613  0.054342  1
  La  La2  1  0.441500  0.248168  0.685007  1
  La  La3  1  0.679024  0.429025  0.250000  1
  La  La4  1  0.063161  0.756492  0.814993  1
  La  La5  1  0.798241  0.048241  0.750000  1
  La  La6  1  0.219232  0.221574  0.220595  1
  La  La7  1  0.500980  0.998637  0.279405  1
  La  La8  1  0.292195  0.498682  0.996775  1
  La  La9  1  0.001906  0.295420  0.503226  1
  Mg  Mg10  1  0.915238  0.501196  0.004820  1
  Mg  Mg11  1  0.996375  0.910418  0.495181  1
  Ge  Ge12  1  0.496790  0.999805  0.903738  1
  Ge  Ge13  1  0.596067  0.593052  0.596262  1
  Ru  Ru14  1  0.256675  0.118166  0.885862  1
  Ru  Ru15  1  0.732305  0.370811  0.614137  1
  Ru  Ru16  1  0.858075  0.239772  0.131148  1
  Ru  Ru17  1  0.138413  0.888413  0.250001  1
  Ru  Ru18  1  0.608622  0.726926  0.368851  1
  Ru  Ru19  1  0.387450  0.637450  0.750000  1
