# generated using pymatgen
data_YbBPO5
_symmetry_space_group_name_H-M   'P 1'
_cell_length_a   6.62423300
_cell_length_b   6.62423357
_cell_length_c   6.70425500
_cell_angle_alpha   90.00000000
_cell_angle_beta   90.00000000
_cell_angle_gamma   119.99999218
_symmetry_Int_Tables_number   1
_chemical_formula_structural   YbBPO5
_chemical_formula_sum   'Yb3 B3 P3 O15'
_cell_volume   254.77242877
_cell_formula_units_Z   3
loop_
 _symmetry_equiv_pos_site_id
 _symmetry_equiv_pos_as_xyz
  1  'x, y, z'
loop_
 _atom_site_type_symbol
 _atom_site_label
 _atom_site_symmetry_multiplicity
 _atom_site_fract_x
 _atom_site_fract_y
 _atom_site_fract_z
 _atom_site_occupancy
  Yb  Yb0  1  0.000000  0.598900  0.166667  1
  Yb  Yb1  1  0.598900  0.000000  0.833333  1
  Yb  Yb2  1  0.401100  0.401100  0.500000  1
  B  B3  1  0.896681  0.896681  0.500000  1
  B  B4  1  0.000000  0.103319  0.166667  1
  B  B5  1  0.103319  0.000000  0.833333  1
  P  P6  1  0.000000  0.578402  0.666667  1
  P  P7  1  0.578402  0.000000  0.333333  1
  P  P8  1  0.421598  0.421598  0.000000  1
  O  O9  1  0.000000  0.048863  0.666667  1
  O  O10  1  0.951137  0.951137  0.000000  1
  O  O11  1  0.048863  0.000000  0.333333  1
  O  O12  1  0.469604  0.605906  0.843951  1
  O  O13  1  0.394094  0.863699  0.177284  1
  O  O14  1  0.136301  0.530396  0.510617  1
  O  O15  1  0.353876  0.193309  0.872437  1
  O  O16  1  0.806691  0.160567  0.205770  1
  O  O17  1  0.839433  0.646124  0.539104  1
  O  O18  1  0.160567  0.806691  0.794230  1
  O  O19  1  0.646124  0.839433  0.460896  1
  O  O20  1  0.193309  0.353876  0.127563  1
  O  O21  1  0.605906  0.469604  0.156049  1
  O  O22  1  0.530396  0.136301  0.489383  1
  O  O23  1  0.863699  0.394094  0.822716  1
