# generated using pymatgen
data_Yb2ThSi6(Pd4Pt)4
_symmetry_space_group_name_H-M   'P 1'
_cell_length_a   8.73842696
_cell_length_b   8.74493522
_cell_length_c   8.74493408
_cell_angle_alpha   59.87802921
_cell_angle_beta   59.81754157
_cell_angle_gamma   59.81754063
_symmetry_Int_Tables_number   1
_chemical_formula_structural   Yb2ThSi6(Pd4Pt)4
_chemical_formula_sum   'Yb2 Th1 Si6 Pd16 Pt4'
_cell_volume   470.79131371
_cell_formula_units_Z   1
loop_
 _symmetry_equiv_pos_site_id
 _symmetry_equiv_pos_as_xyz
  1  'x, y, z'
loop_
 _atom_site_type_symbol
 _atom_site_label
 _atom_site_symmetry_multiplicity
 _atom_site_fract_x
 _atom_site_fract_y
 _atom_site_fract_z
 _atom_site_occupancy
  Yb  Yb0  1  0.750075  0.750380  0.750380  1
  Yb  Yb1  1  0.999912  0.999987  0.999987  1
  Th  Th2  1  0.249038  0.250444  0.250444  1
  Si  Si3  1  0.732437  0.266725  0.266725  1
  Si  Si4  1  0.268914  0.731867  0.731867  1
  Si  Si5  1  0.267718  0.732303  0.267256  1
  Si  Si6  1  0.731912  0.268100  0.733102  1
  Si  Si7  1  0.267718  0.267256  0.732303  1
  Si  Si8  1  0.731912  0.733102  0.268100  1
  Pd  Pd9  1  0.619246  0.616063  0.149061  1
  Pd  Pd10  1  0.619246  0.149061  0.616063  1
  Pd  Pd11  1  0.847724  0.383050  0.383050  1
  Pd  Pd12  1  0.148199  0.617437  0.617437  1
  Pd  Pd13  1  0.343576  0.001255  0.001255  1
  Pd  Pd14  1  0.653740  0.001515  0.001515  1
  Pd  Pd15  1  0.000356  0.344324  0.654729  1
  Pd  Pd16  1  0.000356  0.654729  0.344324  1
  Pd  Pd17  1  0.000397  0.344329  0.001599  1
  Pd  Pd18  1  0.654249  0.001292  0.343995  1
  Pd  Pd19  1  0.000445  0.654136  0.001707  1
  Pd  Pd20  1  0.343601  0.001131  0.654932  1
  Pd  Pd21  1  0.000397  0.001599  0.344329  1
  Pd  Pd22  1  0.000445  0.001707  0.654136  1
  Pd  Pd23  1  0.654249  0.343995  0.001292  1
  Pd  Pd24  1  0.343601  0.654932  0.001131  1
  Pt  Pt25  1  0.385224  0.385172  0.385172  1
  Pt  Pt26  1  0.618098  0.614755  0.614755  1
  Pt  Pt27  1  0.383605  0.383764  0.845586  1
  Pt  Pt28  1  0.383605  0.845586  0.383764  1
