# generated using pymatgen
data_Hf5Zr5Zn2SnSb5
_symmetry_space_group_name_H-M   'P 1'
_cell_length_a   8.64246100
_cell_length_b   8.65225717
_cell_length_c   5.81552200
_cell_angle_alpha   90.00000000
_cell_angle_beta   90.00000000
_cell_angle_gamma   119.96255768
_symmetry_Int_Tables_number   1
_chemical_formula_structural   Hf5Zr5Zn2SnSb5
_chemical_formula_sum   'Hf5 Zr5 Zn2 Sn1 Sb5'
_cell_volume   376.74709787
_cell_formula_units_Z   1
loop_
 _symmetry_equiv_pos_site_id
 _symmetry_equiv_pos_as_xyz
  1  'x, y, z'
loop_
 _atom_site_type_symbol
 _atom_site_label
 _atom_site_symmetry_multiplicity
 _atom_site_fract_x
 _atom_site_fract_y
 _atom_site_fract_z
 _atom_site_occupancy
  Hf  Hf0  1  0.269375  0.000000  0.250000  1
  Hf  Hf1  1  0.333104  0.666479  0.500193  1
  Hf  Hf2  1  0.666626  0.333521  0.999807  1
  Hf  Hf3  1  0.666626  0.333521  0.500193  1
  Hf  Hf4  1  0.333104  0.666479  0.999807  1
  Zr  Zr5  1  0.729847  0.729806  0.250000  1
  Zr  Zr6  1  0.730509  0.000000  0.750000  1
  Zr  Zr7  1  0.000040  0.270194  0.250000  1
  Zr  Zr8  1  0.999953  0.729567  0.750000  1
  Zr  Zr9  1  0.270386  0.270433  0.750000  1
  Zn  Zn10  1  0.001143  0.000000  0.000315  1
  Zn  Zn11  1  0.001143  0.000000  0.499685  1
  Sn  Sn12  1  0.384509  0.000000  0.750000  1
  Sb  Sb13  1  0.385437  0.384440  0.250000  1
  Sb  Sb14  1  0.000996  0.615560  0.250000  1
  Sb  Sb15  1  0.999951  0.385477  0.750000  1
  Sb  Sb16  1  0.614473  0.614523  0.750000  1
  Sb  Sb17  1  0.612783  0.000000  0.250000  1
