# generated using pymatgen
data_Lu6B4Ir9Rh
_symmetry_space_group_name_H-M   'P 1'
_cell_length_a   9.77592503
_cell_length_b   9.77592538
_cell_length_c   3.19363600
_cell_angle_alpha   90.00000000
_cell_angle_beta   90.00000000
_cell_angle_gamma   90.31318978
_symmetry_Int_Tables_number   1
_chemical_formula_structural   Lu6B4Ir9Rh
_chemical_formula_sum   'Lu6 B4 Ir9 Rh1'
_cell_volume   305.20712445
_cell_formula_units_Z   1
loop_
 _symmetry_equiv_pos_site_id
 _symmetry_equiv_pos_as_xyz
  1  'x, y, z'
loop_
 _atom_site_type_symbol
 _atom_site_label
 _atom_site_symmetry_multiplicity
 _atom_site_fract_x
 _atom_site_fract_y
 _atom_site_fract_z
 _atom_site_occupancy
  Lu  Lu0  1  0.824669  0.324669  0.000000  1
  Lu  Lu1  1  0.324045  0.175955  0.000000  1
  Lu  Lu2  1  0.675955  0.824045  0.000000  1
  Lu  Lu3  1  0.175331  0.675331  0.000000  1
  Lu  Lu4  1  0.000000  0.000000  0.000000  1
  Lu  Lu5  1  0.500000  0.500000  0.000000  1
  B  B6  1  0.619077  0.119077  0.000000  1
  B  B7  1  0.120779  0.379221  0.000000  1
  B  B8  1  0.879221  0.620779  0.000000  1
  B  B9  1  0.380923  0.880923  0.000000  1
  Ir  Ir10  1  0.069391  0.228931  0.500000  1
  Ir  Ir11  1  0.227653  0.928472  0.500000  1
  Ir  Ir12  1  0.772347  0.071528  0.500000  1
  Ir  Ir13  1  0.930609  0.771069  0.500000  1
  Ir  Ir14  1  0.428472  0.727653  0.500000  1
  Ir  Ir15  1  0.571528  0.272347  0.500000  1
  Ir  Ir16  1  0.728931  0.569391  0.500000  1
  Ir  Ir17  1  0.271069  0.430609  0.500000  1
  Ir  Ir18  1  0.500000  0.000000  0.500000  1
  Rh  Rh19  1  0.000000  0.500000  0.500000  1
