# generated using pymatgen
data_Ba2Si3Hg
_symmetry_space_group_name_H-M   'P 1'
_cell_length_a   12.48700389
_cell_length_b   10.87550055
_cell_length_c   8.67036500
_cell_angle_alpha   78.52237018
_cell_angle_beta   58.59757713
_cell_angle_gamma   42.88005493
_symmetry_Int_Tables_number   1
_chemical_formula_structural   Ba2Si3Hg
_chemical_formula_sum   'Ba8 Si12 Hg4'
_cell_volume   649.09774660
_cell_formula_units_Z   4
loop_
 _symmetry_equiv_pos_site_id
 _symmetry_equiv_pos_as_xyz
  1  'x, y, z'
loop_
 _atom_site_type_symbol
 _atom_site_label
 _atom_site_symmetry_multiplicity
 _atom_site_fract_x
 _atom_site_fract_y
 _atom_site_fract_z
 _atom_site_occupancy
  Ba  Ba0  1  0.125807  0.125807  0.374193  1
  Ba  Ba1  1  0.875807  0.875807  0.124193  1
  Ba  Ba2  1  0.124193  0.124193  0.875807  1
  Ba  Ba3  1  0.374193  0.374193  0.125807  1
  Ba  Ba4  1  0.623182  0.623182  0.376818  1
  Ba  Ba5  1  0.376818  0.376818  0.623182  1
  Ba  Ba6  1  0.626818  0.626818  0.873182  1
  Ba  Ba7  1  0.873182  0.873182  0.626818  1
  Si  Si8  1  0.338589  0.654894  0.819711  1
  Si  Si9  1  0.186805  0.819711  0.654894  1
  Si  Si10  1  0.819711  0.186805  0.338589  1
  Si  Si11  1  0.654894  0.338589  0.186805  1
  Si  Si12  1  0.911411  0.595106  0.430289  1
  Si  Si13  1  0.063195  0.430289  0.595106  1
  Si  Si14  1  0.430289  0.063195  0.911411  1
  Si  Si15  1  0.909174  0.590826  0.909174  1
  Si  Si16  1  0.659174  0.340826  0.659174  1
  Si  Si17  1  0.340826  0.659174  0.340826  1
  Si  Si18  1  0.590826  0.909174  0.590826  1
  Si  Si19  1  0.595106  0.911411  0.063195  1
  Hg  Hg20  1  0.082517  0.417483  0.082517  1
  Hg  Hg21  1  0.167483  0.832517  0.167483  1
  Hg  Hg22  1  0.417483  0.082517  0.417483  1
  Hg  Hg23  1  0.832517  0.167483  0.832517  1
