# generated using pymatgen
data_Yb3Lu(MnB4)4
_symmetry_space_group_name_H-M   'P 1'
_cell_length_a   3.35971800
_cell_length_b   5.88637407
_cell_length_c   11.38568213
_cell_angle_alpha   90.01728386
_cell_angle_beta   90.00000000
_cell_angle_gamma   90.00000000
_symmetry_Int_Tables_number   1
_chemical_formula_structural   Yb3Lu(MnB4)4
_chemical_formula_sum   'Yb3 Lu1 Mn4 B16'
_cell_volume   225.16958032
_cell_formula_units_Z   1
loop_
 _symmetry_equiv_pos_site_id
 _symmetry_equiv_pos_as_xyz
  1  'x, y, z'
loop_
 _atom_site_type_symbol
 _atom_site_label
 _atom_site_symmetry_multiplicity
 _atom_site_fract_x
 _atom_site_fract_y
 _atom_site_fract_z
 _atom_site_occupancy
  Yb  Yb0  1  0.500000  0.625607  0.848898  1
  Yb  Yb1  1  0.500000  0.125415  0.651218  1
  Yb  Yb2  1  0.500000  0.875045  0.349060  1
  Lu  Lu3  1  0.500000  0.374134  0.150902  1
  Mn  Mn4  1  0.500000  0.376767  0.418212  1
  Mn  Mn5  1  0.500000  0.623762  0.579639  1
  Mn  Mn6  1  0.500000  0.123749  0.921784  1
  Mn  Mn7  1  0.500000  0.877453  0.080907  1
  B  B8  1  0.000000  0.113429  0.047770  1
  B  B9  1  0.000000  0.887407  0.954052  1
  B  B10  1  0.000000  0.385764  0.545815  1
  B  B11  1  0.000000  0.612689  0.452101  1
  B  B12  1  0.000000  0.137747  0.466617  1
  B  B13  1  0.000000  0.862218  0.532067  1
  B  B14  1  0.000000  0.361978  0.968242  1
  B  B15  1  0.000000  0.637970  0.033223  1
  B  B16  1  0.000000  0.025454  0.191475  1
  B  B17  1  0.000000  0.976531  0.809876  1
  B  B18  1  0.000000  0.475132  0.690753  1
  B  B19  1  0.000000  0.523931  0.307676  1
  B  B20  1  0.000000  0.220011  0.315978  1
  B  B21  1  0.000000  0.779868  0.683126  1
  B  B22  1  0.000000  0.278465  0.817556  1
  B  B23  1  0.000000  0.719474  0.183052  1
