# generated using pymatgen
data_Dy5Er3As3P9Ir16
_symmetry_space_group_name_H-M   'P 1'
_cell_length_a   13.11774300
_cell_length_b   13.11774439
_cell_length_c   4.00510800
_cell_angle_alpha   90.00000000
_cell_angle_beta   90.00000000
_cell_angle_gamma   119.99999900
_symmetry_Int_Tables_number   1
_chemical_formula_structural   Dy5Er3As3P9Ir16
_chemical_formula_sum   'Dy5 Er3 As3 P9 Ir16'
_cell_volume   596.84718501
_cell_formula_units_Z   1
loop_
 _symmetry_equiv_pos_site_id
 _symmetry_equiv_pos_as_xyz
  1  'x, y, z'
loop_
 _atom_site_type_symbol
 _atom_site_label
 _atom_site_symmetry_multiplicity
 _atom_site_fract_x
 _atom_site_fract_y
 _atom_site_fract_z
 _atom_site_occupancy
  Dy  Dy0  1  0.333333  0.666667  0.500000  1
  Dy  Dy1  1  0.666667  0.333333  0.500000  1
  Dy  Dy2  1  0.000000  0.816967  0.000000  1
  Dy  Dy3  1  0.183033  0.183033  0.000000  1
  Dy  Dy4  1  0.816967  0.000000  0.000000  1
  Er  Er5  1  0.000000  0.444276  0.500000  1
  Er  Er6  1  0.555724  0.555724  0.500000  1
  Er  Er7  1  0.444276  0.000000  0.500000  1
  As  As8  1  0.000000  0.651706  0.500000  1
  As  As9  1  0.348294  0.348294  0.500000  1
  As  As10  1  0.651706  0.000000  0.500000  1
  P  P11  1  0.516898  0.689544  0.000000  1
  P  P12  1  0.310456  0.827354  0.000000  1
  P  P13  1  0.172646  0.483102  0.000000  1
  P  P14  1  0.483102  0.172646  0.000000  1
  P  P15  1  0.689544  0.516898  0.000000  1
  P  P16  1  0.827354  0.310456  0.000000  1
  P  P17  1  0.000000  0.176494  0.500000  1
  P  P18  1  0.823506  0.823506  0.500000  1
  P  P19  1  0.176494  0.000000  0.500000  1
  Ir  Ir20  1  0.505104  0.862322  0.000000  1
  Ir  Ir21  1  0.137678  0.642784  0.000000  1
  Ir  Ir22  1  0.357216  0.494896  0.000000  1
  Ir  Ir23  1  0.494896  0.357216  0.000000  1
  Ir  Ir24  1  0.862322  0.505104  0.000000  1
  Ir  Ir25  1  0.642784  0.137678  0.000000  1
  Ir  Ir26  1  0.000000  0.272091  0.000000  1
  Ir  Ir27  1  0.727909  0.727909  0.000000  1
  Ir  Ir28  1  0.272091  0.000000  0.000000  1
  Ir  Ir29  1  0.627200  0.801685  0.500000  1
  Ir  Ir30  1  0.198315  0.825516  0.500000  1
  Ir  Ir31  1  0.174484  0.372800  0.500000  1
  Ir  Ir32  1  0.372800  0.174484  0.500000  1
  Ir  Ir33  1  0.801685  0.627200  0.500000  1
  Ir  Ir34  1  0.825516  0.198315  0.500000  1
  Ir  Ir35  1  0.000000  0.000000  0.500000  1
