# generated using pymatgen
data_Tb2Ho6CdHgPd2
_symmetry_space_group_name_H-M   'P 1'
_cell_length_a   9.66336472
_cell_length_b   9.66336388
_cell_length_c   9.66796600
_cell_angle_alpha   59.98425156
_cell_angle_beta   59.98425445
_cell_angle_gamma   60.00918338
_symmetry_Int_Tables_number   1
_chemical_formula_structural   Tb2Ho6CdHgPd2
_chemical_formula_sum   'Tb4 Ho12 Cd2 Hg2 Pd4'
_cell_volume   638.26867323
_cell_formula_units_Z   2
loop_
 _symmetry_equiv_pos_site_id
 _symmetry_equiv_pos_as_xyz
  1  'x, y, z'
loop_
 _atom_site_type_symbol
 _atom_site_label
 _atom_site_symmetry_multiplicity
 _atom_site_fract_x
 _atom_site_fract_y
 _atom_site_fract_z
 _atom_site_occupancy
  Tb  Tb0  1  0.354929  0.354929  0.351574  1
  Tb  Tb1  1  0.354929  0.354929  0.938568  1
  Tb  Tb2  1  0.359709  0.928793  0.355750  1
  Tb  Tb3  1  0.928793  0.359709  0.355750  1
  Ho  Ho4  1  0.811867  0.188283  0.189119  1
  Ho  Ho5  1  0.188283  0.811867  0.810731  1
  Ho  Ho6  1  0.188283  0.811867  0.189119  1
  Ho  Ho7  1  0.811867  0.188283  0.810731  1
  Ho  Ho8  1  0.189087  0.189087  0.810913  1
  Ho  Ho9  1  0.811334  0.811334  0.188666  1
  Ho  Ho10  1  0.933749  0.565703  0.566018  1
  Ho  Ho11  1  0.565703  0.933749  0.934531  1
  Ho  Ho12  1  0.565703  0.933749  0.566018  1
  Ho  Ho13  1  0.933749  0.565703  0.934531  1
  Ho  Ho14  1  0.566275  0.566275  0.933725  1
  Ho  Ho15  1  0.934687  0.934687  0.565313  1
  Cd  Cd16  1  0.579772  0.252953  0.583637  1
  Cd  Cd17  1  0.252953  0.579772  0.583637  1
  Hg  Hg18  1  0.585269  0.585269  0.589999  1
  Hg  Hg19  1  0.585269  0.585269  0.239461  1
  Pd  Pd20  1  0.143747  0.143747  0.147662  1
  Pd  Pd21  1  0.143747  0.143747  0.564844  1
  Pd  Pd22  1  0.141737  0.568559  0.144853  1
  Pd  Pd23  1  0.568559  0.141737  0.144853  1
