# generated using pymatgen
data_Tm2Lu5Co6Sn23
_symmetry_space_group_name_H-M   'P 1'
_cell_length_a   9.64843784
_cell_length_b   9.64843904
_cell_length_c   9.93544808
_cell_angle_alpha   89.97273749
_cell_angle_beta   90.02725383
_cell_angle_gamma   119.97015321
_symmetry_Int_Tables_number   1
_chemical_formula_structural   Tm2Lu5Co6Sn23
_chemical_formula_sum   'Tm2 Lu5 Co6 Sn23'
_cell_volume   801.24000098
_cell_formula_units_Z   1
loop_
 _symmetry_equiv_pos_site_id
 _symmetry_equiv_pos_as_xyz
  1  'x, y, z'
loop_
 _atom_site_type_symbol
 _atom_site_label
 _atom_site_symmetry_multiplicity
 _atom_site_fract_x
 _atom_site_fract_y
 _atom_site_fract_z
 _atom_site_occupancy
  Tm  Tm0  1  0.999372  0.000628  0.000754  1
  Tm  Tm1  1  0.521210  0.478790  0.692876  1
  Lu  Lu2  1  0.039617  0.519771  0.305941  1
  Lu  Lu3  1  0.480229  0.960383  0.305941  1
  Lu  Lu4  1  0.480547  0.519453  0.305881  1
  Lu  Lu5  1  0.960874  0.481080  0.693828  1
  Lu  Lu6  1  0.518920  0.039126  0.693828  1
  Co  Co7  1  0.168751  0.831249  0.802698  1
  Co  Co8  1  0.664115  0.832892  0.802951  1
  Co  Co9  1  0.167108  0.335885  0.802951  1
  Co  Co10  1  0.831804  0.168196  0.197620  1
  Co  Co11  1  0.336248  0.168131  0.196989  1
  Co  Co12  1  0.831869  0.663752  0.196989  1
  Sn  Sn13  1  0.999620  0.000380  0.499821  1
  Sn  Sn14  1  0.118995  0.881005  0.274576  1
  Sn  Sn15  1  0.761452  0.880654  0.274796  1
  Sn  Sn16  1  0.119346  0.238548  0.274796  1
  Sn  Sn17  1  0.880328  0.119672  0.725196  1
  Sn  Sn18  1  0.236783  0.118106  0.725741  1
  Sn  Sn19  1  0.881894  0.763217  0.725741  1
  Sn  Sn20  1  0.346173  0.999837  0.000076  1
  Sn  Sn21  1  0.653582  0.653552  0.999641  1
  Sn  Sn22  1  0.999866  0.346599  0.000282  1
  Sn  Sn23  1  0.346448  0.346418  0.999641  1
  Sn  Sn24  1  0.000163  0.653827  0.000076  1
  Sn  Sn25  1  0.653401  0.000134  0.000282  1
  Sn  Sn26  1  0.781472  0.561783  0.451726  1
  Sn  Sn27  1  0.780296  0.219704  0.452172  1
  Sn  Sn28  1  0.438217  0.218528  0.451726  1
  Sn  Sn29  1  0.219369  0.439178  0.547794  1
  Sn  Sn30  1  0.219163  0.780837  0.547267  1
  Sn  Sn31  1  0.560822  0.780631  0.547794  1
  Sn  Sn32  1  0.666558  0.333442  0.181546  1
  Sn  Sn33  1  0.333672  0.666328  0.819013  1
  Sn  Sn34  1  0.668255  0.331745  0.875909  1
  Sn  Sn35  1  0.333462  0.666538  0.125143  1
