# generated using pymatgen
data_Dy12InNi4Hg
_symmetry_space_group_name_H-M   'P 1'
_cell_length_a   8.42156459
_cell_length_b   8.42156448
_cell_length_c   8.42156491
_cell_angle_alpha   113.09420493
_cell_angle_beta   109.11968931
_cell_angle_gamma   106.27293690
_symmetry_Int_Tables_number   1
_chemical_formula_structural   Dy12InNi4Hg
_chemical_formula_sum   'Dy12 In1 Ni4 Hg1'
_cell_volume   458.13370923
_cell_formula_units_Z   1
loop_
 _symmetry_equiv_pos_site_id
 _symmetry_equiv_pos_as_xyz
  1  'x, y, z'
loop_
 _atom_site_type_symbol
 _atom_site_label
 _atom_site_symmetry_multiplicity
 _atom_site_fract_x
 _atom_site_fract_y
 _atom_site_fract_z
 _atom_site_occupancy
  Dy  Dy0  1  0.429702  0.227936  0.201767  1
  Dy  Dy1  1  0.570298  0.772064  0.798233  1
  Dy  Dy2  1  0.026169  0.227936  0.798233  1
  Dy  Dy3  1  0.973831  0.772064  0.201767  1
  Dy  Dy4  1  0.182392  0.295099  0.477492  1
  Dy  Dy5  1  0.817608  0.704901  0.522508  1
  Dy  Dy6  1  0.182392  0.704901  0.887293  1
  Dy  Dy7  1  0.817608  0.295099  0.112707  1
  Dy  Dy8  1  0.324466  0.632124  0.307657  1
  Dy  Dy9  1  0.675534  0.367876  0.692343  1
  Dy  Dy10  1  0.324466  0.016808  0.692343  1
  Dy  Dy11  1  0.675534  0.983192  0.307657  1
  In  In12  1  0.500000  0.500000  0.000000  1
  Ni  Ni13  1  0.358382  0.000000  0.358382  1
  Ni  Ni14  1  0.641618  0.000000  0.641618  1
  Ni  Ni15  1  0.124804  0.624804  0.500000  1
  Ni  Ni16  1  0.875196  0.375196  0.500000  1
  Hg  Hg17  1  0.000000  0.000000  0.000000  1
