# generated using pymatgen
data_SrSm(Tm2Rh9)2
_symmetry_space_group_name_H-M   'P 1'
_cell_length_a   5.27230900
_cell_length_b   5.27230916
_cell_length_c   17.52618900
_cell_angle_alpha   90.00000000
_cell_angle_beta   90.00000000
_cell_angle_gamma   119.99999274
_symmetry_Int_Tables_number   1
_chemical_formula_structural   SrSm(Tm2Rh9)2
_chemical_formula_sum   'Sr1 Sm1 Tm4 Rh18'
_cell_volume   421.91005739
_cell_formula_units_Z   1
loop_
 _symmetry_equiv_pos_site_id
 _symmetry_equiv_pos_as_xyz
  1  'x, y, z'
loop_
 _atom_site_type_symbol
 _atom_site_label
 _atom_site_symmetry_multiplicity
 _atom_site_fract_x
 _atom_site_fract_y
 _atom_site_fract_z
 _atom_site_occupancy
  Sr  Sr0  1  0.333333  0.666667  0.750000  1
  Sm  Sm1  1  0.666667  0.333333  0.250000  1
  Tm  Tm2  1  0.333333  0.666667  0.958172  1
  Tm  Tm3  1  0.666667  0.333333  0.040727  1
  Tm  Tm4  1  0.666667  0.333333  0.459273  1
  Tm  Tm5  1  0.333333  0.666667  0.541828  1
  Rh  Rh6  1  0.167555  0.832445  0.375319  1
  Rh  Rh7  1  0.167555  0.335110  0.375319  1
  Rh  Rh8  1  0.664890  0.832445  0.375319  1
  Rh  Rh9  1  0.832536  0.167464  0.623725  1
  Rh  Rh10  1  0.832536  0.665072  0.623725  1
  Rh  Rh11  1  0.334928  0.167464  0.623725  1
  Rh  Rh12  1  0.832536  0.167464  0.876275  1
  Rh  Rh13  1  0.832536  0.665072  0.876275  1
  Rh  Rh14  1  0.334928  0.167464  0.876275  1
  Rh  Rh15  1  0.167555  0.832445  0.124681  1
  Rh  Rh16  1  0.167555  0.335110  0.124681  1
  Rh  Rh17  1  0.664890  0.832445  0.124681  1
  Rh  Rh18  1  0.333333  0.666667  0.250000  1
  Rh  Rh19  1  0.666667  0.333333  0.750000  1
  Rh  Rh20  1  0.000000  0.000000  0.250000  1
  Rh  Rh21  1  0.000000  0.000000  0.750000  1
  Rh  Rh22  1  0.000000  0.000000  0.499531  1
  Rh  Rh23  1  0.000000  0.000000  0.000469  1
