# generated using pymatgen
data_Y6Lu4In5Sb
_symmetry_space_group_name_H-M   'P 1'
_cell_length_a   6.51991900
_cell_length_b   8.94297807
_cell_length_c   8.98354602
_cell_angle_alpha   120.15162383
_cell_angle_beta   89.99964964
_cell_angle_gamma   90.00032365
_symmetry_Int_Tables_number   1
_chemical_formula_structural   Y6Lu4In5Sb
_chemical_formula_sum   'Y6 Lu4 In5 Sb1'
_cell_volume   452.93639888
_cell_formula_units_Z   1
loop_
 _symmetry_equiv_pos_site_id
 _symmetry_equiv_pos_as_xyz
  1  'x, y, z'
loop_
 _atom_site_type_symbol
 _atom_site_label
 _atom_site_symmetry_multiplicity
 _atom_site_fract_x
 _atom_site_fract_y
 _atom_site_fract_z
 _atom_site_occupancy
  Y  Y0  1  0.750007  0.236714  0.999718  1
  Y  Y1  1  0.750004  0.763297  0.762990  1
  Y  Y2  1  0.750027  0.000002  0.240100  1
  Y  Y3  1  0.250011  0.759870  0.996021  1
  Y  Y4  1  0.249965  0.240121  0.236133  1
  Y  Y5  1  0.249988  0.999961  0.763326  1
  Lu  Lu6  1  0.503145  0.334237  0.668101  1
  Lu  Lu7  1  0.503143  0.665755  0.333864  1
  Lu  Lu8  1  0.996861  0.665759  0.333862  1
  Lu  Lu9  1  0.996855  0.334233  0.668094  1
  In  In10  1  0.750006  0.598369  0.001782  1
  In  In11  1  0.749975  0.401636  0.403436  1
  In  In12  1  0.750004  0.000047  0.601737  1
  In  In13  1  0.250004  0.403673  0.999821  1
  In  In14  1  0.249994  0.596328  0.596116  1
  Sb  Sb15  1  0.250007  0.999998  0.394899  1
