# generated using pymatgen
data_YbSm4Tm3(B6Os)4
_symmetry_space_group_name_H-M   'P 1'
_cell_length_a   3.66931900
_cell_length_b   9.15881800
_cell_length_c   11.57122400
_cell_angle_alpha   89.99692608
_cell_angle_beta   90.00000000
_cell_angle_gamma   90.00000000
_symmetry_Int_Tables_number   1
_chemical_formula_structural   YbSm4Tm3(B6Os)4
_chemical_formula_sum   'Yb1 Sm4 Tm3 B24 Os4'
_cell_volume   388.86978438
_cell_formula_units_Z   1
loop_
 _symmetry_equiv_pos_site_id
 _symmetry_equiv_pos_as_xyz
  1  'x, y, z'
loop_
 _atom_site_type_symbol
 _atom_site_label
 _atom_site_symmetry_multiplicity
 _atom_site_fract_x
 _atom_site_fract_y
 _atom_site_fract_z
 _atom_site_occupancy
  Yb  Yb0  1  0.000000  0.943744  0.371772  1
  Sm  Sm1  1  0.000000  0.321767  0.413274  1
  Sm  Sm2  1  0.000000  0.678393  0.584446  1
  Sm  Sm3  1  0.000000  0.822914  0.087382  1
  Sm  Sm4  1  0.000000  0.177704  0.915044  1
  Tm  Tm5  1  0.000000  0.055736  0.626836  1
  Tm  Tm6  1  0.000000  0.443832  0.127971  1
  Tm  Tm7  1  0.000000  0.556177  0.872327  1
  B  B8  1  0.500000  0.555191  0.431019  1
  B  B9  1  0.500000  0.444516  0.568724  1
  B  B10  1  0.500000  0.055309  0.069061  1
  B  B11  1  0.500000  0.944784  0.931302  1
  B  B12  1  0.500000  0.749614  0.417591  1
  B  B13  1  0.500000  0.249901  0.581682  1
  B  B14  1  0.500000  0.249796  0.081975  1
  B  B15  1  0.500000  0.750177  0.918114  1
  B  B16  1  0.500000  0.790991  0.267056  1
  B  B17  1  0.500000  0.208715  0.733241  1
  B  B18  1  0.500000  0.290814  0.233102  1
  B  B19  1  0.500000  0.708933  0.766598  1
  B  B20  1  0.500000  0.630635  0.185727  1
  B  B21  1  0.500000  0.369454  0.814823  1
  B  B22  1  0.500000  0.130203  0.314404  1
  B  B23  1  0.500000  0.869263  0.684703  1
  B  B24  1  0.500000  0.984689  0.214044  1
  B  B25  1  0.500000  0.015672  0.785963  1
  B  B26  1  0.500000  0.484103  0.286182  1
  B  B27  1  0.500000  0.515799  0.713965  1
  B  B28  1  0.500000  0.603058  0.028144  1
  B  B29  1  0.500000  0.397036  0.971668  1
  B  B30  1  0.500000  0.103017  0.472525  1
  B  B31  1  0.500000  0.897618  0.528929  1
  Os  Os32  1  0.000000  0.638210  0.319382  1
  Os  Os33  1  0.000000  0.361128  0.681048  1
  Os  Os34  1  0.000000  0.139911  0.179478  1
  Os  Os35  1  0.000000  0.861195  0.820499  1
