# generated using pymatgen
data_Na12Li8Sn4As7P5
_symmetry_space_group_name_H-M   'P 1'
_cell_length_a   9.71584413
_cell_length_b   9.71089471
_cell_length_c   14.20221357
_cell_angle_alpha   89.96480175
_cell_angle_beta   90.00402909
_cell_angle_gamma   143.74676578
_symmetry_Int_Tables_number   1
_chemical_formula_structural   Na12Li8Sn4As7P5
_chemical_formula_sum   'Na12 Li8 Sn4 As7 P5'
_cell_volume   792.39919687
_cell_formula_units_Z   1
loop_
 _symmetry_equiv_pos_site_id
 _symmetry_equiv_pos_as_xyz
  1  'x, y, z'
loop_
 _atom_site_type_symbol
 _atom_site_label
 _atom_site_symmetry_multiplicity
 _atom_site_fract_x
 _atom_site_fract_y
 _atom_site_fract_z
 _atom_site_occupancy
  Na  Na0  1  0.099472  0.438058  0.678251  1
  Na  Na1  1  0.735104  0.735384  0.681431  1
  Na  Na2  1  0.234997  0.235031  0.818121  1
  Na  Na3  1  0.765079  0.764921  0.181851  1
  Na  Na4  1  0.938121  0.599476  0.821634  1
  Na  Na5  1  0.559767  0.898481  0.322276  1
  Na  Na6  1  0.400419  0.061891  0.178354  1
  Na  Na7  1  0.062118  0.400743  0.180371  1
  Na  Na8  1  0.901456  0.561472  0.321993  1
  Na  Na9  1  0.438177  0.099371  0.678140  1
  Na  Na10  1  0.599505  0.938163  0.821514  1
  Na  Na11  1  0.264539  0.265349  0.318424  1
  Li  Li12  1  0.918740  0.081300  0.000046  1
  Li  Li13  1  0.581276  0.418861  0.500076  1
  Li  Li14  1  0.081273  0.918732  0.000015  1
  Li  Li15  1  0.417054  0.581054  0.499058  1
  Li  Li16  1  0.755359  0.244914  0.000045  1
  Li  Li17  1  0.747105  0.256435  0.499156  1
  Li  Li18  1  0.244668  0.755120  0.000051  1
  Li  Li19  1  0.253087  0.740731  0.498788  1
  Sn  Sn20  1  0.090050  0.910147  0.500112  1
  Sn  Sn21  1  0.409638  0.590111  0.000077  1
  Sn  Sn22  1  0.912615  0.095491  0.498149  1
  Sn  Sn23  1  0.590253  0.409737  0.000084  1
  As  As24  1  0.914870  0.581828  0.113741  1
  As  As25  1  0.418006  0.085195  0.886336  1
  As  As26  1  0.586508  0.918975  0.612841  1
  As  As27  1  0.917969  0.584794  0.613478  1
  As  As28  1  0.085339  0.418243  0.886330  1
  As  As29  1  0.581883  0.914827  0.113926  1
  As  As30  1  0.414664  0.081856  0.386113  1
  P  P31  1  0.233148  0.233848  0.600733  1
  P  P32  1  0.733660  0.733813  0.898713  1
  P  P33  1  0.266172  0.266182  0.101416  1
  P  P34  1  0.080489  0.411009  0.390017  1
  P  P35  1  0.767416  0.768457  0.398340  1
