# generated using pymatgen
data_Sm2HoTm(SeO3)6
_symmetry_space_group_name_H-M   'P 1'
_cell_length_a   7.16480706
_cell_length_b   8.19808014
_cell_length_c   9.12218720
_cell_angle_alpha   71.13527952
_cell_angle_beta   70.21854592
_cell_angle_gamma   66.17913013
_symmetry_Int_Tables_number   1
_chemical_formula_structural   Sm2HoTm(SeO3)6
_chemical_formula_sum   'Sm2 Ho1 Tm1 Se6 O18'
_cell_volume   450.27361522
_cell_formula_units_Z   1
loop_
 _symmetry_equiv_pos_site_id
 _symmetry_equiv_pos_as_xyz
  1  'x, y, z'
loop_
 _atom_site_type_symbol
 _atom_site_label
 _atom_site_symmetry_multiplicity
 _atom_site_fract_x
 _atom_site_fract_y
 _atom_site_fract_z
 _atom_site_occupancy
  Sm  Sm0  1  0.332613  0.730409  0.590451  1
  Sm  Sm1  1  0.666484  0.270902  0.409292  1
  Ho  Ho2  1  0.741497  0.735084  0.799904  1
  Tm  Tm3  1  0.258540  0.263966  0.200240  1
  Se  Se4  1  0.113483  0.244843  0.581609  1
  Se  Se5  1  0.426557  0.780887  0.194273  1
  Se  Se6  1  0.149125  0.746457  0.968142  1
  Se  Se7  1  0.851388  0.250266  0.033787  1
  Se  Se8  1  0.572555  0.221316  0.806059  1
  Se  Se9  1  0.886911  0.755939  0.416528  1
  O  O10  1  0.152999  0.019892  0.657284  1
  O  O11  1  0.171129  0.559888  0.120910  1
  O  O12  1  0.030012  0.704985  0.556877  1
  O  O13  1  0.341683  0.250904  0.432118  1
  O  O14  1  0.062627  0.695577  0.836400  1
  O  O15  1  0.593590  0.288014  0.149209  1
  O  O16  1  0.352455  0.207860  0.952919  1
  O  O17  1  0.360898  0.949950  0.297966  1
  O  O18  1  0.515381  0.600214  0.347160  1
  O  O19  1  0.482793  0.401797  0.653315  1
  O  O20  1  0.636929  0.053151  0.701766  1
  O  O21  1  0.647992  0.793399  0.049180  1
  O  O22  1  0.405958  0.711299  0.851861  1
  O  O23  1  0.939028  0.302791  0.164087  1
  O  O24  1  0.658469  0.748900  0.565353  1
  O  O25  1  0.971309  0.294748  0.440944  1
  O  O26  1  0.830936  0.435495  0.879679  1
  O  O27  1  0.846664  0.981064  0.342685  1
