# generated using pymatgen
data_Ho3Er7Tl8
_symmetry_space_group_name_H-M   'P 1'
_cell_length_a   9.22990500
_cell_length_b   9.23799190
_cell_length_c   6.60661900
_cell_angle_alpha   90.00000000
_cell_angle_beta   90.00000000
_cell_angle_gamma   119.89966587
_symmetry_Int_Tables_number   1
_chemical_formula_structural   Ho3Er7Tl8
_chemical_formula_sum   'Ho3 Er7 Tl8'
_cell_volume   488.34067678
_cell_formula_units_Z   1
loop_
 _symmetry_equiv_pos_site_id
 _symmetry_equiv_pos_as_xyz
  1  'x, y, z'
loop_
 _atom_site_type_symbol
 _atom_site_label
 _atom_site_symmetry_multiplicity
 _atom_site_fract_x
 _atom_site_fract_y
 _atom_site_fract_z
 _atom_site_occupancy
  Ho  Ho0  1  0.290654  0.000693  0.750014  1
  Ho  Ho1  1  0.708894  0.999624  0.250007  1
  Ho  Ho2  1  0.000676  0.290165  0.750002  1
  Er  Er3  1  0.333202  0.665674  0.499952  1
  Er  Er4  1  0.666800  0.334317  0.499848  1
  Er  Er5  1  0.666787  0.334308  0.000152  1
  Er  Er6  1  0.333202  0.665677  0.000063  1
  Er  Er7  1  0.999525  0.709416  0.249997  1
  Er  Er8  1  0.710703  0.710687  0.749979  1
  Er  Er9  1  0.289556  0.289845  0.249969  1
  Tl  Tl10  1  0.000016  0.999676  0.499439  1
  Tl  Tl11  1  0.999828  0.999536  0.000538  1
  Tl  Tl12  1  0.628798  0.999909  0.750009  1
  Tl  Tl13  1  0.370603  0.999832  0.250029  1
  Tl  Tl14  1  0.999772  0.628759  0.749986  1
  Tl  Tl15  1  0.000094  0.371654  0.249984  1
  Tl  Tl16  1  0.372911  0.372765  0.750012  1
  Tl  Tl17  1  0.627980  0.627464  0.250020  1
