# generated using pymatgen
data_Ac3P2S
_symmetry_space_group_name_H-M   'P 1'
_cell_length_a   7.63849376
_cell_length_b   7.63849263
_cell_length_c   7.63849303
_cell_angle_alpha   146.44950858
_cell_angle_beta   132.00622512
_cell_angle_gamma   59.82714307
_symmetry_Int_Tables_number   1
_chemical_formula_structural   Ac3P2S
_chemical_formula_sum   'Ac3 P2 S1'
_cell_volume   181.37408874
_cell_formula_units_Z   1
loop_
 _symmetry_equiv_pos_site_id
 _symmetry_equiv_pos_as_xyz
  1  'x, y, z'
loop_
 _atom_site_type_symbol
 _atom_site_label
 _atom_site_symmetry_multiplicity
 _atom_site_fract_x
 _atom_site_fract_y
 _atom_site_fract_z
 _atom_site_occupancy
  Ac  Ac0  1  0.500000  0.000000  0.500000  1
  Ac  Ac1  1  0.170335  0.670335  0.500000  1
  Ac  Ac2  1  0.829665  0.329665  0.500000  1
  P  P3  1  0.666139  0.666139  0.000000  1
  P  P4  1  0.333861  0.333861  0.000000  1
  S  S5  1  0.000000  0.000000  0.000000  1
