# generated using pymatgen
data_Lu10GaTc3Te4
_symmetry_space_group_name_H-M   'P 1'
_cell_length_a   8.70177068
_cell_length_b   8.70177122
_cell_length_c   7.59137378
_cell_angle_alpha   89.43103525
_cell_angle_beta   89.43103549
_cell_angle_gamma   128.06940546
_symmetry_Int_Tables_number   1
_chemical_formula_structural   Lu10GaTc3Te4
_chemical_formula_sum   'Lu10 Ga1 Tc3 Te4'
_cell_volume   452.42286802
_cell_formula_units_Z   1
loop_
 _symmetry_equiv_pos_site_id
 _symmetry_equiv_pos_as_xyz
  1  'x, y, z'
loop_
 _atom_site_type_symbol
 _atom_site_label
 _atom_site_symmetry_multiplicity
 _atom_site_fract_x
 _atom_site_fract_y
 _atom_site_fract_z
 _atom_site_occupancy
  Lu  Lu0  1  0.003269  0.003269  0.998691  1
  Lu  Lu1  1  0.499555  0.499555  0.503812  1
  Lu  Lu2  1  0.778493  0.535541  0.157358  1
  Lu  Lu3  1  0.448764  0.201598  0.826259  1
  Lu  Lu4  1  0.952605  0.719457  0.676668  1
  Lu  Lu5  1  0.296300  0.062201  0.336151  1
  Lu  Lu6  1  0.201598  0.448764  0.826259  1
  Lu  Lu7  1  0.535541  0.778493  0.157358  1
  Lu  Lu8  1  0.062201  0.296300  0.336151  1
  Lu  Lu9  1  0.719457  0.952605  0.676668  1
  Ga  Ga10  1  0.871201  0.871201  0.372468  1
  Tc  Tc11  1  0.125329  0.125329  0.620731  1
  Tc  Tc12  1  0.613281  0.613281  0.881997  1
  Tc  Tc13  1  0.379207  0.379207  0.111590  1
  Te  Te14  1  0.202390  0.783045  0.007560  1
  Te  Te15  1  0.726343  0.301421  0.501358  1
  Te  Te16  1  0.783045  0.202390  0.007560  1
  Te  Te17  1  0.301421  0.726343  0.501358  1
