# generated using pymatgen
data_Li8Ac7PrSnGe7
_symmetry_space_group_name_H-M   'P 1'
_cell_length_a   9.40319600
_cell_length_b   9.40319634
_cell_length_c   8.06858300
_cell_angle_alpha   90.00000000
_cell_angle_beta   90.00000000
_cell_angle_gamma   119.99999882
_symmetry_Int_Tables_number   1
_chemical_formula_structural   Li8Ac7PrSnGe7
_chemical_formula_sum   'Li8 Ac7 Pr1 Sn1 Ge7'
_cell_volume   617.84409525
_cell_formula_units_Z   1
loop_
 _symmetry_equiv_pos_site_id
 _symmetry_equiv_pos_as_xyz
  1  'x, y, z'
loop_
 _atom_site_type_symbol
 _atom_site_label
 _atom_site_symmetry_multiplicity
 _atom_site_fract_x
 _atom_site_fract_y
 _atom_site_fract_z
 _atom_site_occupancy
  Li  Li0  1  0.163783  0.327567  0.276162  1
  Li  Li1  1  0.163783  0.836217  0.276162  1
  Li  Li2  1  0.672433  0.836217  0.276162  1
  Li  Li3  1  0.839782  0.679563  0.793084  1
  Li  Li4  1  0.839782  0.160218  0.793084  1
  Li  Li5  1  0.320437  0.160218  0.793084  1
  Li  Li6  1  0.333333  0.666667  0.675657  1
  Li  Li7  1  0.666667  0.333333  0.170917  1
  Ac  Ac8  1  0.509525  0.019050  0.492568  1
  Ac  Ac9  1  0.509525  0.490475  0.492568  1
  Ac  Ac10  1  0.980950  0.490475  0.492568  1
  Ac  Ac11  1  0.485224  0.970446  0.996977  1
  Ac  Ac12  1  0.485224  0.514776  0.996977  1
  Ac  Ac13  1  0.029554  0.514776  0.996977  1
  Ac  Ac14  1  0.000000  0.000000  0.509410  1
  Pr  Pr15  1  0.000000  0.000000  0.014900  1
  Sn  Sn16  1  0.666667  0.333333  0.778307  1
  Ge  Ge17  1  0.166203  0.332407  0.728305  1
  Ge  Ge18  1  0.166203  0.833797  0.728305  1
  Ge  Ge19  1  0.667593  0.833797  0.728305  1
  Ge  Ge20  1  0.835928  0.671854  0.216263  1
  Ge  Ge21  1  0.835928  0.164072  0.216263  1
  Ge  Ge22  1  0.328146  0.164072  0.216263  1
  Ge  Ge23  1  0.333333  0.666667  0.282711  1
