# generated using pymatgen
data_DyCoBr
_symmetry_space_group_name_H-M   'P 1'
_cell_length_a   3.91853600
_cell_length_b   3.91853624
_cell_length_c   11.76815800
_cell_angle_alpha   90.00000000
_cell_angle_beta   90.00000000
_cell_angle_gamma   119.99999796
_symmetry_Int_Tables_number   1
_chemical_formula_structural   DyCoBr
_chemical_formula_sum   'Dy2 Co2 Br2'
_cell_volume   156.49008989
_cell_formula_units_Z   2
loop_
 _symmetry_equiv_pos_site_id
 _symmetry_equiv_pos_as_xyz
  1  'x, y, z'
loop_
 _atom_site_type_symbol
 _atom_site_label
 _atom_site_symmetry_multiplicity
 _atom_site_fract_x
 _atom_site_fract_y
 _atom_site_fract_z
 _atom_site_occupancy
  Dy  Dy0  1  0.000000  0.000000  0.157522  1
  Dy  Dy1  1  0.000000  0.000000  0.842478  1
  Co  Co2  1  0.666668  0.333335  0.004928  1
  Co  Co3  1  0.333333  0.666666  0.995059  1
  Br  Br4  1  0.333333  0.666666  0.321033  1
  Br  Br5  1  0.666668  0.333335  0.678981  1
