# generated using pymatgen
data_Dy14Y6Cd6TcRu
_symmetry_space_group_name_H-M   'P 1'
_cell_length_a   9.58895900
_cell_length_b   9.58895917
_cell_length_c   9.92044300
_cell_angle_alpha   90.00000000
_cell_angle_beta   90.00000000
_cell_angle_gamma   120.00000286
_symmetry_Int_Tables_number   1
_chemical_formula_structural   Dy14Y6Cd6TcRu
_chemical_formula_sum   'Dy14 Y6 Cd6 Tc1 Ru1'
_cell_volume   789.95911849
_cell_formula_units_Z   1
loop_
 _symmetry_equiv_pos_site_id
 _symmetry_equiv_pos_as_xyz
  1  'x, y, z'
loop_
 _atom_site_type_symbol
 _atom_site_label
 _atom_site_symmetry_multiplicity
 _atom_site_fract_x
 _atom_site_fract_y
 _atom_site_fract_z
 _atom_site_occupancy
  Dy  Dy0  1  0.000000  0.000000  0.500204  1
  Dy  Dy1  1  0.000000  0.000000  0.999796  1
  Dy  Dy2  1  0.209926  0.790074  0.441049  1
  Dy  Dy3  1  0.209926  0.419853  0.441049  1
  Dy  Dy4  1  0.580147  0.790074  0.441049  1
  Dy  Dy5  1  0.789876  0.210124  0.559376  1
  Dy  Dy6  1  0.789876  0.579749  0.559376  1
  Dy  Dy7  1  0.420251  0.210124  0.559376  1
  Dy  Dy8  1  0.789876  0.210124  0.940624  1
  Dy  Dy9  1  0.789876  0.579749  0.940624  1
  Dy  Dy10  1  0.420251  0.210124  0.940624  1
  Dy  Dy11  1  0.209926  0.790074  0.058951  1
  Dy  Dy12  1  0.209926  0.419853  0.058951  1
  Dy  Dy13  1  0.580147  0.790074  0.058951  1
  Y  Y14  1  0.540206  0.459794  0.250000  1
  Y  Y15  1  0.540206  0.080411  0.250000  1
  Y  Y16  1  0.919589  0.459794  0.250000  1
  Y  Y17  1  0.458664  0.541336  0.750000  1
  Y  Y18  1  0.458664  0.917329  0.750000  1
  Y  Y19  1  0.082671  0.541336  0.750000  1
  Cd  Cd20  1  0.885351  0.114649  0.250000  1
  Cd  Cd21  1  0.885351  0.770703  0.250000  1
  Cd  Cd22  1  0.229297  0.114649  0.250000  1
  Cd  Cd23  1  0.114473  0.885527  0.750000  1
  Cd  Cd24  1  0.114473  0.228947  0.750000  1
  Cd  Cd25  1  0.771053  0.885527  0.750000  1
  Tc  Tc26  1  0.333333  0.666667  0.250000  1
  Ru  Ru27  1  0.666667  0.333333  0.750000  1
