# generated using pymatgen
data_Hf2Nb2GeAs
_symmetry_space_group_name_H-M   'P 1'
_cell_length_a   3.63107100
_cell_length_b   7.05021500
_cell_length_c   8.59362300
_cell_angle_alpha   90.00000000
_cell_angle_beta   90.00000000
_cell_angle_gamma   90.00000000
_symmetry_Int_Tables_number   1
_chemical_formula_structural   Hf2Nb2GeAs
_chemical_formula_sum   'Hf4 Nb4 Ge2 As2'
_cell_volume   219.99529846
_cell_formula_units_Z   2
loop_
 _symmetry_equiv_pos_site_id
 _symmetry_equiv_pos_as_xyz
  1  'x, y, z'
loop_
 _atom_site_type_symbol
 _atom_site_label
 _atom_site_symmetry_multiplicity
 _atom_site_fract_x
 _atom_site_fract_y
 _atom_site_fract_z
 _atom_site_occupancy
  Hf  Hf0  1  0.250000  0.043030  0.664915  1
  Hf  Hf1  1  0.250000  0.543030  0.835085  1
  Hf  Hf2  1  0.750000  0.457483  0.164679  1
  Hf  Hf3  1  0.750000  0.957483  0.335321  1
  Nb  Nb4  1  0.750000  0.864387  0.938171  1
  Nb  Nb5  1  0.250000  0.633585  0.440901  1
  Nb  Nb6  1  0.750000  0.364387  0.561829  1
  Nb  Nb7  1  0.250000  0.133585  0.059099  1
  Ge  Ge8  1  0.250000  0.256273  0.356479  1
  Ge  Ge9  1  0.250000  0.756273  0.143521  1
  As  As10  1  0.750000  0.745242  0.642065  1
  As  As11  1  0.750000  0.245242  0.857935  1
