# generated using pymatgen
data_Hf3TcGe(MoP)2
_symmetry_space_group_name_H-M   'P 1'
_cell_length_a   6.98481460
_cell_length_b   7.00896492
_cell_length_c   3.40365300
_cell_angle_alpha   90.00000000
_cell_angle_beta   90.00000000
_cell_angle_gamma   119.96363312
_symmetry_Int_Tables_number   1
_chemical_formula_structural   Hf3TcGe(MoP)2
_chemical_formula_sum   'Hf3 Tc1 Ge1 Mo2 P2'
_cell_volume   144.35894929
_cell_formula_units_Z   1
loop_
 _symmetry_equiv_pos_site_id
 _symmetry_equiv_pos_as_xyz
  1  'x, y, z'
loop_
 _atom_site_type_symbol
 _atom_site_label
 _atom_site_symmetry_multiplicity
 _atom_site_fract_x
 _atom_site_fract_y
 _atom_site_fract_z
 _atom_site_occupancy
  Hf  Hf0  1  0.009775  0.604078  0.500000  1
  Hf  Hf1  1  0.395672  0.407706  0.500000  1
  Hf  Hf2  1  0.593534  0.989424  0.500000  1
  Tc  Tc3  1  0.248345  0.994441  0.000000  1
  Ge  Ge4  1  0.665578  0.332333  0.000000  1
  Mo  Mo5  1  0.747563  0.752551  0.000000  1
  Mo  Mo6  1  0.005979  0.252740  0.000000  1
  P  P7  1  0.332667  0.666689  0.000000  1
  P  P8  1  0.000887  0.000038  0.500000  1
