# generated using pymatgen
data_Er12Mn2ZnIn2
_symmetry_space_group_name_H-M   'P 1'
_cell_length_a   8.34953803
_cell_length_b   8.34953735
_cell_length_c   8.34953770
_cell_angle_alpha   109.56801657
_cell_angle_beta   109.56802049
_cell_angle_gamma   109.27779430
_symmetry_Int_Tables_number   1
_chemical_formula_structural   Er12Mn2ZnIn2
_chemical_formula_sum   'Er12 Mn2 Zn1 In2'
_cell_volume   448.08634194
_cell_formula_units_Z   1
loop_
 _symmetry_equiv_pos_site_id
 _symmetry_equiv_pos_as_xyz
  1  'x, y, z'
loop_
 _atom_site_type_symbol
 _atom_site_label
 _atom_site_symmetry_multiplicity
 _atom_site_fract_x
 _atom_site_fract_y
 _atom_site_fract_z
 _atom_site_occupancy
  Er  Er0  1  0.305192  0.305192  0.610382  1
  Er  Er1  1  0.694808  0.694808  0.389618  1
  Er  Er2  1  0.305192  0.694808  0.000000  1
  Er  Er3  1  0.694808  0.305192  0.000000  1
  Er  Er4  1  0.445666  0.202756  0.242910  1
  Er  Er5  1  0.554334  0.797244  0.757090  1
  Er  Er6  1  0.959846  0.202756  0.757090  1
  Er  Er7  1  0.202756  0.959846  0.757090  1
  Er  Er8  1  0.040154  0.797244  0.242910  1
  Er  Er9  1  0.797244  0.040154  0.242910  1
  Er  Er10  1  0.202756  0.445666  0.242910  1
  Er  Er11  1  0.797244  0.554334  0.757090  1
  Mn  Mn12  1  0.390572  0.390572  0.000000  1
  Mn  Mn13  1  0.609428  0.609428  0.000000  1
  Zn  Zn14  1  0.000000  0.000000  0.000000  1
  In  In15  1  0.500000  0.000000  0.500000  1
  In  In16  1  0.000000  0.500000  0.500000  1
