# generated using pymatgen
data_LiZr6Zn18SiNi4
_symmetry_space_group_name_H-M   'P 1'
_cell_length_a   8.70643316
_cell_length_b   8.69153433
_cell_length_c   8.70643307
_cell_angle_alpha   59.61953231
_cell_angle_beta   59.86460986
_cell_angle_gamma   59.61952650
_symmetry_Int_Tables_number   1
_chemical_formula_structural   LiZr6Zn18SiNi4
_chemical_formula_sum   'Li1 Zr6 Zn18 Si1 Ni4'
_cell_volume   462.69966664
_cell_formula_units_Z   1
loop_
 _symmetry_equiv_pos_site_id
 _symmetry_equiv_pos_as_xyz
  1  'x, y, z'
loop_
 _atom_site_type_symbol
 _atom_site_label
 _atom_site_symmetry_multiplicity
 _atom_site_fract_x
 _atom_site_fract_y
 _atom_site_fract_z
 _atom_site_occupancy
  Li  Li0  1  0.000000  0.000000  0.000000  1
  Zr  Zr1  1  0.710374  0.289457  0.285664  1
  Zr  Zr2  1  0.289626  0.710543  0.714336  1
  Zr  Zr3  1  0.285864  0.711070  0.285864  1
  Zr  Zr4  1  0.714136  0.288930  0.714136  1
  Zr  Zr5  1  0.285664  0.289457  0.710374  1
  Zr  Zr6  1  0.714336  0.710543  0.289626  1
  Zn  Zn7  1  0.118236  0.131479  0.118236  1
  Zn  Zn8  1  0.881764  0.868521  0.881764  1
  Zn  Zn9  1  0.126882  0.127346  0.629551  1
  Zn  Zn10  1  0.124507  0.627636  0.124507  1
  Zn  Zn11  1  0.873118  0.872654  0.370449  1
  Zn  Zn12  1  0.875493  0.372364  0.875493  1
  Zn  Zn13  1  0.629551  0.127346  0.126882  1
  Zn  Zn14  1  0.370449  0.872654  0.873118  1
  Zn  Zn15  1  0.500000  0.000000  0.000000  1
  Zn  Zn16  1  0.000000  0.000000  0.500000  1
  Zn  Zn17  1  0.335623  0.335733  0.335623  1
  Zn  Zn18  1  0.664377  0.664267  0.664377  1
  Zn  Zn19  1  0.332929  0.342762  0.991319  1
  Zn  Zn20  1  0.341024  0.989014  0.341024  1
  Zn  Zn21  1  0.667071  0.657238  0.008681  1
  Zn  Zn22  1  0.658976  0.010986  0.658976  1
  Zn  Zn23  1  0.991319  0.342762  0.332929  1
  Zn  Zn24  1  0.008681  0.657238  0.667071  1
  Si  Si25  1  0.500000  0.500000  0.500000  1
  Ni  Ni26  1  0.000000  0.500000  0.500000  1
  Ni  Ni27  1  0.000000  0.500000  0.000000  1
  Ni  Ni28  1  0.500000  0.000000  0.500000  1
  Ni  Ni29  1  0.500000  0.500000  0.000000  1
