# generated using pymatgen
data_Er20Ir5Os4Pt3
_symmetry_space_group_name_H-M   'P 1'
_cell_length_a   10.77902418
_cell_length_b   10.77902418
_cell_length_c   6.39368203
_cell_angle_alpha   90.00723772
_cell_angle_beta   90.00723772
_cell_angle_gamma   90.13208969
_symmetry_Int_Tables_number   1
_chemical_formula_structural   Er20Ir5Os4Pt3
_chemical_formula_sum   'Er20 Ir5 Os4 Pt3'
_cell_volume   742.86306413
_cell_formula_units_Z   1
loop_
 _symmetry_equiv_pos_site_id
 _symmetry_equiv_pos_as_xyz
  1  'x, y, z'
loop_
 _atom_site_type_symbol
 _atom_site_label
 _atom_site_symmetry_multiplicity
 _atom_site_fract_x
 _atom_site_fract_y
 _atom_site_fract_z
 _atom_site_occupancy
  Er  Er0  1  0.295758  0.084967  0.372092  1
  Er  Er1  1  0.295060  0.911182  0.877373  1
  Er  Er2  1  0.703295  0.087643  0.873738  1
  Er  Er3  1  0.702514  0.912007  0.373405  1
  Er  Er4  1  0.583423  0.793189  0.877272  1
  Er  Er5  1  0.583363  0.206760  0.377094  1
  Er  Er6  1  0.413308  0.793261  0.377170  1
  Er  Er7  1  0.416236  0.206780  0.877166  1
  Er  Er8  1  0.206811  0.416577  0.622728  1
  Er  Er9  1  0.206739  0.586692  0.122830  1
  Er  Er10  1  0.793240  0.416637  0.122906  1
  Er  Er11  1  0.793220  0.583764  0.622834  1
  Er  Er12  1  0.915033  0.704242  0.127908  1
  Er  Er13  1  0.912357  0.296705  0.626262  1
  Er  Er14  1  0.088818  0.704940  0.622627  1
  Er  Er15  1  0.087993  0.297486  0.126595  1
  Er  Er16  1  0.001350  0.998146  0.498780  1
  Er  Er17  1  0.001854  0.998650  0.001220  1
  Er  Er18  1  0.499897  0.500073  0.000401  1
  Er  Er19  1  0.499927  0.500103  0.499599  1
  Ir  Ir20  1  0.150465  0.849535  0.250000  1
  Ir  Ir21  1  0.653007  0.346993  0.750000  1
  Ir  Ir22  1  0.653113  0.653027  0.250029  1
  Ir  Ir23  1  0.346973  0.346887  0.249971  1
  Ir  Ir24  1  0.347783  0.652217  0.750000  1
  Os  Os25  1  0.500308  0.999946  0.123737  1
  Os  Os26  1  0.500209  0.999922  0.624684  1
  Os  Os27  1  0.000078  0.499791  0.875316  1
  Os  Os28  1  0.000054  0.499692  0.376263  1
  Pt  Pt29  1  0.848321  0.151679  0.250000  1
  Pt  Pt30  1  0.847424  0.847931  0.750205  1
  Pt  Pt31  1  0.152069  0.152576  0.749795  1
