# generated using pymatgen
data_Tb6YRhI12
_symmetry_space_group_name_H-M   'P 1'
_cell_length_a   9.82726865
_cell_length_b   9.82726861
_cell_length_c   9.82726857
_cell_angle_alpha   106.94232911
_cell_angle_beta   106.94233359
_cell_angle_gamma   106.94233256
_symmetry_Int_Tables_number   1
_chemical_formula_structural   Tb6YRhI12
_chemical_formula_sum   'Tb6 Y1 Rh1 I12'
_cell_volume   791.63510656
_cell_formula_units_Z   1
loop_
 _symmetry_equiv_pos_site_id
 _symmetry_equiv_pos_as_xyz
  1  'x, y, z'
loop_
 _atom_site_type_symbol
 _atom_site_label
 _atom_site_symmetry_multiplicity
 _atom_site_fract_x
 _atom_site_fract_y
 _atom_site_fract_z
 _atom_site_occupancy
  Tb  Tb0  1  0.905152  0.976406  0.703789  1
  Tb  Tb1  1  0.976406  0.703789  0.905152  1
  Tb  Tb2  1  0.703789  0.905152  0.976406  1
  Tb  Tb3  1  0.094848  0.023594  0.296211  1
  Tb  Tb4  1  0.023594  0.296211  0.094848  1
  Tb  Tb5  1  0.296211  0.094848  0.023594  1
  Y  Y6  1  0.500000  0.500000  0.500000  1
  Rh  Rh7  1  0.000000  0.000000  0.000000  1
  I  I8  1  0.534807  0.836985  0.612086  1
  I  I9  1  0.836985  0.612086  0.534807  1
  I  I10  1  0.612086  0.534807  0.836985  1
  I  I11  1  0.465193  0.163015  0.387914  1
  I  I12  1  0.163015  0.387914  0.465193  1
  I  I13  1  0.387914  0.465193  0.163015  1
  I  I14  1  0.676739  0.224354  0.070742  1
  I  I15  1  0.224354  0.070742  0.676739  1
  I  I16  1  0.070742  0.676739  0.224354  1
  I  I17  1  0.323261  0.775646  0.929258  1
  I  I18  1  0.775646  0.929258  0.323261  1
  I  I19  1  0.929258  0.323261  0.775646  1
