# generated using pymatgen
data_Mn4P6N13
_symmetry_space_group_name_H-M   'P 1'
_cell_length_a   7.06698666
_cell_length_b   7.06698601
_cell_length_c   7.06698600
_cell_angle_alpha   109.47122062
_cell_angle_beta   109.47121874
_cell_angle_gamma   109.47122036
_symmetry_Int_Tables_number   1
_chemical_formula_structural   Mn4P6N13
_chemical_formula_sum   'Mn4 P6 N13'
_cell_volume   271.69450501
_cell_formula_units_Z   1
loop_
 _symmetry_equiv_pos_site_id
 _symmetry_equiv_pos_as_xyz
  1  'x, y, z'
loop_
 _atom_site_type_symbol
 _atom_site_label
 _atom_site_symmetry_multiplicity
 _atom_site_fract_x
 _atom_site_fract_y
 _atom_site_fract_z
 _atom_site_occupancy
  Mn  Mn0  1  0.288112  0.288112  0.288112  1
  Mn  Mn1  1  0.000000  0.711888  0.000000  1
  Mn  Mn2  1  0.711888  0.000000  0.000000  1
  Mn  Mn3  1  0.000000  0.000000  0.711888  1
  P  P4  1  0.500000  0.250000  0.750000  1
  P  P5  1  0.500000  0.750000  0.250000  1
  P  P6  1  0.750000  0.250000  0.500000  1
  P  P7  1  0.250000  0.500000  0.750000  1
  P  P8  1  0.750000  0.500000  0.250000  1
  P  P9  1  0.250000  0.750000  0.500000  1
  N  N10  1  0.000000  0.000000  0.000000  1
  N  N11  1  0.000000  0.733388  0.454518  1
  N  N12  1  0.266612  0.721131  0.266612  1
  N  N13  1  0.278869  0.545482  0.545482  1
  N  N14  1  0.545482  0.545482  0.278869  1
  N  N15  1  0.545482  0.278869  0.545482  1
  N  N16  1  0.733388  0.000000  0.454518  1
  N  N17  1  0.454518  0.000000  0.733388  1
  N  N18  1  0.733388  0.454518  0.000000  1
  N  N19  1  0.266612  0.266612  0.721131  1
  N  N20  1  0.721131  0.266612  0.266612  1
  N  N21  1  0.000000  0.454518  0.733388  1
  N  N22  1  0.454518  0.733388  0.000000  1
