# generated using pymatgen
data_Tm3Hf2Sn3
_symmetry_space_group_name_H-M   'P 1'
_cell_length_a   8.74136900
_cell_length_b   8.74136908
_cell_length_c   6.02958500
_cell_angle_alpha   90.00000000
_cell_angle_beta   90.00000000
_cell_angle_gamma   119.99999591
_symmetry_Int_Tables_number   1
_chemical_formula_structural   Tm3Hf2Sn3
_chemical_formula_sum   'Tm6 Hf4 Sn6'
_cell_volume   399.00375473
_cell_formula_units_Z   2
loop_
 _symmetry_equiv_pos_site_id
 _symmetry_equiv_pos_as_xyz
  1  'x, y, z'
loop_
 _atom_site_type_symbol
 _atom_site_label
 _atom_site_symmetry_multiplicity
 _atom_site_fract_x
 _atom_site_fract_y
 _atom_site_fract_z
 _atom_site_occupancy
  Tm  Tm0  1  0.758504  0.758504  0.750000  1
  Tm  Tm1  1  0.241496  0.000000  0.750000  1
  Tm  Tm2  1  0.000000  0.241496  0.750000  1
  Tm  Tm3  1  0.241496  0.241496  0.250000  1
  Tm  Tm4  1  0.758504  0.000000  0.250000  1
  Tm  Tm5  1  0.000000  0.758504  0.250000  1
  Hf  Hf6  1  0.666667  0.333333  0.000000  1
  Hf  Hf7  1  0.333333  0.666667  0.000000  1
  Hf  Hf8  1  0.333333  0.666667  0.500000  1
  Hf  Hf9  1  0.666667  0.333333  0.500000  1
  Sn  Sn10  1  0.397441  0.397441  0.750000  1
  Sn  Sn11  1  0.602559  0.000000  0.750000  1
  Sn  Sn12  1  0.000000  0.602559  0.750000  1
  Sn  Sn13  1  0.602559  0.602559  0.250000  1
  Sn  Sn14  1  0.397441  0.000000  0.250000  1
  Sn  Sn15  1  0.000000  0.397441  0.250000  1
