# generated using pymatgen
data_VBi4Pt3F28
_symmetry_space_group_name_H-M   'P 1'
_cell_length_a   5.62372779
_cell_length_b   9.18367848
_cell_length_c   12.19808241
_cell_angle_alpha   61.87016254
_cell_angle_beta   90.07663616
_cell_angle_gamma   90.14005461
_symmetry_Int_Tables_number   1
_chemical_formula_structural   VBi4Pt3F28
_chemical_formula_sum   'V1 Bi4 Pt3 F28'
_cell_volume   555.57338223
_cell_formula_units_Z   1
loop_
 _symmetry_equiv_pos_site_id
 _symmetry_equiv_pos_as_xyz
  1  'x, y, z'
loop_
 _atom_site_type_symbol
 _atom_site_label
 _atom_site_symmetry_multiplicity
 _atom_site_fract_x
 _atom_site_fract_y
 _atom_site_fract_z
 _atom_site_occupancy
  V  V0  1  0.754413  0.727133  0.042646  1
  Bi  Bi1  1  0.258447  0.809312  0.262135  1
  Bi  Bi2  1  0.738257  0.186516  0.735387  1
  Bi  Bi3  1  0.762913  0.178680  0.239428  1
  Bi  Bi4  1  0.237230  0.811782  0.766829  1
  Pt  Pt5  1  0.243819  0.269628  0.959979  1
  Pt  Pt6  1  0.258186  0.270958  0.458027  1
  Pt  Pt7  1  0.740939  0.728065  0.542629  1
  F  F8  1  0.924337  0.704711  0.413897  1
  F  F9  1  0.070073  0.295358  0.585075  1
  F  F10  1  0.433081  0.294087  0.086487  1
  F  F11  1  0.553057  0.715998  0.922112  1
  F  F12  1  0.485386  0.734449  0.133723  1
  F  F13  1  0.537794  0.264936  0.874051  1
  F  F14  1  0.965562  0.274097  0.368342  1
  F  F15  1  0.035414  0.726963  0.630823  1
  F  F16  1  0.951187  0.748104  0.163128  1
  F  F17  1  0.060398  0.251422  0.828656  1
  F  F18  1  0.441241  0.256306  0.325618  1
  F  F19  1  0.563690  0.745299  0.675888  1
  F  F20  1  0.769407  0.504250  0.131150  1
  F  F21  1  0.236456  0.511422  0.861135  1
  F  F22  1  0.270685  0.513401  0.359510  1
  F  F23  1  0.727546  0.486455  0.640877  1
  F  F24  1  0.944304  0.281429  0.041131  1
  F  F25  1  0.035096  0.723787  0.952969  1
  F  F26  1  0.440458  0.721591  0.460572  1
  F  F27  1  0.559660  0.278384  0.539969  1
  F  F28  1  0.744062  0.973325  0.449037  1
  F  F29  1  0.256593  0.027189  0.550836  1
  F  F30  1  0.241545  0.024999  0.052301  1
  F  F31  1  0.759474  0.956154  0.950286  1
  F  F32  1  0.596700  0.968138  0.229006  1
  F  F33  1  0.404233  0.032941  0.770082  1
  F  F34  1  0.093267  0.029414  0.270090  1
  F  F35  1  0.905090  0.973317  0.726190  1
