# generated using pymatgen
data_Pr4DyTm5Pb6
_symmetry_space_group_name_H-M   'P 1'
_cell_length_a   9.17236772
_cell_length_b   9.17236842
_cell_length_c   6.70017500
_cell_angle_alpha   90.00000000
_cell_angle_beta   90.00000000
_cell_angle_gamma   119.50963487
_symmetry_Int_Tables_number   1
_chemical_formula_structural   Pr4DyTm5Pb6
_chemical_formula_sum   'Pr4 Dy1 Tm5 Pb6'
_cell_volume   490.57401720
_cell_formula_units_Z   1
loop_
 _symmetry_equiv_pos_site_id
 _symmetry_equiv_pos_as_xyz
  1  'x, y, z'
loop_
 _atom_site_type_symbol
 _atom_site_label
 _atom_site_symmetry_multiplicity
 _atom_site_fract_x
 _atom_site_fract_y
 _atom_site_fract_z
 _atom_site_occupancy
  Pr  Pr0  1  0.237925  0.000940  0.750000  1
  Pr  Pr1  1  0.000940  0.237925  0.750000  1
  Pr  Pr2  1  0.762593  0.998729  0.250000  1
  Pr  Pr3  1  0.998729  0.762593  0.250000  1
  Dy  Dy4  1  0.244227  0.244227  0.250000  1
  Tm  Tm5  1  0.666277  0.333081  0.999919  1
  Tm  Tm6  1  0.333081  0.666277  0.999919  1
  Tm  Tm7  1  0.333081  0.666277  0.500081  1
  Tm  Tm8  1  0.666277  0.333081  0.500081  1
  Tm  Tm9  1  0.757410  0.757410  0.750000  1
  Pb  Pb10  1  0.404469  0.404469  0.750000  1
  Pb  Pb11  1  0.602446  0.995773  0.750000  1
  Pb  Pb12  1  0.995773  0.602446  0.750000  1
  Pb  Pb13  1  0.596497  0.596497  0.250000  1
  Pb  Pb14  1  0.397877  0.002401  0.250000  1
  Pb  Pb15  1  0.002401  0.397877  0.250000  1
