# generated using pymatgen
data_TbY7Hf11Si16Os
_symmetry_space_group_name_H-M   'P 1'
_cell_length_a   7.24861854
_cell_length_b   7.24879014
_cell_length_c   13.26038414
_cell_angle_alpha   89.87399456
_cell_angle_beta   90.11434598
_cell_angle_gamma   90.03402457
_symmetry_Int_Tables_number   1
_chemical_formula_structural   TbY7Hf11Si16Os
_chemical_formula_sum   'Tb1 Y7 Hf11 Si16 Os1'
_cell_volume   696.74664593
_cell_formula_units_Z   1
loop_
 _symmetry_equiv_pos_site_id
 _symmetry_equiv_pos_as_xyz
  1  'x, y, z'
loop_
 _atom_site_type_symbol
 _atom_site_label
 _atom_site_symmetry_multiplicity
 _atom_site_fract_x
 _atom_site_fract_y
 _atom_site_fract_z
 _atom_site_occupancy
  Tb  Tb0  1  0.654762  0.005146  0.282621  1
  Y  Y1  1  0.998636  0.343747  0.211835  1
  Y  Y2  1  0.005119  0.654717  0.717408  1
  Y  Y3  1  0.155817  0.494756  0.465237  1
  Y  Y4  1  0.501835  0.846451  0.032592  1
  Y  Y5  1  0.846467  0.501886  0.967339  1
  Y  Y6  1  0.494732  0.155801  0.534787  1
  Y  Y7  1  0.343727  0.998598  0.788164  1
  Hf  Hf8  1  0.824729  0.824798  0.499997  1
  Hf  Hf9  1  0.324384  0.674894  0.247889  1
  Hf  Hf10  1  0.674877  0.324398  0.752124  1
  Hf  Hf11  1  0.147133  0.997617  0.371951  1
  Hf  Hf12  1  0.852830  0.004403  0.878452  1
  Hf  Hf13  1  0.502983  0.647259  0.625393  1
  Hf  Hf14  1  0.351497  0.496549  0.877144  1
  Hf  Hf15  1  0.496468  0.351501  0.122816  1
  Hf  Hf16  1  0.647302  0.503013  0.374682  1
  Hf  Hf17  1  0.997706  0.147009  0.628111  1
  Hf  Hf18  1  0.004371  0.852840  0.121505  1
  Si  Si19  1  0.360282  0.295342  0.315280  1
  Si  Si20  1  0.639129  0.704984  0.818356  1
  Si  Si21  1  0.205585  0.861542  0.566943  1
  Si  Si22  1  0.136659  0.794358  0.931199  1
  Si  Si23  1  0.794419  0.136610  0.068785  1
  Si  Si24  1  0.861590  0.205623  0.433121  1
  Si  Si25  1  0.295314  0.360320  0.684692  1
  Si  Si26  1  0.704993  0.639023  0.181640  1
  Si  Si27  1  0.292699  0.054240  0.180058  1
  Si  Si28  1  0.703973  0.950618  0.686145  1
  Si  Si29  1  0.449343  0.796360  0.434807  1
  Si  Si30  1  0.206437  0.547716  0.064348  1
  Si  Si31  1  0.547719  0.206420  0.935615  1
  Si  Si32  1  0.796373  0.449409  0.565208  1
  Si  Si33  1  0.054235  0.292804  0.819913  1
  Si  Si34  1  0.950635  0.703991  0.313847  1
  Os  Os35  1  0.175243  0.175260  0.999997  1
