# generated using pymatgen
data_AlSb2(SCl2)2
_symmetry_space_group_name_H-M   'P 1'
_cell_length_a   9.36764427
_cell_length_b   11.33465341
_cell_length_c   11.86800771
_cell_angle_alpha   66.69801232
_cell_angle_beta   77.91164800
_cell_angle_gamma   73.00678229
_symmetry_Int_Tables_number   1
_chemical_formula_structural   AlSb2(SCl2)2
_chemical_formula_sum   'Al4 Sb8 S8 Cl16'
_cell_volume   1100.48614443
_cell_formula_units_Z   4
loop_
 _symmetry_equiv_pos_site_id
 _symmetry_equiv_pos_as_xyz
  1  'x, y, z'
loop_
 _atom_site_type_symbol
 _atom_site_label
 _atom_site_symmetry_multiplicity
 _atom_site_fract_x
 _atom_site_fract_y
 _atom_site_fract_z
 _atom_site_occupancy
  Al  Al0  1  0.809720  0.317601  0.543106  1
  Al  Al1  1  0.190280  0.682399  0.456894  1
  Al  Al2  1  0.889451  0.814870  0.023375  1
  Al  Al3  1  0.110549  0.185130  0.976625  1
  Sb  Sb4  1  0.348051  0.986276  0.433571  1
  Sb  Sb5  1  0.651949  0.013724  0.566429  1
  Sb  Sb6  1  0.559023  0.631198  0.672561  1
  Sb  Sb7  1  0.440977  0.368802  0.327439  1
  Sb  Sb8  1  0.562416  0.849198  0.826572  1
  Sb  Sb9  1  0.437584  0.150802  0.173428  1
  Sb  Sb10  1  0.699918  0.441130  0.007094  1
  Sb  Sb11  1  0.300082  0.558870  0.992906  1
  S  S12  1  0.610444  0.851890  0.479212  1
  S  S13  1  0.389556  0.148110  0.520788  1
  S  S14  1  0.360272  0.776285  0.770890  1
  S  S15  1  0.639728  0.223715  0.229110  1
  S  S16  1  0.746060  0.654152  0.783842  1
  S  S17  1  0.253940  0.345848  0.216158  1
  S  S18  1  0.511527  0.407612  0.907155  1
  S  S19  1  0.488473  0.592388  0.092845  1
  Cl  Cl20  1  0.728887  0.447150  0.367817  1
  Cl  Cl21  1  0.271113  0.552850  0.632183  1
  Cl  Cl22  1  0.621723  0.235297  0.658780  1
  Cl  Cl23  1  0.378277  0.764703  0.341220  1
  Cl  Cl24  1  0.866790  0.431070  0.629396  1
  Cl  Cl25  1  0.133210  0.568930  0.370604  1
  Cl  Cl26  1  0.992731  0.161012  0.521741  1
  Cl  Cl27  1  0.007269  0.838988  0.478259  1
  Cl  Cl28  1  0.889659  0.609757  0.073012  1
  Cl  Cl29  1  0.110341  0.390243  0.926988  1
  Cl  Cl30  1  0.867428  0.909084  0.826931  1
  Cl  Cl31  1  0.132572  0.090916  0.173069  1
  Cl  Cl32  1  0.107506  0.816817  0.055166  1
  Cl  Cl33  1  0.892494  0.183183  0.944834  1
  Cl  Cl34  1  0.705652  0.900591  0.129968  1
  Cl  Cl35  1  0.294348  0.099409  0.870032  1
