# generated using pymatgen
data_Pr3Lu(AuO3)4
_symmetry_space_group_name_H-M   'P 1'
_cell_length_a   3.96394878
_cell_length_b   5.62967700
_cell_length_c   13.24009200
_cell_angle_alpha   90.00000000
_cell_angle_beta   91.41207431
_cell_angle_gamma   90.00000000
_symmetry_Int_Tables_number   1
_chemical_formula_structural   Pr3Lu(AuO3)4
_chemical_formula_sum   'Pr3 Lu1 Au4 O12'
_cell_volume   295.37287326
_cell_formula_units_Z   1
loop_
 _symmetry_equiv_pos_site_id
 _symmetry_equiv_pos_as_xyz
  1  'x, y, z'
loop_
 _atom_site_type_symbol
 _atom_site_label
 _atom_site_symmetry_multiplicity
 _atom_site_fract_x
 _atom_site_fract_y
 _atom_site_fract_z
 _atom_site_occupancy
  Pr  Pr0  1  0.253474  0.750000  0.079057  1
  Pr  Pr1  1  0.267929  0.250000  0.427473  1
  Pr  Pr2  1  0.730224  0.250000  0.917115  1
  Lu  Lu3  1  0.746293  0.750000  0.578530  1
  Au  Au4  1  0.063355  0.750000  0.823287  1
  Au  Au5  1  0.085166  0.250000  0.665358  1
  Au  Au6  1  0.923997  0.250000  0.172010  1
  Au  Au7  1  0.928401  0.750000  0.336675  1
  O  O8  1  0.174462  0.500871  0.254725  1
  O  O9  1  0.817838  0.993548  0.736317  1
  O  O10  1  0.817838  0.506452  0.736317  1
  O  O11  1  0.174462  0.999129  0.254725  1
  O  O12  1  0.738442  0.494263  0.075127  1
  O  O13  1  0.749324  0.511293  0.434377  1
  O  O14  1  0.245232  0.995165  0.920672  1
  O  O15  1  0.275284  0.988300  0.579030  1
  O  O16  1  0.749324  0.988707  0.434377  1
  O  O17  1  0.738442  0.005737  0.075127  1
  O  O18  1  0.275284  0.511700  0.579030  1
  O  O19  1  0.245232  0.504835  0.920672  1
