# generated using pymatgen
data_Pr(FeC)2
_symmetry_space_group_name_H-M   'P 1'
_cell_length_a   5.65962938
_cell_length_b   5.65962908
_cell_length_c   5.65962944
_cell_angle_alpha   144.38961148
_cell_angle_beta   144.38961079
_cell_angle_gamma   51.24508099
_symmetry_Int_Tables_number   1
_chemical_formula_structural   Pr(FeC)2
_chemical_formula_sum   'Pr1 Fe2 C2'
_cell_volume   61.13511159
_cell_formula_units_Z   1
loop_
 _symmetry_equiv_pos_site_id
 _symmetry_equiv_pos_as_xyz
  1  'x, y, z'
loop_
 _atom_site_type_symbol
 _atom_site_label
 _atom_site_symmetry_multiplicity
 _atom_site_fract_x
 _atom_site_fract_y
 _atom_site_fract_z
 _atom_site_occupancy
  Pr  Pr0  1  0.000000  0.000000  0.000000  1
  Fe  Fe1  1  0.750000  0.250000  0.500000  1
  Fe  Fe2  1  0.250000  0.750000  0.500000  1
  C  C3  1  0.665239  0.665239  0.000000  1
  C  C4  1  0.334761  0.334761  0.000000  1
