# generated using pymatgen
data_Pr6Er10MgHg3Rh4
_symmetry_space_group_name_H-M   'P 1'
_cell_length_a   9.72174068
_cell_length_b   9.74353701
_cell_length_c   9.74281289
_cell_angle_alpha   59.64774000
_cell_angle_beta   59.74601874
_cell_angle_gamma   59.74681625
_symmetry_Int_Tables_number   1
_chemical_formula_structural   Pr6Er10MgHg3Rh4
_chemical_formula_sum   'Pr6 Er10 Mg1 Hg3 Rh4'
_cell_volume   648.32700170
_cell_formula_units_Z   1
loop_
 _symmetry_equiv_pos_site_id
 _symmetry_equiv_pos_as_xyz
  1  'x, y, z'
loop_
 _atom_site_type_symbol
 _atom_site_label
 _atom_site_symmetry_multiplicity
 _atom_site_fract_x
 _atom_site_fract_y
 _atom_site_fract_z
 _atom_site_occupancy
  Pr  Pr0  1  0.940385  0.560047  0.560040  1
  Pr  Pr1  1  0.557847  0.940784  0.940792  1
  Pr  Pr2  1  0.558964  0.939449  0.560442  1
  Pr  Pr3  1  0.941620  0.559140  0.939739  1
  Pr  Pr4  1  0.558965  0.560453  0.939462  1
  Pr  Pr5  1  0.941582  0.939719  0.559189  1
  Er  Er6  1  0.347305  0.346559  0.346573  1
  Er  Er7  1  0.348420  0.348776  0.958916  1
  Er  Er8  1  0.348416  0.958898  0.348782  1
  Er  Er9  1  0.949865  0.351199  0.351196  1
  Er  Er10  1  0.811000  0.187179  0.187209  1
  Er  Er11  1  0.180403  0.815450  0.815434  1
  Er  Er12  1  0.183233  0.813719  0.185428  1
  Er  Er13  1  0.811772  0.185656  0.813116  1
  Er  Er14  1  0.183243  0.185424  0.813723  1
  Er  Er15  1  0.811805  0.813100  0.185668  1
  Mg  Mg16  1  0.286914  0.570328  0.570279  1
  Hg  Hg17  1  0.580489  0.583732  0.583676  1
  Hg  Hg18  1  0.581043  0.584006  0.251862  1
  Hg  Hg19  1  0.580983  0.251967  0.584030  1
  Rh  Rh20  1  0.140173  0.143296  0.143245  1
  Rh  Rh21  1  0.140971  0.144288  0.573819  1
  Rh  Rh22  1  0.140967  0.573776  0.144307  1
  Rh  Rh23  1  0.573634  0.143056  0.143071  1
