# generated using pymatgen
data_Tm4Zr4IrRh3
_symmetry_space_group_name_H-M   'P 1'
_cell_length_a   4.60721000
_cell_length_b   7.02689173
_cell_length_c   8.22295090
_cell_angle_alpha   89.98721779
_cell_angle_beta   90.00000000
_cell_angle_gamma   90.00000000
_symmetry_Int_Tables_number   1
_chemical_formula_structural   Tm4Zr4IrRh3
_chemical_formula_sum   'Tm4 Zr4 Ir1 Rh3'
_cell_volume   266.21281408
_cell_formula_units_Z   1
loop_
 _symmetry_equiv_pos_site_id
 _symmetry_equiv_pos_as_xyz
  1  'x, y, z'
loop_
 _atom_site_type_symbol
 _atom_site_label
 _atom_site_symmetry_multiplicity
 _atom_site_fract_x
 _atom_site_fract_y
 _atom_site_fract_z
 _atom_site_occupancy
  Tm  Tm0  1  0.250000  0.981981  0.322866  1
  Tm  Tm1  1  0.750000  0.515714  0.824083  1
  Tm  Tm2  1  0.250000  0.487687  0.174232  1
  Tm  Tm3  1  0.750000  0.015584  0.675779  1
  Zr  Zr4  1  0.750000  0.643196  0.421562  1
  Zr  Zr5  1  0.750000  0.145415  0.078492  1
  Zr  Zr6  1  0.250000  0.354737  0.577118  1
  Zr  Zr7  1  0.250000  0.856583  0.923521  1
  Ir  Ir8  1  0.750000  0.766759  0.091474  1
  Rh  Rh9  1  0.750000  0.265409  0.411756  1
  Rh  Rh10  1  0.250000  0.234507  0.910161  1
  Rh  Rh11  1  0.250000  0.732428  0.588954  1
