# generated using pymatgen
data_Zr4Co4SiAs3
_symmetry_space_group_name_H-M   'P 1'
_cell_length_a   3.85060900
_cell_length_b   6.54452553
_cell_length_c   7.29936135
_cell_angle_alpha   90.29189227
_cell_angle_beta   90.00000000
_cell_angle_gamma   90.00000000
_symmetry_Int_Tables_number   1
_chemical_formula_structural   Zr4Co4SiAs3
_chemical_formula_sum   'Zr4 Co4 Si1 As3'
_cell_volume   183.94450374
_cell_formula_units_Z   1
loop_
 _symmetry_equiv_pos_site_id
 _symmetry_equiv_pos_as_xyz
  1  'x, y, z'
loop_
 _atom_site_type_symbol
 _atom_site_label
 _atom_site_symmetry_multiplicity
 _atom_site_fract_x
 _atom_site_fract_y
 _atom_site_fract_z
 _atom_site_occupancy
  Zr  Zr0  1  0.250000  0.019496  0.310860  1
  Zr  Zr1  1  0.250000  0.511600  0.186183  1
  Zr  Zr2  1  0.750000  0.983746  0.689308  1
  Zr  Zr3  1  0.750000  0.481252  0.814145  1
  Co  Co4  1  0.250000  0.142269  0.944227  1
  Co  Co5  1  0.250000  0.639819  0.563369  1
  Co  Co6  1  0.750000  0.867078  0.062288  1
  Co  Co7  1  0.750000  0.357142  0.430806  1
  Si  Si8  1  0.750000  0.223635  0.109845  1
  As  As9  1  0.250000  0.272328  0.614320  1
  As  As10  1  0.250000  0.773532  0.888860  1
  As  As11  1  0.750000  0.728105  0.385788  1
