# generated using pymatgen
data_Zr6In6Pt5Rh
_symmetry_space_group_name_H-M   'P 1'
_cell_length_a   7.53893100
_cell_length_b   7.53893269
_cell_length_c   7.23646900
_cell_angle_alpha   90.00000000
_cell_angle_beta   90.00000000
_cell_angle_gamma   119.99998821
_symmetry_Int_Tables_number   1
_chemical_formula_structural   Zr6In6Pt5Rh
_chemical_formula_sum   'Zr6 In6 Pt5 Rh1'
_cell_volume   356.18614598
_cell_formula_units_Z   1
loop_
 _symmetry_equiv_pos_site_id
 _symmetry_equiv_pos_as_xyz
  1  'x, y, z'
loop_
 _atom_site_type_symbol
 _atom_site_label
 _atom_site_symmetry_multiplicity
 _atom_site_fract_x
 _atom_site_fract_y
 _atom_site_fract_z
 _atom_site_occupancy
  Zr  Zr0  1  0.391930  0.410730  0.750000  1
  Zr  Zr1  1  0.018801  0.608070  0.750000  1
  Zr  Zr2  1  0.589270  0.981199  0.750000  1
  Zr  Zr3  1  0.611897  0.017328  0.250000  1
  Zr  Zr4  1  0.982672  0.594569  0.250000  1
  Zr  Zr5  1  0.405431  0.388103  0.250000  1
  In  In6  1  0.268117  0.999374  0.002810  1
  In  In7  1  0.731257  0.731883  0.002810  1
  In  In8  1  0.000626  0.268743  0.002810  1
  In  In9  1  0.731257  0.731883  0.497190  1
  In  In10  1  0.268117  0.999374  0.497190  1
  In  In11  1  0.000626  0.268743  0.497190  1
  Pt  Pt12  1  0.666667  0.333333  0.967525  1
  Pt  Pt13  1  0.000000  0.000000  0.750000  1
  Pt  Pt14  1  0.666667  0.333333  0.532475  1
  Pt  Pt15  1  0.333333  0.666667  0.464899  1
  Pt  Pt16  1  0.333333  0.666667  0.035101  1
  Rh  Rh17  1  0.000000  0.000000  0.250000  1
