# generated using pymatgen
data_LaSeClO3
_symmetry_space_group_name_H-M   'P 1'
_cell_length_a   7.41219000
_cell_length_b   5.71755715
_cell_length_c   6.82732107
_cell_angle_alpha   82.86836967
_cell_angle_beta   90.00000000
_cell_angle_gamma   90.00000000
_symmetry_Int_Tables_number   1
_chemical_formula_structural   LaSeClO3
_chemical_formula_sum   'La2 Se2 Cl2 O6'
_cell_volume   287.10081416
_cell_formula_units_Z   2
loop_
 _symmetry_equiv_pos_site_id
 _symmetry_equiv_pos_as_xyz
  1  'x, y, z'
loop_
 _atom_site_type_symbol
 _atom_site_label
 _atom_site_symmetry_multiplicity
 _atom_site_fract_x
 _atom_site_fract_y
 _atom_site_fract_z
 _atom_site_occupancy
  La  La0  1  0.250000  0.545502  0.356689  1
  La  La1  1  0.750000  0.454498  0.643311  1
  Se  Se2  1  0.750000  0.655516  0.151466  1
  Se  Se3  1  0.250000  0.344484  0.848534  1
  Cl  Cl4  1  0.250000  0.044101  0.341262  1
  Cl  Cl5  1  0.750000  0.955899  0.658738  1
  O  O6  1  0.250000  0.550434  0.007627  1
  O  O7  1  0.750000  0.449566  0.992373  1
  O  O8  1  0.577343  0.561155  0.317875  1
  O  O9  1  0.077343  0.438845  0.682125  1
  O  O10  1  0.422657  0.438845  0.682125  1
  O  O11  1  0.922657  0.561155  0.317875  1
