# generated using pymatgen
data_SbOF8
_symmetry_space_group_name_H-M   'P 1'
_cell_length_a   5.80994300
_cell_length_b   7.31590700
_cell_length_c   7.46450600
_cell_angle_alpha   90.00000000
_cell_angle_beta   90.00000000
_cell_angle_gamma   90.00000000
_symmetry_Int_Tables_number   1
_chemical_formula_structural   SbOF8
_chemical_formula_sum   'Sb2 O2 F16'
_cell_volume   317.27884741
_cell_formula_units_Z   2
loop_
 _symmetry_equiv_pos_site_id
 _symmetry_equiv_pos_as_xyz
  1  'x, y, z'
loop_
 _atom_site_type_symbol
 _atom_site_label
 _atom_site_symmetry_multiplicity
 _atom_site_fract_x
 _atom_site_fract_y
 _atom_site_fract_z
 _atom_site_occupancy
  Sb  Sb0  1  0.979746  0.000000  0.500000  1
  Sb  Sb1  1  0.020254  0.500000  0.000000  1
  O  O2  1  0.639376  0.000000  0.000000  1
  O  O3  1  0.360624  0.500000  0.500000  1
  F  F4  1  0.504725  0.500000  0.647544  1
  F  F5  1  0.495275  0.000000  0.147544  1
  F  F6  1  0.495275  0.000000  0.852456  1
  F  F7  1  0.504725  0.500000  0.352456  1
  F  F8  1  0.752764  0.189023  0.500000  1
  F  F9  1  0.233171  0.174895  0.500000  1
  F  F10  1  0.014671  0.500000  0.744035  1
  F  F11  1  0.752764  0.810977  0.500000  1
  F  F12  1  0.985329  0.000000  0.244035  1
  F  F13  1  0.766829  0.325105  0.000000  1
  F  F14  1  0.985329  0.000000  0.755965  1
  F  F15  1  0.233171  0.825105  0.500000  1
  F  F16  1  0.014671  0.500000  0.255965  1
  F  F17  1  0.766829  0.674895  0.000000  1
  F  F18  1  0.247236  0.310977  0.000000  1
  F  F19  1  0.247236  0.689023  0.000000  1
