# generated using pymatgen
data_Pr2NpO6
_symmetry_space_group_name_H-M   'P 1'
_cell_length_a   10.24623370
_cell_length_b   10.24623378
_cell_length_c   5.70782172
_cell_angle_alpha   79.00684340
_cell_angle_beta   79.00683813
_cell_angle_gamma   68.11930204
_symmetry_Int_Tables_number   1
_chemical_formula_structural   Pr2NpO6
_chemical_formula_sum   'Pr8 Np4 O24'
_cell_volume   541.13823140
_cell_formula_units_Z   4
loop_
 _symmetry_equiv_pos_site_id
 _symmetry_equiv_pos_as_xyz
  1  'x, y, z'
loop_
 _atom_site_type_symbol
 _atom_site_label
 _atom_site_symmetry_multiplicity
 _atom_site_fract_x
 _atom_site_fract_y
 _atom_site_fract_z
 _atom_site_occupancy
  Pr  Pr0  1  0.619658  0.380342  0.750000  1
  Pr  Pr1  1  0.380342  0.619658  0.250000  1
  Pr  Pr2  1  0.112409  0.887591  0.750000  1
  Pr  Pr3  1  0.887591  0.112409  0.250000  1
  Pr  Pr4  1  0.715255  0.949706  0.901963  1
  Pr  Pr5  1  0.284745  0.050294  0.098037  1
  Pr  Pr6  1  0.050294  0.284745  0.598037  1
  Pr  Pr7  1  0.949706  0.715255  0.401963  1
  Np  Np8  1  0.504348  0.818443  0.600598  1
  Np  Np9  1  0.495652  0.181557  0.399402  1
  Np  Np10  1  0.181557  0.495652  0.899402  1
  Np  Np11  1  0.818443  0.504348  0.100598  1
  O  O12  1  0.668533  0.141241  0.557414  1
  O  O13  1  0.331467  0.858759  0.442586  1
  O  O14  1  0.858759  0.331467  0.942586  1
  O  O15  1  0.141241  0.668533  0.057414  1
  O  O16  1  0.360561  0.812882  0.929430  1
  O  O17  1  0.639439  0.187118  0.070570  1
  O  O18  1  0.187118  0.639439  0.570570  1
  O  O19  1  0.812882  0.360561  0.429430  1
  O  O20  1  0.695062  0.770831  0.692069  1
  O  O21  1  0.304938  0.229169  0.307931  1
  O  O22  1  0.229169  0.304938  0.807931  1
  O  O23  1  0.770831  0.695062  0.192069  1
  O  O24  1  0.463635  0.019971  0.725939  1
  O  O25  1  0.536365  0.980029  0.274061  1
  O  O26  1  0.980029  0.536365  0.774061  1
  O  O27  1  0.019971  0.463635  0.225939  1
  O  O28  1  0.541541  0.621426  0.524160  1
  O  O29  1  0.458459  0.378574  0.475840  1
  O  O30  1  0.378574  0.458459  0.975840  1
  O  O31  1  0.621426  0.541541  0.024160  1
  O  O32  1  0.907971  0.914751  0.085498  1
  O  O33  1  0.092029  0.085249  0.914502  1
  O  O34  1  0.085249  0.092029  0.414502  1
  O  O35  1  0.914751  0.907971  0.585498  1
