# generated using pymatgen
data_La12Pr3Nd5Ir12
_symmetry_space_group_name_H-M   'P 1'
_cell_length_a   11.37191304
_cell_length_b   11.37272507
_cell_length_c   6.63835003
_cell_angle_alpha   89.99041020
_cell_angle_beta   90.00555500
_cell_angle_gamma   89.99228174
_symmetry_Int_Tables_number   1
_chemical_formula_structural   La12Pr3Nd5Ir12
_chemical_formula_sum   'La12 Pr3 Nd5 Ir12'
_cell_volume   858.53539894
_cell_formula_units_Z   1
loop_
 _symmetry_equiv_pos_site_id
 _symmetry_equiv_pos_as_xyz
  1  'x, y, z'
loop_
 _atom_site_type_symbol
 _atom_site_label
 _atom_site_symmetry_multiplicity
 _atom_site_fract_x
 _atom_site_fract_y
 _atom_site_fract_z
 _atom_site_occupancy
  La  La0  1  0.090717  0.291525  0.115105  1
  La  La1  1  0.791546  0.409368  0.115082  1
  La  La2  1  0.208452  0.590743  0.115126  1
  La  La3  1  0.909186  0.708365  0.115048  1
  La  La4  1  0.408961  0.791033  0.385518  1
  La  La5  1  0.591035  0.208977  0.385560  1
  La  La6  1  0.291033  0.091059  0.385470  1
  La  La7  1  0.708983  0.908889  0.385615  1
  La  La8  1  0.409050  0.209391  0.884491  1
  La  La9  1  0.709372  0.090926  0.884491  1
  La  La10  1  0.290645  0.909057  0.884481  1
  La  La11  1  0.591044  0.790539  0.884409  1
  Pr  Pr12  1  0.089190  0.707628  0.615485  1
  Pr  Pr13  1  0.910633  0.292442  0.615503  1
  Pr  Pr14  1  0.207656  0.410661  0.615467  1
  Nd  Nd15  1  0.792631  0.589322  0.615120  1
  Nd  Nd16  1  0.999994  0.000005  0.999432  1
  Nd  Nd17  1  0.500005  0.499981  0.999348  1
  Nd  Nd18  1  0.500166  0.500066  0.500758  1
  Nd  Nd19  1  0.999987  0.999982  0.500655  1
  Ir  Ir20  1  0.153812  0.846959  0.249398  1
  Ir  Ir21  1  0.346931  0.346167  0.249374  1
  Ir  Ir22  1  0.653226  0.653735  0.249901  1
  Ir  Ir23  1  0.846199  0.153031  0.249380  1
  Ir  Ir24  1  0.346321  0.653423  0.749595  1
  Ir  Ir25  1  0.153413  0.153675  0.749579  1
  Ir  Ir26  1  0.846521  0.846067  0.749466  1
  Ir  Ir27  1  0.653766  0.346766  0.749448  1
  Ir  Ir28  1  0.999705  0.500129  0.378753  1
  Ir  Ir29  1  0.499990  0.000020  0.120888  1
  Ir  Ir30  1  0.499999  0.999986  0.620235  1
  Ir  Ir31  1  0.999833  0.500080  0.881820  1
