# generated using pymatgen
data_Nd2Th(InPd)3
_symmetry_space_group_name_H-M   'P 1'
_cell_length_a   7.77738253
_cell_length_b   7.81319941
_cell_length_c   4.05984200
_cell_angle_alpha   90.00000000
_cell_angle_beta   90.00000000
_cell_angle_gamma   120.15245486
_symmetry_Int_Tables_number   1
_chemical_formula_structural   Nd2Th(InPd)3
_chemical_formula_sum   'Nd2 Th1 In3 Pd3'
_cell_volume   213.32065161
_cell_formula_units_Z   1
loop_
 _symmetry_equiv_pos_site_id
 _symmetry_equiv_pos_as_xyz
  1  'x, y, z'
loop_
 _atom_site_type_symbol
 _atom_site_label
 _atom_site_symmetry_multiplicity
 _atom_site_fract_x
 _atom_site_fract_y
 _atom_site_fract_z
 _atom_site_occupancy
  Nd  Nd0  1  0.408935  0.410247  0.000000  1
  Nd  Nd1  1  0.591065  0.001312  0.000000  1
  Th  Th2  1  0.000000  0.588605  0.000000  1
  In  In3  1  0.740856  0.747711  0.500000  1
  In  In4  1  0.000000  0.245625  0.500000  1
  In  In5  1  0.259144  0.006855  0.500000  1
  Pd  Pd6  1  0.318053  0.663757  0.500000  1
  Pd  Pd7  1  0.000000  0.990183  0.000000  1
  Pd  Pd8  1  0.681947  0.345703  0.500000  1
