# generated using pymatgen
data_Yb2Si6PdPt9
_symmetry_space_group_name_H-M   'P 1'
_cell_length_a   4.05731200
_cell_length_b   19.65839401
_cell_length_c   7.32482258
_cell_angle_alpha   89.76337480
_cell_angle_beta   90.00000000
_cell_angle_gamma   90.00000000
_symmetry_Int_Tables_number   1
_chemical_formula_structural   Yb2Si6PdPt9
_chemical_formula_sum   'Yb4 Si12 Pd2 Pt18'
_cell_volume   584.22460938
_cell_formula_units_Z   2
loop_
 _symmetry_equiv_pos_site_id
 _symmetry_equiv_pos_as_xyz
  1  'x, y, z'
loop_
 _atom_site_type_symbol
 _atom_site_label
 _atom_site_symmetry_multiplicity
 _atom_site_fract_x
 _atom_site_fract_y
 _atom_site_fract_z
 _atom_site_occupancy
  Yb  Yb0  1  0.750000  0.642718  0.119660  1
  Yb  Yb1  1  0.250000  0.357282  0.880340  1
  Yb  Yb2  1  0.250000  0.857399  0.622494  1
  Yb  Yb3  1  0.750000  0.142601  0.377506  1
  Si  Si4  1  0.750000  0.741736  0.626607  1
  Si  Si5  1  0.250000  0.258264  0.373393  1
  Si  Si6  1  0.250000  0.759859  0.126295  1
  Si  Si7  1  0.750000  0.240141  0.873705  1
  Si  Si8  1  0.750000  0.923527  0.350847  1
  Si  Si9  1  0.250000  0.076473  0.649153  1
  Si  Si10  1  0.250000  0.576392  0.842484  1
  Si  Si11  1  0.750000  0.423608  0.157516  1
  Si  Si12  1  0.750000  0.916372  0.900607  1
  Si  Si13  1  0.250000  0.083628  0.099393  1
  Si  Si14  1  0.250000  0.584911  0.404628  1
  Si  Si15  1  0.750000  0.415089  0.595372  1
  Pd  Pd16  1  0.250000  0.882601  0.152519  1
  Pd  Pd17  1  0.750000  0.117399  0.847481  1
  Pt  Pt18  1  0.750000  0.801587  0.333410  1
  Pt  Pt19  1  0.250000  0.198413  0.666590  1
  Pt  Pt20  1  0.250000  0.700130  0.834681  1
  Pt  Pt21  1  0.750000  0.299870  0.165319  1
  Pt  Pt22  1  0.750000  0.990286  0.624316  1
  Pt  Pt23  1  0.250000  0.009714  0.375684  1
  Pt  Pt24  1  0.250000  0.512120  0.123188  1
  Pt  Pt25  1  0.750000  0.487880  0.876812  1
  Pt  Pt26  1  0.750000  0.516911  0.378482  1
  Pt  Pt27  1  0.250000  0.483089  0.621518  1
  Pt  Pt28  1  0.250000  0.986814  0.877193  1
  Pt  Pt29  1  0.750000  0.013186  0.122807  1
  Pt  Pt30  1  0.750000  0.797741  0.925425  1
  Pt  Pt31  1  0.250000  0.202259  0.074575  1
  Pt  Pt32  1  0.250000  0.703088  0.423659  1
  Pt  Pt33  1  0.750000  0.296912  0.576341  1
  Pt  Pt34  1  0.750000  0.619285  0.658800  1
  Pt  Pt35  1  0.250000  0.380714  0.341200  1
