# generated using pymatgen
data_Er2Tm2Lu(ReO6)2
_symmetry_space_group_name_H-M   'P 1'
_cell_length_a   6.76079284
_cell_length_b   6.76079350
_cell_length_c   7.44826476
_cell_angle_alpha   73.81144906
_cell_angle_beta   73.81144636
_cell_angle_gamma   49.30922443
_symmetry_Int_Tables_number   1
_chemical_formula_structural   Er2Tm2Lu(ReO6)2
_chemical_formula_sum   'Er2 Tm2 Lu1 Re2 O12'
_cell_volume   245.69471258
_cell_formula_units_Z   1
loop_
 _symmetry_equiv_pos_site_id
 _symmetry_equiv_pos_as_xyz
  1  'x, y, z'
loop_
 _atom_site_type_symbol
 _atom_site_label
 _atom_site_symmetry_multiplicity
 _atom_site_fract_x
 _atom_site_fract_y
 _atom_site_fract_z
 _atom_site_occupancy
  Er  Er0  1  0.802277  0.802277  0.359285  1
  Er  Er1  1  0.197723  0.197723  0.640715  1
  Tm  Tm2  1  0.185087  0.185087  0.178121  1
  Tm  Tm3  1  0.814913  0.814913  0.821879  1
  Lu  Lu4  1  0.500000  0.500000  0.500000  1
  Re  Re5  1  0.285401  0.714599  0.000000  1
  Re  Re6  1  0.714599  0.285401  0.000000  1
  O  O7  1  0.413558  0.920877  0.913170  1
  O  O8  1  0.079123  0.586442  0.086830  1
  O  O9  1  0.586442  0.079123  0.086830  1
  O  O10  1  0.920877  0.413558  0.913170  1
  O  O11  1  0.599543  0.096804  0.572374  1
  O  O12  1  0.903196  0.400457  0.427626  1
  O  O13  1  0.400457  0.903196  0.427626  1
  O  O14  1  0.000280  0.000280  0.819851  1
  O  O15  1  0.999720  0.999720  0.180149  1
  O  O16  1  0.497649  0.497649  0.790954  1
  O  O17  1  0.502351  0.502351  0.209046  1
  O  O18  1  0.096804  0.599543  0.572374  1
