# generated using pymatgen
data_BaLiNp(H6Ir)2
_symmetry_space_group_name_H-M   'P 1'
_cell_length_a   5.02189100
_cell_length_b   5.02189059
_cell_length_c   8.55143000
_cell_angle_alpha   90.00000000
_cell_angle_beta   90.00000000
_cell_angle_gamma   119.99999609
_symmetry_Int_Tables_number   1
_chemical_formula_structural   BaLiNp(H6Ir)2
_chemical_formula_sum   'Ba1 Li1 Np1 H12 Ir2'
_cell_volume   186.76862561
_cell_formula_units_Z   1
loop_
 _symmetry_equiv_pos_site_id
 _symmetry_equiv_pos_as_xyz
  1  'x, y, z'
loop_
 _atom_site_type_symbol
 _atom_site_label
 _atom_site_symmetry_multiplicity
 _atom_site_fract_x
 _atom_site_fract_y
 _atom_site_fract_z
 _atom_site_occupancy
  Ba  Ba0  1  0.000000  0.000000  0.032512  1
  Li  Li1  1  0.666667  0.333333  0.334462  1
  Np  Np2  1  0.333333  0.666667  0.615908  1
  H  H3  1  0.171880  0.828120  0.379529  1
  H  H4  1  0.656239  0.828120  0.379529  1
  H  H5  1  0.171880  0.343761  0.379529  1
  H  H6  1  0.828856  0.171144  0.622108  1
  H  H7  1  0.342289  0.171144  0.622108  1
  H  H8  1  0.828856  0.657711  0.622108  1
  H  H9  1  0.509809  0.019618  0.846654  1
  H  H10  1  0.509809  0.490191  0.846654  1
  H  H11  1  0.980382  0.490191  0.846654  1
  H  H12  1  0.490204  0.980409  0.156384  1
  H  H13  1  0.490204  0.509796  0.156384  1
  H  H14  1  0.019591  0.509796  0.156384  1
  Ir  Ir15  1  0.666667  0.333333  0.731327  1
  Ir  Ir16  1  0.333333  0.666667  0.271763  1
