# generated using pymatgen
data_MnV8CoTe8
_symmetry_space_group_name_H-M   'P 1'
_cell_length_a   4.59382400
_cell_length_b   10.77307200
_cell_length_c   18.61503200
_cell_angle_alpha   90.00000000
_cell_angle_beta   90.00000000
_cell_angle_gamma   90.00000000
_symmetry_Int_Tables_number   1
_chemical_formula_structural   MnV8CoTe8
_chemical_formula_sum   'Mn2 V16 Co2 Te16'
_cell_volume   921.25042637
_cell_formula_units_Z   2
loop_
 _symmetry_equiv_pos_site_id
 _symmetry_equiv_pos_as_xyz
  1  'x, y, z'
loop_
 _atom_site_type_symbol
 _atom_site_label
 _atom_site_symmetry_multiplicity
 _atom_site_fract_x
 _atom_site_fract_y
 _atom_site_fract_z
 _atom_site_occupancy
  Mn  Mn0  1  0.750053  0.500000  0.500000  1
  Mn  Mn1  1  0.249947  0.000000  0.000000  1
  V  V2  1  0.498267  0.561013  0.387923  1
  V  V3  1  0.498267  0.438987  0.612077  1
  V  V4  1  0.501733  0.061013  0.112077  1
  V  V5  1  0.501733  0.938987  0.887923  1
  V  V6  1  0.498199  0.694393  0.534249  1
  V  V7  1  0.498199  0.305607  0.465751  1
  V  V8  1  0.501801  0.194393  0.965751  1
  V  V9  1  0.501801  0.805607  0.034249  1
  V  V10  1  0.001915  0.680193  0.444684  1
  V  V11  1  0.001915  0.319807  0.555316  1
  V  V12  1  0.998085  0.180193  0.055316  1
  V  V13  1  0.998085  0.819807  0.944684  1
  V  V14  1  0.001622  0.405939  0.396409  1
  V  V15  1  0.001622  0.594061  0.603591  1
  V  V16  1  0.998378  0.905939  0.103591  1
  V  V17  1  0.998378  0.094061  0.896409  1
  Co  Co18  1  0.250155  0.500000  0.500000  1
  Co  Co19  1  0.749845  0.000000  0.000000  1
  Te  Te20  1  0.001649  0.834678  0.559868  1
  Te  Te21  1  0.001649  0.165322  0.440132  1
  Te  Te22  1  0.998351  0.334678  0.940132  1
  Te  Te23  1  0.998351  0.665322  0.059868  1
  Te  Te24  1  0.498285  0.337401  0.321265  1
  Te  Te25  1  0.498285  0.662599  0.678735  1
  Te  Te26  1  0.501715  0.837401  0.178735  1
  Te  Te27  1  0.501715  0.162599  0.821265  1
  Te  Te28  1  0.498349  0.811396  0.404967  1
  Te  Te29  1  0.498349  0.188604  0.595033  1
  Te  Te30  1  0.501651  0.311396  0.095033  1
  Te  Te31  1  0.501651  0.688604  0.904967  1
  Te  Te32  1  0.001738  0.603832  0.305965  1
  Te  Te33  1  0.001738  0.396168  0.694035  1
  Te  Te34  1  0.998262  0.103832  0.194035  1
  Te  Te35  1  0.998262  0.896168  0.805965  1
