# generated using pymatgen
data_La8Sm3Er9Pb16
_symmetry_space_group_name_H-M   'P 1'
_cell_length_a   8.31765101
_cell_length_b   8.41244955
_cell_length_c   15.91709900
_cell_angle_alpha   89.96655881
_cell_angle_beta   89.99754082
_cell_angle_gamma   90.02957120
_symmetry_Int_Tables_number   1
_chemical_formula_structural   La8Sm3Er9Pb16
_chemical_formula_sum   'La8 Sm3 Er9 Pb16'
_cell_volume   1113.74803919
_cell_formula_units_Z   1
loop_
 _symmetry_equiv_pos_site_id
 _symmetry_equiv_pos_as_xyz
  1  'x, y, z'
loop_
 _atom_site_type_symbol
 _atom_site_label
 _atom_site_symmetry_multiplicity
 _atom_site_fract_x
 _atom_site_fract_y
 _atom_site_fract_z
 _atom_site_occupancy
  La  La0  1  0.479536  0.678385  0.596688  1
  La  La1  1  0.980295  0.822066  0.902975  1
  La  La2  1  0.520184  0.322801  0.097391  1
  La  La3  1  0.019937  0.178034  0.402875  1
  La  La4  1  0.521781  0.322640  0.402958  1
  La  La5  1  0.021976  0.178053  0.098285  1
  La  La6  1  0.478200  0.677976  0.902727  1
  La  La7  1  0.978594  0.821486  0.596134  1
  Sm  Sm8  1  0.636878  0.159704  0.620575  1
  Sm  Sm9  1  0.135659  0.340485  0.878243  1
  Sm  Sm10  1  0.364044  0.840174  0.122806  1
  Er  Er11  1  0.863029  0.658480  0.376440  1
  Er  Er12  1  0.360829  0.842722  0.377532  1
  Er  Er13  1  0.860459  0.658440  0.123525  1
  Er  Er14  1  0.639388  0.158355  0.876770  1
  Er  Er15  1  0.139193  0.341712  0.623104  1
  Er  Er16  1  0.804828  0.495460  0.749795  1
  Er  Er17  1  0.305091  0.005107  0.749364  1
  Er  Er18  1  0.194362  0.504897  0.251282  1
  Er  Er19  1  0.695934  0.994147  0.250188  1
  Pb  Pb20  1  0.701014  0.955657  0.453923  1
  Pb  Pb21  1  0.198217  0.540187  0.045735  1
  Pb  Pb22  1  0.302222  0.040031  0.954845  1
  Pb  Pb23  1  0.802241  0.461928  0.543262  1
  Pb  Pb24  1  0.294143  0.040899  0.543052  1
  Pb  Pb25  1  0.793881  0.459313  0.956949  1
  Pb  Pb26  1  0.705821  0.959762  0.043027  1
  Pb  Pb27  1  0.201200  0.541834  0.456585  1
  Pb  Pb28  1  0.443924  0.371537  0.749935  1
  Pb  Pb29  1  0.943003  0.127450  0.749319  1
  Pb  Pb30  1  0.557238  0.627527  0.251959  1
  Pb  Pb31  1  0.055643  0.870880  0.250875  1
  Pb  Pb32  1  0.669566  0.850015  0.750483  1
  Pb  Pb33  1  0.169673  0.649815  0.748978  1
  Pb  Pb34  1  0.331394  0.150599  0.251193  1
  Pb  Pb35  1  0.830623  0.351443  0.250222  1
