# generated using pymatgen
data_Nd10Sb9Br
_symmetry_space_group_name_H-M   'P 1'
_cell_length_a   7.81735346
_cell_length_b   9.07601913
_cell_length_c   10.06956906
_cell_angle_alpha   102.77880755
_cell_angle_beta   97.58061938
_cell_angle_gamma   106.95573490
_symmetry_Int_Tables_number   1
_chemical_formula_structural   Nd10Sb9Br
_chemical_formula_sum   'Nd10 Sb9 Br1'
_cell_volume   651.51476934
_cell_formula_units_Z   1
loop_
 _symmetry_equiv_pos_site_id
 _symmetry_equiv_pos_as_xyz
  1  'x, y, z'
loop_
 _atom_site_type_symbol
 _atom_site_label
 _atom_site_symmetry_multiplicity
 _atom_site_fract_x
 _atom_site_fract_y
 _atom_site_fract_z
 _atom_site_occupancy
  Nd  Nd0  1  0.902040  0.549465  0.799687  1
  Nd  Nd1  1  0.689717  0.154073  0.397241  1
  Nd  Nd2  1  0.500845  0.749362  0.001912  1
  Nd  Nd3  1  0.692526  0.639293  0.396029  1
  Nd  Nd4  1  0.307474  0.360707  0.603971  1
  Nd  Nd5  1  0.102074  0.946429  0.190240  1
  Nd  Nd6  1  0.499155  0.250638  0.998088  1
  Nd  Nd7  1  0.310283  0.845927  0.602759  1
  Nd  Nd8  1  0.097960  0.450535  0.200313  1
  Nd  Nd9  1  0.897926  0.053571  0.809760  1
  Sb  Sb10  1  0.800780  0.601991  0.102415  1
  Sb  Sb11  1  0.598362  0.198023  0.698898  1
  Sb  Sb12  1  0.401638  0.801977  0.301102  1
  Sb  Sb13  1  0.801577  0.099609  0.102331  1
  Sb  Sb14  1  0.199220  0.398009  0.897585  1
  Sb  Sb15  1  0.602824  0.701774  0.699199  1
  Sb  Sb16  1  0.397176  0.298226  0.300801  1
  Sb  Sb17  1  0.198423  0.900391  0.897669  1
  Sb  Sb18  1  0.000000  0.500000  0.500000  1
  Br  Br19  1  0.000000  0.000000  0.500000  1
