# generated using pymatgen
data_YLu3Al8
_symmetry_space_group_name_H-M   'P 1'
_cell_length_a   9.55505622
_cell_length_b   9.55505594
_cell_length_c   9.55505584
_cell_angle_alpha   33.49785351
_cell_angle_beta   33.49785627
_cell_angle_gamma   33.49785432
_symmetry_Int_Tables_number   1
_chemical_formula_structural   YLu3Al8
_chemical_formula_sum   'Y1 Lu3 Al8'
_cell_volume   236.66283888
_cell_formula_units_Z   1
loop_
 _symmetry_equiv_pos_site_id
 _symmetry_equiv_pos_as_xyz
  1  'x, y, z'
loop_
 _atom_site_type_symbol
 _atom_site_label
 _atom_site_symmetry_multiplicity
 _atom_site_fract_x
 _atom_site_fract_y
 _atom_site_fract_z
 _atom_site_occupancy
  Y  Y0  1  0.687506  0.687506  0.687506  1
  Lu  Lu1  1  0.187466  0.187466  0.187466  1
  Lu  Lu2  1  0.812670  0.812670  0.812670  1
  Lu  Lu3  1  0.312327  0.312327  0.312327  1
  Al  Al4  1  0.999858  0.999858  0.999858  1
  Al  Al5  1  0.500025  0.500025  0.500025  1
  Al  Al6  1  0.750020  0.250385  0.250385  1
  Al  Al7  1  0.249482  0.749938  0.749938  1
  Al  Al8  1  0.250385  0.750020  0.250385  1
  Al  Al9  1  0.749938  0.249482  0.749938  1
  Al  Al10  1  0.250385  0.250385  0.750020  1
  Al  Al11  1  0.749938  0.749938  0.249482  1
