# generated using pymatgen
data_KAcSiS4
_symmetry_space_group_name_H-M   'P 1'
_cell_length_a   6.77845300
_cell_length_b   6.79041706
_cell_length_c   17.86552457
_cell_angle_alpha   73.34628300
_cell_angle_beta   90.00000000
_cell_angle_gamma   90.00000000
_symmetry_Int_Tables_number   1
_chemical_formula_structural   KAcSiS4
_chemical_formula_sum   'K4 Ac4 Si4 S16'
_cell_volume   787.83077065
_cell_formula_units_Z   4
loop_
 _symmetry_equiv_pos_site_id
 _symmetry_equiv_pos_as_xyz
  1  'x, y, z'
loop_
 _atom_site_type_symbol
 _atom_site_label
 _atom_site_symmetry_multiplicity
 _atom_site_fract_x
 _atom_site_fract_y
 _atom_site_fract_z
 _atom_site_occupancy
  K  K0  1  0.250090  0.273454  0.966052  1
  K  K1  1  0.750090  0.726546  0.533948  1
  K  K2  1  0.749910  0.726546  0.033948  1
  K  K3  1  0.249910  0.273454  0.466052  1
  Ac  Ac4  1  0.765253  0.764893  0.776850  1
  Ac  Ac5  1  0.265253  0.235107  0.723150  1
  Ac  Ac6  1  0.234747  0.235107  0.223150  1
  Ac  Ac7  1  0.734747  0.764893  0.276850  1
  Si  Si8  1  0.742324  0.211085  0.844592  1
  Si  Si9  1  0.242324  0.788915  0.655408  1
  Si  Si10  1  0.257676  0.788915  0.155408  1
  Si  Si11  1  0.757676  0.211085  0.344592  1
  S  S12  1  0.505395  0.994413  0.866836  1
  S  S13  1  0.005395  0.005587  0.633164  1
  S  S14  1  0.494605  0.005587  0.133164  1
  S  S15  1  0.994605  0.994413  0.366836  1
  S  S16  1  0.739972  0.403981  0.918803  1
  S  S17  1  0.239972  0.596019  0.581197  1
  S  S18  1  0.260028  0.596019  0.081197  1
  S  S19  1  0.760028  0.403981  0.418803  1
  S  S20  1  0.001529  0.024242  0.861185  1
  S  S21  1  0.501529  0.975758  0.638815  1
  S  S22  1  0.998471  0.975758  0.138815  1
  S  S23  1  0.498471  0.024242  0.361185  1
  S  S24  1  0.717978  0.382152  0.722809  1
  S  S25  1  0.217978  0.617848  0.777191  1
  S  S26  1  0.282022  0.617848  0.277191  1
  S  S27  1  0.782022  0.382152  0.222809  1
