# generated using pymatgen
data_Pr3GaPd5
_symmetry_space_group_name_H-M   'P 1'
_cell_length_a   8.53117243
_cell_length_b   8.53117157
_cell_length_c   8.53117077
_cell_angle_alpha   127.54706927
_cell_angle_beta   126.02859579
_cell_angle_gamma   78.60323950
_symmetry_Int_Tables_number   1
_chemical_formula_structural   Pr3GaPd5
_chemical_formula_sum   'Pr6 Ga2 Pd10'
_cell_volume   385.39419983
_cell_formula_units_Z   2
loop_
 _symmetry_equiv_pos_site_id
 _symmetry_equiv_pos_as_xyz
  1  'x, y, z'
loop_
 _atom_site_type_symbol
 _atom_site_label
 _atom_site_symmetry_multiplicity
 _atom_site_fract_x
 _atom_site_fract_y
 _atom_site_fract_z
 _atom_site_occupancy
  Pr  Pr0  1  0.221803  0.450317  0.771486  1
  Pr  Pr1  1  0.778197  0.549683  0.228514  1
  Pr  Pr2  1  0.821167  0.049683  0.771486  1
  Pr  Pr3  1  0.178833  0.950317  0.228514  1
  Pr  Pr4  1  0.383730  0.250000  0.133730  1
  Pr  Pr5  1  0.616270  0.750000  0.866270  1
  Ga  Ga6  1  0.781876  0.250000  0.531876  1
  Ga  Ga7  1  0.218124  0.750000  0.468124  1
  Pd  Pd8  1  0.168730  0.397450  0.357561  1
  Pd  Pd9  1  0.831270  0.188830  0.228720  1
  Pd  Pd10  1  0.460110  0.102550  0.771280  1
  Pd  Pd11  1  0.539890  0.311170  0.642439  1
  Pd  Pd12  1  0.000000  0.500000  0.000000  1
  Pd  Pd13  1  0.000000  0.000000  0.500000  1
  Pd  Pd14  1  0.460110  0.688830  0.357561  1
  Pd  Pd15  1  0.539890  0.897450  0.228720  1
  Pd  Pd16  1  0.168730  0.811170  0.771280  1
  Pd  Pd17  1  0.831270  0.602550  0.642439  1
