# generated using pymatgen
data_Zr9FeRe3Mo
_symmetry_space_group_name_H-M   'P 1'
_cell_length_a   8.70870300
_cell_length_b   8.70870322
_cell_length_c   8.51271900
_cell_angle_alpha   90.00000000
_cell_angle_beta   90.00000000
_cell_angle_gamma   120.00000295
_symmetry_Int_Tables_number   1
_chemical_formula_structural   Zr9FeRe3Mo
_chemical_formula_sum   'Zr18 Fe2 Re6 Mo2'
_cell_volume   559.12110668
_cell_formula_units_Z   2
loop_
 _symmetry_equiv_pos_site_id
 _symmetry_equiv_pos_as_xyz
  1  'x, y, z'
loop_
 _atom_site_type_symbol
 _atom_site_label
 _atom_site_symmetry_multiplicity
 _atom_site_fract_x
 _atom_site_fract_y
 _atom_site_fract_z
 _atom_site_occupancy
  Zr  Zr0  1  0.200767  0.799233  0.442786  1
  Zr  Zr1  1  0.200767  0.401534  0.442786  1
  Zr  Zr2  1  0.598466  0.799233  0.442786  1
  Zr  Zr3  1  0.799233  0.200767  0.557214  1
  Zr  Zr4  1  0.799233  0.598466  0.557214  1
  Zr  Zr5  1  0.401534  0.200767  0.557214  1
  Zr  Zr6  1  0.799233  0.200767  0.942786  1
  Zr  Zr7  1  0.799233  0.598466  0.942786  1
  Zr  Zr8  1  0.401534  0.200767  0.942786  1
  Zr  Zr9  1  0.200767  0.799233  0.057214  1
  Zr  Zr10  1  0.200767  0.401534  0.057214  1
  Zr  Zr11  1  0.598466  0.799233  0.057214  1
  Zr  Zr12  1  0.540808  0.459192  0.250000  1
  Zr  Zr13  1  0.540808  0.081617  0.250000  1
  Zr  Zr14  1  0.918383  0.459192  0.250000  1
  Zr  Zr15  1  0.459192  0.540808  0.750000  1
  Zr  Zr16  1  0.459192  0.918383  0.750000  1
  Zr  Zr17  1  0.081617  0.540808  0.750000  1
  Fe  Fe18  1  0.333333  0.666667  0.250000  1
  Fe  Fe19  1  0.666667  0.333333  0.750000  1
  Re  Re20  1  0.890580  0.109420  0.250000  1
  Re  Re21  1  0.890580  0.781160  0.250000  1
  Re  Re22  1  0.218840  0.109420  0.250000  1
  Re  Re23  1  0.109420  0.890580  0.750000  1
  Re  Re24  1  0.109420  0.218840  0.750000  1
  Re  Re25  1  0.781160  0.890580  0.750000  1
  Mo  Mo26  1  0.000000  0.000000  0.500000  1
  Mo  Mo27  1  0.000000  0.000000  0.000000  1
