# generated using pymatgen
data_YHoB6Os
_symmetry_space_group_name_H-M   'P 1'
_cell_length_a   3.65354000
_cell_length_b   9.14861000
_cell_length_c   11.53688900
_cell_angle_alpha   90.00000000
_cell_angle_beta   90.00000000
_cell_angle_gamma   90.00000000
_symmetry_Int_Tables_number   1
_chemical_formula_structural   YHoB6Os
_chemical_formula_sum   'Y4 Ho4 B24 Os4'
_cell_volume   385.61835257
_cell_formula_units_Z   4
loop_
 _symmetry_equiv_pos_site_id
 _symmetry_equiv_pos_as_xyz
  1  'x, y, z'
loop_
 _atom_site_type_symbol
 _atom_site_label
 _atom_site_symmetry_multiplicity
 _atom_site_fract_x
 _atom_site_fract_y
 _atom_site_fract_z
 _atom_site_occupancy
  Y  Y0  1  0.000000  0.321879  0.414137  1
  Y  Y1  1  0.000000  0.678121  0.585863  1
  Y  Y2  1  0.000000  0.821879  0.085863  1
  Y  Y3  1  0.000000  0.178121  0.914137  1
  Ho  Ho4  1  0.000000  0.943743  0.372598  1
  Ho  Ho5  1  0.000000  0.056257  0.627403  1
  Ho  Ho6  1  0.000000  0.443743  0.127402  1
  Ho  Ho7  1  0.000000  0.556257  0.872597  1
  B  B8  1  0.500000  0.554151  0.432891  1
  B  B9  1  0.500000  0.445849  0.567109  1
  B  B10  1  0.500000  0.054151  0.067109  1
  B  B11  1  0.500000  0.945849  0.932891  1
  B  B12  1  0.500000  0.748330  0.419375  1
  B  B13  1  0.500000  0.251670  0.580625  1
  B  B14  1  0.500000  0.248330  0.080625  1
  B  B15  1  0.500000  0.751670  0.919375  1
  B  B16  1  0.500000  0.790894  0.266299  1
  B  B17  1  0.500000  0.209106  0.733701  1
  B  B18  1  0.500000  0.290893  0.233701  1
  B  B19  1  0.500000  0.709106  0.766299  1
  B  B20  1  0.500000  0.631354  0.185167  1
  B  B21  1  0.500000  0.368646  0.814833  1
  B  B22  1  0.500000  0.131354  0.314833  1
  B  B23  1  0.500000  0.868646  0.685167  1
  B  B24  1  0.500000  0.983330  0.213128  1
  B  B25  1  0.500000  0.016670  0.786872  1
  B  B26  1  0.500000  0.483330  0.286872  1
  B  B27  1  0.500000  0.516670  0.713128  1
  B  B28  1  0.500000  0.606453  0.029404  1
  B  B29  1  0.500000  0.393547  0.970596  1
  B  B30  1  0.500000  0.106453  0.470596  1
  B  B31  1  0.500000  0.893547  0.529404  1
  Os  Os32  1  0.000000  0.637375  0.321258  1
  Os  Os33  1  0.000000  0.362625  0.678742  1
  Os  Os34  1  0.000000  0.137375  0.178742  1
  Os  Os35  1  0.000000  0.862625  0.821258  1
