# generated using pymatgen
data_TaTi9(Sn3Ge)2
_symmetry_space_group_name_H-M   'P 1'
_cell_length_a   8.27446500
_cell_length_b   8.27446571
_cell_length_c   5.58275800
_cell_angle_alpha   90.00000000
_cell_angle_beta   90.00000000
_cell_angle_gamma   119.99999317
_symmetry_Int_Tables_number   1
_chemical_formula_structural   TaTi9(Sn3Ge)2
_chemical_formula_sum   'Ta1 Ti9 Sn6 Ge2'
_cell_volume   331.02389762
_cell_formula_units_Z   1
loop_
 _symmetry_equiv_pos_site_id
 _symmetry_equiv_pos_as_xyz
  1  'x, y, z'
loop_
 _atom_site_type_symbol
 _atom_site_label
 _atom_site_symmetry_multiplicity
 _atom_site_fract_x
 _atom_site_fract_y
 _atom_site_fract_z
 _atom_site_occupancy
  Ta  Ta0  1  0.333333  0.666667  0.500000  1
  Ti  Ti1  1  0.264522  0.998843  0.749340  1
  Ti  Ti2  1  0.734320  0.998843  0.250660  1
  Ti  Ti3  1  0.001157  0.265680  0.749340  1
  Ti  Ti4  1  0.001157  0.735478  0.250660  1
  Ti  Ti5  1  0.734320  0.735478  0.749340  1
  Ti  Ti6  1  0.264522  0.265680  0.250660  1
  Ti  Ti7  1  0.666667  0.333333  0.500000  1
  Ti  Ti8  1  0.666667  0.333333  0.000000  1
  Ti  Ti9  1  0.333333  0.666667  0.000000  1
  Sn  Sn10  1  0.609175  0.002066  0.751788  1
  Sn  Sn11  1  0.392891  0.002066  0.248212  1
  Sn  Sn12  1  0.997934  0.607109  0.751788  1
  Sn  Sn13  1  0.997934  0.390825  0.248212  1
  Sn  Sn14  1  0.392891  0.390825  0.751788  1
  Sn  Sn15  1  0.609175  0.607109  0.248212  1
  Ge  Ge16  1  0.000000  0.000000  0.500000  1
  Ge  Ge17  1  0.000000  0.000000  0.000000  1
