# generated using pymatgen
data_DyCl30
_symmetry_space_group_name_H-M   'P 1'
_cell_length_a   13.15359403
_cell_length_b   13.15359444
_cell_length_c   15.45058756
_cell_angle_alpha   82.97845231
_cell_angle_beta   82.97845071
_cell_angle_gamma   122.47946451
_symmetry_Int_Tables_number   1
_chemical_formula_structural   DyCl30
_chemical_formula_sum   'Dy1 Cl30'
_cell_volume   2181.08524909
_cell_formula_units_Z   1
loop_
 _symmetry_equiv_pos_site_id
 _symmetry_equiv_pos_as_xyz
  1  'x, y, z'
loop_
 _atom_site_type_symbol
 _atom_site_label
 _atom_site_symmetry_multiplicity
 _atom_site_fract_x
 _atom_site_fract_y
 _atom_site_fract_z
 _atom_site_occupancy
  Dy  Dy0  1  0.000000  0.000000  0.000000  1
  Cl  Cl1  1  0.936186  0.936186  0.178652  1
  Cl  Cl2  1  0.063814  0.063814  0.821348  1
  Cl  Cl3  1  0.117499  0.235231  0.005626  1
  Cl  Cl4  1  0.882501  0.764769  0.994374  1
  Cl  Cl5  1  0.235231  0.117499  0.005626  1
  Cl  Cl6  1  0.764769  0.882501  0.994374  1
  Cl  Cl7  1  0.198737  0.741587  0.067028  1
  Cl  Cl8  1  0.801263  0.258413  0.932972  1
  Cl  Cl9  1  0.689180  0.083311  0.263208  1
  Cl  Cl10  1  0.258413  0.801263  0.932972  1
  Cl  Cl11  1  0.310820  0.916689  0.736792  1
  Cl  Cl12  1  0.741587  0.198737  0.067028  1
  Cl  Cl13  1  0.982243  0.204553  0.768222  1
  Cl  Cl14  1  0.916689  0.310820  0.736792  1
  Cl  Cl15  1  0.017757  0.795447  0.231778  1
  Cl  Cl16  1  0.083311  0.689180  0.263208  1
  Cl  Cl17  1  0.795447  0.017757  0.231778  1
  Cl  Cl18  1  0.204553  0.982243  0.768222  1
  Cl  Cl19  1  0.465994  0.552201  0.262553  1
  Cl  Cl20  1  0.534006  0.447799  0.737447  1
  Cl  Cl21  1  0.508852  0.204516  0.450131  1
  Cl  Cl22  1  0.447799  0.534006  0.737447  1
  Cl  Cl23  1  0.491148  0.795484  0.549869  1
  Cl  Cl24  1  0.552201  0.465994  0.262553  1
  Cl  Cl25  1  0.239563  0.427575  0.548535  1
  Cl  Cl26  1  0.795484  0.491148  0.549869  1
  Cl  Cl27  1  0.760437  0.572425  0.451465  1
  Cl  Cl28  1  0.204516  0.508852  0.450131  1
  Cl  Cl29  1  0.572425  0.760437  0.451465  1
  Cl  Cl30  1  0.427575  0.239563  0.548535  1
