# generated using pymatgen
data_Pr9Ho11Pt16
_symmetry_space_group_name_H-M   'P 1'
_cell_length_a   7.61403537
_cell_length_b   7.71245040
_cell_length_c   14.89040893
_cell_angle_alpha   89.88545036
_cell_angle_beta   89.94703413
_cell_angle_gamma   90.10870025
_symmetry_Int_Tables_number   1
_chemical_formula_structural   Pr9Ho11Pt16
_chemical_formula_sum   'Pr9 Ho11 Pt16'
_cell_volume   874.40385232
_cell_formula_units_Z   1
loop_
 _symmetry_equiv_pos_site_id
 _symmetry_equiv_pos_as_xyz
  1  'x, y, z'
loop_
 _atom_site_type_symbol
 _atom_site_label
 _atom_site_symmetry_multiplicity
 _atom_site_fract_x
 _atom_site_fract_y
 _atom_site_fract_z
 _atom_site_occupancy
  Pr  Pr0  1  0.656692  0.831772  0.877560  1
  Pr  Pr1  1  0.998829  0.821170  0.406018  1
  Pr  Pr2  1  0.498088  0.677887  0.095385  1
  Pr  Pr3  1  0.501299  0.321496  0.593257  1
  Pr  Pr4  1  0.002389  0.180744  0.906431  1
  Pr  Pr5  1  0.000929  0.178375  0.593479  1
  Pr  Pr6  1  0.500112  0.321457  0.906173  1
  Pr  Pr7  1  0.498434  0.678805  0.405872  1
  Pr  Pr8  1  0.999015  0.820919  0.094398  1
  Ho  Ho9  1  0.680781  0.990629  0.250101  1
  Ho  Ho10  1  0.180710  0.509202  0.250154  1
  Ho  Ho11  1  0.820506  0.488592  0.748819  1
  Ho  Ho12  1  0.317875  0.010964  0.748986  1
  Ho  Ho13  1  0.656416  0.832097  0.623015  1
  Ho  Ho14  1  0.156755  0.667351  0.876078  1
  Ho  Ho15  1  0.843636  0.331955  0.376328  1
  Ho  Ho16  1  0.343163  0.168552  0.124121  1
  Ho  Ho17  1  0.343429  0.168015  0.376356  1
  Ho  Ho18  1  0.844017  0.332369  0.124454  1
  Ho  Ho19  1  0.156758  0.667956  0.623054  1
  Pt  Pt20  1  0.815321  0.636944  0.250188  1
  Pt  Pt21  1  0.314889  0.863057  0.250169  1
  Pt  Pt22  1  0.685084  0.140196  0.747953  1
  Pt  Pt23  1  0.183663  0.362115  0.749605  1
  Pt  Pt24  1  0.547061  0.379487  0.250308  1
  Pt  Pt25  1  0.047380  0.120488  0.250137  1
  Pt  Pt26  1  0.956891  0.880994  0.747794  1
  Pt  Pt27  1  0.450377  0.616819  0.747676  1
  Pt  Pt28  1  0.820792  0.536061  0.542930  1
  Pt  Pt29  1  0.315046  0.966091  0.958416  1
  Pt  Pt30  1  0.679154  0.035812  0.456813  1
  Pt  Pt31  1  0.180306  0.464448  0.043235  1
  Pt  Pt32  1  0.179139  0.464187  0.456750  1
  Pt  Pt33  1  0.679178  0.039299  0.046541  1
  Pt  Pt34  1  0.320925  0.964184  0.542917  1
  Pt  Pt35  1  0.824959  0.529517  0.958534  1
