# generated using pymatgen
data_Gd3Y4PaB20
_symmetry_space_group_name_H-M   'P 1'
_cell_length_a   7.12518908
_cell_length_b   7.10288965
_cell_length_c   7.14331173
_cell_angle_alpha   76.68537338
_cell_angle_beta   89.93971639
_cell_angle_gamma   90.44516415
_symmetry_Int_Tables_number   1
_chemical_formula_structural   Gd3Y4PaB20
_chemical_formula_sum   'Gd3 Y4 Pa1 B20'
_cell_volume   351.78924102
_cell_formula_units_Z   1
loop_
 _symmetry_equiv_pos_site_id
 _symmetry_equiv_pos_as_xyz
  1  'x, y, z'
loop_
 _atom_site_type_symbol
 _atom_site_label
 _atom_site_symmetry_multiplicity
 _atom_site_fract_x
 _atom_site_fract_y
 _atom_site_fract_z
 _atom_site_occupancy
  Gd  Gd0  1  0.191765  0.228853  0.873863  1
  Gd  Gd1  1  0.305339  0.228728  0.373920  1
  Gd  Gd2  1  0.809903  0.771825  0.126357  1
  Y  Y3  1  0.317869  0.756987  0.254728  1
  Y  Y4  1  0.810620  0.242530  0.248359  1
  Y  Y5  1  0.683656  0.243758  0.745379  1
  Y  Y6  1  0.189430  0.757613  0.751096  1
  Pa  Pa7  1  0.695959  0.773573  0.626059  1
  B  B8  1  0.502051  0.312587  0.042884  1
  B  B9  1  0.003049  0.685604  0.457548  1
  B  B10  1  0.498950  0.686086  0.958673  1
  B  B11  1  0.996934  0.311987  0.542886  1
  B  B12  1  0.496110  0.927155  0.919788  1
  B  B13  1  0.973959  0.070068  0.579089  1
  B  B14  1  0.514785  0.072118  0.075880  1
  B  B15  1  0.006610  0.925510  0.424006  1
  B  B16  1  0.325725  0.494709  0.040372  1
  B  B17  1  0.826535  0.504671  0.460358  1
  B  B18  1  0.673852  0.504703  0.959526  1
  B  B19  1  0.174290  0.494925  0.539988  1
  B  B20  1  0.910793  0.503162  0.909449  1
  B  B21  1  0.411299  0.503753  0.589424  1
  B  B22  1  0.089347  0.499381  0.089284  1
  B  B23  1  0.590088  0.503009  0.410082  1
  B  B24  1  0.961781  0.495893  0.674369  1
  B  B25  1  0.461872  0.502672  0.826235  1
  B  B26  1  0.039243  0.501106  0.326035  1
  B  B27  1  0.538187  0.497034  0.174365  1
