# generated using pymatgen
data_Sc12InFe3Bi
_symmetry_space_group_name_H-M   'P 1'
_cell_length_a   7.83589332
_cell_length_b   7.83589388
_cell_length_c   7.83589380
_cell_angle_alpha   108.29863169
_cell_angle_beta   108.01980328
_cell_angle_gamma   112.12845782
_symmetry_Int_Tables_number   1
_chemical_formula_structural   Sc12InFe3Bi
_chemical_formula_sum   'Sc12 In1 Fe3 Bi1'
_cell_volume   369.77417830
_cell_formula_units_Z   1
loop_
 _symmetry_equiv_pos_site_id
 _symmetry_equiv_pos_as_xyz
  1  'x, y, z'
loop_
 _atom_site_type_symbol
 _atom_site_label
 _atom_site_symmetry_multiplicity
 _atom_site_fract_x
 _atom_site_fract_y
 _atom_site_fract_z
 _atom_site_occupancy
  Sc  Sc0  1  0.310737  0.300220  0.610957  1
  Sc  Sc1  1  0.689263  0.699780  0.389043  1
  Sc  Sc2  1  0.689263  0.300220  0.989484  1
  Sc  Sc3  1  0.310737  0.699780  0.010516  1
  Sc  Sc4  1  0.195792  0.425223  0.229432  1
  Sc  Sc5  1  0.804208  0.574777  0.770568  1
  Sc  Sc6  1  0.195792  0.966359  0.770568  1
  Sc  Sc7  1  0.959077  0.192551  0.766528  1
  Sc  Sc8  1  0.804208  0.033641  0.229432  1
  Sc  Sc9  1  0.040923  0.807449  0.233472  1
  Sc  Sc10  1  0.426022  0.192551  0.233472  1
  Sc  Sc11  1  0.573978  0.807449  0.766528  1
  In  In12  1  0.500000  0.000000  0.500000  1
  Fe  Fe13  1  0.379997  0.379997  0.000000  1
  Fe  Fe14  1  0.620003  0.620003  0.000000  1
  Fe  Fe15  1  0.000000  0.000000  0.000000  1
  Bi  Bi16  1  0.000000  0.500000  0.500000  1
