# generated using pymatgen
data_ReSb12Pt2Rh
_symmetry_space_group_name_H-M   'P 1'
_cell_length_a   8.15029810
_cell_length_b   8.21934271
_cell_length_c   8.22823233
_cell_angle_alpha   109.74838506
_cell_angle_beta   109.25143543
_cell_angle_gamma   109.22038391
_symmetry_Int_Tables_number   1
_chemical_formula_structural   ReSb12Pt2Rh
_chemical_formula_sum   'Re1 Sb12 Pt2 Rh1'
_cell_volume   425.32320872
_cell_formula_units_Z   1
loop_
 _symmetry_equiv_pos_site_id
 _symmetry_equiv_pos_as_xyz
  1  'x, y, z'
loop_
 _atom_site_type_symbol
 _atom_site_label
 _atom_site_symmetry_multiplicity
 _atom_site_fract_x
 _atom_site_fract_y
 _atom_site_fract_z
 _atom_site_occupancy
  Re  Re0  1  0.500000  0.000000  0.000000  1
  Sb  Sb1  1  0.157863  0.814467  0.664643  1
  Sb  Sb2  1  0.842137  0.185533  0.335357  1
  Sb  Sb3  1  0.849878  0.503406  0.661474  1
  Sb  Sb4  1  0.150122  0.496594  0.338526  1
  Sb  Sb5  1  0.811480  0.654904  0.151611  1
  Sb  Sb6  1  0.188520  0.345096  0.848389  1
  Sb  Sb7  1  0.507489  0.664754  0.850290  1
  Sb  Sb8  1  0.492511  0.335246  0.149710  1
  Sb  Sb9  1  0.664670  0.155016  0.821217  1
  Sb  Sb10  1  0.335330  0.844984  0.178783  1
  Sb  Sb11  1  0.653025  0.847195  0.501572  1
  Sb  Sb12  1  0.346975  0.152805  0.498428  1
  Pt  Pt13  1  0.000000  0.000000  0.500000  1
  Pt  Pt14  1  0.500000  0.500000  0.500000  1
  Rh  Rh15  1  0.000000  0.500000  0.000000  1
