# generated using pymatgen
data_Tb3ErInPbAu4
_symmetry_space_group_name_H-M   'P 1'
_cell_length_a   8.07121214
_cell_length_b   8.08595294
_cell_length_c   3.71488100
_cell_angle_alpha   90.00000000
_cell_angle_beta   90.00000000
_cell_angle_gamma   90.41913548
_symmetry_Int_Tables_number   1
_chemical_formula_structural   Tb3ErInPbAu4
_chemical_formula_sum   'Tb3 Er1 In1 Pb1 Au4'
_cell_volume   242.43943185
_cell_formula_units_Z   1
loop_
 _symmetry_equiv_pos_site_id
 _symmetry_equiv_pos_as_xyz
  1  'x, y, z'
loop_
 _atom_site_type_symbol
 _atom_site_label
 _atom_site_symmetry_multiplicity
 _atom_site_fract_x
 _atom_site_fract_y
 _atom_site_fract_z
 _atom_site_occupancy
  Tb  Tb0  1  0.328189  0.834314  0.500000  1
  Tb  Tb1  1  0.166185  0.327494  0.500000  1
  Tb  Tb2  1  0.833112  0.671876  0.500000  1
  Er  Er3  1  0.672194  0.165267  0.500000  1
  In  In4  1  0.999434  0.000587  0.000000  1
  Pb  Pb5  1  0.500349  0.499701  0.000000  1
  Au  Au6  1  0.123455  0.630114  0.000000  1
  Au  Au7  1  0.873866  0.367265  0.000000  1
  Au  Au8  1  0.631836  0.878374  0.000000  1
  Au  Au9  1  0.371379  0.125007  0.000000  1
