# generated using pymatgen
data_DyMn3Al8Fe
_symmetry_space_group_name_H-M   'P 1'
_cell_length_a   5.15396874
_cell_length_b   6.69766853
_cell_length_c   6.69388313
_cell_angle_alpha   81.65656241
_cell_angle_beta   67.84359230
_cell_angle_gamma   67.37125640
_symmetry_Int_Tables_number   1
_chemical_formula_structural   DyMn3Al8Fe
_chemical_formula_sum   'Dy1 Mn3 Al8 Fe1'
_cell_volume   197.53242090
_cell_formula_units_Z   1
loop_
 _symmetry_equiv_pos_site_id
 _symmetry_equiv_pos_as_xyz
  1  'x, y, z'
loop_
 _atom_site_type_symbol
 _atom_site_label
 _atom_site_symmetry_multiplicity
 _atom_site_fract_x
 _atom_site_fract_y
 _atom_site_fract_z
 _atom_site_occupancy
  Dy  Dy0  1  0.000000  0.000000  0.000000  1
  Mn  Mn1  1  0.500000  0.500000  0.000000  1
  Mn  Mn2  1  0.000000  0.500000  0.000000  1
  Mn  Mn3  1  0.000000  0.000000  0.500000  1
  Al  Al4  1  0.997491  0.663537  0.338760  1
  Al  Al5  1  0.002509  0.336463  0.661240  1
  Al  Al6  1  0.661029  0.336463  0.338760  1
  Al  Al7  1  0.338971  0.663537  0.661240  1
  Al  Al8  1  0.498904  0.223507  0.773456  1
  Al  Al9  1  0.501096  0.776493  0.226544  1
  Al  Al10  1  0.722411  0.776493  0.773456  1
  Al  Al11  1  0.277589  0.223507  0.226544  1
  Fe  Fe12  1  0.500000  0.000000  0.500000  1
