# generated using pymatgen
data_Y4HoEr3Pt4
_symmetry_space_group_name_H-M   'P 1'
_cell_length_a   4.76439900
_cell_length_b   7.15475084
_cell_length_c   8.76314693
_cell_angle_alpha   89.96712346
_cell_angle_beta   90.00000000
_cell_angle_gamma   90.00000000
_symmetry_Int_Tables_number   1
_chemical_formula_structural   Y4HoEr3Pt4
_chemical_formula_sum   'Y4 Ho1 Er3 Pt4'
_cell_volume   298.71887223
_cell_formula_units_Z   1
loop_
 _symmetry_equiv_pos_site_id
 _symmetry_equiv_pos_as_xyz
  1  'x, y, z'
loop_
 _atom_site_type_symbol
 _atom_site_label
 _atom_site_symmetry_multiplicity
 _atom_site_fract_x
 _atom_site_fract_y
 _atom_site_fract_z
 _atom_site_occupancy
  Y  Y0  1  0.250000  0.990412  0.330785  1
  Y  Y1  1  0.250000  0.489698  0.168923  1
  Y  Y2  1  0.750000  0.010348  0.670438  1
  Y  Y3  1  0.750000  0.510155  0.829938  1
  Ho  Ho4  1  0.750000  0.644552  0.420493  1
  Er  Er5  1  0.250000  0.856165  0.921107  1
  Er  Er6  1  0.250000  0.355621  0.579159  1
  Er  Er7  1  0.750000  0.144160  0.079173  1
  Pt  Pt8  1  0.250000  0.254809  0.906132  1
  Pt  Pt9  1  0.250000  0.755326  0.595156  1
  Pt  Pt10  1  0.750000  0.745154  0.092194  1
  Pt  Pt11  1  0.750000  0.243599  0.406503  1
