# generated using pymatgen
data_Tb4Er2Al24ZnAgRu6
_symmetry_space_group_name_H-M   'P 1'
_cell_length_a   8.83458453
_cell_length_b   8.83458349
_cell_length_c   9.53863700
_cell_angle_alpha   90.03375001
_cell_angle_beta   89.96624351
_cell_angle_gamma   119.99559341
_symmetry_Int_Tables_number   1
_chemical_formula_structural   Tb4Er2Al24ZnAgRu6
_chemical_formula_sum   'Tb4 Er2 Al24 Zn1 Ag1 Ru6'
_cell_volume   644.77523052
_cell_formula_units_Z   1
loop_
 _symmetry_equiv_pos_site_id
 _symmetry_equiv_pos_as_xyz
  1  'x, y, z'
loop_
 _atom_site_type_symbol
 _atom_site_label
 _atom_site_symmetry_multiplicity
 _atom_site_fract_x
 _atom_site_fract_y
 _atom_site_fract_z
 _atom_site_occupancy
  Tb  Tb0  1  0.191722  0.383629  0.243743  1
  Tb  Tb1  1  0.808278  0.616371  0.756257  1
  Tb  Tb2  1  0.618798  0.808607  0.247536  1
  Tb  Tb3  1  0.381202  0.191393  0.752464  1
  Er  Er4  1  0.191631  0.803945  0.253734  1
  Er  Er5  1  0.808369  0.196055  0.746266  1
  Al  Al6  1  0.328583  0.672032  0.024223  1
  Al  Al7  1  0.671417  0.327968  0.975777  1
  Al  Al8  1  0.672457  0.345285  0.524909  1
  Al  Al9  1  0.327543  0.654715  0.475091  1
  Al  Al10  1  0.162326  0.325673  0.575595  1
  Al  Al11  1  0.837674  0.674327  0.424405  1
  Al  Al12  1  0.678614  0.828273  0.579034  1
  Al  Al13  1  0.848922  0.676556  0.081757  1
  Al  Al14  1  0.321386  0.171727  0.420966  1
  Al  Al15  1  0.151078  0.323444  0.918243  1
  Al  Al16  1  0.150717  0.828027  0.580389  1
  Al  Al17  1  0.321682  0.148974  0.080718  1
  Al  Al18  1  0.849283  0.171973  0.419611  1
  Al  Al19  1  0.678318  0.851026  0.919282  1
  Al  Al20  1  0.837569  0.163573  0.075578  1
  Al  Al21  1  0.162431  0.836427  0.924422  1
  Al  Al22  1  0.564325  0.126660  0.242204  1
  Al  Al23  1  0.435675  0.873340  0.757796  1
  Al  Al24  1  0.880370  0.439855  0.249897  1
  Al  Al25  1  0.119630  0.560145  0.750103  1
  Al  Al26  1  0.564890  0.436873  0.256657  1
  Al  Al27  1  0.435110  0.563127  0.743343  1
  Al  Al28  1  0.999803  0.998279  0.250150  1
  Al  Al29  1  0.000197  0.001721  0.749850  1
  Zn  Zn30  1  0.500000  0.500000  0.000000  1
  Ag  Ag31  1  0.500000  0.000000  0.500000  1
  Ru  Ru32  1  0.500000  0.000000  0.000000  1
  Ru  Ru33  1  0.000000  0.500000  0.000000  1
  Ru  Ru34  1  0.000000  0.500000  0.500000  1
  Ru  Ru35  1  0.500000  0.500000  0.500000  1
  Ru  Ru36  1  0.000000  0.000000  0.000000  1
  Ru  Ru37  1  0.000000  0.000000  0.500000  1
