# generated using pymatgen
data_Dy4Y4Sc11Si16Hg
_symmetry_space_group_name_H-M   'P 1'
_cell_length_a   7.05713834
_cell_length_b   7.40029478
_cell_length_c   14.02925304
_cell_angle_alpha   89.99884011
_cell_angle_beta   89.99127453
_cell_angle_gamma   89.91937670
_symmetry_Int_Tables_number   1
_chemical_formula_structural   Dy4Y4Sc11Si16Hg
_chemical_formula_sum   'Dy4 Y4 Sc11 Si16 Hg1'
_cell_volume   732.67565885
_cell_formula_units_Z   1
loop_
 _symmetry_equiv_pos_site_id
 _symmetry_equiv_pos_as_xyz
  1  'x, y, z'
loop_
 _atom_site_type_symbol
 _atom_site_label
 _atom_site_symmetry_multiplicity
 _atom_site_fract_x
 _atom_site_fract_y
 _atom_site_fract_z
 _atom_site_occupancy
  Dy  Dy0  1  0.511236  0.323892  0.097228  1
  Dy  Dy1  1  0.010168  0.174019  0.403113  1
  Dy  Dy2  1  0.511273  0.323938  0.402811  1
  Dy  Dy3  1  0.484425  0.673264  0.598278  1
  Y  Y4  1  0.010086  0.173867  0.096835  1
  Y  Y5  1  0.990858  0.817247  0.901662  1
  Y  Y6  1  0.484529  0.673135  0.901806  1
  Y  Y7  1  0.990885  0.817266  0.598320  1
  Sc  Sc8  1  0.838175  0.497965  0.250028  1
  Sc  Sc9  1  0.339511  0.002854  0.250011  1
  Sc  Sc10  1  0.657725  0.998397  0.749922  1
  Sc  Sc11  1  0.325646  0.183155  0.625741  1
  Sc  Sc12  1  0.671259  0.823895  0.375035  1
  Sc  Sc13  1  0.169695  0.679874  0.373177  1
  Sc  Sc14  1  0.671190  0.823882  0.124962  1
  Sc  Sc15  1  0.837887  0.325180  0.625837  1
  Sc  Sc16  1  0.325680  0.183192  0.874254  1
  Sc  Sc17  1  0.837862  0.325205  0.874126  1
  Sc  Sc18  1  0.169630  0.679880  0.126823  1
  Si  Si19  1  0.027771  0.096146  0.750015  1
  Si  Si20  1  0.967608  0.886640  0.250057  1
  Si  Si21  1  0.467159  0.617412  0.249996  1
  Si  Si22  1  0.544466  0.379110  0.749956  1
  Si  Si23  1  0.291578  0.889081  0.749916  1
  Si  Si24  1  0.713092  0.127910  0.250030  1
  Si  Si25  1  0.212720  0.373268  0.250092  1
  Si  Si26  1  0.769653  0.630669  0.749949  1
  Si  Si27  1  0.161822  0.459246  0.528565  1
  Si  Si28  1  0.842307  0.536110  0.461898  1
  Si  Si29  1  0.344262  0.965998  0.462114  1
  Si  Si30  1  0.842352  0.536248  0.038122  1
  Si  Si31  1  0.657320  0.033366  0.540484  1
  Si  Si32  1  0.161693  0.459219  0.971419  1
  Si  Si33  1  0.657298  0.033484  0.959521  1
  Si  Si34  1  0.344437  0.965961  0.037931  1
  Hg  Hg35  1  0.156741  0.510028  0.749966  1
