# generated using pymatgen
data_LiY2U(Co4P3)2
_symmetry_space_group_name_H-M   'P 1'
_cell_length_a   3.73102300
_cell_length_b   10.57863505
_cell_length_c   12.23653738
_cell_angle_alpha   90.48897603
_cell_angle_beta   90.00000000
_cell_angle_gamma   90.00000000
_symmetry_Int_Tables_number   1
_chemical_formula_structural   LiY2U(Co4P3)2
_chemical_formula_sum   'Li2 Y4 U2 Co16 P12'
_cell_volume   482.94790529
_cell_formula_units_Z   2
loop_
 _symmetry_equiv_pos_site_id
 _symmetry_equiv_pos_as_xyz
  1  'x, y, z'
loop_
 _atom_site_type_symbol
 _atom_site_label
 _atom_site_symmetry_multiplicity
 _atom_site_fract_x
 _atom_site_fract_y
 _atom_site_fract_z
 _atom_site_occupancy
  Li  Li0  1  0.500000  0.501975  0.153175  1
  Li  Li1  1  0.000000  0.999681  0.847929  1
  Y  Y2  1  0.500000  0.999903  0.478239  1
  Y  Y3  1  0.500000  0.184345  0.204824  1
  Y  Y4  1  0.000000  0.682334  0.795684  1
  Y  Y5  1  0.000000  0.317590  0.794339  1
  U  U6  1  0.000000  0.497883  0.529680  1
  U  U7  1  0.500000  0.823968  0.210307  1
  Co  Co8  1  0.500000  0.498896  0.691869  1
  Co  Co9  1  0.000000  0.988932  0.290864  1
  Co  Co10  1  0.000000  0.501946  0.986797  1
  Co  Co11  1  0.500000  0.001276  0.012534  1
  Co  Co12  1  0.500000  0.335325  0.995467  1
  Co  Co13  1  0.500000  0.668731  0.997859  1
  Co  Co14  1  0.000000  0.169124  0.002887  1
  Co  Co15  1  0.000000  0.833293  0.003077  1
  Co  Co16  1  0.500000  0.298421  0.432461  1
  Co  Co17  1  0.500000  0.696472  0.433038  1
  Co  Co18  1  0.000000  0.202496  0.566586  1
  Co  Co19  1  0.000000  0.796066  0.569412  1
  Co  Co20  1  0.500000  0.878244  0.708647  1
  Co  Co21  1  0.500000  0.121037  0.707368  1
  Co  Co22  1  0.000000  0.625313  0.293670  1
  Co  Co23  1  0.000000  0.378922  0.296762  1
  P  P24  1  0.500000  0.501078  0.881348  1
  P  P25  1  0.000000  0.001633  0.111545  1
  P  P26  1  0.500000  0.497277  0.347536  1
  P  P27  1  0.000000  0.999715  0.655021  1
  P  P28  1  0.500000  0.304074  0.614737  1
  P  P29  1  0.500000  0.693048  0.616018  1
  P  P30  1  0.000000  0.185324  0.382692  1
  P  P31  1  0.000000  0.807776  0.388779  1
  P  P32  1  0.500000  0.844310  0.893712  1
  P  P33  1  0.500000  0.157006  0.893392  1
  P  P34  1  0.000000  0.660075  0.106049  1
  P  P35  1  0.000000  0.346513  0.105701  1
