# generated using pymatgen
data_Nd10ZnBi6Sb
_symmetry_space_group_name_H-M   'P 1'
_cell_length_a   9.75673900
_cell_length_b   9.75673890
_cell_length_c   6.64733700
_cell_angle_alpha   90.00000000
_cell_angle_beta   90.00000000
_cell_angle_gamma   119.99999696
_symmetry_Int_Tables_number   1
_chemical_formula_structural   Nd10ZnBi6Sb
_chemical_formula_sum   'Nd10 Zn1 Bi6 Sb1'
_cell_volume   548.00902647
_cell_formula_units_Z   1
loop_
 _symmetry_equiv_pos_site_id
 _symmetry_equiv_pos_as_xyz
  1  'x, y, z'
loop_
 _atom_site_type_symbol
 _atom_site_label
 _atom_site_symmetry_multiplicity
 _atom_site_fract_x
 _atom_site_fract_y
 _atom_site_fract_z
 _atom_site_occupancy
  Nd  Nd0  1  0.666667  0.333333  0.000000  1
  Nd  Nd1  1  0.333333  0.666667  0.000000  1
  Nd  Nd2  1  0.333333  0.666667  0.500000  1
  Nd  Nd3  1  0.666667  0.333333  0.500000  1
  Nd  Nd4  1  0.734535  0.734535  0.744005  1
  Nd  Nd5  1  0.265465  0.000000  0.744005  1
  Nd  Nd6  1  0.000000  0.265465  0.744005  1
  Nd  Nd7  1  0.265465  0.265465  0.255995  1
  Nd  Nd8  1  0.734535  0.000000  0.255995  1
  Nd  Nd9  1  0.000000  0.734535  0.255995  1
  Zn  Zn10  1  0.000000  0.000000  0.500000  1
  Bi  Bi11  1  0.385539  0.385539  0.750838  1
  Bi  Bi12  1  0.614461  0.000000  0.750838  1
  Bi  Bi13  1  0.000000  0.614461  0.750838  1
  Bi  Bi14  1  0.614461  0.614461  0.249162  1
  Bi  Bi15  1  0.385539  0.000000  0.249162  1
  Bi  Bi16  1  0.000000  0.385539  0.249162  1
  Sb  Sb17  1  0.000000  0.000000  0.000000  1
