# generated using pymatgen
data_Zr6In3Sn3Ir5Rh
_symmetry_space_group_name_H-M   'P 1'
_cell_length_a   7.54680811
_cell_length_b   7.55087939
_cell_length_c   7.07683936
_cell_angle_alpha   90.03647003
_cell_angle_beta   89.98072291
_cell_angle_gamma   119.98701676
_symmetry_Int_Tables_number   1
_chemical_formula_structural   Zr6In3Sn3Ir5Rh
_chemical_formula_sum   'Zr6 In3 Sn3 Ir5 Rh1'
_cell_volume   349.29110415
_cell_formula_units_Z   1
loop_
 _symmetry_equiv_pos_site_id
 _symmetry_equiv_pos_as_xyz
  1  'x, y, z'
loop_
 _atom_site_type_symbol
 _atom_site_label
 _atom_site_symmetry_multiplicity
 _atom_site_fract_x
 _atom_site_fract_y
 _atom_site_fract_z
 _atom_site_occupancy
  Zr  Zr0  1  0.603464  0.997184  0.748141  1
  Zr  Zr1  1  0.394459  0.396411  0.749357  1
  Zr  Zr2  1  0.003392  0.606338  0.748455  1
  Zr  Zr3  1  0.603392  0.002828  0.251720  1
  Zr  Zr4  1  0.399959  0.396586  0.251917  1
  Zr  Zr5  1  0.998040  0.600655  0.250980  1
  In  In6  1  0.277471  0.999965  0.001378  1
  In  In7  1  0.731031  0.732169  0.498796  1
  In  In8  1  0.999015  0.267902  0.498712  1
  Sn  Sn9  1  0.001319  0.273332  0.001820  1
  Sn  Sn10  1  0.728012  0.726664  0.001965  1
  Sn  Sn11  1  0.261764  0.999980  0.497949  1
  Ir  Ir12  1  0.672282  0.336973  0.994387  1
  Ir  Ir13  1  0.659955  0.328632  0.505136  1
  Ir  Ir14  1  0.335184  0.662910  0.005786  1
  Ir  Ir15  1  0.331452  0.671452  0.494662  1
  Ir  Ir16  1  0.999901  0.999956  0.759727  1
  Rh  Rh17  1  0.999908  0.000062  0.239114  1
