# generated using pymatgen
data_Lu9Zn(SiB4)4
_symmetry_space_group_name_H-M   'P 1'
_cell_length_a   7.07587900
_cell_length_b   7.07587900
_cell_length_c   7.73147500
_cell_angle_alpha   90.00000000
_cell_angle_beta   90.00000000
_cell_angle_gamma   90.00000000
_symmetry_Int_Tables_number   1
_chemical_formula_structural   Lu9Zn(SiB4)4
_chemical_formula_sum   'Lu9 Zn1 Si4 B16'
_cell_volume   387.09998220
_cell_formula_units_Z   1
loop_
 _symmetry_equiv_pos_site_id
 _symmetry_equiv_pos_as_xyz
  1  'x, y, z'
loop_
 _atom_site_type_symbol
 _atom_site_label
 _atom_site_symmetry_multiplicity
 _atom_site_fract_x
 _atom_site_fract_y
 _atom_site_fract_z
 _atom_site_occupancy
  Lu  Lu0  1  0.681854  0.179401  0.228821  1
  Lu  Lu1  1  0.318146  0.820599  0.771179  1
  Lu  Lu2  1  0.318146  0.820599  0.228821  1
  Lu  Lu3  1  0.820599  0.681854  0.228821  1
  Lu  Lu4  1  0.820599  0.681854  0.771179  1
  Lu  Lu5  1  0.681854  0.179401  0.771179  1
  Lu  Lu6  1  0.179401  0.318146  0.771179  1
  Lu  Lu7  1  0.179401  0.318146  0.228821  1
  Lu  Lu8  1  0.500000  0.500000  0.500000  1
  Zn  Zn9  1  0.000000  0.000000  0.500000  1
  Si  Si10  1  0.116785  0.617912  0.500000  1
  Si  Si11  1  0.883215  0.382088  0.500000  1
  Si  Si12  1  0.382088  0.116785  0.500000  1
  Si  Si13  1  0.617912  0.883215  0.500000  1
  B  B14  1  0.175147  0.039163  0.000000  1
  B  B15  1  0.824853  0.960837  0.000000  1
  B  B16  1  0.960837  0.175147  0.000000  1
  B  B17  1  0.326695  0.539871  0.000000  1
  B  B18  1  0.039163  0.824853  0.000000  1
  B  B19  1  0.673305  0.460129  0.000000  1
  B  B20  1  0.539871  0.673305  0.000000  1
  B  B21  1  0.460129  0.326695  0.000000  1
  B  B22  1  0.088984  0.587867  0.000000  1
  B  B23  1  0.911016  0.412133  0.000000  1
  B  B24  1  0.412133  0.088984  0.000000  1
  B  B25  1  0.587867  0.911016  0.000000  1
  B  B26  1  0.000000  0.000000  0.165267  1
  B  B27  1  0.000000  0.000000  0.834733  1
  B  B28  1  0.500000  0.500000  0.830778  1
  B  B29  1  0.500000  0.500000  0.169222  1
