# generated using pymatgen
data_La2B2Pd5PtAu2
_symmetry_space_group_name_H-M   'P 1'
_cell_length_a   5.59712749
_cell_length_b   5.59712657
_cell_length_c   7.69761800
_cell_angle_alpha   90.00000000
_cell_angle_beta   90.00000000
_cell_angle_gamma   119.82664374
_symmetry_Int_Tables_number   1
_chemical_formula_structural   La2B2Pd5PtAu2
_chemical_formula_sum   'La2 B2 Pd5 Pt1 Au2'
_cell_volume   209.20560434
_cell_formula_units_Z   1
loop_
 _symmetry_equiv_pos_site_id
 _symmetry_equiv_pos_as_xyz
  1  'x, y, z'
loop_
 _atom_site_type_symbol
 _atom_site_label
 _atom_site_symmetry_multiplicity
 _atom_site_fract_x
 _atom_site_fract_y
 _atom_site_fract_z
 _atom_site_occupancy
  La  La0  1  0.000000  0.000000  0.505913  1
  La  La1  1  0.000000  0.000000  0.002459  1
  B  B2  1  0.335192  0.664808  0.997647  1
  B  B3  1  0.664808  0.335192  0.997647  1
  Pd  Pd4  1  0.500000  0.000000  0.191373  1
  Pd  Pd5  1  0.500000  0.000000  0.805549  1
  Pd  Pd6  1  0.000000  0.500000  0.191373  1
  Pd  Pd7  1  0.000000  0.500000  0.805549  1
  Pd  Pd8  1  0.500000  0.500000  0.195761  1
  Pt  Pt9  1  0.500000  0.500000  0.809623  1
  Au  Au10  1  0.333022  0.666978  0.498553  1
  Au  Au11  1  0.666978  0.333022  0.498553  1
