# generated using pymatgen
data_CoIrRhS8
_symmetry_space_group_name_H-M   'P 1'
_cell_length_a   5.64248185
_cell_length_b   5.65981325
_cell_length_c   5.63684732
_cell_angle_alpha   90.41286543
_cell_angle_beta   90.01559999
_cell_angle_gamma   90.41948881
_symmetry_Int_Tables_number   1
_chemical_formula_structural   CoIrRhS8
_chemical_formula_sum   'Co1 Ir1 Rh1 S8'
_cell_volume   180.00542993
_cell_formula_units_Z   1
loop_
 _symmetry_equiv_pos_site_id
 _symmetry_equiv_pos_as_xyz
  1  'x, y, z'
loop_
 _atom_site_type_symbol
 _atom_site_label
 _atom_site_symmetry_multiplicity
 _atom_site_fract_x
 _atom_site_fract_y
 _atom_site_fract_z
 _atom_site_occupancy
  Co  Co0  1  0.500000  0.000000  0.500000  1
  Ir  Ir1  1  0.500000  0.500000  0.000000  1
  Rh  Rh2  1  0.000000  0.500000  0.500000  1
  S  S3  1  0.396597  0.894666  0.113119  1
  S  S4  1  0.106177  0.391277  0.893234  1
  S  S5  1  0.883789  0.101293  0.399553  1
  S  S6  1  0.603403  0.105334  0.886881  1
  S  S7  1  0.893823  0.608723  0.106766  1
  S  S8  1  0.116211  0.898707  0.600447  1
  S  S9  1  0.606963  0.617995  0.610435  1
  S  S10  1  0.393037  0.382005  0.389565  1
