# generated using pymatgen
data_Ac8Si15Pd
_symmetry_space_group_name_H-M   'P 1'
_cell_length_a   8.42595900
_cell_length_b   8.42596138
_cell_length_c   9.20339300
_cell_angle_alpha   90.00000000
_cell_angle_beta   90.00000000
_cell_angle_gamma   119.99999460
_symmetry_Int_Tables_number   1
_chemical_formula_structural   Ac8Si15Pd
_chemical_formula_sum   'Ac8 Si15 Pd1'
_cell_volume   565.87098804
_cell_formula_units_Z   1
loop_
 _symmetry_equiv_pos_site_id
 _symmetry_equiv_pos_as_xyz
  1  'x, y, z'
loop_
 _atom_site_type_symbol
 _atom_site_label
 _atom_site_symmetry_multiplicity
 _atom_site_fract_x
 _atom_site_fract_y
 _atom_site_fract_z
 _atom_site_occupancy
  Ac  Ac0  1  0.499151  0.500849  0.752803  1
  Ac  Ac1  1  0.499150  0.500850  0.247215  1
  Ac  Ac2  1  0.001696  0.500849  0.752803  1
  Ac  Ac3  1  0.001702  0.500850  0.247215  1
  Ac  Ac4  1  0.499151  0.998304  0.752803  1
  Ac  Ac5  1  0.499150  0.998298  0.247215  1
  Ac  Ac6  1  0.000000  0.000000  0.751040  1
  Ac  Ac7  1  0.000000  0.000000  0.248955  1
  Si  Si8  1  0.834420  0.165580  0.999784  1
  Si  Si9  1  0.166989  0.833011  0.000254  1
  Si  Si10  1  0.331160  0.165580  0.999784  1
  Si  Si11  1  0.164422  0.835578  0.499741  1
  Si  Si12  1  0.666024  0.833011  0.000254  1
  Si  Si13  1  0.832970  0.167030  0.500216  1
  Si  Si14  1  0.834420  0.668840  0.999784  1
  Si  Si15  1  0.671154  0.835578  0.499741  1
  Si  Si16  1  0.166989  0.333976  0.000254  1
  Si  Si17  1  0.334058  0.167030  0.500216  1
  Si  Si18  1  0.164422  0.328846  0.499741  1
  Si  Si19  1  0.832970  0.665942  0.500216  1
  Si  Si20  1  0.666667  0.333333  0.000211  1
  Si  Si21  1  0.333333  0.666667  0.999728  1
  Si  Si22  1  0.333333  0.666667  0.500294  1
  Pd  Pd23  1  0.666667  0.333333  0.499729  1
