# generated using pymatgen
data_Li8Nd8Sn7Te
_symmetry_space_group_name_H-M   'P 1'
_cell_length_a   9.53462000
_cell_length_b   9.53752746
_cell_length_c   7.63590277
_cell_angle_alpha   90.11121793
_cell_angle_beta   90.00000000
_cell_angle_gamma   119.98991635
_symmetry_Int_Tables_number   1
_chemical_formula_structural   Li8Nd8Sn7Te
_chemical_formula_sum   'Li8 Nd8 Sn7 Te1'
_cell_volume   601.41359450
_cell_formula_units_Z   1
loop_
 _symmetry_equiv_pos_site_id
 _symmetry_equiv_pos_as_xyz
  1  'x, y, z'
loop_
 _atom_site_type_symbol
 _atom_site_label
 _atom_site_symmetry_multiplicity
 _atom_site_fract_x
 _atom_site_fract_y
 _atom_site_fract_z
 _atom_site_occupancy
  Li  Li0  1  0.166946  0.333892  0.277783  1
  Li  Li1  1  0.167897  0.833698  0.285726  1
  Li  Li2  1  0.665801  0.833698  0.285726  1
  Li  Li3  1  0.832971  0.665941  0.783998  1
  Li  Li4  1  0.830383  0.165265  0.788601  1
  Li  Li5  1  0.334882  0.165265  0.788601  1
  Li  Li6  1  0.334146  0.668293  0.669257  1
  Li  Li7  1  0.666522  0.333042  0.172140  1
  Nd  Nd8  1  0.511527  0.023056  0.494169  1
  Nd  Nd9  1  0.517306  0.492174  0.491697  1
  Nd  Nd10  1  0.974867  0.492174  0.491697  1
  Nd  Nd11  1  0.488341  0.976680  0.996097  1
  Nd  Nd12  1  0.494346  0.513855  0.996592  1
  Nd  Nd13  1  0.019510  0.513855  0.996592  1
  Nd  Nd14  1  0.997997  0.995995  0.497039  1
  Nd  Nd15  1  0.996860  0.993719  0.001455  1
  Sn  Sn16  1  0.166373  0.832874  0.731061  1
  Sn  Sn17  1  0.666500  0.832874  0.731061  1
  Sn  Sn18  1  0.833275  0.666549  0.232757  1
  Sn  Sn19  1  0.834362  0.167480  0.231238  1
  Sn  Sn20  1  0.333118  0.167480  0.231238  1
  Sn  Sn21  1  0.332585  0.665171  0.265534  1
  Sn  Sn22  1  0.666956  0.333911  0.765519  1
  Te  Te23  1  0.166530  0.333062  0.736397  1
