# generated using pymatgen
data_LaCe2In3Ir2Rh
_symmetry_space_group_name_H-M   'P 1'
_cell_length_a   7.75310864
_cell_length_b   7.75310815
_cell_length_c   3.96855300
_cell_angle_alpha   90.00000000
_cell_angle_beta   90.00000000
_cell_angle_gamma   120.93238002
_symmetry_Int_Tables_number   1
_chemical_formula_structural   LaCe2In3Ir2Rh
_chemical_formula_sum   'La1 Ce2 In3 Ir2 Rh1'
_cell_volume   204.62422694
_cell_formula_units_Z   1
loop_
 _symmetry_equiv_pos_site_id
 _symmetry_equiv_pos_as_xyz
  1  'x, y, z'
loop_
 _atom_site_type_symbol
 _atom_site_label
 _atom_site_symmetry_multiplicity
 _atom_site_fract_x
 _atom_site_fract_y
 _atom_site_fract_z
 _atom_site_occupancy
  La  La0  1  0.412985  0.412985  0.000000  1
  Ce  Ce1  1  0.583389  0.999129  0.000000  1
  Ce  Ce2  1  0.999129  0.583389  0.000000  1
  In  In3  1  0.999863  0.249753  0.500000  1
  In  In4  1  0.748634  0.748634  0.500000  1
  In  In5  1  0.249753  0.999863  0.500000  1
  Ir  Ir6  1  0.329885  0.680685  0.500000  1
  Ir  Ir7  1  0.680685  0.329885  0.500000  1
  Rh  Rh8  1  0.995679  0.995679  0.000000  1
