# generated using pymatgen
data_Ho(Th2Fe)3
_symmetry_space_group_name_H-M   'P 1'
_cell_length_a   9.67851100
_cell_length_b   9.67851091
_cell_length_c   6.19793500
_cell_angle_alpha   90.00000000
_cell_angle_beta   90.00000000
_cell_angle_gamma   120.00000374
_symmetry_Int_Tables_number   1
_chemical_formula_structural   Ho(Th2Fe)3
_chemical_formula_sum   'Ho2 Th12 Fe6'
_cell_volume   502.79936952
_cell_formula_units_Z   2
loop_
 _symmetry_equiv_pos_site_id
 _symmetry_equiv_pos_as_xyz
  1  'x, y, z'
loop_
 _atom_site_type_symbol
 _atom_site_label
 _atom_site_symmetry_multiplicity
 _atom_site_fract_x
 _atom_site_fract_y
 _atom_site_fract_z
 _atom_site_occupancy
  Ho  Ho0  1  0.333333  0.666667  0.035729  1
  Ho  Ho1  1  0.666667  0.333333  0.535729  1
  Th  Th2  1  0.125914  0.874086  0.250011  1
  Th  Th3  1  0.251828  0.125914  0.750011  1
  Th  Th4  1  0.874086  0.748172  0.750011  1
  Th  Th5  1  0.125914  0.251828  0.250011  1
  Th  Th6  1  0.748172  0.874086  0.250011  1
  Th  Th7  1  0.874086  0.125914  0.750011  1
  Th  Th8  1  0.541156  0.458844  0.067872  1
  Th  Th9  1  0.082312  0.541156  0.567872  1
  Th  Th10  1  0.458844  0.917688  0.567872  1
  Th  Th11  1  0.541156  0.082312  0.067872  1
  Th  Th12  1  0.917688  0.458844  0.067872  1
  Th  Th13  1  0.458844  0.541156  0.567872  1
  Fe  Fe14  1  0.819785  0.180215  0.280207  1
  Fe  Fe15  1  0.639568  0.819785  0.780207  1
  Fe  Fe16  1  0.180215  0.360432  0.780207  1
  Fe  Fe17  1  0.819785  0.639568  0.280207  1
  Fe  Fe18  1  0.360432  0.180215  0.280207  1
  Fe  Fe19  1  0.180215  0.819785  0.780207  1
