# generated using pymatgen
data_DyY15Cd4(IrPt)2
_symmetry_space_group_name_H-M   'P 1'
_cell_length_a   9.70212409
_cell_length_b   9.70212341
_cell_length_c   9.66738605
_cell_angle_alpha   60.02297749
_cell_angle_beta   60.02298287
_cell_angle_gamma   60.26431405
_symmetry_Int_Tables_number   1
_chemical_formula_structural   DyY15Cd4(IrPt)2
_chemical_formula_sum   'Dy1 Y15 Cd4 Ir2 Pt2'
_cell_volume   644.96934633
_cell_formula_units_Z   1
loop_
 _symmetry_equiv_pos_site_id
 _symmetry_equiv_pos_as_xyz
  1  'x, y, z'
loop_
 _atom_site_type_symbol
 _atom_site_label
 _atom_site_symmetry_multiplicity
 _atom_site_fract_x
 _atom_site_fract_y
 _atom_site_fract_z
 _atom_site_occupancy
  Dy  Dy0  1  0.349106  0.349106  0.345809  1
  Y  Y1  1  0.351836  0.351836  0.949856  1
  Y  Y2  1  0.356411  0.943148  0.351669  1
  Y  Y3  1  0.943148  0.356411  0.351669  1
  Y  Y4  1  0.805549  0.192091  0.190558  1
  Y  Y5  1  0.189408  0.806794  0.812529  1
  Y  Y6  1  0.192091  0.805549  0.190558  1
  Y  Y7  1  0.806794  0.189408  0.812529  1
  Y  Y8  1  0.191962  0.191962  0.807656  1
  Y  Y9  1  0.810902  0.810902  0.187520  1
  Y  Y10  1  0.938411  0.565101  0.561478  1
  Y  Y11  1  0.563740  0.937621  0.936991  1
  Y  Y12  1  0.565101  0.938411  0.561478  1
  Y  Y13  1  0.937621  0.563740  0.936991  1
  Y  Y14  1  0.563382  0.563382  0.937739  1
  Y  Y15  1  0.937343  0.937343  0.561630  1
  Cd  Cd16  1  0.580735  0.580735  0.581179  1
  Cd  Cd17  1  0.581107  0.581107  0.254915  1
  Cd  Cd18  1  0.580389  0.256246  0.581210  1
  Cd  Cd19  1  0.256246  0.580389  0.581210  1
  Ir  Ir20  1  0.141458  0.572980  0.143840  1
  Ir  Ir21  1  0.572980  0.141458  0.143840  1
  Pt  Pt22  1  0.142077  0.142077  0.145259  1
  Pt  Pt23  1  0.142205  0.142205  0.571889  1
