# generated using pymatgen
data_Pr3(ThTe3)4
_symmetry_space_group_name_H-M   'P 1'
_cell_length_a   12.66033000
_cell_length_b   12.66032879
_cell_length_c   4.37507500
_cell_angle_alpha   90.00000000
_cell_angle_beta   90.00000000
_cell_angle_gamma   120.00000317
_symmetry_Int_Tables_number   1
_chemical_formula_structural   Pr3(ThTe3)4
_chemical_formula_sum   'Pr3 Th4 Te12'
_cell_volume   607.30398459
_cell_formula_units_Z   1
loop_
 _symmetry_equiv_pos_site_id
 _symmetry_equiv_pos_as_xyz
  1  'x, y, z'
loop_
 _atom_site_type_symbol
 _atom_site_label
 _atom_site_symmetry_multiplicity
 _atom_site_fract_x
 _atom_site_fract_y
 _atom_site_fract_z
 _atom_site_occupancy
  Pr  Pr0  1  0.434395  0.275964  0.000000  1
  Pr  Pr1  1  0.724036  0.158433  0.000000  1
  Pr  Pr2  1  0.841567  0.565605  0.000000  1
  Th  Th3  1  0.157215  0.445072  0.500000  1
  Th  Th4  1  0.554928  0.712144  0.500000  1
  Th  Th5  1  0.287857  0.842785  0.500000  1
  Th  Th6  1  0.000000  0.000000  0.000000  1
  Te  Te7  1  0.209881  0.208329  0.500000  1
  Te  Te8  1  0.791671  0.001551  0.500000  1
  Te  Te9  1  0.998448  0.790119  0.500000  1
  Te  Te10  1  0.520733  0.133162  0.500000  1
  Te  Te11  1  0.866838  0.387572  0.500000  1
  Te  Te12  1  0.612428  0.479267  0.500000  1
  Te  Te13  1  0.373355  0.510099  0.000000  1
  Te  Te14  1  0.489900  0.863254  0.000000  1
  Te  Te15  1  0.136746  0.626645  0.000000  1
  Te  Te16  1  0.007782  0.253856  0.000000  1
  Te  Te17  1  0.746144  0.753926  0.000000  1
  Te  Te18  1  0.246073  0.992218  0.000000  1
