# generated using pymatgen
data_YbSi3PIr6
_symmetry_space_group_name_H-M   'P 1'
_cell_length_a   7.05699200
_cell_length_b   7.01431193
_cell_length_c   3.74878900
_cell_angle_alpha   90.00000000
_cell_angle_beta   90.00000000
_cell_angle_gamma   119.83153545
_symmetry_Int_Tables_number   1
_chemical_formula_structural   YbSi3PIr6
_chemical_formula_sum   'Yb1 Si3 P1 Ir6'
_cell_volume   160.97597705
_cell_formula_units_Z   1
loop_
 _symmetry_equiv_pos_site_id
 _symmetry_equiv_pos_as_xyz
  1  'x, y, z'
loop_
 _atom_site_type_symbol
 _atom_site_label
 _atom_site_symmetry_multiplicity
 _atom_site_fract_x
 _atom_site_fract_y
 _atom_site_fract_z
 _atom_site_occupancy
  Yb  Yb0  1  0.999600  0.999842  0.500000  1
  Si  Si1  1  0.666990  0.333476  0.500000  1
  Si  Si2  1  0.192549  0.387833  0.000000  1
  Si  Si3  1  0.192837  0.804979  0.000000  1
  P  P4  1  0.619252  0.809306  0.000000  1
  Ir  Ir5  1  0.464327  0.931141  0.500000  1
  Ir  Ir6  1  0.465444  0.534421  0.500000  1
  Ir  Ir7  1  0.068024  0.533565  0.500000  1
  Ir  Ir8  1  0.801098  0.606161  0.000000  1
  Ir  Ir9  1  0.800450  0.194155  0.000000  1
  Ir  Ir10  1  0.396098  0.198452  0.000000  1
