# generated using pymatgen
data_Ca2InNiPt
_symmetry_space_group_name_H-M   'P 1'
_cell_length_a   5.72822479
_cell_length_b   5.72822400
_cell_length_c   8.08742962
_cell_angle_alpha   77.59773939
_cell_angle_beta   77.59774116
_cell_angle_gamma   60.03029379
_symmetry_Int_Tables_number   1
_chemical_formula_structural   Ca2InNiPt
_chemical_formula_sum   'Ca4 In2 Ni2 Pt2'
_cell_volume   222.70276525
_cell_formula_units_Z   2
loop_
 _symmetry_equiv_pos_site_id
 _symmetry_equiv_pos_as_xyz
  1  'x, y, z'
loop_
 _atom_site_type_symbol
 _atom_site_label
 _atom_site_symmetry_multiplicity
 _atom_site_fract_x
 _atom_site_fract_y
 _atom_site_fract_z
 _atom_site_occupancy
  Ca  Ca0  1  0.502772  0.794432  0.352411  1
  Ca  Ca1  1  0.205568  0.497228  0.147589  1
  Ca  Ca2  1  0.500594  0.205139  0.648181  1
  Ca  Ca3  1  0.794861  0.499406  0.851819  1
  In  In4  1  0.864579  0.135421  0.250000  1
  In  In5  1  0.151645  0.848355  0.750000  1
  Ni  Ni6  1  0.272130  0.994915  0.995743  1
  Ni  Ni7  1  0.005085  0.727870  0.504257  1
  Pt  Pt8  1  0.703364  0.000597  0.002390  1
  Pt  Pt9  1  0.999403  0.296636  0.497610  1
