# generated using pymatgen
data_CoSb3(PO4)6
_symmetry_space_group_name_H-M   'P 1'
_cell_length_a   8.36670219
_cell_length_b   8.36670266
_cell_length_c   8.92188200
_cell_angle_alpha   62.03794284
_cell_angle_beta   62.03794111
_cell_angle_gamma   59.99999089
_symmetry_Int_Tables_number   1
_chemical_formula_structural   CoSb3(PO4)6
_chemical_formula_sum   'Co1 Sb3 P6 O24'
_cell_volume   454.73931998
_cell_formula_units_Z   1
loop_
 _symmetry_equiv_pos_site_id
 _symmetry_equiv_pos_as_xyz
  1  'x, y, z'
loop_
 _atom_site_type_symbol
 _atom_site_label
 _atom_site_symmetry_multiplicity
 _atom_site_fract_x
 _atom_site_fract_y
 _atom_site_fract_z
 _atom_site_occupancy
  Co  Co0  1  0.849515  0.849515  0.451458  1
  Sb  Sb1  1  0.149563  0.149563  0.551311  1
  Sb  Sb2  1  0.356212  0.356212  0.931363  1
  Sb  Sb3  1  0.642722  0.642722  0.071837  1
  P  P4  1  0.748777  0.035758  0.741961  1
  P  P5  1  0.035758  0.473505  0.741961  1
  P  P6  1  0.473505  0.748777  0.741961  1
  P  P7  1  0.544422  0.240323  0.254705  1
  P  P8  1  0.960549  0.544422  0.254705  1
  P  P9  1  0.240323  0.960549  0.254705  1
  O  O10  1  0.295849  0.115187  0.072376  1
  O  O11  1  0.516588  0.295849  0.072376  1
  O  O12  1  0.958163  0.017852  0.705595  1
  O  O13  1  0.115187  0.516588  0.072376  1
  O  O14  1  0.607381  0.238627  0.766490  1
  O  O15  1  0.718783  0.017135  0.596930  1
  O  O16  1  0.017852  0.318390  0.705595  1
  O  O17  1  0.238627  0.387501  0.766490  1
  O  O18  1  0.387501  0.607381  0.766490  1
  O  O19  1  0.339961  0.283367  0.399395  1
  O  O20  1  0.682922  0.034446  0.299216  1
  O  O21  1  0.977278  0.339961  0.399395  1
  O  O22  1  0.017135  0.667152  0.596930  1
  O  O23  1  0.318390  0.958163  0.705595  1
  O  O24  1  0.667152  0.718783  0.596930  1
  O  O25  1  0.619680  0.388562  0.233871  1
  O  O26  1  0.757887  0.619680  0.233871  1
  O  O27  1  0.983416  0.682922  0.299216  1
  O  O28  1  0.283367  0.977278  0.399395  1
  O  O29  1  0.388562  0.757887  0.233871  1
  O  O30  1  0.881195  0.483606  0.927471  1
  O  O31  1  0.034446  0.983416  0.299216  1
  O  O32  1  0.483606  0.707729  0.927471  1
  O  O33  1  0.707729  0.881195  0.927471  1
