# generated using pymatgen
data_Ti4Mo5Pd
_symmetry_space_group_name_H-M   'P 1'
_cell_length_a   4.46406520
_cell_length_b   8.25712474
_cell_length_c   4.45835400
_cell_angle_alpha   90.00000000
_cell_angle_beta   90.00000000
_cell_angle_gamma   74.29370739
_symmetry_Int_Tables_number   1
_chemical_formula_structural   Ti4Mo5Pd
_chemical_formula_sum   'Ti4 Mo5 Pd1'
_cell_volume   158.20046728
_cell_formula_units_Z   1
loop_
 _symmetry_equiv_pos_site_id
 _symmetry_equiv_pos_as_xyz
  1  'x, y, z'
loop_
 _atom_site_type_symbol
 _atom_site_label
 _atom_site_symmetry_multiplicity
 _atom_site_fract_x
 _atom_site_fract_y
 _atom_site_fract_z
 _atom_site_occupancy
  Ti  Ti0  1  0.083577  0.999376  0.000000  1
  Ti  Ti1  1  0.283666  0.600574  0.000000  1
  Ti  Ti2  1  0.583756  0.998593  0.500001  1
  Ti  Ti3  1  0.782826  0.601358  0.500001  1
  Mo  Mo4  1  0.480048  0.206060  0.000000  1
  Mo  Mo5  1  0.886077  0.394071  0.000000  1
  Mo  Mo6  1  0.683810  0.799842  0.000000  1
  Mo  Mo7  1  0.979736  0.206675  0.500001  1
  Mo  Mo8  1  0.386320  0.393478  0.500001  1
  Pd  Pd9  1  0.183361  0.799973  0.500001  1
