# generated using pymatgen
data_K5Rb(FeBr4)6
_symmetry_space_group_name_H-M   'P 1'
_cell_length_a   13.32579854
_cell_length_b   13.36750483
_cell_length_c   13.34561300
_cell_angle_alpha   115.24743295
_cell_angle_beta   114.87555968
_cell_angle_gamma   114.77801335
_symmetry_Int_Tables_number   1
_chemical_formula_structural   K5Rb(FeBr4)6
_chemical_formula_sum   'K5 Rb1 Fe6 Br24'
_cell_volume   1334.44178913
_cell_formula_units_Z   1
loop_
 _symmetry_equiv_pos_site_id
 _symmetry_equiv_pos_as_xyz
  1  'x, y, z'
loop_
 _atom_site_type_symbol
 _atom_site_label
 _atom_site_symmetry_multiplicity
 _atom_site_fract_x
 _atom_site_fract_y
 _atom_site_fract_z
 _atom_site_occupancy
  K  K0  1  0.877713  0.685425  0.093722  1
  K  K1  1  0.092462  0.878461  0.685775  1
  K  K2  1  0.685140  0.093546  0.877833  1
  K  K3  1  0.185474  0.378663  0.594891  1
  K  K4  1  0.592737  0.184954  0.376800  1
  Rb  Rb5  1  0.379738  0.596060  0.187023  1
  Fe  Fe6  1  0.864808  0.075162  0.678592  1
  Fe  Fe7  1  0.679250  0.866149  0.076450  1
  Fe  Fe8  1  0.076347  0.678734  0.865954  1
  Fe  Fe9  1  0.576998  0.367127  0.180004  1
  Fe  Fe10  1  0.179799  0.576354  0.364930  1
  Fe  Fe11  1  0.365913  0.179270  0.576898  1
  Br  Br12  1  0.957985  0.110957  0.896809  1
  Br  Br13  1  0.898449  0.959870  0.114121  1
  Br  Br14  1  0.115297  0.898952  0.962109  1
  Br  Br15  1  0.616219  0.462204  0.400776  1
  Br  Br16  1  0.399469  0.614170  0.463728  1
  Br  Br17  1  0.459821  0.397787  0.614141  1
  Br  Br18  1  0.061790  0.313058  0.767007  1
  Br  Br19  1  0.772702  0.066976  0.318034  1
  Br  Br20  1  0.318523  0.773549  0.066002  1
  Br  Br21  1  0.817697  0.565706  0.272518  1
  Br  Br22  1  0.272691  0.817567  0.565432  1
  Br  Br23  1  0.565826  0.272623  0.818016  1
  Br  Br24  1  0.629816  0.014971  0.558620  1
  Br  Br25  1  0.556473  0.628928  0.011370  1
  Br  Br26  1  0.012066  0.555234  0.628190  1
  Br  Br27  1  0.510222  0.128238  0.054210  1
  Br  Br28  1  0.052877  0.510071  0.126469  1
  Br  Br29  1  0.128653  0.056634  0.512223  1
  Br  Br30  1  0.801167  0.857439  0.484472  1
  Br  Br31  1  0.483635  0.797981  0.855916  1
  Br  Br32  1  0.855933  0.483318  0.797585  1
  Br  Br33  1  0.355095  0.295743  0.981677  1
  Br  Br34  1  0.984631  0.356188  0.297038  1
  Br  Br35  1  0.297382  0.982729  0.355462  1
