# generated using pymatgen
data_YHo3(OF4)2
_symmetry_space_group_name_H-M   'P 1'
_cell_length_a   6.75605701
_cell_length_b   6.75703240
_cell_length_c   5.70262637
_cell_angle_alpha   79.83364145
_cell_angle_beta   79.85141816
_cell_angle_gamma   46.30070521
_symmetry_Int_Tables_number   1
_chemical_formula_structural   YHo3(OF4)2
_chemical_formula_sum   'Y1 Ho3 O2 F8'
_cell_volume   184.71795403
_cell_formula_units_Z   1
loop_
 _symmetry_equiv_pos_site_id
 _symmetry_equiv_pos_as_xyz
  1  'x, y, z'
loop_
 _atom_site_type_symbol
 _atom_site_label
 _atom_site_symmetry_multiplicity
 _atom_site_fract_x
 _atom_site_fract_y
 _atom_site_fract_z
 _atom_site_occupancy
  Y  Y0  1  0.103988  0.681288  0.577292  1
  Ho  Ho1  1  0.681460  0.104082  0.077308  1
  Ho  Ho2  1  0.318781  0.895977  0.922612  1
  Ho  Ho3  1  0.895848  0.318720  0.422086  1
  O  O4  1  0.950405  0.050396  0.750524  1
  O  O5  1  0.048530  0.952516  0.248424  1
  F  F6  1  0.317243  0.513685  0.924414  1
  F  F7  1  0.517029  0.313659  0.421922  1
  F  F8  1  0.703994  0.854758  0.830007  1
  F  F9  1  0.852466  0.705976  0.326972  1
  F  F10  1  0.146675  0.292670  0.671302  1
  F  F11  1  0.293716  0.146565  0.171465  1
  F  F12  1  0.486767  0.683211  0.577857  1
  F  F13  1  0.683097  0.486498  0.077814  1
