# generated using pymatgen
data_BaTcClO4
_symmetry_space_group_name_H-M   'P 1'
_cell_length_a   4.73532100
_cell_length_b   5.84379400
_cell_length_c   9.87657100
_cell_angle_alpha   90.00000000
_cell_angle_beta   90.00000000
_cell_angle_gamma   90.00000000
_symmetry_Int_Tables_number   1
_chemical_formula_structural   BaTcClO4
_chemical_formula_sum   'Ba2 Tc2 Cl2 O8'
_cell_volume   273.30684751
_cell_formula_units_Z   2
loop_
 _symmetry_equiv_pos_site_id
 _symmetry_equiv_pos_as_xyz
  1  'x, y, z'
loop_
 _atom_site_type_symbol
 _atom_site_label
 _atom_site_symmetry_multiplicity
 _atom_site_fract_x
 _atom_site_fract_y
 _atom_site_fract_z
 _atom_site_occupancy
  Ba  Ba0  1  0.490519  0.000000  0.817673  1
  Ba  Ba1  1  0.990519  0.500000  0.182327  1
  Tc  Tc2  1  0.402764  0.000000  0.367071  1
  Tc  Tc3  1  0.902764  0.500000  0.632929  1
  Cl  Cl4  1  0.993811  0.000000  0.035349  1
  Cl  Cl5  1  0.493811  0.500000  0.964651  1
  O  O6  1  0.037907  0.000000  0.366159  1
  O  O7  1  0.537907  0.500000  0.633841  1
  O  O8  1  0.511044  0.247106  0.281137  1
  O  O9  1  0.011044  0.252894  0.718863  1
  O  O10  1  0.011044  0.747106  0.718863  1
  O  O11  1  0.511044  0.752894  0.281137  1
  O  O12  1  0.521100  0.000000  0.533806  1
  O  O13  1  0.021100  0.500000  0.466194  1
