# generated using pymatgen
data_Nb3B2Os2Ru3
_symmetry_space_group_name_H-M   'P 1'
_cell_length_a   9.47732200
_cell_length_b   9.56592800
_cell_length_c   3.01834700
_cell_angle_alpha   90.00000000
_cell_angle_beta   90.00000000
_cell_angle_gamma   90.00000000
_symmetry_Int_Tables_number   1
_chemical_formula_structural   Nb3B2Os2Ru3
_chemical_formula_sum   'Nb6 B4 Os4 Ru6'
_cell_volume   273.64146730
_cell_formula_units_Z   2
loop_
 _symmetry_equiv_pos_site_id
 _symmetry_equiv_pos_as_xyz
  1  'x, y, z'
loop_
 _atom_site_type_symbol
 _atom_site_label
 _atom_site_symmetry_multiplicity
 _atom_site_fract_x
 _atom_site_fract_y
 _atom_site_fract_z
 _atom_site_occupancy
  Nb  Nb0  1  0.823616  0.676757  0.000000  1
  Nb  Nb1  1  0.176384  0.323243  0.000000  1
  Nb  Nb2  1  0.323616  0.823243  0.000000  1
  Nb  Nb3  1  0.676384  0.176757  0.000000  1
  Nb  Nb4  1  0.500000  0.500000  0.000000  1
  Nb  Nb5  1  0.000000  0.000000  0.000000  1
  B  B6  1  0.620963  0.878878  0.000000  1
  B  B7  1  0.379037  0.121122  0.000000  1
  B  B8  1  0.120963  0.621122  0.000000  1
  B  B9  1  0.879037  0.378878  0.000000  1
  Os  Os10  1  0.571597  0.720195  0.500000  1
  Os  Os11  1  0.428403  0.279805  0.500000  1
  Os  Os12  1  0.071597  0.779805  0.500000  1
  Os  Os13  1  0.928403  0.220195  0.500000  1
  Ru  Ru14  1  0.281351  0.570692  0.500000  1
  Ru  Ru15  1  0.718649  0.429308  0.500000  1
  Ru  Ru16  1  0.218649  0.070692  0.500000  1
  Ru  Ru17  1  0.781351  0.929308  0.500000  1
  Ru  Ru18  1  0.500000  0.000000  0.500000  1
  Ru  Ru19  1  0.000000  0.500000  0.500000  1
