# generated using pymatgen
data_NdSiBO5
_symmetry_space_group_name_H-M   'P 1'
_cell_length_a   6.88555600
_cell_length_b   6.88555551
_cell_length_c   6.67285500
_cell_angle_alpha   90.00000000
_cell_angle_beta   90.00000000
_cell_angle_gamma   119.99998315
_symmetry_Int_Tables_number   1
_chemical_formula_structural   NdSiBO5
_chemical_formula_sum   'Nd3 Si3 B3 O15'
_cell_volume   273.98096538
_cell_formula_units_Z   3
loop_
 _symmetry_equiv_pos_site_id
 _symmetry_equiv_pos_as_xyz
  1  'x, y, z'
loop_
 _atom_site_type_symbol
 _atom_site_label
 _atom_site_symmetry_multiplicity
 _atom_site_fract_x
 _atom_site_fract_y
 _atom_site_fract_z
 _atom_site_occupancy
  Nd  Nd0  1  0.584143  0.999589  0.000755  1
  Nd  Nd1  1  0.000411  0.584553  0.334089  1
  Nd  Nd2  1  0.415447  0.415858  0.667422  1
  Si  Si3  1  0.582032  0.999671  0.502674  1
  Si  Si4  1  0.000329  0.582361  0.836008  1
  Si  Si5  1  0.417640  0.417969  0.169341  1
  B  B6  1  0.116218  0.015840  0.970843  1
  B  B7  1  0.984159  0.100377  0.304177  1
  B  B8  1  0.899622  0.883781  0.637510  1
  O  O9  1  0.067528  0.053720  0.767842  1
  O  O10  1  0.946279  0.013807  0.101174  1
  O  O11  1  0.986192  0.932474  0.434510  1
  O  O12  1  0.459701  0.605326  0.002124  1
  O  O13  1  0.394674  0.854374  0.335458  1
  O  O14  1  0.145626  0.540300  0.668792  1
  O  O15  1  0.609469  0.472401  0.334332  1
  O  O16  1  0.527599  0.137068  0.667665  1
  O  O17  1  0.862932  0.390531  0.000999  1
  O  O18  1  0.192400  0.331916  0.318243  1
  O  O19  1  0.668083  0.860482  0.651577  1
  O  O20  1  0.139517  0.807600  0.984909  1
  O  O21  1  0.351729  0.195112  0.024186  1
  O  O22  1  0.804889  0.156616  0.357520  1
  O  O23  1  0.843383  0.648270  0.690854  1
