# generated using pymatgen
data_Nd8NiPI10
_symmetry_space_group_name_H-M   'P 1'
_cell_length_a   4.24234400
_cell_length_b   9.05947300
_cell_length_c   19.09019400
_cell_angle_alpha   90.00000000
_cell_angle_beta   90.00000000
_cell_angle_gamma   90.00000000
_symmetry_Int_Tables_number   1
_chemical_formula_structural   Nd8NiPI10
_chemical_formula_sum   'Nd8 Ni1 P1 I10'
_cell_volume   733.70107973
_cell_formula_units_Z   1
loop_
 _symmetry_equiv_pos_site_id
 _symmetry_equiv_pos_as_xyz
  1  'x, y, z'
loop_
 _atom_site_type_symbol
 _atom_site_label
 _atom_site_symmetry_multiplicity
 _atom_site_fract_x
 _atom_site_fract_y
 _atom_site_fract_z
 _atom_site_occupancy
  Nd  Nd0  1  0.000000  0.370820  0.854724  1
  Nd  Nd1  1  0.500000  0.574780  0.000000  1
  Nd  Nd2  1  0.000000  0.370820  0.145276  1
  Nd  Nd3  1  0.000000  0.833982  0.500000  1
  Nd  Nd4  1  0.500000  0.629201  0.355090  1
  Nd  Nd5  1  0.000000  0.420013  0.500000  1
  Nd  Nd6  1  0.500000  0.629201  0.644910  1
  Nd  Nd7  1  0.500000  0.169154  0.000000  1
  Ni  Ni8  1  0.000000  0.373670  0.000000  1
  P  P9  1  0.500000  0.627143  0.500000  1
  I  I10  1  0.500000  0.109328  0.169898  1
  I  I11  1  0.000000  0.367037  0.669756  1
  I  I12  1  0.000000  0.870640  0.000000  1
  I  I13  1  0.000000  0.886279  0.333779  1
  I  I14  1  0.500000  0.109328  0.830102  1
  I  I15  1  0.500000  0.638163  0.825553  1
  I  I16  1  0.000000  0.886279  0.666221  1
  I  I17  1  0.000000  0.367037  0.330244  1
  I  I18  1  0.500000  0.638163  0.174447  1
  I  I19  1  0.500000  0.128963  0.500000  1
