# generated using pymatgen
data_Li2Ce7DySi8O3
_symmetry_space_group_name_H-M   'P 1'
_cell_length_a   10.43496100
_cell_length_b   10.25448089
_cell_length_c   4.36040200
_cell_angle_alpha   90.00000000
_cell_angle_beta   90.00000000
_cell_angle_gamma   120.58394515
_symmetry_Int_Tables_number   1
_chemical_formula_structural   Li2Ce7DySi8O3
_chemical_formula_sum   'Li2 Ce7 Dy1 Si8 O3'
_cell_volume   401.67610331
_cell_formula_units_Z   1
loop_
 _symmetry_equiv_pos_site_id
 _symmetry_equiv_pos_as_xyz
  1  'x, y, z'
loop_
 _atom_site_type_symbol
 _atom_site_label
 _atom_site_symmetry_multiplicity
 _atom_site_fract_x
 _atom_site_fract_y
 _atom_site_fract_z
 _atom_site_occupancy
  Li  Li0  1  0.000000  0.500000  0.500000  1
  Li  Li1  1  0.500000  0.500000  0.500000  1
  Ce  Ce2  1  0.195850  0.766004  0.000000  1
  Ce  Ce3  1  0.215692  0.431383  0.000000  1
  Ce  Ce4  1  0.784308  0.568617  0.000000  1
  Ce  Ce5  1  0.429845  0.233996  0.000000  1
  Ce  Ce6  1  0.000000  0.000000  0.000000  1
  Ce  Ce7  1  0.570155  0.766004  0.000000  1
  Ce  Ce8  1  0.804150  0.233996  0.000000  1
  Dy  Dy9  1  0.500000  0.000000  0.500000  1
  Si  Si10  1  0.667385  0.334770  0.500000  1
  Si  Si11  1  0.996807  0.770373  0.500000  1
  Si  Si12  1  0.332615  0.665230  0.500000  1
  Si  Si13  1  0.226434  0.229627  0.500000  1
  Si  Si14  1  0.773566  0.770373  0.500000  1
  Si  Si15  1  0.775921  0.000000  0.500000  1
  Si  Si16  1  0.224079  0.000000  0.500000  1
  Si  Si17  1  0.003193  0.229627  0.500000  1
  O  O18  1  0.500000  0.500000  0.000000  1
  O  O19  1  0.500000  0.000000  0.000000  1
  O  O20  1  0.000000  0.500000  0.000000  1
