# generated using pymatgen
data_La4Nd6IrOs3
_symmetry_space_group_name_H-M   'P 1'
_cell_length_a   9.02256003
_cell_length_b   9.00464524
_cell_length_c   7.40793528
_cell_angle_alpha   84.05366403
_cell_angle_beta   84.01086552
_cell_angle_gamma   43.57872051
_symmetry_Int_Tables_number   1
_chemical_formula_structural   La4Nd6IrOs3
_chemical_formula_sum   'La4 Nd6 Ir1 Os3'
_cell_volume   412.28156967
_cell_formula_units_Z   1
loop_
 _symmetry_equiv_pos_site_id
 _symmetry_equiv_pos_as_xyz
  1  'x, y, z'
loop_
 _atom_site_type_symbol
 _atom_site_label
 _atom_site_symmetry_multiplicity
 _atom_site_fract_x
 _atom_site_fract_y
 _atom_site_fract_z
 _atom_site_occupancy
  La  La0  1  0.020775  0.794311  0.908377  1
  La  La1  1  0.203022  0.983653  0.590448  1
  La  La2  1  0.985325  0.203066  0.090033  1
  La  La3  1  0.799946  0.015227  0.411961  1
  Nd  Nd4  1  0.356596  0.209764  0.817693  1
  Nd  Nd5  1  0.788734  0.643717  0.682520  1
  Nd  Nd6  1  0.642592  0.786758  0.182461  1
  Nd  Nd7  1  0.207436  0.359433  0.319963  1
  Nd  Nd8  1  0.570313  0.432024  0.747429  1
  Nd  Nd9  1  0.431030  0.569261  0.249771  1
  Ir  Ir10  1  0.601332  0.174075  0.077893  1
  Os  Os11  1  0.171562  0.607220  0.578305  1
  Os  Os12  1  0.392706  0.828893  0.922679  1
  Os  Os13  1  0.828630  0.392598  0.420465  1
