# generated using pymatgen
data_Cs2Rb2MnCoBr8
_symmetry_space_group_name_H-M   'P 1'
_cell_length_a   7.86590800
_cell_length_b   10.27299043
_cell_length_c   13.68346394
_cell_angle_alpha   89.90446977
_cell_angle_beta   90.00000000
_cell_angle_gamma   90.00000000
_symmetry_Int_Tables_number   1
_chemical_formula_structural   Cs2Rb2MnCoBr8
_chemical_formula_sum   'Cs4 Rb4 Mn2 Co2 Br16'
_cell_volume   1105.70989124
_cell_formula_units_Z   2
loop_
 _symmetry_equiv_pos_site_id
 _symmetry_equiv_pos_as_xyz
  1  'x, y, z'
loop_
 _atom_site_type_symbol
 _atom_site_label
 _atom_site_symmetry_multiplicity
 _atom_site_fract_x
 _atom_site_fract_y
 _atom_site_fract_z
 _atom_site_occupancy
  Cs  Cs0  1  0.250000  0.638163  0.910939  1
  Cs  Cs1  1  0.750000  0.361837  0.089061  1
  Cs  Cs2  1  0.750000  0.863560  0.408574  1
  Cs  Cs3  1  0.250000  0.136440  0.591426  1
  Rb  Rb4  1  0.250000  0.984221  0.171076  1
  Rb  Rb5  1  0.750000  0.015779  0.828924  1
  Rb  Rb6  1  0.750000  0.515512  0.674192  1
  Rb  Rb7  1  0.250000  0.484488  0.325808  1
  Mn  Mn8  1  0.250000  0.730945  0.577455  1
  Mn  Mn9  1  0.750000  0.269055  0.422545  1
  Co  Co10  1  0.750000  0.767415  0.077667  1
  Co  Co11  1  0.250000  0.232585  0.922333  1
  Br  Br12  1  0.992461  0.817879  0.659062  1
  Br  Br13  1  0.007539  0.182121  0.340938  1
  Br  Br14  1  0.000520  0.684536  0.156057  1
  Br  Br15  1  0.492461  0.182121  0.340938  1
  Br  Br16  1  0.999480  0.315464  0.843943  1
  Br  Br17  1  0.507539  0.817879  0.659062  1
  Br  Br18  1  0.500520  0.315464  0.843943  1
  Br  Br19  1  0.499480  0.684536  0.156057  1
  Br  Br20  1  0.250000  0.489458  0.586327  1
  Br  Br21  1  0.750000  0.510542  0.413673  1
  Br  Br22  1  0.750000  0.001010  0.087308  1
  Br  Br23  1  0.250000  0.998990  0.912692  1
  Br  Br24  1  0.250000  0.313302  0.087405  1
  Br  Br25  1  0.750000  0.686698  0.912595  1
  Br  Br26  1  0.750000  0.184953  0.593375  1
  Br  Br27  1  0.250000  0.815047  0.406625  1
