# generated using pymatgen
data_Tm9ScCd3Ru
_symmetry_space_group_name_H-M   'P 1'
_cell_length_a   9.37374400
_cell_length_b   9.37374363
_cell_length_c   9.67295200
_cell_angle_alpha   90.00000000
_cell_angle_beta   90.00000000
_cell_angle_gamma   120.00000132
_symmetry_Int_Tables_number   1
_chemical_formula_structural   Tm9ScCd3Ru
_chemical_formula_sum   'Tm18 Sc2 Cd6 Ru2'
_cell_volume   736.06440854
_cell_formula_units_Z   2
loop_
 _symmetry_equiv_pos_site_id
 _symmetry_equiv_pos_as_xyz
  1  'x, y, z'
loop_
 _atom_site_type_symbol
 _atom_site_label
 _atom_site_symmetry_multiplicity
 _atom_site_fract_x
 _atom_site_fract_y
 _atom_site_fract_z
 _atom_site_occupancy
  Tm  Tm0  1  0.208988  0.791012  0.441482  1
  Tm  Tm1  1  0.208988  0.417976  0.441482  1
  Tm  Tm2  1  0.582024  0.791012  0.441482  1
  Tm  Tm3  1  0.791012  0.208988  0.558518  1
  Tm  Tm4  1  0.791012  0.582024  0.558518  1
  Tm  Tm5  1  0.417976  0.208988  0.558518  1
  Tm  Tm6  1  0.791012  0.208988  0.941482  1
  Tm  Tm7  1  0.791012  0.582024  0.941482  1
  Tm  Tm8  1  0.417976  0.208988  0.941482  1
  Tm  Tm9  1  0.208988  0.791012  0.058518  1
  Tm  Tm10  1  0.208988  0.417976  0.058518  1
  Tm  Tm11  1  0.582024  0.791012  0.058518  1
  Tm  Tm12  1  0.540858  0.459142  0.250000  1
  Tm  Tm13  1  0.540858  0.081717  0.250000  1
  Tm  Tm14  1  0.918283  0.459142  0.250000  1
  Tm  Tm15  1  0.459142  0.540858  0.750000  1
  Tm  Tm16  1  0.459142  0.918283  0.750000  1
  Tm  Tm17  1  0.081717  0.540858  0.750000  1
  Sc  Sc18  1  0.000000  0.000000  0.500000  1
  Sc  Sc19  1  0.000000  0.000000  0.000000  1
  Cd  Cd20  1  0.888912  0.111088  0.250000  1
  Cd  Cd21  1  0.888912  0.777826  0.250000  1
  Cd  Cd22  1  0.222174  0.111088  0.250000  1
  Cd  Cd23  1  0.111088  0.888912  0.750000  1
  Cd  Cd24  1  0.111088  0.222174  0.750000  1
  Cd  Cd25  1  0.777826  0.888912  0.750000  1
  Ru  Ru26  1  0.333333  0.666667  0.250000  1
  Ru  Ru27  1  0.666667  0.333333  0.750000  1
