# generated using pymatgen
data_Zn8Cu4Ni
_symmetry_space_group_name_H-M   'P 1'
_cell_length_a   7.63925519
_cell_length_b   7.63925501
_cell_length_c   7.68266577
_cell_angle_alpha   109.48990785
_cell_angle_beta   109.48991027
_cell_angle_gamma   109.20363024
_symmetry_Int_Tables_number   1
_chemical_formula_structural   Zn8Cu4Ni
_chemical_formula_sum   'Zn16 Cu8 Ni2'
_cell_volume   346.11239266
_cell_formula_units_Z   2
loop_
 _symmetry_equiv_pos_site_id
 _symmetry_equiv_pos_as_xyz
  1  'x, y, z'
loop_
 _atom_site_type_symbol
 _atom_site_label
 _atom_site_symmetry_multiplicity
 _atom_site_fract_x
 _atom_site_fract_y
 _atom_site_fract_z
 _atom_site_occupancy
  Zn  Zn0  1  0.216189  0.996833  0.000000  1
  Zn  Zn1  1  0.996833  0.216189  0.000000  1
  Zn  Zn2  1  0.997090  0.997090  0.213898  1
  Zn  Zn3  1  0.783192  0.783192  0.786102  1
  Zn  Zn4  1  0.348672  0.725925  0.000000  1
  Zn  Zn5  1  0.624915  0.273859  0.273543  1
  Zn  Zn6  1  0.351372  0.000316  0.726457  1
  Zn  Zn7  1  0.725925  0.348672  0.000000  1
  Zn  Zn8  1  0.000316  0.351372  0.726457  1
  Zn  Zn9  1  0.273859  0.624915  0.273543  1
  Zn  Zn10  1  0.276605  0.276605  0.625150  1
  Zn  Zn11  1  0.000491  0.723287  0.345836  1
  Zn  Zn12  1  0.723287  0.000491  0.345836  1
  Zn  Zn13  1  0.651455  0.651455  0.374850  1
  Zn  Zn14  1  0.377451  0.654656  0.654164  1
  Zn  Zn15  1  0.654656  0.377451  0.654164  1
  Cu  Cu16  1  0.001005  0.001005  0.655477  1
  Cu  Cu17  1  0.345528  0.345528  0.344523  1
  Cu  Cu18  1  0.998523  0.644132  0.643679  1
  Cu  Cu19  1  0.354844  0.000453  0.356321  1
  Cu  Cu20  1  0.353942  0.353942  0.000000  1
  Cu  Cu21  1  0.000453  0.354844  0.356321  1
  Cu  Cu22  1  0.644132  0.998523  0.643679  1
  Cu  Cu23  1  0.643503  0.643503  0.000000  1
  Ni  Ni24  1  0.654808  0.000951  0.000000  1
  Ni  Ni25  1  0.000951  0.654808  0.000000  1
