# generated using pymatgen
data_YbTh2(Si3Pd10)2
_symmetry_space_group_name_H-M   'P 1'
_cell_length_a   8.76585911
_cell_length_b   8.76585868
_cell_length_c   8.76585900
_cell_angle_alpha   60.00000256
_cell_angle_beta   60.00000420
_cell_angle_gamma   60.00000551
_symmetry_Int_Tables_number   1
_chemical_formula_structural   YbTh2(Si3Pd10)2
_chemical_formula_sum   'Yb1 Th2 Si6 Pd20'
_cell_volume   476.28672183
_cell_formula_units_Z   1
loop_
 _symmetry_equiv_pos_site_id
 _symmetry_equiv_pos_as_xyz
  1  'x, y, z'
loop_
 _atom_site_type_symbol
 _atom_site_label
 _atom_site_symmetry_multiplicity
 _atom_site_fract_x
 _atom_site_fract_y
 _atom_site_fract_z
 _atom_site_occupancy
  Yb  Yb0  1  0.000000  0.000000  0.000000  1
  Th  Th1  1  0.250000  0.250000  0.250000  1
  Th  Th2  1  0.750000  0.750000  0.750000  1
  Si  Si3  1  0.735861  0.264139  0.264139  1
  Si  Si4  1  0.264139  0.735861  0.735861  1
  Si  Si5  1  0.264139  0.735861  0.264139  1
  Si  Si6  1  0.735861  0.264139  0.735861  1
  Si  Si7  1  0.264139  0.264139  0.735861  1
  Si  Si8  1  0.735861  0.735861  0.264139  1
  Pd  Pd9  1  0.384342  0.384342  0.384342  1
  Pd  Pd10  1  0.615658  0.615658  0.615658  1
  Pd  Pd11  1  0.384342  0.384342  0.846975  1
  Pd  Pd12  1  0.384342  0.846975  0.384342  1
  Pd  Pd13  1  0.615658  0.615658  0.153025  1
  Pd  Pd14  1  0.615658  0.153025  0.615658  1
  Pd  Pd15  1  0.846975  0.384342  0.384342  1
  Pd  Pd16  1  0.153025  0.615658  0.615658  1
  Pd  Pd17  1  0.346932  0.000000  0.000000  1
  Pd  Pd18  1  0.653068  0.000000  0.000000  1
  Pd  Pd19  1  0.000000  0.346932  0.653068  1
  Pd  Pd20  1  0.000000  0.653068  0.346932  1
  Pd  Pd21  1  0.000000  0.346932  0.000000  1
  Pd  Pd22  1  0.653068  0.000000  0.346932  1
  Pd  Pd23  1  0.000000  0.653068  0.000000  1
  Pd  Pd24  1  0.346932  0.000000  0.653068  1
  Pd  Pd25  1  0.000000  0.000000  0.346932  1
  Pd  Pd26  1  0.000000  0.000000  0.653068  1
  Pd  Pd27  1  0.653068  0.346932  0.000000  1
  Pd  Pd28  1  0.346932  0.653068  0.000000  1
