# generated using pymatgen
data_Sc4TiRe17Tc7
_symmetry_space_group_name_H-M   'P 1'
_cell_length_a   8.42605342
_cell_length_b   8.42605204
_cell_length_c   8.41481502
_cell_angle_alpha   109.44162817
_cell_angle_beta   109.44162925
_cell_angle_gamma   109.54565144
_symmetry_Int_Tables_number   1
_chemical_formula_structural   Sc4TiRe17Tc7
_chemical_formula_sum   'Sc4 Ti1 Re17 Tc7'
_cell_volume   459.82112849
_cell_formula_units_Z   1
loop_
 _symmetry_equiv_pos_site_id
 _symmetry_equiv_pos_as_xyz
  1  'x, y, z'
loop_
 _atom_site_type_symbol
 _atom_site_label
 _atom_site_symmetry_multiplicity
 _atom_site_fract_x
 _atom_site_fract_y
 _atom_site_fract_z
 _atom_site_occupancy
  Sc  Sc0  1  0.999904  0.999904  0.000165  1
  Sc  Sc1  1  0.631135  0.999959  0.000109  1
  Sc  Sc2  1  0.999959  0.631135  0.000109  1
  Sc  Sc3  1  0.001628  0.001628  0.633140  1
  Ti  Ti4  1  0.368255  0.368255  0.368766  1
  Re  Re5  1  0.998768  0.675843  0.396700  1
  Re  Re6  1  0.675843  0.998768  0.396700  1
  Re  Re7  1  0.597992  0.597992  0.280097  1
  Re  Re8  1  0.279946  0.598234  0.598007  1
  Re  Re9  1  0.598234  0.279946  0.598007  1
  Re  Re10  1  0.378560  0.195056  0.002672  1
  Re  Re11  1  0.186086  0.808748  0.807947  1
  Re  Re12  1  0.377358  0.002439  0.194070  1
  Re  Re13  1  0.195056  0.378560  0.002672  1
  Re  Re14  1  0.002439  0.377358  0.194070  1
  Re  Re15  1  0.808748  0.186086  0.807947  1
  Re  Re16  1  0.809063  0.809063  0.187487  1
  Re  Re17  1  0.002247  0.194087  0.378685  1
  Re  Re18  1  0.194087  0.002247  0.378685  1
  Re  Re19  1  0.620809  0.620809  0.813269  1
  Re  Re20  1  0.813641  0.621125  0.620866  1
  Re  Re21  1  0.621125  0.813641  0.620866  1
  Tc  Tc22  1  0.396980  0.676797  0.998371  1
  Tc  Tc23  1  0.722622  0.323095  0.322733  1
  Tc  Tc24  1  0.397515  0.999055  0.677194  1
  Tc  Tc25  1  0.676797  0.396980  0.998371  1
  Tc  Tc26  1  0.999055  0.397515  0.677194  1
  Tc  Tc27  1  0.323095  0.722622  0.322733  1
  Tc  Tc28  1  0.323053  0.323053  0.722367  1
