# generated using pymatgen
data_Ru3Pt(RhW)2
_symmetry_space_group_name_H-M   'P 1'
_cell_length_a   5.56658799
_cell_length_b   5.53298547
_cell_length_c   4.40724500
_cell_angle_alpha   90.00000000
_cell_angle_beta   90.00000000
_cell_angle_gamma   120.50855121
_symmetry_Int_Tables_number   1
_chemical_formula_structural   Ru3Pt(RhW)2
_chemical_formula_sum   'Ru3 Pt1 Rh2 W2'
_cell_volume   116.94940153
_cell_formula_units_Z   1
loop_
 _symmetry_equiv_pos_site_id
 _symmetry_equiv_pos_as_xyz
  1  'x, y, z'
loop_
 _atom_site_type_symbol
 _atom_site_label
 _atom_site_symmetry_multiplicity
 _atom_site_fract_x
 _atom_site_fract_y
 _atom_site_fract_z
 _atom_site_occupancy
  Ru  Ru0  1  0.169132  0.833519  0.250000  1
  Ru  Ru1  1  0.332903  0.162080  0.750000  1
  Ru  Ru2  1  0.830498  0.164151  0.750000  1
  Pt  Pt3  1  0.165866  0.332112  0.250000  1
  Rh  Rh4  1  0.667005  0.832744  0.250000  1
  Rh  Rh5  1  0.833870  0.668256  0.750000  1
  W  W6  1  0.335678  0.678566  0.750000  1
  W  W7  1  0.665047  0.328570  0.250000  1
