# generated using pymatgen
data_Er17Lu3Si15Au
_symmetry_space_group_name_H-M   'P 1'
_cell_length_a   7.37952517
_cell_length_b   7.64117007
_cell_length_c   14.54401200
_cell_angle_alpha   89.83578702
_cell_angle_beta   89.46212248
_cell_angle_gamma   90.13495159
_symmetry_Int_Tables_number   1
_chemical_formula_structural   Er17Lu3Si15Au
_chemical_formula_sum   'Er17 Lu3 Si15 Au1'
_cell_volume   820.06892438
_cell_formula_units_Z   1
loop_
 _symmetry_equiv_pos_site_id
 _symmetry_equiv_pos_as_xyz
  1  'x, y, z'
loop_
 _atom_site_type_symbol
 _atom_site_label
 _atom_site_symmetry_multiplicity
 _atom_site_fract_x
 _atom_site_fract_y
 _atom_site_fract_z
 _atom_site_occupancy
  Er  Er0  1  0.349512  0.011017  0.750405  1
  Er  Er1  1  0.976012  0.819812  0.100572  1
  Er  Er2  1  0.473180  0.683834  0.401456  1
  Er  Er3  1  0.523251  0.318487  0.899773  1
  Er  Er4  1  0.028578  0.182236  0.598602  1
  Er  Er5  1  0.026325  0.179505  0.900017  1
  Er  Er6  1  0.528072  0.316732  0.598229  1
  Er  Er7  1  0.477322  0.681637  0.100771  1
  Er  Er8  1  0.971137  0.817110  0.400740  1
  Er  Er9  1  0.675869  0.821173  0.876910  1
  Er  Er10  1  0.180224  0.680173  0.621759  1
  Er  Er11  1  0.820029  0.327897  0.123966  1
  Er  Er12  1  0.317427  0.176763  0.376296  1
  Er  Er13  1  0.322753  0.178152  0.124642  1
  Er  Er14  1  0.820173  0.321746  0.376936  1
  Er  Er15  1  0.178779  0.673631  0.876957  1
  Er  Er16  1  0.681767  0.822035  0.622443  1
  Lu  Lu17  1  0.649809  0.992233  0.249859  1
  Lu  Lu18  1  0.152039  0.510661  0.248886  1
  Lu  Lu19  1  0.846989  0.488458  0.750544  1
  Si  Si20  1  0.770391  0.633054  0.252668  1
  Si  Si21  1  0.270206  0.869355  0.251183  1
  Si  Si22  1  0.732480  0.127184  0.748549  1
  Si  Si23  1  0.228338  0.372329  0.746517  1
  Si  Si24  1  0.019202  0.103832  0.250243  1
  Si  Si25  1  0.521868  0.396540  0.252388  1
  Si  Si26  1  0.475352  0.604866  0.747065  1
  Si  Si27  1  0.977423  0.893392  0.748117  1
  Si  Si28  1  0.353272  0.971950  0.539985  1
  Si  Si29  1  0.651542  0.029455  0.042255  1
  Si  Si30  1  0.148637  0.470109  0.459649  1
  Si  Si31  1  0.159721  0.472528  0.043762  1
  Si  Si32  1  0.646344  0.028780  0.458441  1
  Si  Si33  1  0.349275  0.967876  0.962134  1
  Si  Si34  1  0.853038  0.529289  0.539805  1
  Au  Au35  1  0.843660  0.526167  0.957473  1
