# generated using pymatgen
data_Dy4Ga4CoRu3
_symmetry_space_group_name_H-M   'P 1'
_cell_length_a   4.48366100
_cell_length_b   7.08758196
_cell_length_c   7.15725506
_cell_angle_alpha   89.87840285
_cell_angle_beta   90.00000000
_cell_angle_gamma   90.00000000
_symmetry_Int_Tables_number   1
_chemical_formula_structural   Dy4Ga4CoRu3
_chemical_formula_sum   'Dy4 Ga4 Co1 Ru3'
_cell_volume   227.44499233
_cell_formula_units_Z   1
loop_
 _symmetry_equiv_pos_site_id
 _symmetry_equiv_pos_as_xyz
  1  'x, y, z'
loop_
 _atom_site_type_symbol
 _atom_site_label
 _atom_site_symmetry_multiplicity
 _atom_site_fract_x
 _atom_site_fract_y
 _atom_site_fract_z
 _atom_site_occupancy
  Dy  Dy0  1  0.250000  0.196002  0.523236  1
  Dy  Dy1  1  0.250000  0.303080  0.023509  1
  Dy  Dy2  1  0.750000  0.698005  0.979112  1
  Dy  Dy3  1  0.750000  0.800970  0.483806  1
  Ga  Ga4  1  0.250000  0.896673  0.200059  1
  Ga  Ga5  1  0.750000  0.391951  0.308804  1
  Ga  Ga6  1  0.250000  0.598793  0.696388  1
  Ga  Ga7  1  0.750000  0.112723  0.796582  1
  Co  Co8  1  0.750000  0.438405  0.654322  1
  Ru  Ru9  1  0.250000  0.934824  0.839699  1
  Ru  Ru10  1  0.250000  0.563541  0.339912  1
  Ru  Ru11  1  0.750000  0.065034  0.154573  1
