# generated using pymatgen
data_Ho2Sc2B12IrRu
_symmetry_space_group_name_H-M   'P 1'
_cell_length_a   3.54911700
_cell_length_b   8.97362709
_cell_length_c   11.34932511
_cell_angle_alpha   90.01588661
_cell_angle_beta   90.00000000
_cell_angle_gamma   90.00000000
_symmetry_Int_Tables_number   1
_chemical_formula_structural   Ho2Sc2B12IrRu
_chemical_formula_sum   'Ho4 Sc4 B24 Ir2 Ru2'
_cell_volume   361.45842711
_cell_formula_units_Z   2
loop_
 _symmetry_equiv_pos_site_id
 _symmetry_equiv_pos_as_xyz
  1  'x, y, z'
loop_
 _atom_site_type_symbol
 _atom_site_label
 _atom_site_symmetry_multiplicity
 _atom_site_fract_x
 _atom_site_fract_y
 _atom_site_fract_z
 _atom_site_occupancy
  Ho  Ho0  1  0.500000  0.318238  0.412315  1
  Ho  Ho1  1  0.500000  0.681762  0.587685  1
  Ho  Ho2  1  0.500000  0.178313  0.914977  1
  Ho  Ho3  1  0.500000  0.821687  0.085023  1
  Sc  Sc4  1  0.500000  0.442377  0.123879  1
  Sc  Sc5  1  0.500000  0.557623  0.876121  1
  Sc  Sc6  1  0.500000  0.052981  0.625344  1
  Sc  Sc7  1  0.500000  0.947019  0.374656  1
  B  B8  1  0.000000  0.100553  0.472988  1
  B  B9  1  0.000000  0.899447  0.527012  1
  B  B10  1  0.000000  0.399190  0.972720  1
  B  B11  1  0.000000  0.600810  0.027280  1
  B  B12  1  0.000000  0.130113  0.317499  1
  B  B13  1  0.000000  0.869887  0.682501  1
  B  B14  1  0.000000  0.370432  0.818615  1
  B  B15  1  0.000000  0.629568  0.181385  1
  B  B16  1  0.000000  0.055164  0.066897  1
  B  B17  1  0.000000  0.944836  0.933103  1
  B  B18  1  0.000000  0.445150  0.565909  1
  B  B19  1  0.000000  0.554850  0.434091  1
  B  B20  1  0.000000  0.481544  0.284990  1
  B  B21  1  0.000000  0.518456  0.715010  1
  B  B22  1  0.000000  0.017548  0.785540  1
  B  B23  1  0.000000  0.982452  0.214460  1
  B  B24  1  0.000000  0.253423  0.081054  1
  B  B25  1  0.000000  0.746577  0.918946  1
  B  B26  1  0.000000  0.245246  0.580348  1
  B  B27  1  0.000000  0.754754  0.419652  1
  B  B28  1  0.000000  0.294737  0.234865  1
  B  B29  1  0.000000  0.705263  0.765135  1
  B  B30  1  0.000000  0.204708  0.735088  1
  B  B31  1  0.000000  0.795292  0.264912  1
  Ir  Ir32  1  0.500000  0.359544  0.680768  1
  Ir  Ir33  1  0.500000  0.640456  0.319232  1
  Ru  Ru34  1  0.500000  0.140568  0.181355  1
  Ru  Ru35  1  0.500000  0.859432  0.818645  1
