# generated using pymatgen
data_CsNd10(C2Br9)2
_symmetry_space_group_name_H-M   'P 1'
_cell_length_a   11.01946953
_cell_length_b   11.11029333
_cell_length_c   11.27147765
_cell_angle_alpha   112.98144192
_cell_angle_beta   87.71883883
_cell_angle_gamma   118.58278813
_symmetry_Int_Tables_number   1
_chemical_formula_structural   CsNd10(C2Br9)2
_chemical_formula_sum   'Cs1 Nd10 C4 Br18'
_cell_volume   1097.00836292
_cell_formula_units_Z   1
loop_
 _symmetry_equiv_pos_site_id
 _symmetry_equiv_pos_as_xyz
  1  'x, y, z'
loop_
 _atom_site_type_symbol
 _atom_site_label
 _atom_site_symmetry_multiplicity
 _atom_site_fract_x
 _atom_site_fract_y
 _atom_site_fract_z
 _atom_site_occupancy
  Cs  Cs0  1  0.500000  0.000000  0.500000  1
  Nd  Nd1  1  0.656529  0.715179  0.698856  1
  Nd  Nd2  1  0.282279  0.365995  0.012419  1
  Nd  Nd3  1  0.092459  0.412158  0.304197  1
  Nd  Nd4  1  0.960804  0.037355  0.334197  1
  Nd  Nd5  1  0.907541  0.587842  0.695803  1
  Nd  Nd6  1  0.115038  0.941270  0.001129  1
  Nd  Nd7  1  0.039196  0.962645  0.665803  1
  Nd  Nd8  1  0.343471  0.284821  0.301144  1
  Nd  Nd9  1  0.717721  0.634005  0.987581  1
  Nd  Nd10  1  0.884962  0.058730  0.998871  1
  C  C11  1  0.156065  0.228487  0.127093  1
  C  C12  1  0.843935  0.771513  0.872907  1
  C  C13  1  0.918956  0.847526  0.796060  1
  C  C14  1  0.081044  0.152474  0.203940  1
  Br  Br15  1  0.451701  0.531072  0.831428  1
  Br  Br16  1  0.384857  0.037006  0.160596  1
  Br  Br17  1  0.774195  0.856894  0.502473  1
  Br  Br18  1  0.835394  0.312306  0.154846  1
  Br  Br19  1  0.548299  0.468928  0.168572  1
  Br  Br20  1  0.225805  0.143106  0.497527  1
  Br  Br21  1  0.313355  0.098005  0.831615  1
  Br  Br22  1  0.686645  0.901995  0.168385  1
  Br  Br23  1  0.977831  0.763335  0.171803  1
  Br  Br24  1  0.931119  0.300965  0.501564  1
  Br  Br25  1  0.022169  0.236665  0.828197  1
  Br  Br26  1  0.068881  0.699035  0.498436  1
  Br  Br27  1  0.262199  0.625593  0.188855  1
  Br  Br28  1  0.737801  0.374407  0.811145  1
  Br  Br29  1  0.637693  0.430828  0.499030  1
  Br  Br30  1  0.164606  0.687694  0.845154  1
  Br  Br31  1  0.615143  0.962994  0.839404  1
  Br  Br32  1  0.362307  0.569172  0.500970  1
