# generated using pymatgen
data_EuTiWO6
_symmetry_space_group_name_H-M   'P 1'
_cell_length_a   5.22673905
_cell_length_b   5.22687054
_cell_length_c   5.22881602
_cell_angle_alpha   90.00489139
_cell_angle_beta   89.99786079
_cell_angle_gamma   120.00059511
_symmetry_Int_Tables_number   1
_chemical_formula_structural   EuTiWO6
_chemical_formula_sum   'Eu1 Ti1 W1 O6'
_cell_volume   123.70975549
_cell_formula_units_Z   1
loop_
 _symmetry_equiv_pos_site_id
 _symmetry_equiv_pos_as_xyz
  1  'x, y, z'
loop_
 _atom_site_type_symbol
 _atom_site_label
 _atom_site_symmetry_multiplicity
 _atom_site_fract_x
 _atom_site_fract_y
 _atom_site_fract_z
 _atom_site_occupancy
  Eu  Eu0  1  0.000003  0.000000  0.999998  1
  Ti  Ti1  1  0.666640  0.333311  0.500002  1
  W  W2  1  0.333383  0.666703  0.500003  1
  O  O3  1  0.372102  0.995465  0.291155  1
  O  O4  1  0.004493  0.376586  0.291147  1
  O  O5  1  0.623392  0.627853  0.291153  1
  O  O6  1  0.623394  0.995531  0.708842  1
  O  O7  1  0.372109  0.376645  0.708845  1
  O  O8  1  0.004487  0.627906  0.708854  1
