# generated using pymatgen
data_Rb3Li2HfP3
_symmetry_space_group_name_H-M   'P 1'
_cell_length_a   10.26135647
_cell_length_b   10.26135527
_cell_length_c   15.55370800
_cell_angle_alpha   90.00000000
_cell_angle_beta   90.00000000
_cell_angle_gamma   143.11306984
_symmetry_Int_Tables_number   1
_chemical_formula_structural   Rb3Li2HfP3
_chemical_formula_sum   'Rb12 Li8 Hf4 P12'
_cell_volume   983.03001051
_cell_formula_units_Z   4
loop_
 _symmetry_equiv_pos_site_id
 _symmetry_equiv_pos_as_xyz
  1  'x, y, z'
loop_
 _atom_site_type_symbol
 _atom_site_label
 _atom_site_symmetry_multiplicity
 _atom_site_fract_x
 _atom_site_fract_y
 _atom_site_fract_z
 _atom_site_occupancy
  Rb  Rb0  1  0.952161  0.607405  0.826688  1
  Rb  Rb1  1  0.547839  0.892595  0.326688  1
  Rb  Rb2  1  0.392595  0.047839  0.173312  1
  Rb  Rb3  1  0.047839  0.392595  0.173312  1
  Rb  Rb4  1  0.892595  0.547839  0.326688  1
  Rb  Rb5  1  0.452161  0.107405  0.673312  1
  Rb  Rb6  1  0.607405  0.952161  0.826688  1
  Rb  Rb7  1  0.288978  0.288978  0.317820  1
  Rb  Rb8  1  0.788978  0.788978  0.182180  1
  Rb  Rb9  1  0.211022  0.211022  0.817820  1
  Rb  Rb10  1  0.711022  0.711022  0.682180  1
  Rb  Rb11  1  0.107405  0.452161  0.673312  1
  Li  Li12  1  0.917129  0.082871  0.000000  1
  Li  Li13  1  0.582871  0.417129  0.500000  1
  Li  Li14  1  0.082871  0.917129  0.000000  1
  Li  Li15  1  0.417129  0.582871  0.500000  1
  Li  Li16  1  0.750687  0.249313  0.000000  1
  Li  Li17  1  0.749313  0.250687  0.500000  1
  Li  Li18  1  0.249313  0.750687  0.000000  1
  Li  Li19  1  0.250687  0.749313  0.500000  1
  Hf  Hf20  1  0.587182  0.412818  0.000000  1
  Hf  Hf21  1  0.912818  0.087182  0.500000  1
  Hf  Hf22  1  0.412818  0.587182  0.000000  1
  Hf  Hf23  1  0.087182  0.912818  0.500000  1
  P  P24  1  0.893949  0.570511  0.086297  1
  P  P25  1  0.429489  0.106051  0.913703  1
  P  P26  1  0.606051  0.929489  0.586297  1
  P  P27  1  0.929489  0.606051  0.586297  1
  P  P28  1  0.106051  0.429489  0.913703  1
  P  P29  1  0.570511  0.893949  0.086297  1
  P  P30  1  0.393949  0.070511  0.413703  1
  P  P31  1  0.224021  0.224021  0.582518  1
  P  P32  1  0.724021  0.724021  0.917482  1
  P  P33  1  0.275979  0.275979  0.082518  1
  P  P34  1  0.070511  0.393949  0.413703  1
  P  P35  1  0.775979  0.775979  0.417482  1
