# generated using pymatgen
data_Zr3AlRu2O
_symmetry_space_group_name_H-M   'P 1'
_cell_length_a   8.56586278
_cell_length_b   8.56586297
_cell_length_c   8.56586300
_cell_angle_alpha   60.00000375
_cell_angle_beta   60.00000302
_cell_angle_gamma   60.00000051
_symmetry_Int_Tables_number   1
_chemical_formula_structural   Zr3AlRu2O
_chemical_formula_sum   'Zr12 Al4 Ru8 O4'
_cell_volume   444.42490258
_cell_formula_units_Z   4
loop_
 _symmetry_equiv_pos_site_id
 _symmetry_equiv_pos_as_xyz
  1  'x, y, z'
loop_
 _atom_site_type_symbol
 _atom_site_label
 _atom_site_symmetry_multiplicity
 _atom_site_fract_x
 _atom_site_fract_y
 _atom_site_fract_z
 _atom_site_occupancy
  Zr  Zr0  1  0.805420  0.805420  0.194580  1
  Zr  Zr1  1  0.194580  0.194580  0.805420  1
  Zr  Zr2  1  0.805420  0.194580  0.805420  1
  Zr  Zr3  1  0.194580  0.805420  0.194580  1
  Zr  Zr4  1  0.194580  0.805420  0.805420  1
  Zr  Zr5  1  0.805420  0.194580  0.194580  1
  Zr  Zr6  1  0.444580  0.444580  0.055420  1
  Zr  Zr7  1  0.055420  0.055420  0.444580  1
  Zr  Zr8  1  0.444580  0.055420  0.444580  1
  Zr  Zr9  1  0.055420  0.444580  0.055420  1
  Zr  Zr10  1  0.055420  0.444580  0.444580  1
  Zr  Zr11  1  0.444580  0.055420  0.055420  1
  Al  Al12  1  0.125000  0.625000  0.625000  1
  Al  Al13  1  0.625000  0.125000  0.625000  1
  Al  Al14  1  0.625000  0.625000  0.125000  1
  Al  Al15  1  0.625000  0.625000  0.625000  1
  Ru  Ru16  1  0.751546  0.416152  0.416152  1
  Ru  Ru17  1  0.416152  0.751546  0.416152  1
  Ru  Ru18  1  0.416152  0.416152  0.751546  1
  Ru  Ru19  1  0.416152  0.416152  0.416152  1
  Ru  Ru20  1  0.498454  0.833848  0.833848  1
  Ru  Ru21  1  0.833848  0.498454  0.833848  1
  Ru  Ru22  1  0.833848  0.833848  0.498454  1
  Ru  Ru23  1  0.833848  0.833848  0.833848  1
  O  O24  1  0.625000  0.125000  0.125000  1
  O  O25  1  0.125000  0.625000  0.125000  1
  O  O26  1  0.125000  0.125000  0.625000  1
  O  O27  1  0.125000  0.125000  0.125000  1
