# generated using pymatgen
data_Li3H2O5
_symmetry_space_group_name_H-M   'P 1'
_cell_length_a   7.16217863
_cell_length_b   5.80513105
_cell_length_c   6.12237440
_cell_angle_alpha   100.79629202
_cell_angle_beta   72.66181108
_cell_angle_gamma   151.00280662
_symmetry_Int_Tables_number   1
_chemical_formula_structural   Li3H2O5
_chemical_formula_sum   'Li3 H2 O5'
_cell_volume   116.30291591
_cell_formula_units_Z   1
loop_
 _symmetry_equiv_pos_site_id
 _symmetry_equiv_pos_as_xyz
  1  'x, y, z'
loop_
 _atom_site_type_symbol
 _atom_site_label
 _atom_site_symmetry_multiplicity
 _atom_site_fract_x
 _atom_site_fract_y
 _atom_site_fract_z
 _atom_site_occupancy
  Li  Li0  1  0.885471  0.654442  0.356860  1
  Li  Li1  1  0.247777  0.121599  0.655109  1
  Li  Li2  1  0.547503  0.229373  0.005813  1
  H  H3  1  0.494560  0.545882  0.277005  1
  H  H4  1  0.643622  0.198235  0.651828  1
  O  O5  1  0.438746  0.328437  0.305374  1
  O  O6  1  0.703866  0.428645  0.680810  1
  O  O7  1  0.258576  0.477074  0.799958  1
  O  O8  1  0.985895  0.508909  0.070362  1
  O  O9  1  0.979618  0.259324  0.999231  1
