# generated using pymatgen
data_Ce3Y2Zn2Ru3
_symmetry_space_group_name_H-M   'P 1'
_cell_length_a   8.28897632
_cell_length_b   8.28897634
_cell_length_c   8.28897600
_cell_angle_alpha   110.02535140
_cell_angle_beta   110.02536616
_cell_angle_gamma   110.02535023
_symmetry_Int_Tables_number   1
_chemical_formula_structural   Ce3Y2Zn2Ru3
_chemical_formula_sum   'Ce6 Y4 Zn4 Ru6'
_cell_volume   429.18032471
_cell_formula_units_Z   2
loop_
 _symmetry_equiv_pos_site_id
 _symmetry_equiv_pos_as_xyz
  1  'x, y, z'
loop_
 _atom_site_type_symbol
 _atom_site_label
 _atom_site_symmetry_multiplicity
 _atom_site_fract_x
 _atom_site_fract_y
 _atom_site_fract_z
 _atom_site_occupancy
  Ce  Ce0  1  0.718889  0.505288  0.000077  1
  Ce  Ce1  1  0.000077  0.718889  0.505288  1
  Ce  Ce2  1  0.505288  0.000077  0.718889  1
  Ce  Ce3  1  0.241581  0.184740  0.935653  1
  Ce  Ce4  1  0.935653  0.241581  0.184740  1
  Ce  Ce5  1  0.184740  0.935653  0.241581  1
  Y  Y6  1  0.757687  0.757687  0.757687  1
  Y  Y7  1  0.309918  0.561270  0.753605  1
  Y  Y8  1  0.753605  0.309918  0.561270  1
  Y  Y9  1  0.561270  0.753605  0.309918  1
  Zn  Zn10  1  0.401105  0.401105  0.401105  1
  Zn  Zn11  1  0.093916  0.498686  0.006961  1
  Zn  Zn12  1  0.006961  0.093916  0.498686  1
  Zn  Zn13  1  0.498686  0.006961  0.093916  1
  Ru  Ru14  1  0.890685  0.113291  0.754957  1
  Ru  Ru15  1  0.754957  0.890685  0.113291  1
  Ru  Ru16  1  0.113291  0.754957  0.890685  1
  Ru  Ru17  1  0.241090  0.632628  0.397976  1
  Ru  Ru18  1  0.397976  0.241090  0.632628  1
  Ru  Ru19  1  0.632628  0.397976  0.241090  1
