# generated using pymatgen
data_Y3CrB7
_symmetry_space_group_name_H-M   'P 1'
_cell_length_a   8.10185752
_cell_length_b   8.10185662
_cell_length_c   9.36678500
_cell_angle_alpha   90.00000000
_cell_angle_beta   90.00000000
_cell_angle_gamma   155.40696250
_symmetry_Int_Tables_number   1
_chemical_formula_structural   Y3CrB7
_chemical_formula_sum   'Y6 Cr2 B14'
_cell_volume   255.87672880
_cell_formula_units_Z   2
loop_
 _symmetry_equiv_pos_site_id
 _symmetry_equiv_pos_as_xyz
  1  'x, y, z'
loop_
 _atom_site_type_symbol
 _atom_site_label
 _atom_site_symmetry_multiplicity
 _atom_site_fract_x
 _atom_site_fract_y
 _atom_site_fract_z
 _atom_site_occupancy
  Y  Y0  1  0.895272  0.104728  0.940529  1
  Y  Y1  1  0.104728  0.895272  0.059471  1
  Y  Y2  1  0.758622  0.241378  0.250000  1
  Y  Y3  1  0.241378  0.758622  0.750000  1
  Y  Y4  1  0.895272  0.104728  0.559471  1
  Y  Y5  1  0.104728  0.895272  0.440529  1
  Cr  Cr6  1  0.053055  0.946945  0.750000  1
  Cr  Cr7  1  0.946945  0.053055  0.250000  1
  B  B8  1  0.540585  0.459415  0.250000  1
  B  B9  1  0.459415  0.540585  0.750000  1
  B  B10  1  0.521331  0.478669  0.902889  1
  B  B11  1  0.478669  0.521331  0.097111  1
  B  B12  1  0.478669  0.521331  0.402889  1
  B  B13  1  0.521331  0.478669  0.597111  1
  B  B14  1  0.630645  0.369355  0.848105  1
  B  B15  1  0.369355  0.630645  0.151895  1
  B  B16  1  0.727195  0.272805  0.968187  1
  B  B17  1  0.272805  0.727195  0.031813  1
  B  B18  1  0.272805  0.727195  0.468187  1
  B  B19  1  0.727195  0.272805  0.531813  1
  B  B20  1  0.630645  0.369355  0.651895  1
  B  B21  1  0.369355  0.630645  0.348105  1
