# generated using pymatgen
data_YTm3Ru4F28
_symmetry_space_group_name_H-M   'P 1'
_cell_length_a   5.53550651
_cell_length_b   8.82544659
_cell_length_c   11.86663522
_cell_angle_alpha   63.75138994
_cell_angle_beta   89.96817838
_cell_angle_gamma   90.02107344
_symmetry_Int_Tables_number   1
_chemical_formula_structural   YTm3Ru4F28
_chemical_formula_sum   'Y1 Tm3 Ru4 F28'
_cell_volume   519.94511342
_cell_formula_units_Z   1
loop_
 _symmetry_equiv_pos_site_id
 _symmetry_equiv_pos_as_xyz
  1  'x, y, z'
loop_
 _atom_site_type_symbol
 _atom_site_label
 _atom_site_symmetry_multiplicity
 _atom_site_fract_x
 _atom_site_fract_y
 _atom_site_fract_z
 _atom_site_occupancy
  Y  Y0  1  0.242048  0.811876  0.770043  1
  Tm  Tm1  1  0.257574  0.811587  0.270116  1
  Tm  Tm2  1  0.741631  0.192956  0.728524  1
  Tm  Tm3  1  0.757830  0.189307  0.229527  1
  Ru  Ru4  1  0.754439  0.726949  0.047690  1
  Ru  Ru5  1  0.245580  0.270719  0.955262  1
  Ru  Ru6  1  0.255069  0.273670  0.453395  1
  Ru  Ru7  1  0.746298  0.727315  0.543499  1
  F  F8  1  0.953443  0.703752  0.417818  1
  F  F9  1  0.045699  0.296241  0.579153  1
  F  F10  1  0.454828  0.295110  0.080249  1
  F  F11  1  0.549120  0.703018  0.921510  1
  F  F12  1  0.468411  0.731570  0.145201  1
  F  F13  1  0.531251  0.268530  0.856608  1
  F  F14  1  0.970792  0.267979  0.355177  1
  F  F15  1  0.032882  0.730305  0.640201  1
  F  F16  1  0.958706  0.751027  0.175465  1
  F  F17  1  0.039566  0.247188  0.827283  1
  F  F18  1  0.461348  0.249307  0.326228  1
  F  F19  1  0.545683  0.749587  0.672837  1
  F  F20  1  0.765982  0.485827  0.143114  1
  F  F21  1  0.231584  0.510940  0.858899  1
  F  F22  1  0.266569  0.514169  0.357543  1
  F  F23  1  0.733677  0.486291  0.640343  1
  F  F24  1  0.953387  0.281158  0.048228  1
  F  F25  1  0.046655  0.716057  0.956156  1
  F  F26  1  0.451832  0.717888  0.451719  1
  F  F27  1  0.546721  0.283510  0.546799  1
  F  F28  1  0.746988  0.966322  0.451334  1
  F  F29  1  0.254432  0.034750  0.546399  1
  F  F30  1  0.247021  0.031872  0.048280  1
  F  F31  1  0.753487  0.965217  0.954913  1
  F  F32  1  0.567781  0.976158  0.234847  1
  F  F33  1  0.430770  0.030138  0.766242  1
  F  F34  1  0.067771  0.024394  0.265190  1
  F  F35  1  0.923146  0.977318  0.734211  1
