# generated using pymatgen
data_Al(V11C3)2
_symmetry_space_group_name_H-M   'P 1'
_cell_length_a   7.79644488
_cell_length_b   7.79644393
_cell_length_c   7.79644400
_cell_angle_alpha   59.99999121
_cell_angle_beta   59.99999524
_cell_angle_gamma   59.99999035
_symmetry_Int_Tables_number   1
_chemical_formula_structural   Al(V11C3)2
_chemical_formula_sum   'Al1 V22 C6'
_cell_volume   335.10018096
_cell_formula_units_Z   1
loop_
 _symmetry_equiv_pos_site_id
 _symmetry_equiv_pos_as_xyz
  1  'x, y, z'
loop_
 _atom_site_type_symbol
 _atom_site_label
 _atom_site_symmetry_multiplicity
 _atom_site_fract_x
 _atom_site_fract_y
 _atom_site_fract_z
 _atom_site_occupancy
  Al  Al0  1  0.000000  0.000000  0.000000  1
  V  V1  1  0.750000  0.750000  0.750000  1
  V  V2  1  0.250000  0.250000  0.250000  1
  V  V3  1  0.614815  0.614815  0.155555  1
  V  V4  1  0.614815  0.155555  0.614815  1
  V  V5  1  0.155555  0.614815  0.614815  1
  V  V6  1  0.614815  0.614815  0.614815  1
  V  V7  1  0.385185  0.385185  0.844445  1
  V  V8  1  0.385185  0.844445  0.385185  1
  V  V9  1  0.844445  0.385185  0.385185  1
  V  V10  1  0.385185  0.385185  0.385185  1
  V  V11  1  0.000000  0.000000  0.340667  1
  V  V12  1  0.659333  0.000000  0.340667  1
  V  V13  1  0.000000  0.659333  0.340667  1
  V  V14  1  0.659333  0.340667  0.000000  1
  V  V15  1  0.000000  0.340667  0.000000  1
  V  V16  1  0.000000  0.340667  0.659333  1
  V  V17  1  0.340667  0.659333  0.000000  1
  V  V18  1  0.340667  0.000000  0.659333  1
  V  V19  1  0.340667  0.000000  0.000000  1
  V  V20  1  0.000000  0.000000  0.659333  1
  V  V21  1  0.000000  0.659333  0.000000  1
  V  V22  1  0.659333  0.000000  0.000000  1
  C  C23  1  0.725346  0.725346  0.274654  1
  C  C24  1  0.274654  0.725346  0.274654  1
  C  C25  1  0.725346  0.274654  0.274654  1
  C  C26  1  0.274654  0.274654  0.725346  1
  C  C27  1  0.725346  0.274654  0.725346  1
  C  C28  1  0.274654  0.725346  0.725346  1
