# generated using pymatgen
data_PrGdAl6(PbO4)4
_symmetry_space_group_name_H-M   'P 1'
_cell_length_a   9.61655080
_cell_length_b   9.61655080
_cell_length_c   9.61477500
_cell_angle_alpha   90.00003578
_cell_angle_beta   90.00003578
_cell_angle_gamma   89.78583222
_symmetry_Int_Tables_number   1
_chemical_formula_structural   PrGdAl6(PbO4)4
_chemical_formula_sum   'Pr2 Gd2 Al12 Pb8 O32'
_cell_volume   889.14942382
_cell_formula_units_Z   2
loop_
 _symmetry_equiv_pos_site_id
 _symmetry_equiv_pos_as_xyz
  1  'x, y, z'
loop_
 _atom_site_type_symbol
 _atom_site_label
 _atom_site_symmetry_multiplicity
 _atom_site_fract_x
 _atom_site_fract_y
 _atom_site_fract_z
 _atom_site_occupancy
  Pr  Pr0  1  0.000000  0.000000  0.000000  1
  Pr  Pr1  1  0.500000  0.500000  0.000000  1
  Gd  Gd2  1  0.500000  0.000000  0.500000  1
  Gd  Gd3  1  0.000000  0.500000  0.500000  1
  Al  Al4  1  0.750000  0.250000  0.000000  1
  Al  Al5  1  0.250000  0.750000  0.000000  1
  Al  Al6  1  0.749078  0.999989  0.250992  1
  Al  Al7  1  0.750922  0.500011  0.250992  1
  Al  Al8  1  0.999989  0.749078  0.250992  1
  Al  Al9  1  0.500011  0.750922  0.250992  1
  Al  Al10  1  0.750000  0.250000  0.500000  1
  Al  Al11  1  0.250000  0.750000  0.500000  1
  Al  Al12  1  0.250922  0.000011  0.749008  1
  Al  Al13  1  0.000011  0.250922  0.749008  1
  Al  Al14  1  0.499988  0.249078  0.749008  1
  Al  Al15  1  0.249078  0.499988  0.749008  1
  Pb  Pb16  1  0.383842  0.116158  0.119480  1
  Pb  Pb17  1  0.116158  0.383842  0.119480  1
  Pb  Pb18  1  0.117852  0.117852  0.385556  1
  Pb  Pb19  1  0.382148  0.382148  0.385556  1
  Pb  Pb20  1  0.617852  0.617852  0.614445  1
  Pb  Pb21  1  0.882149  0.882149  0.614445  1
  Pb  Pb22  1  0.883843  0.616158  0.880521  1
  Pb  Pb23  1  0.616158  0.883843  0.880521  1
  O  O24  1  0.762706  0.093826  0.094294  1
  O  O25  1  0.737294  0.406174  0.094294  1
  O  O26  1  0.406174  0.737294  0.094294  1
  O  O27  1  0.093826  0.762706  0.094294  1
  O  O28  1  0.141624  0.141624  0.143375  1
  O  O29  1  0.358377  0.358377  0.143375  1
  O  O30  1  0.594528  0.594528  0.237671  1
  O  O31  1  0.905472  0.905472  0.237671  1
  O  O32  1  0.907904  0.592095  0.265168  1
  O  O33  1  0.592095  0.907904  0.265168  1
  O  O34  1  0.361872  0.138128  0.363471  1
  O  O35  1  0.138128  0.361872  0.363471  1
  O  O36  1  0.735418  0.092812  0.407677  1
  O  O37  1  0.764581  0.407187  0.407677  1
  O  O38  1  0.092812  0.735418  0.407677  1
  O  O39  1  0.407187  0.764581  0.407677  1
  O  O40  1  0.592812  0.235418  0.592322  1
  O  O41  1  0.907187  0.264582  0.592323  1
  O  O42  1  0.235418  0.592812  0.592322  1
  O  O43  1  0.264582  0.907187  0.592323  1
  O  O44  1  0.861873  0.638127  0.636529  1
  O  O45  1  0.638127  0.861873  0.636529  1
  O  O46  1  0.407904  0.092095  0.734832  1
  O  O47  1  0.092095  0.407904  0.734832  1
  O  O48  1  0.094527  0.094527  0.762329  1
  O  O49  1  0.405472  0.405472  0.762329  1
  O  O50  1  0.641624  0.641624  0.856626  1
  O  O51  1  0.858376  0.858376  0.856625  1
  O  O52  1  0.906173  0.237294  0.905705  1
  O  O53  1  0.593826  0.262706  0.905706  1
  O  O54  1  0.262706  0.593826  0.905706  1
  O  O55  1  0.237294  0.906173  0.905705  1
