# generated using pymatgen
data_Pr2PPt8
_symmetry_space_group_name_H-M   'P 1'
_cell_length_a   4.31439100
_cell_length_b   9.21554693
_cell_length_c   9.21554773
_cell_angle_alpha   145.63951737
_cell_angle_beta   90.00000000
_cell_angle_gamma   90.00000000
_symmetry_Int_Tables_number   1
_chemical_formula_structural   Pr2PPt8
_chemical_formula_sum   'Pr2 P1 Pt8'
_cell_volume   206.79834907
_cell_formula_units_Z   1
loop_
 _symmetry_equiv_pos_site_id
 _symmetry_equiv_pos_as_xyz
  1  'x, y, z'
loop_
 _atom_site_type_symbol
 _atom_site_label
 _atom_site_symmetry_multiplicity
 _atom_site_fract_x
 _atom_site_fract_y
 _atom_site_fract_z
 _atom_site_occupancy
  Pr  Pr0  1  0.500000  0.619132  0.372662  1
  Pr  Pr1  1  0.500000  0.372662  0.619132  1
  P  P2  1  0.000000  0.223267  0.223267  1
  Pt  Pt3  1  0.000000  0.890342  0.110305  1
  Pt  Pt4  1  0.500000  0.792041  0.194531  1
  Pt  Pt5  1  0.000000  0.984511  0.489558  1
  Pt  Pt6  1  0.000000  0.632693  0.632693  1
  Pt  Pt7  1  0.500000  0.194531  0.792041  1
  Pt  Pt8  1  0.000000  0.110305  0.890342  1
  Pt  Pt9  1  0.000000  0.489558  0.984511  1
  Pt  Pt10  1  0.500000  0.004540  0.004540  1
