# generated using pymatgen
data_Y7Ho13CoBi8Ru3
_symmetry_space_group_name_H-M   'P 1'
_cell_length_a   7.96481251
_cell_length_b   8.96765100
_cell_length_c   12.44884276
_cell_angle_alpha   90.00000000
_cell_angle_beta   89.75852463
_cell_angle_gamma   90.00000000
_symmetry_Int_Tables_number   1
_chemical_formula_structural   Y7Ho13CoBi8Ru3
_chemical_formula_sum   'Y7 Ho13 Co1 Bi8 Ru3'
_cell_volume   889.15889887
_cell_formula_units_Z   1
loop_
 _symmetry_equiv_pos_site_id
 _symmetry_equiv_pos_as_xyz
  1  'x, y, z'
loop_
 _atom_site_type_symbol
 _atom_site_label
 _atom_site_symmetry_multiplicity
 _atom_site_fract_x
 _atom_site_fract_y
 _atom_site_fract_z
 _atom_site_occupancy
  Y  Y0  1  0.344925  0.750000  0.702203  1
  Y  Y1  1  0.656782  0.250000  0.292745  1
  Y  Y2  1  0.843136  0.250000  0.791775  1
  Y  Y3  1  0.155223  0.750000  0.206438  1
  Y  Y4  1  0.878707  0.750000  0.806045  1
  Y  Y5  1  0.120654  0.250000  0.193366  1
  Y  Y6  1  0.617435  0.750000  0.311340  1
  Ho  Ho7  1  0.379444  0.250000  0.692007  1
  Ho  Ho8  1  0.675582  0.543353  0.563731  1
  Ho  Ho9  1  0.324991  0.461968  0.437370  1
  Ho  Ho10  1  0.175838  0.458098  0.935834  1
  Ho  Ho11  1  0.324991  0.038032  0.437370  1
  Ho  Ho12  1  0.823786  0.542740  0.064288  1
  Ho  Ho13  1  0.675582  0.956647  0.563731  1
  Ho  Ho14  1  0.823786  0.957260  0.064288  1
  Ho  Ho15  1  0.175838  0.041902  0.935834  1
  Ho  Ho16  1  0.054629  0.750000  0.497151  1
  Ho  Ho17  1  0.947317  0.250000  0.503158  1
  Ho  Ho18  1  0.554754  0.250000  0.003438  1
  Ho  Ho19  1  0.445533  0.750000  0.995770  1
  Co  Co20  1  0.428826  0.750000  0.490875  1
  Bi  Bi21  1  0.570447  0.508236  0.827321  1
  Bi  Bi22  1  0.429052  0.492205  0.172617  1
  Bi  Bi23  1  0.071915  0.491642  0.671691  1
  Bi  Bi24  1  0.429052  0.007795  0.172617  1
  Bi  Bi25  1  0.928888  0.508649  0.328662  1
  Bi  Bi26  1  0.570447  0.991764  0.827321  1
  Bi  Bi27  1  0.928888  0.991351  0.328662  1
  Bi  Bi28  1  0.071915  0.008358  0.671691  1
  Ru  Ru29  1  0.074291  0.750000  0.988990  1
  Ru  Ru30  1  0.924963  0.250000  0.010602  1
  Ru  Ru31  1  0.572381  0.250000  0.511070  1
