# generated using pymatgen
data_Tb6Er(TmSi2)3
_symmetry_space_group_name_H-M   'P 1'
_cell_length_a   8.42985700
_cell_length_b   8.42985661
_cell_length_c   6.31203000
_cell_angle_alpha   90.00000000
_cell_angle_beta   90.00000000
_cell_angle_gamma   120.00001329
_symmetry_Int_Tables_number   1
_chemical_formula_structural   Tb6Er(TmSi2)3
_chemical_formula_sum   'Tb6 Er1 Tm3 Si6'
_cell_volume   388.45438030
_cell_formula_units_Z   1
loop_
 _symmetry_equiv_pos_site_id
 _symmetry_equiv_pos_as_xyz
  1  'x, y, z'
loop_
 _atom_site_type_symbol
 _atom_site_label
 _atom_site_symmetry_multiplicity
 _atom_site_fract_x
 _atom_site_fract_y
 _atom_site_fract_z
 _atom_site_occupancy
  Tb  Tb0  1  0.755305  0.755399  0.249509  1
  Tb  Tb1  1  0.244601  0.999907  0.249509  1
  Tb  Tb2  1  0.000093  0.244695  0.249509  1
  Tb  Tb3  1  0.244601  0.244695  0.750491  1
  Tb  Tb4  1  0.755305  0.999907  0.750491  1
  Tb  Tb5  1  0.000093  0.755399  0.750491  1
  Er  Er6  1  0.666667  0.333333  0.500000  1
  Tm  Tm7  1  0.333333  0.666667  0.500000  1
  Tm  Tm8  1  0.333333  0.666667  0.000000  1
  Tm  Tm9  1  0.666667  0.333333  0.000000  1
  Si  Si10  1  0.394502  0.395488  0.248444  1
  Si  Si11  1  0.604512  0.999015  0.248444  1
  Si  Si12  1  0.000985  0.605498  0.248444  1
  Si  Si13  1  0.604512  0.605498  0.751556  1
  Si  Si14  1  0.394502  0.999015  0.751556  1
  Si  Si15  1  0.000985  0.395488  0.751556  1
