# generated using pymatgen
data_NdIn2FeIr8
_symmetry_space_group_name_H-M   'P 1'
_cell_length_a   5.23725000
_cell_length_b   8.81229000
_cell_length_c   8.81229000
_cell_angle_alpha   90.00000000
_cell_angle_beta   90.00000000
_cell_angle_gamma   90.00000000
_symmetry_Int_Tables_number   1
_chemical_formula_structural   NdIn2FeIr8
_chemical_formula_sum   'Nd2 In4 Fe2 Ir16'
_cell_volume   406.70626918
_cell_formula_units_Z   2
loop_
 _symmetry_equiv_pos_site_id
 _symmetry_equiv_pos_as_xyz
  1  'x, y, z'
loop_
 _atom_site_type_symbol
 _atom_site_label
 _atom_site_symmetry_multiplicity
 _atom_site_fract_x
 _atom_site_fract_y
 _atom_site_fract_z
 _atom_site_occupancy
  Nd  Nd0  1  0.000000  0.500000  0.500000  1
  Nd  Nd1  1  0.000000  0.000000  0.000000  1
  In  In2  1  0.000000  0.623286  0.123286  1
  In  In3  1  0.000000  0.376714  0.876714  1
  In  In4  1  0.000000  0.876714  0.623286  1
  In  In5  1  0.000000  0.123286  0.376714  1
  Fe  Fe6  1  0.500000  0.000000  0.500000  1
  Fe  Fe7  1  0.500000  0.500000  0.000000  1
  Ir  Ir8  1  0.757159  0.175058  0.675058  1
  Ir  Ir9  1  0.757159  0.824942  0.324942  1
  Ir  Ir10  1  0.757159  0.324942  0.175058  1
  Ir  Ir11  1  0.757159  0.675058  0.824942  1
  Ir  Ir12  1  0.242841  0.824942  0.324942  1
  Ir  Ir13  1  0.242841  0.175058  0.675058  1
  Ir  Ir14  1  0.242841  0.675058  0.824942  1
  Ir  Ir15  1  0.242841  0.324942  0.175058  1
  Ir  Ir16  1  0.500000  0.707252  0.563182  1
  Ir  Ir17  1  0.500000  0.292748  0.436818  1
  Ir  Ir18  1  0.500000  0.792748  0.063182  1
  Ir  Ir19  1  0.500000  0.207252  0.936818  1
  Ir  Ir20  1  0.500000  0.563182  0.292748  1
  Ir  Ir21  1  0.500000  0.436818  0.707252  1
  Ir  Ir22  1  0.500000  0.063182  0.207252  1
  Ir  Ir23  1  0.500000  0.936818  0.792748  1
