# generated using pymatgen
data_Sr3(AsS4)2
_symmetry_space_group_name_H-M   'P 1'
_cell_length_a   10.83124218
_cell_length_b   10.83124070
_cell_length_c   10.83123918
_cell_angle_alpha   51.70135677
_cell_angle_beta   51.70137931
_cell_angle_gamma   51.70137546
_symmetry_Int_Tables_number   1
_chemical_formula_structural   Sr3(AsS4)2
_chemical_formula_sum   'Sr6 As4 S16'
_cell_volume   723.05219263
_cell_formula_units_Z   2
loop_
 _symmetry_equiv_pos_site_id
 _symmetry_equiv_pos_as_xyz
  1  'x, y, z'
loop_
 _atom_site_type_symbol
 _atom_site_label
 _atom_site_symmetry_multiplicity
 _atom_site_fract_x
 _atom_site_fract_y
 _atom_site_fract_z
 _atom_site_occupancy
  Sr  Sr0  1  0.250000  0.570632  0.929367  1
  Sr  Sr1  1  0.429367  0.070632  0.750001  1
  Sr  Sr2  1  0.750000  0.429368  0.070632  1
  Sr  Sr3  1  0.929367  0.250001  0.570632  1
  Sr  Sr4  1  0.570633  0.929368  0.249999  1
  Sr  Sr5  1  0.070632  0.750000  0.429368  1
  As  As6  1  0.840528  0.840528  0.840528  1
  As  As7  1  0.659472  0.659472  0.659472  1
  As  As8  1  0.340528  0.340528  0.340528  1
  As  As9  1  0.159472  0.159472  0.159472  1
  S  S10  1  0.222487  0.948575  0.382309  1
  S  S11  1  0.722487  0.882309  0.448575  1
  S  S12  1  0.419162  0.419162  0.419162  1
  S  S13  1  0.277513  0.117690  0.551426  1
  S  S14  1  0.919162  0.919162  0.919163  1
  S  S15  1  0.051425  0.617691  0.777513  1
  S  S16  1  0.580837  0.580838  0.580838  1
  S  S17  1  0.117691  0.551425  0.277512  1
  S  S18  1  0.448575  0.722488  0.882309  1
  S  S19  1  0.777514  0.051425  0.617690  1
  S  S20  1  0.617691  0.777512  0.051425  1
  S  S21  1  0.080838  0.080838  0.080838  1
  S  S22  1  0.882309  0.448576  0.722486  1
  S  S23  1  0.382309  0.222488  0.948576  1
  S  S24  1  0.551425  0.277512  0.117691  1
  S  S25  1  0.948575  0.382309  0.222488  1
