# generated using pymatgen
data_Er6Zr2Co16(SiP3)3
_symmetry_space_group_name_H-M   'P 1'
_cell_length_a   3.73415400
_cell_length_b   10.70882800
_cell_length_c   12.43948700
_cell_angle_alpha   90.00000000
_cell_angle_beta   90.00000000
_cell_angle_gamma   90.00000000
_symmetry_Int_Tables_number   1
_chemical_formula_structural   Er6Zr2Co16(SiP3)3
_chemical_formula_sum   'Er6 Zr2 Co16 Si3 P9'
_cell_volume   497.43534256
_cell_formula_units_Z   1
loop_
 _symmetry_equiv_pos_site_id
 _symmetry_equiv_pos_as_xyz
  1  'x, y, z'
loop_
 _atom_site_type_symbol
 _atom_site_label
 _atom_site_symmetry_multiplicity
 _atom_site_fract_x
 _atom_site_fract_y
 _atom_site_fract_z
 _atom_site_occupancy
  Er  Er0  1  0.750000  0.250000  0.467689  1
  Er  Er1  1  0.250000  0.750000  0.528528  1
  Er  Er2  1  0.250000  0.927605  0.792338  1
  Er  Er3  1  0.250000  0.572395  0.792338  1
  Er  Er4  1  0.750000  0.072010  0.207110  1
  Er  Er5  1  0.750000  0.427990  0.207110  1
  Zr  Zr6  1  0.250000  0.250000  0.843665  1
  Zr  Zr7  1  0.750000  0.750000  0.159551  1
  Co  Co8  1  0.250000  0.250000  0.300030  1
  Co  Co9  1  0.750000  0.750000  0.699289  1
  Co  Co10  1  0.750000  0.250000  0.009664  1
  Co  Co11  1  0.250000  0.750000  0.991389  1
  Co  Co12  1  0.250000  0.420995  0.004304  1
  Co  Co13  1  0.250000  0.079005  0.004304  1
  Co  Co14  1  0.750000  0.579633  0.996944  1
  Co  Co15  1  0.750000  0.920367  0.996944  1
  Co  Co16  1  0.250000  0.458287  0.564212  1
  Co  Co17  1  0.250000  0.041713  0.564212  1
  Co  Co18  1  0.750000  0.545819  0.432594  1
  Co  Co19  1  0.750000  0.954181  0.432594  1
  Co  Co20  1  0.250000  0.871949  0.300186  1
  Co  Co21  1  0.250000  0.628051  0.300186  1
  Co  Co22  1  0.750000  0.126546  0.701620  1
  Co  Co23  1  0.750000  0.373454  0.701620  1
  Si  Si24  1  0.250000  0.250000  0.114951  1
  Si  Si25  1  0.750000  0.750000  0.885178  1
  Si  Si26  1  0.250000  0.250000  0.636422  1
  P  P27  1  0.750000  0.750000  0.363978  1
  P  P28  1  0.250000  0.440857  0.384411  1
  P  P29  1  0.250000  0.059143  0.384411  1
  P  P30  1  0.750000  0.558884  0.615433  1
  P  P31  1  0.750000  0.941116  0.615433  1
  P  P32  1  0.250000  0.912529  0.106590  1
  P  P33  1  0.250000  0.587471  0.106590  1
  P  P34  1  0.750000  0.086479  0.894090  1
  P  P35  1  0.750000  0.413521  0.894090  1
