# generated using pymatgen
data_NdDy7(MnS4)4
_symmetry_space_group_name_H-M   'P 1'
_cell_length_a   6.41663501
_cell_length_b   7.92431600
_cell_length_c   13.54453000
_cell_angle_alpha   90.00000000
_cell_angle_beta   90.00326811
_cell_angle_gamma   90.00000000
_symmetry_Int_Tables_number   1
_chemical_formula_structural   NdDy7(MnS4)4
_chemical_formula_sum   'Nd1 Dy7 Mn4 S16'
_cell_volume   688.70472251
_cell_formula_units_Z   1
loop_
 _symmetry_equiv_pos_site_id
 _symmetry_equiv_pos_as_xyz
  1  'x, y, z'
loop_
 _atom_site_type_symbol
 _atom_site_label
 _atom_site_symmetry_multiplicity
 _atom_site_fract_x
 _atom_site_fract_y
 _atom_site_fract_z
 _atom_site_occupancy
  Nd  Nd0  1  0.992698  0.750003  0.268256  1
  Dy  Dy1  1  0.000208  0.499392  0.999010  1
  Dy  Dy2  1  0.500131  0.001578  0.501749  1
  Dy  Dy3  1  0.000201  0.000620  0.999005  1
  Dy  Dy4  1  0.500130  0.498430  0.501749  1
  Dy  Dy5  1  0.505694  0.750009  0.766363  1
  Dy  Dy6  1  0.005402  0.250004  0.734356  1
  Dy  Dy7  1  0.493528  0.250007  0.233356  1
  Mn  Mn8  1  0.410546  0.749972  0.091418  1
  Mn  Mn9  1  0.088579  0.749915  0.593895  1
  Mn  Mn10  1  0.588912  0.249982  0.907620  1
  Mn  Mn11  1  0.911383  0.249987  0.408795  1
  S  S12  1  0.775985  0.750004  0.085021  1
  S  S13  1  0.721882  0.750002  0.590179  1
  S  S14  1  0.221552  0.250004  0.909234  1
  S  S15  1  0.277524  0.250006  0.410277  1
  S  S16  1  0.251547  0.750004  0.433919  1
  S  S17  1  0.255369  0.750006  0.929635  1
  S  S18  1  0.756765  0.250004  0.570622  1
  S  S19  1  0.745371  0.250005  0.069654  1
  S  S20  1  0.735849  0.482124  0.332428  1
  S  S21  1  0.757778  0.013463  0.830802  1
  S  S22  1  0.257852  0.987075  0.669409  1
  S  S23  1  0.246819  0.509600  0.165306  1
  S  S24  1  0.257848  0.512939  0.669409  1
  S  S25  1  0.246807  0.990418  0.165309  1
  S  S26  1  0.735846  0.017880  0.332427  1
  S  S27  1  0.757793  0.486570  0.830797  1
