# generated using pymatgen
data_CaScB6Ir
_symmetry_space_group_name_H-M   'P 1'
_cell_length_a   3.54915500
_cell_length_b   9.00304700
_cell_length_c   11.40037500
_cell_angle_alpha   90.00000000
_cell_angle_beta   90.00000000
_cell_angle_gamma   90.00000000
_symmetry_Int_Tables_number   1
_chemical_formula_structural   CaScB6Ir
_chemical_formula_sum   'Ca4 Sc4 B24 Ir4'
_cell_volume   364.27856819
_cell_formula_units_Z   4
loop_
 _symmetry_equiv_pos_site_id
 _symmetry_equiv_pos_as_xyz
  1  'x, y, z'
loop_
 _atom_site_type_symbol
 _atom_site_label
 _atom_site_symmetry_multiplicity
 _atom_site_fract_x
 _atom_site_fract_y
 _atom_site_fract_z
 _atom_site_occupancy
  Ca  Ca0  1  0.500000  0.320935  0.414238  1
  Ca  Ca1  1  0.500000  0.679065  0.585762  1
  Ca  Ca2  1  0.500000  0.179065  0.914238  1
  Ca  Ca3  1  0.500000  0.820935  0.085762  1
  Sc  Sc4  1  0.500000  0.445977  0.124488  1
  Sc  Sc5  1  0.500000  0.554023  0.875512  1
  Sc  Sc6  1  0.500000  0.054023  0.624488  1
  Sc  Sc7  1  0.500000  0.945977  0.375512  1
  B  B8  1  0.000000  0.099799  0.473226  1
  B  B9  1  0.000000  0.900201  0.526774  1
  B  B10  1  0.000000  0.400201  0.973226  1
  B  B11  1  0.000000  0.599799  0.026774  1
  B  B12  1  0.000000  0.129757  0.318110  1
  B  B13  1  0.000000  0.870243  0.681890  1
  B  B14  1  0.000000  0.370243  0.818110  1
  B  B15  1  0.000000  0.629757  0.181890  1
  B  B16  1  0.000000  0.055482  0.067271  1
  B  B17  1  0.000000  0.944518  0.932729  1
  B  B18  1  0.000000  0.444518  0.567271  1
  B  B19  1  0.000000  0.555482  0.432729  1
  B  B20  1  0.000000  0.483010  0.285297  1
  B  B21  1  0.000000  0.516990  0.714703  1
  B  B22  1  0.000000  0.016990  0.785297  1
  B  B23  1  0.000000  0.983010  0.214703  1
  B  B24  1  0.000000  0.253186  0.080912  1
  B  B25  1  0.000000  0.746814  0.919088  1
  B  B26  1  0.000000  0.246814  0.580912  1
  B  B27  1  0.000000  0.753186  0.419088  1
  B  B28  1  0.000000  0.293701  0.234711  1
  B  B29  1  0.000000  0.706299  0.765289  1
  B  B30  1  0.000000  0.206299  0.734711  1
  B  B31  1  0.000000  0.793701  0.265289  1
  Ir  Ir32  1  0.500000  0.140604  0.181781  1
  Ir  Ir33  1  0.500000  0.859396  0.818219  1
  Ir  Ir34  1  0.500000  0.359396  0.681781  1
  Ir  Ir35  1  0.500000  0.640604  0.318219  1
