# generated using pymatgen
data_HfBe8Re3
_symmetry_space_group_name_H-M   'P 1'
_cell_length_a   4.44765300
_cell_length_b   4.44765283
_cell_length_c   7.38719800
_cell_angle_alpha   90.00000000
_cell_angle_beta   90.00000000
_cell_angle_gamma   120.00000870
_symmetry_Int_Tables_number   1
_chemical_formula_structural   HfBe8Re3
_chemical_formula_sum   'Hf1 Be8 Re3'
_cell_volume   126.55290252
_cell_formula_units_Z   1
loop_
 _symmetry_equiv_pos_site_id
 _symmetry_equiv_pos_as_xyz
  1  'x, y, z'
loop_
 _atom_site_type_symbol
 _atom_site_label
 _atom_site_symmetry_multiplicity
 _atom_site_fract_x
 _atom_site_fract_y
 _atom_site_fract_z
 _atom_site_occupancy
  Hf  Hf0  1  0.333333  0.666667  0.063723  1
  Be  Be1  1  0.000000  0.000000  0.995469  1
  Be  Be2  1  0.000000  0.000000  0.502821  1
  Be  Be3  1  0.830859  0.661718  0.260589  1
  Be  Be4  1  0.168012  0.831988  0.743326  1
  Be  Be5  1  0.663975  0.831988  0.743326  1
  Be  Be6  1  0.338282  0.169141  0.260589  1
  Be  Be7  1  0.830859  0.169141  0.260589  1
  Be  Be8  1  0.168012  0.336025  0.743326  1
  Re  Re9  1  0.666667  0.333333  0.563652  1
  Re  Re10  1  0.666667  0.333333  0.920777  1
  Re  Re11  1  0.333333  0.666667  0.441813  1
