# generated using pymatgen
data_Rb3Ca(PO4)2
_symmetry_space_group_name_H-M   'P 1'
_cell_length_a   5.78806600
_cell_length_b   5.78806633
_cell_length_c   7.99225900
_cell_angle_alpha   90.00000000
_cell_angle_beta   90.00000000
_cell_angle_gamma   120.00000954
_symmetry_Int_Tables_number   1
_chemical_formula_structural   Rb3Ca(PO4)2
_chemical_formula_sum   'Rb3 Ca1 P2 O8'
_cell_volume   231.88204053
_cell_formula_units_Z   1
loop_
 _symmetry_equiv_pos_site_id
 _symmetry_equiv_pos_as_xyz
  1  'x, y, z'
loop_
 _atom_site_type_symbol
 _atom_site_label
 _atom_site_symmetry_multiplicity
 _atom_site_fract_x
 _atom_site_fract_y
 _atom_site_fract_z
 _atom_site_occupancy
  Rb  Rb0  1  0.333333  0.666667  0.720924  1
  Rb  Rb1  1  0.666667  0.333333  0.279076  1
  Rb  Rb2  1  0.000000  0.000000  0.000000  1
  Ca  Ca3  1  0.000000  0.000000  0.500000  1
  P  P4  1  0.333333  0.666667  0.263402  1
  P  P5  1  0.666667  0.333333  0.736598  1
  O  O6  1  0.333333  0.666667  0.069627  1
  O  O7  1  0.666667  0.333333  0.930373  1
  O  O8  1  0.186952  0.813048  0.327166  1
  O  O9  1  0.813048  0.186952  0.672834  1
  O  O10  1  0.186952  0.373903  0.327166  1
  O  O11  1  0.813048  0.626097  0.672834  1
  O  O12  1  0.626097  0.813048  0.327166  1
  O  O13  1  0.373903  0.186952  0.672834  1
