# generated using pymatgen
data_Ho2Lu3Os2
_symmetry_space_group_name_H-M   'P 1'
_cell_length_a   6.24899269
_cell_length_b   7.33111658
_cell_length_c   8.26118414
_cell_angle_alpha   97.11939735
_cell_angle_beta   112.22309843
_cell_angle_gamma   89.99999948
_symmetry_Int_Tables_number   1
_chemical_formula_structural   Ho2Lu3Os2
_chemical_formula_sum   'Ho4 Lu6 Os4'
_cell_volume   347.19517128
_cell_formula_units_Z   2
loop_
 _symmetry_equiv_pos_site_id
 _symmetry_equiv_pos_as_xyz
  1  'x, y, z'
loop_
 _atom_site_type_symbol
 _atom_site_label
 _atom_site_symmetry_multiplicity
 _atom_site_fract_x
 _atom_site_fract_y
 _atom_site_fract_z
 _atom_site_occupancy
  Ho  Ho0  1  0.527479  0.081925  0.817170  1
  Ho  Ho1  1  0.472521  0.918075  0.182830  1
  Ho  Ho2  1  0.710308  0.418075  0.182830  1
  Ho  Ho3  1  0.289692  0.581925  0.817170  1
  Lu  Lu4  1  0.297247  0.318914  0.436364  1
  Lu  Lu5  1  0.702753  0.681086  0.563636  1
  Lu  Lu6  1  0.860883  0.181086  0.563636  1
  Lu  Lu7  1  0.139117  0.818914  0.436364  1
  Lu  Lu8  1  0.081392  0.250000  0.000000  1
  Lu  Lu9  1  0.918608  0.750000  0.000000  1
  Os  Os10  1  0.319231  0.578603  0.219729  1
  Os  Os11  1  0.680769  0.421397  0.780271  1
  Os  Os12  1  0.099503  0.921397  0.780271  1
  Os  Os13  1  0.900497  0.078603  0.219729  1
