# generated using pymatgen
data_HoEr3Ga6CoCu
_symmetry_space_group_name_H-M   'P 1'
_cell_length_a   6.94881300
_cell_length_b   8.73978353
_cell_length_c   8.73978400
_cell_angle_alpha   119.99999422
_cell_angle_beta   90.00000000
_cell_angle_gamma   90.00000000
_symmetry_Int_Tables_number   1
_chemical_formula_structural   HoEr3Ga6CoCu
_chemical_formula_sum   'Ho2 Er6 Ga12 Co2 Cu2'
_cell_volume   459.66629129
_cell_formula_units_Z   2
loop_
 _symmetry_equiv_pos_site_id
 _symmetry_equiv_pos_as_xyz
  1  'x, y, z'
loop_
 _atom_site_type_symbol
 _atom_site_label
 _atom_site_symmetry_multiplicity
 _atom_site_fract_x
 _atom_site_fract_y
 _atom_site_fract_z
 _atom_site_occupancy
  Ho  Ho0  1  0.745555  0.000000  0.000000  1
  Ho  Ho1  1  0.254445  0.000000  0.000000  1
  Er  Er2  1  0.742187  0.476816  0.523184  1
  Er  Er3  1  0.257813  0.523184  0.476816  1
  Er  Er4  1  0.742187  0.046368  0.523184  1
  Er  Er5  1  0.257813  0.953632  0.476816  1
  Er  Er6  1  0.742187  0.476816  0.953632  1
  Er  Er7  1  0.257813  0.523184  0.046368  1
  Ga  Ga8  1  0.954689  0.830588  0.169412  1
  Ga  Ga9  1  0.045311  0.169412  0.830588  1
  Ga  Ga10  1  0.954689  0.338824  0.169412  1
  Ga  Ga11  1  0.454807  0.172886  0.827114  1
  Ga  Ga12  1  0.045311  0.661176  0.830588  1
  Ga  Ga13  1  0.545193  0.827114  0.172886  1
  Ga  Ga14  1  0.954689  0.830588  0.661176  1
  Ga  Ga15  1  0.454807  0.654229  0.827114  1
  Ga  Ga16  1  0.045311  0.169412  0.338824  1
  Ga  Ga17  1  0.545193  0.345771  0.172886  1
  Ga  Ga18  1  0.454807  0.172886  0.345771  1
  Ga  Ga19  1  0.545193  0.827114  0.654229  1
  Co  Co20  1  0.486508  0.333333  0.666667  1
  Co  Co21  1  0.513492  0.666667  0.333333  1
  Cu  Cu22  1  0.948482  0.666667  0.333333  1
  Cu  Cu23  1  0.051518  0.333333  0.666667  1
