# generated using pymatgen
data_Nd2Ho6Si12IrRh3
_symmetry_space_group_name_H-M   'P 1'
_cell_length_a   8.18275400
_cell_length_b   8.18275464
_cell_length_c   7.98995400
_cell_angle_alpha   90.00000000
_cell_angle_beta   90.00000000
_cell_angle_gamma   120.00000549
_symmetry_Int_Tables_number   1
_chemical_formula_structural   Nd2Ho6Si12IrRh3
_chemical_formula_sum   'Nd2 Ho6 Si12 Ir1 Rh3'
_cell_volume   463.31238624
_cell_formula_units_Z   1
loop_
 _symmetry_equiv_pos_site_id
 _symmetry_equiv_pos_as_xyz
  1  'x, y, z'
loop_
 _atom_site_type_symbol
 _atom_site_label
 _atom_site_symmetry_multiplicity
 _atom_site_fract_x
 _atom_site_fract_y
 _atom_site_fract_z
 _atom_site_occupancy
  Nd  Nd0  1  0.000000  0.000000  0.249211  1
  Nd  Nd1  1  0.000000  0.000000  0.750238  1
  Ho  Ho2  1  0.508448  0.491552  0.250215  1
  Ho  Ho3  1  0.508448  0.016897  0.250215  1
  Ho  Ho4  1  0.983103  0.491552  0.250215  1
  Ho  Ho5  1  0.490960  0.509040  0.749804  1
  Ho  Ho6  1  0.490960  0.981920  0.749804  1
  Ho  Ho7  1  0.018080  0.509040  0.749804  1
  Si  Si8  1  0.167950  0.832050  0.500659  1
  Si  Si9  1  0.167950  0.335899  0.500659  1
  Si  Si10  1  0.664101  0.832050  0.500659  1
  Si  Si11  1  0.831424  0.168576  0.498930  1
  Si  Si12  1  0.831424  0.662848  0.498930  1
  Si  Si13  1  0.337152  0.168576  0.498930  1
  Si  Si14  1  0.831573  0.168427  0.000884  1
  Si  Si15  1  0.831573  0.663146  0.000884  1
  Si  Si16  1  0.336854  0.168427  0.000884  1
  Si  Si17  1  0.168389  0.831611  0.998631  1
  Si  Si18  1  0.168389  0.336777  0.998631  1
  Si  Si19  1  0.663223  0.831611  0.998631  1
  Ir  Ir20  1  0.333333  0.666667  0.466952  1
  Rh  Rh21  1  0.666667  0.333333  0.534687  1
  Rh  Rh22  1  0.666667  0.333333  0.964943  1
  Rh  Rh23  1  0.333333  0.666667  0.036597  1
