# generated using pymatgen
data_Ti3Be2Al(Co5B2)2
_symmetry_space_group_name_H-M   'P 1'
_cell_length_a   8.36707718
_cell_length_b   8.36707718
_cell_length_c   2.85486500
_cell_angle_alpha   90.00000000
_cell_angle_beta   90.00000000
_cell_angle_gamma   90.69791484
_symmetry_Int_Tables_number   1
_chemical_formula_structural   Ti3Be2Al(Co5B2)2
_chemical_formula_sum   'Ti3 Be2 Al1 Co10 B4'
_cell_volume   199.84850632
_cell_formula_units_Z   1
loop_
 _symmetry_equiv_pos_site_id
 _symmetry_equiv_pos_as_xyz
  1  'x, y, z'
loop_
 _atom_site_type_symbol
 _atom_site_label
 _atom_site_symmetry_multiplicity
 _atom_site_fract_x
 _atom_site_fract_y
 _atom_site_fract_z
 _atom_site_occupancy
  Ti  Ti0  1  0.325995  0.176962  0.000000  1
  Ti  Ti1  1  0.676962  0.825995  0.000000  1
  Ti  Ti2  1  0.173151  0.673151  0.000000  1
  Be  Be3  1  0.003519  0.994125  0.000000  1
  Be  Be4  1  0.494125  0.503519  0.000000  1
  Al  Al5  1  0.823364  0.323364  0.000000  1
  Co  Co6  1  0.501987  0.001987  0.500000  1
  Co  Co7  1  0.996312  0.496312  0.500000  1
  Co  Co8  1  0.069929  0.208837  0.500000  1
  Co  Co9  1  0.212623  0.930734  0.500000  1
  Co  Co10  1  0.791827  0.068743  0.500000  1
  Co  Co11  1  0.932278  0.787010  0.500000  1
  Co  Co12  1  0.430734  0.712623  0.500000  1
  Co  Co13  1  0.568743  0.291827  0.500000  1
  Co  Co14  1  0.708837  0.569929  0.500000  1
  Co  Co15  1  0.287010  0.432278  0.500000  1
  B  B16  1  0.628296  0.128296  0.000000  1
  B  B17  1  0.124200  0.373939  0.000000  1
  B  B18  1  0.873939  0.624200  0.000000  1
  B  B19  1  0.376168  0.876168  0.000000  1
