# generated using pymatgen
data_La8Nd4Ru3RhBr12
_symmetry_space_group_name_H-M   'P 1'
_cell_length_a   10.59987752
_cell_length_b   10.60000190
_cell_length_c   10.58929924
_cell_angle_alpha   108.77009899
_cell_angle_beta   110.82110253
_cell_angle_gamma   108.81102915
_symmetry_Int_Tables_number   1
_chemical_formula_structural   La8Nd4Ru3RhBr12
_chemical_formula_sum   'La8 Nd4 Ru3 Rh1 Br12'
_cell_volume   915.74842217
_cell_formula_units_Z   1
loop_
 _symmetry_equiv_pos_site_id
 _symmetry_equiv_pos_as_xyz
  1  'x, y, z'
loop_
 _atom_site_type_symbol
 _atom_site_label
 _atom_site_symmetry_multiplicity
 _atom_site_fract_x
 _atom_site_fract_y
 _atom_site_fract_z
 _atom_site_occupancy
  La  La0  1  0.229969  0.265068  0.743232  1
  La  La1  1  0.021634  0.487069  0.756823  1
  La  La2  1  0.474659  0.238340  0.465391  1
  La  La3  1  0.268796  0.015244  0.036051  1
  La  La4  1  0.763681  0.238340  0.272948  1
  La  La5  1  0.746448  0.015244  0.479194  1
  La  La6  1  0.465435  0.487069  0.230246  1
  La  La7  1  0.035099  0.265068  0.021836  1
  Nd  Nd8  1  0.263413  0.745048  0.232286  1
  Nd  Nd9  1  0.481635  0.745048  0.012762  1
  Nd  Nd10  1  0.234609  0.469218  0.484609  1
  Nd  Nd11  1  0.015080  0.030162  0.265080  1
  Ru  Ru12  1  0.250426  0.500851  0.000426  1
  Ru  Ru13  1  0.996994  0.248942  0.496644  1
  Ru  Ru14  1  0.251949  0.248942  0.252299  1
  Rh  Rh15  1  0.498873  0.997746  0.248873  1
  Br  Br16  1  0.244869  0.990620  0.499970  1
  Br  Br17  1  0.511197  0.510950  0.755899  1
  Br  Br18  1  0.255176  0.755393  0.745825  1
  Br  Br19  1  0.990184  0.744607  0.000020  1
  Br  Br20  1  0.999754  0.510950  0.255051  1
  Br  Br21  1  0.745752  0.990620  0.990649  1
  Br  Br22  1  0.754421  0.744607  0.244587  1
  Br  Br23  1  0.500217  0.755393  0.509569  1
  Br  Br24  1  0.503165  0.249979  0.997192  1
  Br  Br25  1  0.753267  0.506535  0.503267  1
  Br  Br26  1  0.746816  0.249979  0.752788  1
  Br  Br27  1  0.996484  0.992967  0.746484  1
