# generated using pymatgen
data_Gd4Cd2Pd3Cl
_symmetry_space_group_name_H-M   'P 1'
_cell_length_a   7.92221847
_cell_length_b   7.92715697
_cell_length_c   3.72898200
_cell_angle_alpha   90.00000000
_cell_angle_beta   90.00000000
_cell_angle_gamma   90.95329146
_symmetry_Int_Tables_number   1
_chemical_formula_structural   Gd4Cd2Pd3Cl
_chemical_formula_sum   'Gd4 Cd2 Pd3 Cl1'
_cell_volume   234.15015241
_cell_formula_units_Z   1
loop_
 _symmetry_equiv_pos_site_id
 _symmetry_equiv_pos_as_xyz
  1  'x, y, z'
loop_
 _atom_site_type_symbol
 _atom_site_label
 _atom_site_symmetry_multiplicity
 _atom_site_fract_x
 _atom_site_fract_y
 _atom_site_fract_z
 _atom_site_occupancy
  Gd  Gd0  1  0.334925  0.835078  0.500000  1
  Gd  Gd1  1  0.174117  0.311545  0.500000  1
  Gd  Gd2  1  0.812342  0.674038  0.500000  1
  Gd  Gd3  1  0.672818  0.172638  0.500000  1
  Cd  Cd4  1  0.990550  0.020005  0.000000  1
  Cd  Cd5  1  0.519531  0.490713  0.000000  1
  Pd  Pd6  1  0.869872  0.369788  0.000000  1
  Pd  Pd7  1  0.369337  0.125288  0.000000  1
  Pd  Pd8  1  0.625234  0.869418  0.000000  1
  Cl  Cl9  1  0.131273  0.631490  0.000000  1
