# generated using pymatgen
data_La2Hf(Si3Pd10)2
_symmetry_space_group_name_H-M   'P 1'
_cell_length_a   8.74620653
_cell_length_b   8.74620057
_cell_length_c   8.74623300
_cell_angle_alpha   60.00003345
_cell_angle_beta   59.99996013
_cell_angle_gamma   60.00004844
_symmetry_Int_Tables_number   1
_chemical_formula_structural   La2Hf(Si3Pd10)2
_chemical_formula_sum   'La2 Hf1 Si6 Pd20'
_cell_volume   473.09171650
_cell_formula_units_Z   1
loop_
 _symmetry_equiv_pos_site_id
 _symmetry_equiv_pos_as_xyz
  1  'x, y, z'
loop_
 _atom_site_type_symbol
 _atom_site_label
 _atom_site_symmetry_multiplicity
 _atom_site_fract_x
 _atom_site_fract_y
 _atom_site_fract_z
 _atom_site_occupancy
  La  La0  1  0.249999  0.250001  0.250000  1
  La  La1  1  0.750001  0.749999  0.750000  1
  Hf  Hf2  1  0.000000  0.000000  0.000000  1
  Si  Si3  1  0.733606  0.266395  0.266394  1
  Si  Si4  1  0.266394  0.733605  0.733606  1
  Si  Si5  1  0.266395  0.733605  0.266394  1
  Si  Si6  1  0.733605  0.266395  0.733606  1
  Si  Si7  1  0.266394  0.266395  0.733606  1
  Si  Si8  1  0.733606  0.733605  0.266394  1
  Pd  Pd9  1  0.342402  0.000000  0.000001  1
  Pd  Pd10  1  0.657598  0.000000  0.999999  1
  Pd  Pd11  1  0.999999  0.342402  0.657599  1
  Pd  Pd12  1  0.000001  0.657598  0.342401  1
  Pd  Pd13  1  0.000000  0.342402  0.000000  1
  Pd  Pd14  1  0.657599  0.000001  0.342400  1
  Pd  Pd15  1  0.000000  0.657598  0.000000  1
  Pd  Pd16  1  0.342401  0.999999  0.657600  1
  Pd  Pd17  1  0.000001  0.000000  0.342401  1
  Pd  Pd18  1  0.999999  0.000000  0.657599  1
  Pd  Pd19  1  0.657598  0.342402  0.999999  1
  Pd  Pd20  1  0.342402  0.657598  0.000001  1
  Pd  Pd21  1  0.385188  0.385189  0.385187  1
  Pd  Pd22  1  0.614812  0.614811  0.614813  1
  Pd  Pd23  1  0.385187  0.385188  0.844436  1
  Pd  Pd24  1  0.385188  0.844434  0.385188  1
  Pd  Pd25  1  0.614813  0.614812  0.155564  1
  Pd  Pd26  1  0.614812  0.155566  0.614812  1
  Pd  Pd27  1  0.844435  0.385188  0.385187  1
  Pd  Pd28  1  0.155565  0.614812  0.614813  1
