# generated using pymatgen
data_Nd3Tl3(PS4)4
_symmetry_space_group_name_H-M   'P 1'
_cell_length_a   10.10767023
_cell_length_b   10.10766968
_cell_length_c   15.03728200
_cell_angle_alpha   89.31411236
_cell_angle_beta   89.31411240
_cell_angle_gamma   71.81701537
_symmetry_Int_Tables_number   1
_chemical_formula_structural   Nd3Tl3(PS4)4
_chemical_formula_sum   'Nd6 Tl6 P8 S32'
_cell_volume   1459.40968372
_cell_formula_units_Z   2
loop_
 _symmetry_equiv_pos_site_id
 _symmetry_equiv_pos_as_xyz
  1  'x, y, z'
loop_
 _atom_site_type_symbol
 _atom_site_label
 _atom_site_symmetry_multiplicity
 _atom_site_fract_x
 _atom_site_fract_y
 _atom_site_fract_z
 _atom_site_occupancy
  Nd  Nd0  1  0.252134  0.747866  0.750000  1
  Nd  Nd1  1  0.747866  0.252134  0.250000  1
  Nd  Nd2  1  0.487629  0.251008  0.511963  1
  Nd  Nd3  1  0.512371  0.748992  0.488037  1
  Nd  Nd4  1  0.748993  0.512371  0.988037  1
  Nd  Nd5  1  0.251007  0.487629  0.011963  1
  Tl  Tl6  1  0.029005  0.395450  0.661476  1
  Tl  Tl7  1  0.000000  0.000000  0.000000  1
  Tl  Tl8  1  0.395450  0.029005  0.161476  1
  Tl  Tl9  1  0.970995  0.604550  0.338524  1
  Tl  Tl10  1  0.604550  0.970995  0.838524  1
  Tl  Tl11  1  0.000000  0.000000  0.500000  1
  P  P12  1  0.963483  0.667842  0.860387  1
  P  P13  1  0.234661  0.603060  0.524709  1
  P  P14  1  0.667842  0.963483  0.360386  1
  P  P15  1  0.036517  0.332158  0.139613  1
  P  P16  1  0.765339  0.396940  0.475291  1
  P  P17  1  0.396940  0.765339  0.975291  1
  P  P18  1  0.332158  0.036517  0.639614  1
  P  P19  1  0.603060  0.234661  0.024709  1
  S  S20  1  0.545922  0.414518  0.102050  1
  S  S21  1  0.400029  0.192299  0.687057  1
  S  S22  1  0.744867  0.271228  0.578898  1
  S  S23  1  0.792030  0.575682  0.523165  1
  S  S24  1  0.585481  0.454079  0.397950  1
  S  S25  1  0.702981  0.074366  0.107529  1
  S  S26  1  0.843804  0.474908  0.171174  1
  S  S27  1  0.947520  0.680184  0.996721  1
  S  S28  1  0.156196  0.525092  0.828826  1
  S  S29  1  0.525092  0.156196  0.328826  1
  S  S30  1  0.192299  0.400029  0.187057  1
  S  S31  1  0.961520  0.854200  0.805755  1
  S  S32  1  0.038480  0.145800  0.194245  1
  S  S33  1  0.319816  0.052480  0.503279  1
  S  S34  1  0.474908  0.843804  0.671174  1
  S  S35  1  0.207970  0.424318  0.476835  1
  S  S36  1  0.454078  0.585482  0.897950  1
  S  S37  1  0.575681  0.792030  0.023165  1
  S  S38  1  0.925634  0.297019  0.392471  1
  S  S39  1  0.807701  0.599971  0.812943  1
  S  S40  1  0.052480  0.319816  0.003279  1
  S  S41  1  0.297019  0.925634  0.892471  1
  S  S42  1  0.074366  0.702981  0.607529  1
  S  S43  1  0.854200  0.961521  0.305755  1
  S  S44  1  0.255133  0.728772  0.421102  1
  S  S45  1  0.414519  0.545921  0.602050  1
  S  S46  1  0.599971  0.807701  0.312943  1
  S  S47  1  0.728772  0.255133  0.921102  1
  S  S48  1  0.271228  0.744867  0.078898  1
  S  S49  1  0.680184  0.947520  0.496721  1
  S  S50  1  0.145800  0.038479  0.694245  1
  S  S51  1  0.424319  0.207970  0.976835  1
