# generated using pymatgen
data_KFeCoP2
_symmetry_space_group_name_H-M   'P 1'
_cell_length_a   7.06801977
_cell_length_b   7.06801939
_cell_length_c   7.06801948
_cell_angle_alpha   149.48399885
_cell_angle_beta   149.48400140
_cell_angle_gamma   43.69936674
_symmetry_Int_Tables_number   1
_chemical_formula_structural   KFeCoP2
_chemical_formula_sum   'K1 Fe1 Co1 P2'
_cell_volume   90.78978257
_cell_formula_units_Z   1
loop_
 _symmetry_equiv_pos_site_id
 _symmetry_equiv_pos_as_xyz
  1  'x, y, z'
loop_
 _atom_site_type_symbol
 _atom_site_label
 _atom_site_symmetry_multiplicity
 _atom_site_fract_x
 _atom_site_fract_y
 _atom_site_fract_z
 _atom_site_occupancy
  K  K0  1  0.000000  0.000000  0.000000  1
  Fe  Fe1  1  0.250000  0.750000  0.500000  1
  Co  Co2  1  0.750000  0.250000  0.500000  1
  P  P3  1  0.338826  0.338826  0.000000  1
  P  P4  1  0.661174  0.661174  0.000000  1
