# generated using pymatgen
data_LaEr2UO7
_symmetry_space_group_name_H-M   'P 1'
_cell_length_a   6.61237600
_cell_length_b   6.61237609
_cell_length_c   7.77921500
_cell_angle_alpha   90.00000000
_cell_angle_beta   90.00000000
_cell_angle_gamma   109.02775082
_symmetry_Int_Tables_number   1
_chemical_formula_structural   LaEr2UO7
_chemical_formula_sum   'La2 Er4 U2 O14'
_cell_volume   321.54994669
_cell_formula_units_Z   2
loop_
 _symmetry_equiv_pos_site_id
 _symmetry_equiv_pos_as_xyz
  1  'x, y, z'
loop_
 _atom_site_type_symbol
 _atom_site_label
 _atom_site_symmetry_multiplicity
 _atom_site_fract_x
 _atom_site_fract_y
 _atom_site_fract_z
 _atom_site_occupancy
  La  La0  1  0.500000  0.500000  0.500000  1
  La  La1  1  0.500000  0.500000  0.000000  1
  Er  Er2  1  0.531784  0.006057  0.750000  1
  Er  Er3  1  0.006057  0.531784  0.250000  1
  Er  Er4  1  0.468216  0.993943  0.250000  1
  Er  Er5  1  0.993943  0.468216  0.750000  1
  U  U6  1  0.000000  0.000000  0.500000  1
  U  U7  1  0.000000  0.000000  0.000000  1
  O  O8  1  0.665821  0.921425  0.466914  1
  O  O9  1  0.921425  0.665821  0.533086  1
  O  O10  1  0.665821  0.921425  0.033086  1
  O  O11  1  0.921425  0.665821  0.966914  1
  O  O12  1  0.334179  0.078575  0.533086  1
  O  O13  1  0.078575  0.334179  0.466914  1
  O  O14  1  0.334179  0.078575  0.966914  1
  O  O15  1  0.078575  0.334179  0.033086  1
  O  O16  1  0.905633  0.094367  0.750000  1
  O  O17  1  0.094367  0.905633  0.250000  1
  O  O18  1  0.357964  0.642036  0.750000  1
  O  O19  1  0.642036  0.357964  0.250000  1
  O  O20  1  0.642371  0.357629  0.750000  1
  O  O21  1  0.357629  0.642371  0.250000  1
