# generated using pymatgen
data_NdZr8In14FeCo6
_symmetry_space_group_name_H-M   'P 1'
_cell_length_a   9.52530292
_cell_length_b   9.52530347
_cell_length_c   9.52530300
_cell_angle_alpha   59.99999816
_cell_angle_beta   59.99999626
_cell_angle_gamma   60.00000542
_symmetry_Int_Tables_number   1
_chemical_formula_structural   NdZr8In14FeCo6
_chemical_formula_sum   'Nd1 Zr8 In14 Fe1 Co6'
_cell_volume   611.11285319
_cell_formula_units_Z   1
loop_
 _symmetry_equiv_pos_site_id
 _symmetry_equiv_pos_as_xyz
  1  'x, y, z'
loop_
 _atom_site_type_symbol
 _atom_site_label
 _atom_site_symmetry_multiplicity
 _atom_site_fract_x
 _atom_site_fract_y
 _atom_site_fract_z
 _atom_site_occupancy
  Nd  Nd0  1  0.500000  0.500000  0.500000  1
  Zr  Zr1  1  0.120363  0.638910  0.120363  1
  Zr  Zr2  1  0.361090  0.879637  0.879637  1
  Zr  Zr3  1  0.879637  0.879637  0.879637  1
  Zr  Zr4  1  0.638910  0.120363  0.120363  1
  Zr  Zr5  1  0.879637  0.879637  0.361090  1
  Zr  Zr6  1  0.120363  0.120363  0.120363  1
  Zr  Zr7  1  0.879637  0.361090  0.879637  1
  Zr  Zr8  1  0.120363  0.120363  0.638910  1
  In  In9  1  0.500000  0.846059  0.153941  1
  In  In10  1  0.500000  0.846059  0.500000  1
  In  In11  1  0.500000  0.153941  0.500000  1
  In  In12  1  0.500000  0.500000  0.846059  1
  In  In13  1  0.153941  0.500000  0.500000  1
  In  In14  1  0.846059  0.153941  0.500000  1
  In  In15  1  0.153941  0.846059  0.500000  1
  In  In16  1  0.500000  0.153941  0.846059  1
  In  In17  1  0.153941  0.500000  0.846059  1
  In  In18  1  0.500000  0.500000  0.153941  1
  In  In19  1  0.846059  0.500000  0.500000  1
  In  In20  1  0.846059  0.500000  0.153941  1
  In  In21  1  0.250000  0.250000  0.250000  1
  In  In22  1  0.750000  0.750000  0.750000  1
  Fe  Fe23  1  0.000000  0.000000  0.000000  1
  Co  Co24  1  0.781092  0.781092  0.218908  1
  Co  Co25  1  0.218908  0.781092  0.218908  1
  Co  Co26  1  0.218908  0.781092  0.781092  1
  Co  Co27  1  0.218908  0.218908  0.781092  1
  Co  Co28  1  0.781092  0.218908  0.781092  1
  Co  Co29  1  0.781092  0.218908  0.218908  1
