# generated using pymatgen
data_La3Pr5(SiI6)2
_symmetry_space_group_name_H-M   'P 1'
_cell_length_a   4.40518000
_cell_length_b   14.58016104
_cell_length_c   15.39887225
_cell_angle_alpha   89.91478580
_cell_angle_beta   90.00000000
_cell_angle_gamma   90.00000000
_symmetry_Int_Tables_number   1
_chemical_formula_structural   La3Pr5(SiI6)2
_chemical_formula_sum   'La3 Pr5 Si2 I12'
_cell_volume   989.04127333
_cell_formula_units_Z   1
loop_
 _symmetry_equiv_pos_site_id
 _symmetry_equiv_pos_as_xyz
  1  'x, y, z'
loop_
 _atom_site_type_symbol
 _atom_site_label
 _atom_site_symmetry_multiplicity
 _atom_site_fract_x
 _atom_site_fract_y
 _atom_site_fract_z
 _atom_site_occupancy
  La  La0  1  0.500000  0.883437  0.655959  1
  La  La1  1  0.500000  0.616649  0.156098  1
  La  La2  1  0.500000  0.383291  0.843969  1
  Pr  Pr3  1  0.500000  0.115269  0.345758  1
  Pr  Pr4  1  0.000000  0.113293  0.574199  1
  Pr  Pr5  1  0.000000  0.888209  0.423775  1
  Pr  Pr6  1  0.000000  0.612551  0.924768  1
  Pr  Pr7  1  0.000000  0.386771  0.075768  1
  Si  Si8  1  0.500000  0.999927  0.500116  1
  Si  Si9  1  0.500000  0.499821  0.000131  1
  I  I10  1  0.500000  0.244358  0.161690  1
  I  I11  1  0.500000  0.755520  0.838711  1
  I  I12  1  0.500000  0.744624  0.338908  1
  I  I13  1  0.500000  0.255404  0.661104  1
  I  I14  1  0.000000  0.258326  0.413957  1
  I  I15  1  0.000000  0.740043  0.584257  1
  I  I16  1  0.000000  0.760239  0.084255  1
  I  I17  1  0.000000  0.239797  0.915705  1
  I  I18  1  0.000000  0.999083  0.240781  1
  I  I19  1  0.000000  0.003311  0.759984  1
  I  I20  1  0.000000  0.496723  0.260333  1
  I  I21  1  0.000000  0.503354  0.739775  1
