# generated using pymatgen
data_Yb3Er(BeSi3)2
_symmetry_space_group_name_H-M   'P 1'
_cell_length_a   7.98572721
_cell_length_b   7.84440228
_cell_length_c   5.75419033
_cell_angle_alpha   70.00189987
_cell_angle_beta   67.37968559
_cell_angle_gamma   42.61842098
_symmetry_Int_Tables_number   1
_chemical_formula_structural   Yb3Er(BeSi3)2
_chemical_formula_sum   'Yb3 Er1 Be2 Si6'
_cell_volume   224.29284721
_cell_formula_units_Z   1
loop_
 _symmetry_equiv_pos_site_id
 _symmetry_equiv_pos_as_xyz
  1  'x, y, z'
loop_
 _atom_site_type_symbol
 _atom_site_label
 _atom_site_symmetry_multiplicity
 _atom_site_fract_x
 _atom_site_fract_y
 _atom_site_fract_z
 _atom_site_occupancy
  Yb  Yb0  1  0.243405  0.756595  0.243406  1
  Yb  Yb1  1  0.756595  0.243406  0.756596  1
  Yb  Yb2  1  0.750001  0.749999  0.750000  1
  Er  Er3  1  0.250000  0.250000  0.250001  1
  Be  Be4  1  0.666743  0.666744  0.333257  1
  Be  Be5  1  0.333256  0.333257  0.666744  1
  Si  Si6  1  0.826444  0.346951  0.174156  1
  Si  Si7  1  0.826958  0.826958  0.173043  1
  Si  Si8  1  0.652450  0.174156  0.346951  1
  Si  Si9  1  0.346951  0.826444  0.652451  1
  Si  Si10  1  0.173042  0.173043  0.826959  1
  Si  Si11  1  0.174155  0.652451  0.826444  1
