# generated using pymatgen
data_Zr6Co15Si7Pd
_symmetry_space_group_name_H-M   'P 1'
_cell_length_a   8.11655764
_cell_length_b   8.11655798
_cell_length_c   8.12650304
_cell_angle_alpha   60.04047755
_cell_angle_beta   60.04047948
_cell_angle_gamma   60.00000277
_symmetry_Int_Tables_number   1
_chemical_formula_structural   Zr6Co15Si7Pd
_chemical_formula_sum   'Zr6 Co15 Si7 Pd1'
_cell_volume   378.78949888
_cell_formula_units_Z   1
loop_
 _symmetry_equiv_pos_site_id
 _symmetry_equiv_pos_as_xyz
  1  'x, y, z'
loop_
 _atom_site_type_symbol
 _atom_site_label
 _atom_site_symmetry_multiplicity
 _atom_site_fract_x
 _atom_site_fract_y
 _atom_site_fract_z
 _atom_site_occupancy
  Zr  Zr0  1  0.707356  0.295133  0.290155  1
  Zr  Zr1  1  0.296986  0.296986  0.705258  1
  Zr  Zr2  1  0.296986  0.700770  0.705258  1
  Zr  Zr3  1  0.707356  0.707356  0.290155  1
  Zr  Zr4  1  0.295133  0.707356  0.290155  1
  Zr  Zr5  1  0.700770  0.296986  0.705258  1
  Co  Co6  1  0.671604  0.982543  0.674248  1
  Co  Co7  1  0.360076  0.877978  0.883967  1
  Co  Co8  1  0.013093  0.330769  0.325370  1
  Co  Co9  1  0.982543  0.671604  0.674248  1
  Co  Co10  1  0.329770  0.329770  0.010691  1
  Co  Co11  1  0.673805  0.673805  0.978584  1
  Co  Co12  1  0.639321  0.120074  0.120533  1
  Co  Co13  1  0.671604  0.671604  0.674248  1
  Co  Co14  1  0.878570  0.878570  0.364288  1
  Co  Co15  1  0.120074  0.120074  0.120533  1
  Co  Co16  1  0.877978  0.360076  0.883967  1
  Co  Co17  1  0.877978  0.877978  0.883967  1
  Co  Co18  1  0.330769  0.330769  0.325370  1
  Co  Co19  1  0.120074  0.639321  0.120533  1
  Co  Co20  1  0.330769  0.013093  0.325370  1
  Si  Si21  1  0.001554  0.499328  0.999789  1
  Si  Si22  1  0.998530  0.998530  0.492962  1
  Si  Si23  1  0.993827  0.993827  0.018518  1
  Si  Si24  1  0.499328  0.499328  0.999789  1
  Si  Si25  1  0.509979  0.998530  0.492962  1
  Si  Si26  1  0.499328  0.001554  0.999789  1
  Si  Si27  1  0.998530  0.509979  0.492962  1
  Pd  Pd28  1  0.116309  0.116309  0.651073  1
