# generated using pymatgen
data_Y2Pa2Al5Re3
_symmetry_space_group_name_H-M   'P 1'
_cell_length_a   5.47559300
_cell_length_b   5.45109228
_cell_length_c   8.88786866
_cell_angle_alpha   91.09573420
_cell_angle_beta   90.00000000
_cell_angle_gamma   120.14879941
_symmetry_Int_Tables_number   1
_chemical_formula_structural   Y2Pa2Al5Re3
_chemical_formula_sum   'Y2 Pa2 Al5 Re3'
_cell_volume   229.34199953
_cell_formula_units_Z   1
loop_
 _symmetry_equiv_pos_site_id
 _symmetry_equiv_pos_as_xyz
  1  'x, y, z'
loop_
 _atom_site_type_symbol
 _atom_site_label
 _atom_site_symmetry_multiplicity
 _atom_site_fract_x
 _atom_site_fract_y
 _atom_site_fract_z
 _atom_site_occupancy
  Y  Y0  1  0.666561  0.330572  0.933961  1
  Y  Y1  1  0.335988  0.669428  0.066039  1
  Pa  Pa2  1  0.334293  0.678331  0.444171  1
  Pa  Pa3  1  0.655963  0.321669  0.555829  1
  Al  Al4  1  0.173348  0.339237  0.747801  1
  Al  Al5  1  0.168744  0.830357  0.751460  1
  Al  Al6  1  0.338388  0.169643  0.248540  1
  Al  Al7  1  0.834112  0.660763  0.252199  1
  Al  Al8  1  0.974676  0.000000  0.000000  1
  Re  Re9  1  0.664902  0.831330  0.727850  1
  Re  Re10  1  0.833572  0.168670  0.272150  1
  Re  Re11  1  0.019452  0.000000  0.500000  1
