# generated using pymatgen
data_Ta4Al6FeAu
_symmetry_space_group_name_H-M   'P 1'
_cell_length_a   5.16895100
_cell_length_b   5.16895136
_cell_length_c   8.04587300
_cell_angle_alpha   90.00000000
_cell_angle_beta   90.00000000
_cell_angle_gamma   120.00000412
_symmetry_Int_Tables_number   1
_chemical_formula_structural   Ta4Al6FeAu
_chemical_formula_sum   'Ta4 Al6 Fe1 Au1'
_cell_volume   186.16954925
_cell_formula_units_Z   1
loop_
 _symmetry_equiv_pos_site_id
 _symmetry_equiv_pos_as_xyz
  1  'x, y, z'
loop_
 _atom_site_type_symbol
 _atom_site_label
 _atom_site_symmetry_multiplicity
 _atom_site_fract_x
 _atom_site_fract_y
 _atom_site_fract_z
 _atom_site_occupancy
  Ta  Ta0  1  0.666666  0.333334  0.069630  1
  Ta  Ta1  1  0.666666  0.333334  0.427086  1
  Ta  Ta2  1  0.333333  0.666666  0.572915  1
  Ta  Ta3  1  0.333333  0.666666  0.930371  1
  Al  Al4  1  0.169739  0.339477  0.262764  1
  Al  Al5  1  0.169739  0.830260  0.262764  1
  Al  Al6  1  0.660522  0.830260  0.262764  1
  Al  Al7  1  0.339476  0.169738  0.737236  1
  Al  Al8  1  0.830261  0.169738  0.737236  1
  Al  Al9  1  0.830260  0.660523  0.737236  1
  Fe  Fe10  1  0.000000  0.000000  0.500000  1
  Au  Au11  1  0.000000  0.000000  0.000000  1
