# generated using pymatgen
data_Dy3Tm2PaGa10
_symmetry_space_group_name_H-M   'P 1'
_cell_length_a   6.05970006
_cell_length_b   9.55877509
_cell_length_c   11.61231800
_cell_angle_alpha   90.00000000
_cell_angle_beta   90.00000000
_cell_angle_gamma   90.01589952
_symmetry_Int_Tables_number   1
_chemical_formula_structural   Dy3Tm2PaGa10
_chemical_formula_sum   'Dy6 Tm4 Pa2 Ga20'
_cell_volume   672.62386924
_cell_formula_units_Z   2
loop_
 _symmetry_equiv_pos_site_id
 _symmetry_equiv_pos_as_xyz
  1  'x, y, z'
loop_
 _atom_site_type_symbol
 _atom_site_label
 _atom_site_symmetry_multiplicity
 _atom_site_fract_x
 _atom_site_fract_y
 _atom_site_fract_z
 _atom_site_occupancy
  Dy  Dy0  1  0.883414  0.501497  0.351073  1
  Dy  Dy1  1  0.616586  0.998503  0.851073  1
  Dy  Dy2  1  0.117045  0.003312  0.649087  1
  Dy  Dy3  1  0.382955  0.496688  0.149087  1
  Dy  Dy4  1  0.118314  0.497361  0.648656  1
  Dy  Dy5  1  0.381686  0.002639  0.148656  1
  Tm  Tm6  1  0.855981  0.750916  0.072140  1
  Tm  Tm7  1  0.644019  0.749084  0.572140  1
  Tm  Tm8  1  0.142053  0.252575  0.926850  1
  Tm  Tm9  1  0.357947  0.247425  0.426850  1
  Pa  Pa10  1  0.881777  0.995841  0.353301  1
  Pa  Pa11  1  0.618223  0.504159  0.853301  1
  Ga  Ga12  1  0.869381  0.054007  0.092589  1
  Ga  Ga13  1  0.630619  0.445993  0.592589  1
  Ga  Ga14  1  0.127220  0.554178  0.908148  1
  Ga  Ga15  1  0.372780  0.945822  0.408148  1
  Ga  Ga16  1  0.129497  0.947902  0.906848  1
  Ga  Ga17  1  0.370503  0.552098  0.406848  1
  Ga  Ga18  1  0.868880  0.446192  0.091050  1
  Ga  Ga19  1  0.631120  0.053808  0.591050  1
  Ga  Ga20  1  0.156287  0.749707  0.260169  1
  Ga  Ga21  1  0.343713  0.750293  0.760169  1
  Ga  Ga22  1  0.841626  0.251602  0.739931  1
  Ga  Ga23  1  0.658374  0.248398  0.239931  1
  Ga  Ga24  1  0.388484  0.749747  0.996043  1
  Ga  Ga25  1  0.111516  0.750253  0.496043  1
  Ga  Ga26  1  0.610320  0.250864  0.001696  1
  Ga  Ga27  1  0.889680  0.249136  0.501696  1
  Ga  Ga28  1  0.602645  0.750406  0.296564  1
  Ga  Ga29  1  0.897355  0.749594  0.796564  1
  Ga  Ga30  1  0.402527  0.252276  0.705855  1
  Ga  Ga31  1  0.097473  0.247724  0.205855  1
