# generated using pymatgen
data_Tb2Dy2Ga3SiRu4
_symmetry_space_group_name_H-M   'P 1'
_cell_length_a   4.47002800
_cell_length_b   7.14185625
_cell_length_c   7.14298139
_cell_angle_alpha   90.17803539
_cell_angle_beta   90.00000000
_cell_angle_gamma   90.00000000
_symmetry_Int_Tables_number   1
_chemical_formula_structural   Tb2Dy2Ga3SiRu4
_chemical_formula_sum   'Tb2 Dy2 Ga3 Si1 Ru4'
_cell_volume   228.03356144
_cell_formula_units_Z   1
loop_
 _symmetry_equiv_pos_site_id
 _symmetry_equiv_pos_as_xyz
  1  'x, y, z'
loop_
 _atom_site_type_symbol
 _atom_site_label
 _atom_site_symmetry_multiplicity
 _atom_site_fract_x
 _atom_site_fract_y
 _atom_site_fract_z
 _atom_site_occupancy
  Tb  Tb0  1  0.750000  0.015603  0.195967  1
  Tb  Tb1  1  0.750000  0.515729  0.306991  1
  Dy  Dy2  1  0.250000  0.985788  0.806904  1
  Dy  Dy3  1  0.250000  0.477715  0.694257  1
  Ga  Ga4  1  0.250000  0.304369  0.106482  1
  Ga  Ga5  1  0.750000  0.692243  0.892170  1
  Ga  Ga6  1  0.250000  0.801561  0.398719  1
  Si  Si7  1  0.750000  0.196453  0.600755  1
  Ru  Ru8  1  0.750000  0.857786  0.566482  1
  Ru  Ru9  1  0.250000  0.162379  0.446253  1
  Ru  Ru10  1  0.750000  0.329157  0.919866  1
  Ru  Ru11  1  0.250000  0.661219  0.065155  1
