# generated using pymatgen
data_Pr5Hg3Cl
_symmetry_space_group_name_H-M   'P 1'
_cell_length_a   9.50226600
_cell_length_b   9.50226608
_cell_length_c   6.65917200
_cell_angle_alpha   90.00000000
_cell_angle_beta   90.00000000
_cell_angle_gamma   119.99998579
_symmetry_Int_Tables_number   1
_chemical_formula_structural   Pr5Hg3Cl
_chemical_formula_sum   'Pr10 Hg6 Cl2'
_cell_volume   520.72124552
_cell_formula_units_Z   2
loop_
 _symmetry_equiv_pos_site_id
 _symmetry_equiv_pos_as_xyz
  1  'x, y, z'
loop_
 _atom_site_type_symbol
 _atom_site_label
 _atom_site_symmetry_multiplicity
 _atom_site_fract_x
 _atom_site_fract_y
 _atom_site_fract_z
 _atom_site_occupancy
  Pr  Pr0  1  0.666667  0.333333  0.000000  1
  Pr  Pr1  1  0.333333  0.666667  0.500000  1
  Pr  Pr2  1  0.666667  0.333333  0.500000  1
  Pr  Pr3  1  0.333333  0.666667  0.000000  1
  Pr  Pr4  1  0.736762  0.000000  0.750000  1
  Pr  Pr5  1  0.736762  0.736762  0.250000  1
  Pr  Pr6  1  0.000000  0.263238  0.250000  1
  Pr  Pr7  1  0.000000  0.736762  0.750000  1
  Pr  Pr8  1  0.263238  0.263238  0.750000  1
  Pr  Pr9  1  0.263238  0.000000  0.250000  1
  Hg  Hg10  1  0.607943  0.607943  0.750000  1
  Hg  Hg11  1  0.000000  0.607943  0.250000  1
  Hg  Hg12  1  0.607943  0.000000  0.250000  1
  Hg  Hg13  1  0.392057  0.000000  0.750000  1
  Hg  Hg14  1  0.000000  0.392057  0.750000  1
  Hg  Hg15  1  0.392057  0.392057  0.250000  1
  Cl  Cl16  1  0.000000  0.000000  0.500000  1
  Cl  Cl17  1  0.000000  0.000000  0.000000  1
