# generated using pymatgen
data_Yb3Er3(Si3Os)8
_symmetry_space_group_name_H-M   'P 1'
_cell_length_a   10.15033479
_cell_length_b   10.15033471
_cell_length_c   8.14999909
_cell_angle_alpha   89.98740632
_cell_angle_beta   89.98739705
_cell_angle_gamma   132.64286498
_symmetry_Int_Tables_number   1
_chemical_formula_structural   Yb3Er3(Si3Os)8
_chemical_formula_sum   'Yb3 Er3 Si24 Os8'
_cell_volume   617.66690093
_cell_formula_units_Z   1
loop_
 _symmetry_equiv_pos_site_id
 _symmetry_equiv_pos_as_xyz
  1  'x, y, z'
loop_
 _atom_site_type_symbol
 _atom_site_label
 _atom_site_symmetry_multiplicity
 _atom_site_fract_x
 _atom_site_fract_y
 _atom_site_fract_z
 _atom_site_occupancy
  Yb  Yb0  1  0.499440  0.999577  0.250169  1
  Yb  Yb1  1  0.000423  0.500560  0.749831  1
  Yb  Yb2  1  0.500002  0.499998  0.500000  1
  Er  Er3  1  0.500746  0.000705  0.749810  1
  Er  Er4  1  0.999295  0.499254  0.250190  1
  Er  Er5  1  0.000039  0.999961  0.000000  1
  Si  Si6  1  0.389474  0.155097  0.004252  1
  Si  Si7  1  0.653461  0.887173  0.494535  1
  Si  Si8  1  0.112827  0.346539  0.505465  1
  Si  Si9  1  0.844903  0.610526  0.995748  1
  Si  Si10  1  0.611238  0.845328  0.993974  1
  Si  Si11  1  0.346847  0.113660  0.506869  1
  Si  Si12  1  0.886340  0.653153  0.493131  1
  Si  Si13  1  0.154672  0.388762  0.006026  1
  Si  Si14  1  0.610639  0.377177  0.229705  1
  Si  Si15  1  0.876553  0.110679  0.271778  1
  Si  Si16  1  0.889321  0.123447  0.728222  1
  Si  Si17  1  0.622823  0.389361  0.770295  1
  Si  Si18  1  0.390172  0.623528  0.770226  1
  Si  Si19  1  0.124357  0.890080  0.728343  1
  Si  Si20  1  0.705178  0.294822  0.000000  1
  Si  Si21  1  0.795095  0.204905  0.500000  1
  Si  Si22  1  0.295192  0.704808  0.000000  1
  Si  Si23  1  0.204494  0.795506  0.500000  1
  Si  Si24  1  0.164830  0.171824  0.333949  1
  Si  Si25  1  0.669224  0.662047  0.168875  1
  Si  Si26  1  0.337953  0.330776  0.831125  1
  Si  Si27  1  0.828176  0.835170  0.666051  1
  Si  Si28  1  0.376472  0.609828  0.229774  1
  Si  Si29  1  0.109920  0.875643  0.271657  1
  Os  Os30  1  0.627777  0.629389  0.875065  1
  Os  Os31  1  0.125949  0.124505  0.628089  1
  Os  Os32  1  0.875495  0.874051  0.371911  1
  Os  Os33  1  0.370611  0.372223  0.124935  1
  Os  Os34  1  0.328853  0.671147  0.500000  1
  Os  Os35  1  0.170095  0.829905  0.000000  1
  Os  Os36  1  0.670313  0.329687  0.500000  1
  Os  Os37  1  0.830798  0.169202  0.000000  1
