# generated using pymatgen
data_DyLu2Sc2Pb3
_symmetry_space_group_name_H-M   'P 1'
_cell_length_a   8.82083879
_cell_length_b   8.83675584
_cell_length_c   6.32590200
_cell_angle_alpha   90.00000000
_cell_angle_beta   90.00000000
_cell_angle_gamma   120.05971376
_symmetry_Int_Tables_number   1
_chemical_formula_structural   DyLu2Sc2Pb3
_chemical_formula_sum   'Dy2 Lu4 Sc4 Pb6'
_cell_volume   426.77030734
_cell_formula_units_Z   2
loop_
 _symmetry_equiv_pos_site_id
 _symmetry_equiv_pos_as_xyz
  1  'x, y, z'
loop_
 _atom_site_type_symbol
 _atom_site_label
 _atom_site_symmetry_multiplicity
 _atom_site_fract_x
 _atom_site_fract_y
 _atom_site_fract_z
 _atom_site_occupancy
  Dy  Dy0  1  0.236400  0.999402  0.250000  1
  Dy  Dy1  1  0.236400  0.236998  0.750000  1
  Lu  Lu2  1  0.999154  0.762657  0.750000  1
  Lu  Lu3  1  0.999154  0.236496  0.250000  1
  Lu  Lu4  1  0.763814  0.764112  0.250000  1
  Lu  Lu5  1  0.763814  0.999702  0.750000  1
  Sc  Sc6  1  0.333604  0.666803  0.000000  1
  Sc  Sc7  1  0.666851  0.333425  0.500000  1
  Sc  Sc8  1  0.666851  0.333425  0.000000  1
  Sc  Sc9  1  0.333604  0.666803  0.500000  1
  Pb  Pb10  1  0.602738  0.000031  0.250000  1
  Pb  Pb11  1  0.602738  0.602707  0.750000  1
  Pb  Pb12  1  0.998636  0.398730  0.750000  1
  Pb  Pb13  1  0.998636  0.599906  0.250000  1
  Pb  Pb14  1  0.398803  0.400094  0.250000  1
  Pb  Pb15  1  0.398803  0.998709  0.750000  1
