# generated using pymatgen
data_Tb19CdIr12
_symmetry_space_group_name_H-M   'P 1'
_cell_length_a   10.92881200
_cell_length_b   10.92881200
_cell_length_c   6.33828500
_cell_angle_alpha   90.00000000
_cell_angle_beta   90.00000000
_cell_angle_gamma   90.00000000
_symmetry_Int_Tables_number   1
_chemical_formula_structural   Tb19CdIr12
_chemical_formula_sum   'Tb19 Cd1 Ir12'
_cell_volume   757.03798941
_cell_formula_units_Z   1
loop_
 _symmetry_equiv_pos_site_id
 _symmetry_equiv_pos_as_xyz
  1  'x, y, z'
loop_
 _atom_site_type_symbol
 _atom_site_label
 _atom_site_symmetry_multiplicity
 _atom_site_fract_x
 _atom_site_fract_y
 _atom_site_fract_z
 _atom_site_occupancy
  Tb  Tb0  1  0.283176  0.084805  0.379937  1
  Tb  Tb1  1  0.291211  0.911467  0.879289  1
  Tb  Tb2  1  0.708789  0.088533  0.879289  1
  Tb  Tb3  1  0.716824  0.915195  0.379937  1
  Tb  Tb4  1  0.588906  0.791934  0.881407  1
  Tb  Tb5  1  0.587831  0.207707  0.378207  1
  Tb  Tb6  1  0.412169  0.792293  0.378207  1
  Tb  Tb7  1  0.411094  0.208066  0.881407  1
  Tb  Tb8  1  0.207707  0.412169  0.621793  1
  Tb  Tb9  1  0.208066  0.588906  0.118593  1
  Tb  Tb10  1  0.791934  0.411094  0.118593  1
  Tb  Tb11  1  0.792293  0.587831  0.621793  1
  Tb  Tb12  1  0.911467  0.708789  0.120711  1
  Tb  Tb13  1  0.915195  0.283176  0.620063  1
  Tb  Tb14  1  0.084805  0.716824  0.620063  1
  Tb  Tb15  1  0.088533  0.291211  0.120711  1
  Tb  Tb16  1  0.000000  0.000000  0.000000  1
  Tb  Tb17  1  0.500000  0.500000  0.000000  1
  Tb  Tb18  1  0.500000  0.500000  0.500000  1
  Cd  Cd19  1  0.000000  0.000000  0.500000  1
  Ir  Ir20  1  0.844029  0.156939  0.243208  1
  Ir  Ir21  1  0.843061  0.844029  0.756792  1
  Ir  Ir22  1  0.156939  0.155971  0.756792  1
  Ir  Ir23  1  0.155971  0.843061  0.243208  1
  Ir  Ir24  1  0.654822  0.346230  0.747271  1
  Ir  Ir25  1  0.653770  0.654822  0.252729  1
  Ir  Ir26  1  0.346230  0.345178  0.252729  1
  Ir  Ir27  1  0.345178  0.653770  0.747271  1
  Ir  Ir28  1  0.500000  0.000000  0.123908  1
  Ir  Ir29  1  0.500000  0.000000  0.619420  1
  Ir  Ir30  1  0.000000  0.500000  0.876092  1
  Ir  Ir31  1  0.000000  0.500000  0.380580  1
