# generated using pymatgen
data_Tm5OsAu2
_symmetry_space_group_name_H-M   'P 1'
_cell_length_a   11.16359300
_cell_length_b   11.16359300
_cell_length_c   6.28931800
_cell_angle_alpha   90.00000000
_cell_angle_beta   90.00000000
_cell_angle_gamma   90.00000000
_symmetry_Int_Tables_number   1
_chemical_formula_structural   Tm5OsAu2
_chemical_formula_sum   'Tm20 Os4 Au8'
_cell_volume   783.81134173
_cell_formula_units_Z   4
loop_
 _symmetry_equiv_pos_site_id
 _symmetry_equiv_pos_as_xyz
  1  'x, y, z'
loop_
 _atom_site_type_symbol
 _atom_site_label
 _atom_site_symmetry_multiplicity
 _atom_site_fract_x
 _atom_site_fract_y
 _atom_site_fract_z
 _atom_site_occupancy
  Tm  Tm0  1  0.301893  0.083137  0.349629  1
  Tm  Tm1  1  0.301893  0.916863  0.849629  1
  Tm  Tm2  1  0.698107  0.083137  0.849629  1
  Tm  Tm3  1  0.698107  0.916863  0.349629  1
  Tm  Tm4  1  0.583137  0.801893  0.849629  1
  Tm  Tm5  1  0.583137  0.198107  0.349629  1
  Tm  Tm6  1  0.416863  0.801893  0.349629  1
  Tm  Tm7  1  0.416863  0.198107  0.849629  1
  Tm  Tm8  1  0.198107  0.416863  0.650371  1
  Tm  Tm9  1  0.198107  0.583137  0.150371  1
  Tm  Tm10  1  0.801893  0.416863  0.150371  1
  Tm  Tm11  1  0.801893  0.583137  0.650371  1
  Tm  Tm12  1  0.916863  0.698107  0.150371  1
  Tm  Tm13  1  0.916863  0.301893  0.650371  1
  Tm  Tm14  1  0.083137  0.698107  0.650371  1
  Tm  Tm15  1  0.083137  0.301893  0.150371  1
  Tm  Tm16  1  0.000000  0.000000  0.500000  1
  Tm  Tm17  1  0.000000  0.000000  0.000000  1
  Tm  Tm18  1  0.500000  0.500000  0.000000  1
  Tm  Tm19  1  0.500000  0.500000  0.500000  1
  Os  Os20  1  0.500000  0.000000  0.101441  1
  Os  Os21  1  0.500000  0.000000  0.601441  1
  Os  Os22  1  0.000000  0.500000  0.898559  1
  Os  Os23  1  0.000000  0.500000  0.398559  1
  Au  Au24  1  0.844923  0.155077  0.250000  1
  Au  Au25  1  0.844923  0.844923  0.750000  1
  Au  Au26  1  0.155077  0.155077  0.750000  1
  Au  Au27  1  0.155077  0.844923  0.250000  1
  Au  Au28  1  0.655077  0.344923  0.750000  1
  Au  Au29  1  0.655077  0.655077  0.250000  1
  Au  Au30  1  0.344923  0.344923  0.250000  1
  Au  Au31  1  0.344923  0.655077  0.750000  1
