# generated using pymatgen
data_Lu8Mg2Zn3NiBi2
_symmetry_space_group_name_H-M   'P 1'
_cell_length_a   8.42054312
_cell_length_b   8.42054361
_cell_length_c   8.50486847
_cell_angle_alpha   126.23694505
_cell_angle_beta   126.23694908
_cell_angle_gamma   78.80836896
_symmetry_Int_Tables_number   1
_chemical_formula_structural   Lu8Mg2Zn3NiBi2
_chemical_formula_sum   'Lu8 Mg2 Zn3 Ni1 Bi2'
_cell_volume   380.97361368
_cell_formula_units_Z   1
loop_
 _symmetry_equiv_pos_site_id
 _symmetry_equiv_pos_as_xyz
  1  'x, y, z'
loop_
 _atom_site_type_symbol
 _atom_site_label
 _atom_site_symmetry_multiplicity
 _atom_site_fract_x
 _atom_site_fract_y
 _atom_site_fract_z
 _atom_site_occupancy
  Lu  Lu0  1  0.783190  0.299177  0.808102  1
  Lu  Lu1  1  0.200823  0.716810  0.191898  1
  Lu  Lu2  1  0.475089  0.991077  0.191898  1
  Lu  Lu3  1  0.306770  0.461612  0.500000  1
  Lu  Lu4  1  0.038388  0.193230  0.500000  1
  Lu  Lu5  1  0.508923  0.024911  0.808102  1
  Lu  Lu6  1  0.702792  0.517445  0.500000  1
  Lu  Lu7  1  0.982555  0.797208  0.500000  1
  Mg  Mg8  1  0.998912  0.999121  0.998033  1
  Mg  Mg9  1  0.500879  0.501088  0.001967  1
  Zn  Zn10  1  0.137247  0.633648  0.770895  1
  Zn  Zn11  1  0.866352  0.362753  0.229105  1
  Zn  Zn12  1  0.632325  0.867675  0.500000  1
  Ni  Ni13  1  0.378645  0.121355  0.500000  1
  Bi  Bi14  1  0.243557  0.256443  0.000000  1
  Bi  Bi15  1  0.743557  0.756443  0.000000  1
