# generated using pymatgen
data_Y7ThMgCdNi2
_symmetry_space_group_name_H-M   'P 1'
_cell_length_a   9.65673154
_cell_length_b   9.65673252
_cell_length_c   9.71843000
_cell_angle_alpha   59.78842546
_cell_angle_beta   59.78842207
_cell_angle_gamma   59.67807150
_symmetry_Int_Tables_number   1
_chemical_formula_structural   Y7ThMgCdNi2
_chemical_formula_sum   'Y14 Th2 Mg2 Cd2 Ni4'
_cell_volume   637.21233882
_cell_formula_units_Z   2
loop_
 _symmetry_equiv_pos_site_id
 _symmetry_equiv_pos_as_xyz
  1  'x, y, z'
loop_
 _atom_site_type_symbol
 _atom_site_label
 _atom_site_symmetry_multiplicity
 _atom_site_fract_x
 _atom_site_fract_y
 _atom_site_fract_z
 _atom_site_occupancy
  Y  Y0  1  0.596816  0.204915  0.599134  1
  Y  Y1  1  0.204915  0.596816  0.599134  1
  Y  Y2  1  0.062308  0.439498  0.436899  1
  Y  Y3  1  0.439498  0.062308  0.061294  1
  Y  Y4  1  0.439498  0.062308  0.436899  1
  Y  Y5  1  0.062308  0.439498  0.061294  1
  Y  Y6  1  0.440404  0.440404  0.059596  1
  Y  Y7  1  0.062934  0.062934  0.437066  1
  Y  Y8  1  0.188238  0.814740  0.815556  1
  Y  Y9  1  0.814740  0.188238  0.181466  1
  Y  Y10  1  0.814740  0.188238  0.815556  1
  Y  Y11  1  0.188238  0.814740  0.181466  1
  Y  Y12  1  0.814682  0.814682  0.185318  1
  Y  Y13  1  0.185967  0.185967  0.814033  1
  Th  Th14  1  0.593025  0.593025  0.599038  1
  Th  Th15  1  0.593025  0.593025  0.214912  1
  Mg  Mg16  1  0.826401  0.826401  0.830486  1
  Mg  Mg17  1  0.826401  0.826401  0.516711  1
  Cd  Cd18  1  0.833536  0.504833  0.830815  1
  Cd  Cd19  1  0.504833  0.833536  0.830815  1
  Ni  Ni20  1  0.395006  0.395006  0.387924  1
  Ni  Ni21  1  0.395006  0.395006  0.822065  1
  Ni  Ni22  1  0.398758  0.818722  0.391261  1
  Ni  Ni23  1  0.818722  0.398758  0.391261  1
