# generated using pymatgen
data_Ho8GePPt23
_symmetry_space_group_name_H-M   'P 1'
_cell_length_a   8.34428800
_cell_length_b   8.34428800
_cell_length_c   8.35234100
_cell_angle_alpha   90.00000000
_cell_angle_beta   90.00000000
_cell_angle_gamma   90.00000000
_symmetry_Int_Tables_number   1
_chemical_formula_structural   Ho8GePPt23
_chemical_formula_sum   'Ho8 Ge1 P1 Pt23'
_cell_volume   581.54963473
_cell_formula_units_Z   1
loop_
 _symmetry_equiv_pos_site_id
 _symmetry_equiv_pos_as_xyz
  1  'x, y, z'
loop_
 _atom_site_type_symbol
 _atom_site_label
 _atom_site_symmetry_multiplicity
 _atom_site_fract_x
 _atom_site_fract_y
 _atom_site_fract_z
 _atom_site_occupancy
  Ho  Ho0  1  0.255558  0.255558  0.256557  1
  Ho  Ho1  1  0.746023  0.746023  0.757311  1
  Ho  Ho2  1  0.744442  0.744442  0.256557  1
  Ho  Ho3  1  0.746023  0.253977  0.757311  1
  Ho  Ho4  1  0.253977  0.253977  0.757311  1
  Ho  Ho5  1  0.255558  0.744442  0.256557  1
  Ho  Ho6  1  0.253977  0.746023  0.757311  1
  Ho  Ho7  1  0.744442  0.255558  0.256557  1
  Ge  Ge8  1  0.000000  0.000000  0.913532  1
  P  P9  1  0.000000  0.000000  0.616368  1
  Pt  Pt10  1  0.255287  0.500000  0.005052  1
  Pt  Pt11  1  0.744713  0.500000  0.005052  1
  Pt  Pt12  1  0.000000  0.257971  0.503030  1
  Pt  Pt13  1  0.500000  0.255287  0.005052  1
  Pt  Pt14  1  0.000000  0.742029  0.503030  1
  Pt  Pt15  1  0.500000  0.744713  0.005052  1
  Pt  Pt16  1  0.500000  0.000000  0.264608  1
  Pt  Pt17  1  0.257971  0.000000  0.503030  1
  Pt  Pt18  1  0.500000  0.000000  0.753568  1
  Pt  Pt19  1  0.742029  0.000000  0.503030  1
  Pt  Pt20  1  0.000000  0.500000  0.264608  1
  Pt  Pt21  1  0.000000  0.500000  0.753568  1
  Pt  Pt22  1  0.251271  0.500000  0.508582  1
  Pt  Pt23  1  0.748729  0.500000  0.508582  1
  Pt  Pt24  1  0.500000  0.251271  0.508582  1
  Pt  Pt25  1  0.500000  0.748729  0.508582  1
  Pt  Pt26  1  0.500000  0.500000  0.258776  1
  Pt  Pt27  1  0.500000  0.500000  0.754260  1
  Pt  Pt28  1  0.275916  0.000000  0.011742  1
  Pt  Pt29  1  0.724084  0.000000  0.011742  1
  Pt  Pt30  1  0.000000  0.275916  0.011742  1
  Pt  Pt31  1  0.000000  0.724084  0.011742  1
  Pt  Pt32  1  0.000000  0.000000  0.251618  1
