# generated using pymatgen
data_Pr2Cd2Ir3RhO14
_symmetry_space_group_name_H-M   'P 1'
_cell_length_a   7.33202844
_cell_length_b   7.33202863
_cell_length_c   7.23498545
_cell_angle_alpha   60.34639498
_cell_angle_beta   60.34639032
_cell_angle_gamma   61.37043280
_symmetry_Int_Tables_number   1
_chemical_formula_structural   Pr2Cd2Ir3RhO14
_chemical_formula_sum   'Pr2 Cd2 Ir3 Rh1 O14'
_cell_volume   279.23494976
_cell_formula_units_Z   1
loop_
 _symmetry_equiv_pos_site_id
 _symmetry_equiv_pos_as_xyz
  1  'x, y, z'
loop_
 _atom_site_type_symbol
 _atom_site_label
 _atom_site_symmetry_multiplicity
 _atom_site_fract_x
 _atom_site_fract_y
 _atom_site_fract_z
 _atom_site_occupancy
  Pr  Pr0  1  0.625000  0.125000  0.125000  1
  Pr  Pr1  1  0.125000  0.625000  0.125000  1
  Cd  Cd2  1  0.125000  0.125000  0.625000  1
  Cd  Cd3  1  0.125000  0.125000  0.125000  1
  Ir  Ir4  1  0.125000  0.625000  0.625000  1
  Ir  Ir5  1  0.625000  0.125000  0.625000  1
  Ir  Ir6  1  0.625000  0.625000  0.125000  1
  Rh  Rh7  1  0.625000  0.625000  0.625000  1
  O  O8  1  0.954062  0.548984  0.546829  1
  O  O9  1  0.304725  0.304725  0.700368  1
  O  O10  1  0.947988  0.548942  0.951130  1
  O  O11  1  0.701058  0.302012  0.298870  1
  O  O12  1  0.539963  0.539963  0.962459  1
  O  O13  1  0.548984  0.954062  0.546829  1
  O  O14  1  0.548942  0.947988  0.951130  1
  O  O15  1  0.239781  0.239781  0.260312  1
  O  O16  1  0.295938  0.701016  0.703171  1
  O  O17  1  0.701016  0.295938  0.703171  1
  O  O18  1  0.010219  0.010219  0.989688  1
  O  O19  1  0.945275  0.945275  0.549632  1
  O  O20  1  0.302012  0.701058  0.298870  1
  O  O21  1  0.710037  0.710037  0.287541  1
