# generated using pymatgen
data_Tb3Y2(SiHg)2
_symmetry_space_group_name_H-M   'P 1'
_cell_length_a   8.82658897
_cell_length_b   8.82730213
_cell_length_c   7.58554819
_cell_angle_alpha   89.97437352
_cell_angle_beta   90.01351036
_cell_angle_gamma   129.26018408
_symmetry_Int_Tables_number   1
_chemical_formula_structural   Tb3Y2(SiHg)2
_chemical_formula_sum   'Tb6 Y4 Si4 Hg4'
_cell_volume   457.62101425
_cell_formula_units_Z   2
loop_
 _symmetry_equiv_pos_site_id
 _symmetry_equiv_pos_as_xyz
  1  'x, y, z'
loop_
 _atom_site_type_symbol
 _atom_site_label
 _atom_site_symmetry_multiplicity
 _atom_site_fract_x
 _atom_site_fract_y
 _atom_site_fract_z
 _atom_site_occupancy
  Tb  Tb0  1  0.055063  0.310211  0.324354  1
  Tb  Tb1  1  0.944937  0.689789  0.675646  1
  Tb  Tb2  1  0.444835  0.189676  0.824261  1
  Tb  Tb3  1  0.810378  0.555250  0.175734  1
  Tb  Tb4  1  0.555165  0.810324  0.175739  1
  Tb  Tb5  1  0.189622  0.444750  0.824266  1
  Y  Y6  1  0.689972  0.944808  0.675555  1
  Y  Y7  1  0.310028  0.055192  0.324445  1
  Y  Y8  1  0.000000  0.000000  0.000000  1
  Y  Y9  1  0.500000  0.500000  0.500000  1
  Si  Si10  1  0.381578  0.381530  0.121791  1
  Si  Si11  1  0.618422  0.618470  0.878209  1
  Si  Si12  1  0.118351  0.118346  0.621603  1
  Si  Si13  1  0.881649  0.881654  0.378397  1
  Hg  Hg14  1  0.781900  0.218054  0.999967  1
  Hg  Hg15  1  0.218100  0.781946  0.000033  1
  Hg  Hg16  1  0.717990  0.281728  0.500043  1
  Hg  Hg17  1  0.282010  0.718272  0.499957  1
