# generated using pymatgen
data_Ta4Co4SiP3
_symmetry_space_group_name_H-M   'P 1'
_cell_length_a   6.14424151
_cell_length_b   3.61231200
_cell_length_c   6.98682442
_cell_angle_alpha   90.00000000
_cell_angle_beta   89.82143758
_cell_angle_gamma   90.00000000
_symmetry_Int_Tables_number   1
_chemical_formula_structural   Ta4Co4SiP3
_chemical_formula_sum   'Ta4 Co4 Si1 P3'
_cell_volume   155.07123750
_cell_formula_units_Z   1
loop_
 _symmetry_equiv_pos_site_id
 _symmetry_equiv_pos_as_xyz
  1  'x, y, z'
loop_
 _atom_site_type_symbol
 _atom_site_label
 _atom_site_symmetry_multiplicity
 _atom_site_fract_x
 _atom_site_fract_y
 _atom_site_fract_z
 _atom_site_occupancy
  Ta  Ta0  1  0.026801  0.250000  0.826012  1
  Ta  Ta1  1  0.523574  0.250000  0.670839  1
  Ta  Ta2  1  0.976857  0.750000  0.175941  1
  Ta  Ta3  1  0.475838  0.750000  0.326051  1
  Co  Co4  1  0.146387  0.250000  0.436291  1
  Co  Co5  1  0.643388  0.250000  0.067701  1
  Co  Co6  1  0.856367  0.750000  0.558983  1
  Co  Co7  1  0.350645  0.750000  0.938294  1
  Si  Si8  1  0.722660  0.750000  0.879625  1
  P  P9  1  0.776314  0.250000  0.379616  1
  P  P10  1  0.277764  0.250000  0.119732  1
  P  P11  1  0.223404  0.750000  0.620913  1
