# generated using pymatgen
data_Pr6Er2Sc11Si16Hg
_symmetry_space_group_name_H-M   'P 1'
_cell_length_a   7.16611042
_cell_length_b   7.50797000
_cell_length_c   14.23069469
_cell_angle_alpha   89.95235490
_cell_angle_beta   90.10114080
_cell_angle_gamma   90.21377555
_symmetry_Int_Tables_number   1
_chemical_formula_structural   Pr6Er2Sc11Si16Hg
_chemical_formula_sum   'Pr6 Er2 Sc11 Si16 Hg1'
_cell_volume   765.64645891
_cell_formula_units_Z   1
loop_
 _symmetry_equiv_pos_site_id
 _symmetry_equiv_pos_as_xyz
  1  'x, y, z'
loop_
 _atom_site_type_symbol
 _atom_site_label
 _atom_site_symmetry_multiplicity
 _atom_site_fract_x
 _atom_site_fract_y
 _atom_site_fract_z
 _atom_site_occupancy
  Pr  Pr0  1  0.492223  0.679328  0.899836  1
  Pr  Pr1  1  0.490882  0.680123  0.596649  1
  Pr  Pr2  1  0.979864  0.829176  0.597733  1
  Pr  Pr3  1  0.981383  0.829327  0.899129  1
  Pr  Pr4  1  0.509458  0.330480  0.099469  1
  Pr  Pr5  1  0.012037  0.173110  0.099424  1
  Er  Er6  1  0.011437  0.177045  0.399887  1
  Er  Er7  1  0.511219  0.326660  0.399474  1
  Sc  Sc8  1  0.337141  0.176263  0.622764  1
  Sc  Sc9  1  0.670568  0.820362  0.374171  1
  Sc  Sc10  1  0.170943  0.676512  0.376269  1
  Sc  Sc11  1  0.826886  0.315588  0.875694  1
  Sc  Sc12  1  0.827528  0.314070  0.623246  1
  Sc  Sc13  1  0.840100  0.498842  0.252089  1
  Sc  Sc14  1  0.339280  0.000742  0.252240  1
  Sc  Sc15  1  0.337199  0.174420  0.875643  1
  Sc  Sc16  1  0.171600  0.676066  0.126776  1
  Sc  Sc17  1  0.671110  0.821062  0.129067  1
  Sc  Sc18  1  0.159038  0.496905  0.749339  1
  Si  Si19  1  0.272915  0.880090  0.748544  1
  Si  Si20  1  0.466818  0.619002  0.252980  1
  Si  Si21  1  0.050547  0.129190  0.749109  1
  Si  Si22  1  0.531599  0.389842  0.748488  1
  Si  Si23  1  0.152519  0.460631  0.538183  1
  Si  Si24  1  0.967716  0.878059  0.252946  1
  Si  Si25  1  0.711985  0.122958  0.254732  1
  Si  Si26  1  0.849156  0.536822  0.039103  1
  Si  Si27  1  0.347602  0.961900  0.040043  1
  Si  Si28  1  0.153354  0.465829  0.959655  1
  Si  Si29  1  0.655667  0.048536  0.524209  1
  Si  Si30  1  0.342765  0.971860  0.457211  1
  Si  Si31  1  0.844523  0.527352  0.458393  1
  Si  Si32  1  0.793737  0.593113  0.748873  1
  Si  Si33  1  0.211650  0.377859  0.255292  1
  Si  Si34  1  0.654241  0.041464  0.972951  1
  Hg  Hg35  1  0.653309  0.999411  0.750395  1
