# generated using pymatgen
data_Pr3In3Cu2Ru
_symmetry_space_group_name_H-M   'P 1'
_cell_length_a   7.68491500
_cell_length_b   7.68491522
_cell_length_c   4.08284300
_cell_angle_alpha   90.00000000
_cell_angle_beta   90.00000000
_cell_angle_gamma   120.00001198
_symmetry_Int_Tables_number   1
_chemical_formula_structural   Pr3In3Cu2Ru
_chemical_formula_sum   'Pr3 In3 Cu2 Ru1'
_cell_volume   208.81967146
_cell_formula_units_Z   1
loop_
 _symmetry_equiv_pos_site_id
 _symmetry_equiv_pos_as_xyz
  1  'x, y, z'
loop_
 _atom_site_type_symbol
 _atom_site_label
 _atom_site_symmetry_multiplicity
 _atom_site_fract_x
 _atom_site_fract_y
 _atom_site_fract_z
 _atom_site_occupancy
  Pr  Pr0  1  0.421598  0.407114  0.500000  1
  Pr  Pr1  1  0.592886  0.014485  0.500000  1
  Pr  Pr2  1  0.985515  0.578402  0.500000  1
  In  In3  1  0.754582  0.751763  0.000000  1
  In  In4  1  0.248237  0.002819  0.000000  1
  In  In5  1  0.997181  0.245418  0.000000  1
  Cu  Cu6  1  0.333333  0.666667  0.000000  1
  Cu  Cu7  1  0.000000  0.000000  0.500000  1
  Ru  Ru8  1  0.666667  0.333333  0.000000  1
