# generated using pymatgen
data_Ce2Ga2IrRh
_symmetry_space_group_name_H-M   'P 1'
_cell_length_a   4.39503400
_cell_length_b   6.83381320
_cell_length_c   7.89949152
_cell_angle_alpha   89.81249591
_cell_angle_beta   90.00000000
_cell_angle_gamma   90.00000000
_symmetry_Int_Tables_number   1
_chemical_formula_structural   Ce2Ga2IrRh
_chemical_formula_sum   'Ce4 Ga4 Ir2 Rh2'
_cell_volume   237.25870404
_cell_formula_units_Z   2
loop_
 _symmetry_equiv_pos_site_id
 _symmetry_equiv_pos_as_xyz
  1  'x, y, z'
loop_
 _atom_site_type_symbol
 _atom_site_label
 _atom_site_symmetry_multiplicity
 _atom_site_fract_x
 _atom_site_fract_y
 _atom_site_fract_z
 _atom_site_occupancy
  Ce  Ce0  1  0.250000  0.534588  0.188637  1
  Ce  Ce1  1  0.750000  0.465412  0.811363  1
  Ce  Ce2  1  0.750000  0.968048  0.687968  1
  Ce  Ce3  1  0.250000  0.031952  0.312032  1
  Ga  Ga4  1  0.250000  0.650254  0.567843  1
  Ga  Ga5  1  0.750000  0.349746  0.432157  1
  Ga  Ga6  1  0.750000  0.852720  0.066150  1
  Ga  Ga7  1  0.250000  0.147280  0.933850  1
  Ir  Ir8  1  0.750000  0.740878  0.387610  1
  Ir  Ir9  1  0.250000  0.259122  0.612390  1
  Rh  Rh10  1  0.250000  0.754757  0.893247  1
  Rh  Rh11  1  0.750000  0.245243  0.106753  1
