# generated using pymatgen
data_Ba4TbBiO8
_symmetry_space_group_name_H-M   'P 1'
_cell_length_a   7.59177900
_cell_length_b   7.59177956
_cell_length_c   6.14011200
_cell_angle_alpha   90.00000000
_cell_angle_beta   90.00000000
_cell_angle_gamma   132.43777378
_symmetry_Int_Tables_number   1
_chemical_formula_structural   Ba4TbBiO8
_chemical_formula_sum   'Ba4 Tb1 Bi1 O8'
_cell_volume   261.17166355
_cell_formula_units_Z   1
loop_
 _symmetry_equiv_pos_site_id
 _symmetry_equiv_pos_as_xyz
  1  'x, y, z'
loop_
 _atom_site_type_symbol
 _atom_site_label
 _atom_site_symmetry_multiplicity
 _atom_site_fract_x
 _atom_site_fract_y
 _atom_site_fract_z
 _atom_site_occupancy
  Ba  Ba0  1  0.350790  0.649210  0.000000  1
  Ba  Ba1  1  0.852611  0.147389  0.500000  1
  Ba  Ba2  1  0.147389  0.852611  0.500000  1
  Ba  Ba3  1  0.649210  0.350790  0.000000  1
  Tb  Tb4  1  0.000000  0.000000  0.000000  1
  Bi  Bi5  1  0.500000  0.500000  0.500000  1
  O  O6  1  0.253390  0.253390  0.740566  1
  O  O7  1  0.746610  0.746610  0.259434  1
  O  O8  1  0.746610  0.746610  0.740566  1
  O  O9  1  0.253390  0.253390  0.259434  1
  O  O10  1  0.166369  0.833631  0.000000  1
  O  O11  1  0.657728  0.342272  0.500000  1
  O  O12  1  0.342272  0.657728  0.500000  1
  O  O13  1  0.833631  0.166369  0.000000  1
