# generated using pymatgen
data_TlPb2F7
_symmetry_space_group_name_H-M   'P 1'
_cell_length_a   12.57918600
_cell_length_b   5.74158019
_cell_length_c   8.49195100
_cell_angle_alpha   89.34936892
_cell_angle_beta   90.00000000
_cell_angle_gamma   90.00000000
_symmetry_Int_Tables_number   1
_chemical_formula_structural   TlPb2F7
_chemical_formula_sum   'Tl4 Pb8 F28'
_cell_volume   613.28656511
_cell_formula_units_Z   4
loop_
 _symmetry_equiv_pos_site_id
 _symmetry_equiv_pos_as_xyz
  1  'x, y, z'
loop_
 _atom_site_type_symbol
 _atom_site_label
 _atom_site_symmetry_multiplicity
 _atom_site_fract_x
 _atom_site_fract_y
 _atom_site_fract_z
 _atom_site_occupancy
  Tl  Tl0  1  0.125575  0.273679  0.217576  1
  Tl  Tl1  1  0.874425  0.726321  0.782424  1
  Tl  Tl2  1  0.625575  0.726321  0.282424  1
  Tl  Tl3  1  0.374425  0.273679  0.717576  1
  Pb  Pb4  1  0.783248  0.230201  0.054201  1
  Pb  Pb5  1  0.216752  0.769799  0.945799  1
  Pb  Pb6  1  0.283248  0.769799  0.445799  1
  Pb  Pb7  1  0.716752  0.230201  0.554201  1
  Pb  Pb8  1  0.440230  0.233495  0.175841  1
  Pb  Pb9  1  0.559770  0.766505  0.824159  1
  Pb  Pb10  1  0.940230  0.766505  0.324159  1
  Pb  Pb11  1  0.059770  0.233495  0.675841  1
  F  F12  1  0.072292  0.625212  0.122753  1
  F  F13  1  0.927708  0.374788  0.877247  1
  F  F14  1  0.572292  0.374788  0.377247  1
  F  F15  1  0.427708  0.625212  0.622753  1
  F  F16  1  0.133406  0.168416  0.968295  1
  F  F17  1  0.866594  0.831584  0.031705  1
  F  F18  1  0.633406  0.831584  0.531705  1
  F  F19  1  0.366594  0.168416  0.468295  1
  F  F20  1  0.103414  0.490042  0.432133  1
  F  F21  1  0.896586  0.509958  0.567867  1
  F  F22  1  0.603414  0.509958  0.067867  1
  F  F23  1  0.396586  0.490042  0.932133  1
  F  F24  1  0.545555  0.195446  0.721502  1
  F  F25  1  0.454445  0.804554  0.278498  1
  F  F26  1  0.045555  0.804554  0.778498  1
  F  F27  1  0.954445  0.195446  0.221502  1
  F  F28  1  0.258754  0.006703  0.195503  1
  F  F29  1  0.741246  0.993297  0.804497  1
  F  F30  1  0.758754  0.993297  0.304497  1
  F  F31  1  0.241246  0.006703  0.695503  1
  F  F32  1  0.275707  0.485179  0.214138  1
  F  F33  1  0.724293  0.514821  0.785862  1
  F  F34  1  0.775707  0.514821  0.285862  1
  F  F35  1  0.224293  0.485179  0.714138  1
  F  F36  1  0.105992  0.005449  0.418994  1
  F  F37  1  0.894008  0.994551  0.581006  1
  F  F38  1  0.605992  0.994551  0.081006  1
  F  F39  1  0.394008  0.005449  0.918994  1
