# generated using pymatgen
data_Nd3Gd3(PtO7)2
_symmetry_space_group_name_H-M   'P 1'
_cell_length_a   6.59393850
_cell_length_b   6.60599795
_cell_length_c   7.59644200
_cell_angle_alpha   90.00000000
_cell_angle_beta   90.00000000
_cell_angle_gamma   109.42742727
_symmetry_Int_Tables_number   1
_chemical_formula_structural   Nd3Gd3(PtO7)2
_chemical_formula_sum   'Nd3 Gd3 Pt2 O14'
_cell_volume   312.05741806
_cell_formula_units_Z   1
loop_
 _symmetry_equiv_pos_site_id
 _symmetry_equiv_pos_as_xyz
  1  'x, y, z'
loop_
 _atom_site_type_symbol
 _atom_site_label
 _atom_site_symmetry_multiplicity
 _atom_site_fract_x
 _atom_site_fract_y
 _atom_site_fract_z
 _atom_site_occupancy
  Nd  Nd0  1  0.502424  0.501775  0.499458  1
  Nd  Nd1  1  0.502424  0.501775  0.000542  1
  Nd  Nd2  1  0.001631  0.466414  0.750000  1
  Gd  Gd3  1  0.528522  0.999512  0.750000  1
  Gd  Gd4  1  0.999812  0.530787  0.250000  1
  Gd  Gd5  1  0.470203  0.001455  0.250000  1
  Pt  Pt6  1  0.999585  0.999806  0.498266  1
  Pt  Pt7  1  0.999585  0.999806  0.001734  1
  O  O8  1  0.678490  0.928474  0.472907  1
  O  O9  1  0.920946  0.677704  0.521405  1
  O  O10  1  0.678490  0.928474  0.027093  1
  O  O11  1  0.920946  0.677704  0.978595  1
  O  O12  1  0.320475  0.071350  0.525373  1
  O  O13  1  0.077812  0.321112  0.469920  1
  O  O14  1  0.320475  0.071350  0.974627  1
  O  O15  1  0.077812  0.321112  0.030080  1
  O  O16  1  0.925435  0.066865  0.750000  1
  O  O17  1  0.073637  0.930935  0.250000  1
  O  O18  1  0.373312  0.639306  0.750000  1
  O  O19  1  0.636122  0.363847  0.250000  1
  O  O20  1  0.631343  0.358847  0.750000  1
  O  O21  1  0.360518  0.641588  0.250000  1
