# generated using pymatgen
data_Tb4Tc5Os3
_symmetry_space_group_name_H-M   'P 1'
_cell_length_a   5.34347637
_cell_length_b   5.34347570
_cell_length_c   9.09734000
_cell_angle_alpha   90.00000000
_cell_angle_beta   90.00000000
_cell_angle_gamma   121.27153297
_symmetry_Int_Tables_number   1
_chemical_formula_structural   Tb4Tc5Os3
_chemical_formula_sum   'Tb4 Tc5 Os3'
_cell_volume   222.01607551
_cell_formula_units_Z   1
loop_
 _symmetry_equiv_pos_site_id
 _symmetry_equiv_pos_as_xyz
  1  'x, y, z'
loop_
 _atom_site_type_symbol
 _atom_site_label
 _atom_site_symmetry_multiplicity
 _atom_site_fract_x
 _atom_site_fract_y
 _atom_site_fract_z
 _atom_site_occupancy
  Tb  Tb0  1  0.334805  0.665195  0.435434  1
  Tb  Tb1  1  0.666043  0.333957  0.562862  1
  Tb  Tb2  1  0.666043  0.333957  0.937138  1
  Tb  Tb3  1  0.334805  0.665195  0.064566  1
  Tc  Tc4  1  0.171530  0.343416  0.750000  1
  Tc  Tc5  1  0.169248  0.830752  0.750000  1
  Tc  Tc6  1  0.339984  0.170410  0.250000  1
  Tc  Tc7  1  0.829590  0.660016  0.250000  1
  Tc  Tc8  1  0.656584  0.828470  0.750000  1
  Os  Os9  1  0.002168  0.997832  0.001052  1
  Os  Os10  1  0.827029  0.172971  0.250000  1
  Os  Os11  1  0.002168  0.997832  0.498948  1
