# generated using pymatgen
data_Pr3Nd5(ZnCo)2
_symmetry_space_group_name_H-M   'P 1'
_cell_length_a   9.68675482
_cell_length_b   9.68598587
_cell_length_c   9.68604515
_cell_angle_alpha   59.98299739
_cell_angle_beta   59.98594321
_cell_angle_gamma   59.98511419
_symmetry_Int_Tables_number   1
_chemical_formula_structural   Pr3Nd5(ZnCo)2
_chemical_formula_sum   'Pr6 Nd10 Zn4 Co4'
_cell_volume   642.39594159
_cell_formula_units_Z   2
loop_
 _symmetry_equiv_pos_site_id
 _symmetry_equiv_pos_as_xyz
  1  'x, y, z'
loop_
 _atom_site_type_symbol
 _atom_site_label
 _atom_site_symmetry_multiplicity
 _atom_site_fract_x
 _atom_site_fract_y
 _atom_site_fract_z
 _atom_site_occupancy
  Pr  Pr0  1  0.939904  0.561356  0.561343  1
  Pr  Pr1  1  0.559125  0.939920  0.939920  1
  Pr  Pr2  1  0.561357  0.939902  0.561336  1
  Pr  Pr3  1  0.939917  0.559126  0.939914  1
  Pr  Pr4  1  0.561344  0.561335  0.939910  1
  Pr  Pr5  1  0.939911  0.939908  0.559128  1
  Nd  Nd6  1  0.348282  0.348333  0.348261  1
  Nd  Nd7  1  0.349468  0.349522  0.952165  1
  Nd  Nd8  1  0.349495  0.952140  0.349482  1
  Nd  Nd9  1  0.952167  0.349532  0.349454  1
  Nd  Nd10  1  0.808289  0.191229  0.191221  1
  Nd  Nd11  1  0.191271  0.807563  0.807659  1
  Nd  Nd12  1  0.191224  0.808258  0.191216  1
  Nd  Nd13  1  0.807588  0.191274  0.807627  1
  Nd  Nd14  1  0.191225  0.191226  0.808302  1
  Nd  Nd15  1  0.807644  0.807583  0.191267  1
  Zn  Zn16  1  0.576407  0.576405  0.576402  1
  Zn  Zn17  1  0.576780  0.576779  0.269582  1
  Zn  Zn18  1  0.576782  0.269579  0.576779  1
  Zn  Zn19  1  0.269577  0.576783  0.576779  1
  Co  Co20  1  0.141224  0.141228  0.141227  1
  Co  Co21  1  0.141881  0.141884  0.577253  1
  Co  Co22  1  0.141885  0.577243  0.141886  1
  Co  Co23  1  0.577249  0.141886  0.141883  1
