# generated using pymatgen
data_Zr10AlSn3GeBi3
_symmetry_space_group_name_H-M   'P 1'
_cell_length_a   8.82731400
_cell_length_b   8.82731385
_cell_length_c   5.92726100
_cell_angle_alpha   90.00000000
_cell_angle_beta   90.00000000
_cell_angle_gamma   120.00000056
_symmetry_Int_Tables_number   1
_chemical_formula_structural   Zr10AlSn3GeBi3
_chemical_formula_sum   'Zr10 Al1 Sn3 Ge1 Bi3'
_cell_volume   399.98326757
_cell_formula_units_Z   1
loop_
 _symmetry_equiv_pos_site_id
 _symmetry_equiv_pos_as_xyz
  1  'x, y, z'
loop_
 _atom_site_type_symbol
 _atom_site_label
 _atom_site_symmetry_multiplicity
 _atom_site_fract_x
 _atom_site_fract_y
 _atom_site_fract_z
 _atom_site_occupancy
  Zr  Zr0  1  0.729969  0.000000  0.253865  1
  Zr  Zr1  1  0.000000  0.729969  0.253865  1
  Zr  Zr2  1  0.270031  0.270031  0.253865  1
  Zr  Zr3  1  0.260761  0.000000  0.746004  1
  Zr  Zr4  1  0.000000  0.260761  0.746004  1
  Zr  Zr5  1  0.739239  0.739239  0.746004  1
  Zr  Zr6  1  0.333333  0.666667  0.493305  1
  Zr  Zr7  1  0.666667  0.333333  0.493305  1
  Zr  Zr8  1  0.666667  0.333333  0.005395  1
  Zr  Zr9  1  0.333333  0.666667  0.005395  1
  Al  Al10  1  0.000000  0.000000  0.007931  1
  Sn  Sn11  1  0.385783  0.000000  0.248487  1
  Sn  Sn12  1  0.000000  0.385783  0.248487  1
  Sn  Sn13  1  0.614217  0.614217  0.248487  1
  Ge  Ge14  1  0.000000  0.000000  0.493414  1
  Bi  Bi15  1  0.605827  0.000000  0.752062  1
  Bi  Bi16  1  0.000000  0.605827  0.752062  1
  Bi  Bi17  1  0.394173  0.394173  0.752062  1
