# generated using pymatgen
data_RbTa(CuS2)2
_symmetry_space_group_name_H-M   'P 1'
_cell_length_a   9.86437292
_cell_length_b   9.86437340
_cell_length_c   7.58416800
_cell_angle_alpha   90.00000000
_cell_angle_beta   90.00000000
_cell_angle_gamma   147.21731575
_symmetry_Int_Tables_number   1
_chemical_formula_structural   RbTa(CuS2)2
_chemical_formula_sum   'Rb2 Ta2 Cu4 S8'
_cell_volume   399.58448655
_cell_formula_units_Z   2
loop_
 _symmetry_equiv_pos_site_id
 _symmetry_equiv_pos_as_xyz
  1  'x, y, z'
loop_
 _atom_site_type_symbol
 _atom_site_label
 _atom_site_symmetry_multiplicity
 _atom_site_fract_x
 _atom_site_fract_y
 _atom_site_fract_z
 _atom_site_occupancy
  Rb  Rb0  1  0.910001  0.548816  0.250000  1
  Rb  Rb1  1  0.548816  0.910001  0.750000  1
  Ta  Ta2  1  0.870210  0.086967  0.250000  1
  Ta  Ta3  1  0.086967  0.870210  0.750000  1
  Cu  Cu4  1  0.995445  0.995445  0.500000  1
  Cu  Cu5  1  0.995445  0.995445  0.000000  1
  Cu  Cu6  1  0.375330  0.581732  0.250000  1
  Cu  Cu7  1  0.581732  0.375330  0.750000  1
  S  S8  1  0.326312  0.118422  0.504009  1
  S  S9  1  0.118422  0.326312  0.495991  1
  S  S10  1  0.521192  0.928958  0.250000  1
  S  S11  1  0.928958  0.521192  0.750000  1
  S  S12  1  0.737753  0.750124  0.250000  1
  S  S13  1  0.750124  0.737753  0.750000  1
  S  S14  1  0.326312  0.118422  0.995991  1
  S  S15  1  0.118422  0.326312  0.004009  1
