# generated using pymatgen
data_Hf6NiSnBi
_symmetry_space_group_name_H-M   'P 1'
_cell_length_a   3.63518500
_cell_length_b   7.81492288
_cell_length_c   7.81492400
_cell_angle_alpha   119.99999626
_cell_angle_beta   90.00000000
_cell_angle_gamma   90.00000000
_symmetry_Int_Tables_number   1
_chemical_formula_structural   Hf6NiSnBi
_chemical_formula_sum   'Hf6 Ni1 Sn1 Bi1'
_cell_volume   192.26782850
_cell_formula_units_Z   1
loop_
 _symmetry_equiv_pos_site_id
 _symmetry_equiv_pos_as_xyz
  1  'x, y, z'
loop_
 _atom_site_type_symbol
 _atom_site_label
 _atom_site_symmetry_multiplicity
 _atom_site_fract_x
 _atom_site_fract_y
 _atom_site_fract_z
 _atom_site_occupancy
  Hf  Hf0  1  0.500000  0.763384  0.759922  1
  Hf  Hf1  1  0.500000  0.996538  0.236616  1
  Hf  Hf2  1  0.500000  0.240078  0.003462  1
  Hf  Hf3  1  0.000000  0.392774  0.387070  1
  Hf  Hf4  1  0.000000  0.994296  0.607226  1
  Hf  Hf5  1  0.000000  0.612930  0.005704  1
  Ni  Ni6  1  0.000000  0.000000  0.000000  1
  Sn  Sn7  1  0.500000  0.666667  0.333333  1
  Bi  Bi8  1  0.500000  0.333333  0.666667  1
