# generated using pymatgen
data_Tb5Er3(Ni4As3)4
_symmetry_space_group_name_H-M   'P 1'
_cell_length_a   12.86489300
_cell_length_b   12.86489225
_cell_length_c   3.95554900
_cell_angle_alpha   90.00000000
_cell_angle_beta   90.00000000
_cell_angle_gamma   120.00000450
_symmetry_Int_Tables_number   1
_chemical_formula_structural   Tb5Er3(Ni4As3)4
_chemical_formula_sum   'Tb5 Er3 Ni16 As12'
_cell_volume   566.95646555
_cell_formula_units_Z   1
loop_
 _symmetry_equiv_pos_site_id
 _symmetry_equiv_pos_as_xyz
  1  'x, y, z'
loop_
 _atom_site_type_symbol
 _atom_site_label
 _atom_site_symmetry_multiplicity
 _atom_site_fract_x
 _atom_site_fract_y
 _atom_site_fract_z
 _atom_site_occupancy
  Tb  Tb0  1  0.181913  0.181913  0.500000  1
  Tb  Tb1  1  0.818087  0.000000  0.500000  1
  Tb  Tb2  1  0.000000  0.818087  0.500000  1
  Tb  Tb3  1  0.333333  0.666667  0.000000  1
  Tb  Tb4  1  0.666667  0.333333  0.000000  1
  Er  Er5  1  0.565122  0.565122  0.000000  1
  Er  Er6  1  0.434878  0.000000  0.000000  1
  Er  Er7  1  0.000000  0.434878  0.000000  1
  Ni  Ni8  1  0.725037  0.725037  0.500000  1
  Ni  Ni9  1  0.274963  0.000000  0.500000  1
  Ni  Ni10  1  0.000000  0.274963  0.500000  1
  Ni  Ni11  1  0.186314  0.377227  0.000000  1
  Ni  Ni12  1  0.622773  0.809088  0.000000  1
  Ni  Ni13  1  0.190912  0.813686  0.000000  1
  Ni  Ni14  1  0.809088  0.622773  0.000000  1
  Ni  Ni15  1  0.813686  0.190912  0.000000  1
  Ni  Ni16  1  0.377227  0.186314  0.000000  1
  Ni  Ni17  1  0.361646  0.480982  0.500000  1
  Ni  Ni18  1  0.519018  0.880664  0.500000  1
  Ni  Ni19  1  0.119336  0.638354  0.500000  1
  Ni  Ni20  1  0.880664  0.519018  0.500000  1
  Ni  Ni21  1  0.638354  0.119336  0.500000  1
  Ni  Ni22  1  0.480982  0.361646  0.500000  1
  Ni  Ni23  1  0.000000  0.000000  0.000000  1
  As  As24  1  0.822033  0.822033  0.000000  1
  As  As25  1  0.177967  0.000000  0.000000  1
  As  As26  1  0.000000  0.177967  0.000000  1
  As  As27  1  0.175360  0.478016  0.500000  1
  As  As28  1  0.521984  0.697344  0.500000  1
  As  As29  1  0.302656  0.824640  0.500000  1
  As  As30  1  0.697344  0.521984  0.500000  1
  As  As31  1  0.824640  0.302656  0.500000  1
  As  As32  1  0.478016  0.175360  0.500000  1
  As  As33  1  0.351623  0.351623  0.000000  1
  As  As34  1  0.648377  0.000000  0.000000  1
  As  As35  1  0.000000  0.648377  0.000000  1
