# generated using pymatgen
data_Lu12Al2Ni3Os
_symmetry_space_group_name_H-M   'P 1'
_cell_length_a   8.17930446
_cell_length_b   8.17930516
_cell_length_c   8.17930521
_cell_angle_alpha   112.61210043
_cell_angle_beta   110.14540740
_cell_angle_gamma   105.73009344
_symmetry_Int_Tables_number   1
_chemical_formula_structural   Lu12Al2Ni3Os
_chemical_formula_sum   'Lu12 Al2 Ni3 Os1'
_cell_volume   419.69329585
_cell_formula_units_Z   1
loop_
 _symmetry_equiv_pos_site_id
 _symmetry_equiv_pos_as_xyz
  1  'x, y, z'
loop_
 _atom_site_type_symbol
 _atom_site_label
 _atom_site_symmetry_multiplicity
 _atom_site_fract_x
 _atom_site_fract_y
 _atom_site_fract_z
 _atom_site_occupancy
  Lu  Lu0  1  0.051113  0.747250  0.303864  1
  Lu  Lu1  1  0.962367  0.265260  0.697108  1
  Lu  Lu2  1  0.556614  0.252750  0.303864  1
  Lu  Lu3  1  0.431848  0.734740  0.697108  1
  Lu  Lu4  1  0.676401  0.865182  0.193371  1
  Lu  Lu5  1  0.328190  0.516970  0.193371  1
  Lu  Lu6  1  0.328190  0.134818  0.811221  1
  Lu  Lu7  1  0.676401  0.483030  0.811221  1
  Lu  Lu8  1  0.177011  0.220632  0.397645  1
  Lu  Lu9  1  0.813509  0.218808  0.032316  1
  Lu  Lu10  1  0.177011  0.779368  0.956379  1
  Lu  Lu11  1  0.813509  0.781192  0.594700  1
  Al  Al12  1  0.986289  0.500000  0.486289  1
  Al  Al13  1  0.505709  0.000000  0.505709  1
  Ni  Ni14  1  0.344091  0.500000  0.844091  1
  Ni  Ni15  1  0.879857  0.880103  0.999754  1
  Ni  Ni16  1  0.119651  0.119897  0.999754  1
  Os  Os17  1  0.672237  0.500000  0.172237  1
