# generated using pymatgen
data_TlFe2CoSb12Pt
_symmetry_space_group_name_H-M   'P 1'
_cell_length_a   8.03187435
_cell_length_b   8.04475325
_cell_length_c   8.04949236
_cell_angle_alpha   109.60300617
_cell_angle_beta   109.52544525
_cell_angle_gamma   109.54731397
_symmetry_Int_Tables_number   1
_chemical_formula_structural   TlFe2CoSb12Pt
_chemical_formula_sum   'Tl1 Fe2 Co1 Sb12 Pt1'
_cell_volume   399.08303561
_cell_formula_units_Z   1
loop_
 _symmetry_equiv_pos_site_id
 _symmetry_equiv_pos_as_xyz
  1  'x, y, z'
loop_
 _atom_site_type_symbol
 _atom_site_label
 _atom_site_symmetry_multiplicity
 _atom_site_fract_x
 _atom_site_fract_y
 _atom_site_fract_z
 _atom_site_occupancy
  Tl  Tl0  1  0.000000  0.000000  0.000000  1
  Fe  Fe1  1  0.500000  0.000000  0.000000  1
  Fe  Fe2  1  0.000000  0.500000  0.000000  1
  Co  Co3  1  0.000000  0.000000  0.500000  1
  Sb  Sb4  1  0.853342  0.666931  0.501428  1
  Sb  Sb5  1  0.146658  0.333069  0.498572  1
  Sb  Sb6  1  0.162321  0.669291  0.831150  1
  Sb  Sb7  1  0.837679  0.330709  0.168850  1
  Sb  Sb8  1  0.669808  0.503219  0.853651  1
  Sb  Sb9  1  0.330192  0.496781  0.146349  1
  Sb  Sb10  1  0.665844  0.827806  0.160743  1
  Sb  Sb11  1  0.334156  0.172194  0.839257  1
  Sb  Sb12  1  0.502655  0.853499  0.669950  1
  Sb  Sb13  1  0.497345  0.146501  0.330050  1
  Sb  Sb14  1  0.172257  0.837348  0.332410  1
  Sb  Sb15  1  0.827743  0.162652  0.667590  1
  Pt  Pt16  1  0.500000  0.500000  0.500000  1
