# generated using pymatgen
data_Zr3Cr5(Ni2P3)2
_symmetry_space_group_name_H-M   'P 1'
_cell_length_a   3.64727200
_cell_length_b   10.67242600
_cell_length_c   12.26573700
_cell_angle_alpha   90.00000000
_cell_angle_beta   90.00000000
_cell_angle_gamma   90.00000000
_symmetry_Int_Tables_number   1
_chemical_formula_structural   Zr3Cr5(Ni2P3)2
_chemical_formula_sum   'Zr6 Cr10 Ni8 P12'
_cell_volume   477.44676290
_cell_formula_units_Z   2
loop_
 _symmetry_equiv_pos_site_id
 _symmetry_equiv_pos_as_xyz
  1  'x, y, z'
loop_
 _atom_site_type_symbol
 _atom_site_label
 _atom_site_symmetry_multiplicity
 _atom_site_fract_x
 _atom_site_fract_y
 _atom_site_fract_z
 _atom_site_occupancy
  Zr  Zr0  1  0.751876  0.000000  0.466513  1
  Zr  Zr1  1  0.251876  0.500000  0.533487  1
  Zr  Zr2  1  0.251903  0.678644  0.797942  1
  Zr  Zr3  1  0.251903  0.321356  0.797942  1
  Zr  Zr4  1  0.751903  0.821356  0.202058  1
  Zr  Zr5  1  0.751903  0.178644  0.202058  1
  Cr  Cr6  1  0.251821  0.204788  0.567296  1
  Cr  Cr7  1  0.251821  0.795212  0.567296  1
  Cr  Cr8  1  0.751821  0.295212  0.432704  1
  Cr  Cr9  1  0.751821  0.704788  0.432704  1
  Cr  Cr10  1  0.251831  0.618645  0.299974  1
  Cr  Cr11  1  0.251831  0.381355  0.299974  1
  Cr  Cr12  1  0.751831  0.881355  0.700026  1
  Cr  Cr13  1  0.751831  0.118645  0.700026  1
  Cr  Cr14  1  0.251908  0.000000  0.839471  1
  Cr  Cr15  1  0.751908  0.500000  0.160529  1
  Ni  Ni16  1  0.751624  0.000000  0.009846  1
  Ni  Ni17  1  0.251624  0.500000  0.990154  1
  Ni  Ni18  1  0.251627  0.169500  0.007580  1
  Ni  Ni19  1  0.251627  0.830500  0.007580  1
  Ni  Ni20  1  0.751627  0.330500  0.992420  1
  Ni  Ni21  1  0.751627  0.669500  0.992420  1
  Ni  Ni22  1  0.252012  0.000000  0.291489  1
  Ni  Ni23  1  0.752012  0.500000  0.708511  1
  P  P24  1  0.251840  0.176413  0.377770  1
  P  P25  1  0.251840  0.823587  0.377770  1
  P  P26  1  0.751840  0.323587  0.622230  1
  P  P27  1  0.751840  0.676413  0.622230  1
  P  P28  1  0.251781  0.000000  0.116879  1
  P  P29  1  0.751781  0.500000  0.883121  1
  P  P30  1  0.251874  0.655545  0.113621  1
  P  P31  1  0.251874  0.344455  0.113621  1
  P  P32  1  0.751874  0.844455  0.886379  1
  P  P33  1  0.751874  0.155545  0.886379  1
  P  P34  1  0.251810  0.000000  0.637350  1
  P  P35  1  0.751810  0.500000  0.362650  1
