# generated using pymatgen
data_YHoTh2(GaIr)4
_symmetry_space_group_name_H-M   'P 1'
_cell_length_a   4.37288800
_cell_length_b   6.89900608
_cell_length_c   7.96522831
_cell_angle_alpha   90.31892168
_cell_angle_beta   90.00000000
_cell_angle_gamma   90.00000000
_symmetry_Int_Tables_number   1
_chemical_formula_structural   YHoTh2(GaIr)4
_chemical_formula_sum   'Y1 Ho1 Th2 Ga4 Ir4'
_cell_volume   240.29591225
_cell_formula_units_Z   1
loop_
 _symmetry_equiv_pos_site_id
 _symmetry_equiv_pos_as_xyz
  1  'x, y, z'
loop_
 _atom_site_type_symbol
 _atom_site_label
 _atom_site_symmetry_multiplicity
 _atom_site_fract_x
 _atom_site_fract_y
 _atom_site_fract_z
 _atom_site_occupancy
  Y  Y0  1  0.750000  0.530686  0.808302  1
  Ho  Ho1  1  0.750000  0.031245  0.690269  1
  Th  Th2  1  0.250000  0.971082  0.319954  1
  Th  Th3  1  0.250000  0.469420  0.180534  1
  Ga  Ga4  1  0.250000  0.353987  0.573686  1
  Ga  Ga5  1  0.250000  0.852229  0.926857  1
  Ga  Ga6  1  0.750000  0.648372  0.443322  1
  Ga  Ga7  1  0.750000  0.144867  0.056176  1
  Ir  Ir8  1  0.250000  0.234506  0.885520  1
  Ir  Ir9  1  0.250000  0.739095  0.612792  1
  Ir  Ir10  1  0.750000  0.761431  0.122436  1
  Ir  Ir11  1  0.750000  0.263081  0.380152  1
