# generated using pymatgen
data_Nd2Dy3GaPb3
_symmetry_space_group_name_H-M   'P 1'
_cell_length_a   7.98019100
_cell_length_b   8.30743200
_cell_length_c   15.71125400
_cell_angle_alpha   90.00000000
_cell_angle_beta   90.00000000
_cell_angle_gamma   90.00000000
_symmetry_Int_Tables_number   1
_chemical_formula_structural   Nd2Dy3GaPb3
_chemical_formula_sum   'Nd8 Dy12 Ga4 Pb12'
_cell_volume   1041.57591979
_cell_formula_units_Z   4
loop_
 _symmetry_equiv_pos_site_id
 _symmetry_equiv_pos_as_xyz
  1  'x, y, z'
loop_
 _atom_site_type_symbol
 _atom_site_label
 _atom_site_symmetry_multiplicity
 _atom_site_fract_x
 _atom_site_fract_y
 _atom_site_fract_z
 _atom_site_occupancy
  Nd  Nd0  1  0.493946  0.677166  0.596587  1
  Nd  Nd1  1  0.993946  0.822834  0.903413  1
  Nd  Nd2  1  0.506054  0.322834  0.096587  1
  Nd  Nd3  1  0.006054  0.177166  0.403413  1
  Nd  Nd4  1  0.506054  0.322834  0.403413  1
  Nd  Nd5  1  0.006054  0.177166  0.096587  1
  Nd  Nd6  1  0.493946  0.677166  0.903413  1
  Nd  Nd7  1  0.993946  0.822834  0.596587  1
  Dy  Dy8  1  0.651735  0.171745  0.629288  1
  Dy  Dy9  1  0.151735  0.328255  0.870712  1
  Dy  Dy10  1  0.348265  0.828255  0.129288  1
  Dy  Dy11  1  0.848265  0.671745  0.370712  1
  Dy  Dy12  1  0.348265  0.828255  0.370712  1
  Dy  Dy13  1  0.848265  0.671745  0.129288  1
  Dy  Dy14  1  0.651735  0.171745  0.870712  1
  Dy  Dy15  1  0.151735  0.328255  0.629288  1
  Dy  Dy16  1  0.801947  0.493467  0.750000  1
  Dy  Dy17  1  0.301947  0.006533  0.750000  1
  Dy  Dy18  1  0.198053  0.506533  0.250000  1
  Dy  Dy19  1  0.698053  0.993467  0.250000  1
  Ga  Ga20  1  0.451198  0.373809  0.750000  1
  Ga  Ga21  1  0.951198  0.126191  0.750000  1
  Ga  Ga22  1  0.548802  0.626191  0.250000  1
  Ga  Ga23  1  0.048802  0.873809  0.250000  1
  Pb  Pb24  1  0.687441  0.961936  0.461429  1
  Pb  Pb25  1  0.187441  0.538064  0.038571  1
  Pb  Pb26  1  0.312559  0.038064  0.961429  1
  Pb  Pb27  1  0.812559  0.461936  0.538571  1
  Pb  Pb28  1  0.312559  0.038064  0.538571  1
  Pb  Pb29  1  0.812559  0.461936  0.961429  1
  Pb  Pb30  1  0.687441  0.961936  0.038571  1
  Pb  Pb31  1  0.187441  0.538064  0.461429  1
  Pb  Pb32  1  0.690962  0.862673  0.750000  1
  Pb  Pb33  1  0.190962  0.637327  0.750000  1
  Pb  Pb34  1  0.309038  0.137327  0.250000  1
  Pb  Pb35  1  0.809038  0.362673  0.250000  1
