# generated using pymatgen
data_Nd8Mn(Si4Pt)3
_symmetry_space_group_name_H-M   'P 1'
_cell_length_a   8.24203300
_cell_length_b   8.24203415
_cell_length_c   8.53589000
_cell_angle_alpha   90.00000000
_cell_angle_beta   90.00000000
_cell_angle_gamma   119.99999938
_symmetry_Int_Tables_number   1
_chemical_formula_structural   Nd8Mn(Si4Pt)3
_chemical_formula_sum   'Nd8 Mn1 Si12 Pt3'
_cell_volume   502.16703873
_cell_formula_units_Z   1
loop_
 _symmetry_equiv_pos_site_id
 _symmetry_equiv_pos_as_xyz
  1  'x, y, z'
loop_
 _atom_site_type_symbol
 _atom_site_label
 _atom_site_symmetry_multiplicity
 _atom_site_fract_x
 _atom_site_fract_y
 _atom_site_fract_z
 _atom_site_occupancy
  Nd  Nd0  1  0.000000  0.000000  0.750658  1
  Nd  Nd1  1  0.000000  0.000000  0.249406  1
  Nd  Nd2  1  0.498871  0.501129  0.752040  1
  Nd  Nd3  1  0.498871  0.997743  0.752040  1
  Nd  Nd4  1  0.002257  0.501129  0.752040  1
  Nd  Nd5  1  0.500045  0.499955  0.247937  1
  Nd  Nd6  1  0.999911  0.499955  0.247937  1
  Nd  Nd7  1  0.500045  0.000089  0.247937  1
  Mn  Mn8  1  0.333333  0.666667  0.001771  1
  Si  Si9  1  0.834038  0.165962  0.999410  1
  Si  Si10  1  0.834038  0.668076  0.999410  1
  Si  Si11  1  0.331924  0.165962  0.999410  1
  Si  Si12  1  0.833983  0.166017  0.500729  1
  Si  Si13  1  0.833983  0.667967  0.500729  1
  Si  Si14  1  0.332033  0.166017  0.500729  1
  Si  Si15  1  0.165473  0.834527  0.499413  1
  Si  Si16  1  0.669055  0.834527  0.499413  1
  Si  Si17  1  0.165473  0.330945  0.499413  1
  Si  Si18  1  0.168240  0.831760  0.000528  1
  Si  Si19  1  0.663521  0.831760  0.000528  1
  Si  Si20  1  0.168240  0.336479  0.000528  1
  Pt  Pt21  1  0.666667  0.333333  0.998616  1
  Pt  Pt22  1  0.666667  0.333333  0.501036  1
  Pt  Pt23  1  0.333333  0.666667  0.498344  1
