# generated using pymatgen
data_CaSm3Er4(B6Os)4
_symmetry_space_group_name_H-M   'P 1'
_cell_length_a   3.66430600
_cell_length_b   9.17336232
_cell_length_c   11.58908894
_cell_angle_alpha   89.91840081
_cell_angle_beta   90.00000000
_cell_angle_gamma   90.00000000
_symmetry_Int_Tables_number   1
_chemical_formula_structural   CaSm3Er4(B6Os)4
_chemical_formula_sum   'Ca1 Sm3 Er4 B24 Os4'
_cell_volume   389.55531712
_cell_formula_units_Z   1
loop_
 _symmetry_equiv_pos_site_id
 _symmetry_equiv_pos_as_xyz
  1  'x, y, z'
loop_
 _atom_site_type_symbol
 _atom_site_label
 _atom_site_symmetry_multiplicity
 _atom_site_fract_x
 _atom_site_fract_y
 _atom_site_fract_z
 _atom_site_occupancy
  Ca  Ca0  1  0.000000  0.322239  0.414024  1
  Sm  Sm1  1  0.000000  0.676181  0.585051  1
  Sm  Sm2  1  0.000000  0.822508  0.086583  1
  Sm  Sm3  1  0.000000  0.178078  0.914477  1
  Er  Er4  1  0.000000  0.944637  0.371841  1
  Er  Er5  1  0.000000  0.057490  0.627275  1
  Er  Er6  1  0.000000  0.443442  0.129173  1
  Er  Er7  1  0.000000  0.555603  0.872061  1
  B  B8  1  0.500000  0.554334  0.431297  1
  B  B9  1  0.500000  0.444626  0.568095  1
  B  B10  1  0.500000  0.054924  0.068544  1
  B  B11  1  0.500000  0.944679  0.931191  1
  B  B12  1  0.500000  0.748979  0.417680  1
  B  B13  1  0.500000  0.251221  0.581519  1
  B  B14  1  0.500000  0.249066  0.082374  1
  B  B15  1  0.500000  0.750454  0.918030  1
  B  B16  1  0.500000  0.791217  0.266676  1
  B  B17  1  0.500000  0.209528  0.733296  1
  B  B18  1  0.500000  0.290912  0.234004  1
  B  B19  1  0.500000  0.709142  0.766630  1
  B  B20  1  0.500000  0.630874  0.186047  1
  B  B21  1  0.500000  0.369125  0.814705  1
  B  B22  1  0.500000  0.131439  0.314607  1
  B  B23  1  0.500000  0.869215  0.685248  1
  B  B24  1  0.500000  0.984834  0.213401  1
  B  B25  1  0.500000  0.015552  0.786129  1
  B  B26  1  0.500000  0.483808  0.286992  1
  B  B27  1  0.500000  0.515139  0.713413  1
  B  B28  1  0.500000  0.603554  0.028493  1
  B  B29  1  0.500000  0.396516  0.971825  1
  B  B30  1  0.500000  0.102872  0.471717  1
  B  B31  1  0.500000  0.897460  0.528152  1
  Os  Os32  1  0.000000  0.639764  0.319575  1
  Os  Os33  1  0.000000  0.361071  0.680753  1
  Os  Os34  1  0.000000  0.138260  0.179092  1
  Os  Os35  1  0.000000  0.861257  0.820031  1
