# generated using pymatgen
data_CaY3(MgPt)4
_symmetry_space_group_name_H-M   'P 1'
_cell_length_a   4.20683200
_cell_length_b   7.18977556
_cell_length_c   8.52792100
_cell_angle_alpha   89.97735989
_cell_angle_beta   90.00000000
_cell_angle_gamma   90.00000000
_symmetry_Int_Tables_number   1
_chemical_formula_structural   CaY3(MgPt)4
_chemical_formula_sum   'Ca1 Y3 Mg4 Pt4'
_cell_volume   257.93699558
_cell_formula_units_Z   1
loop_
 _symmetry_equiv_pos_site_id
 _symmetry_equiv_pos_as_xyz
  1  'x, y, z'
loop_
 _atom_site_type_symbol
 _atom_site_label
 _atom_site_symmetry_multiplicity
 _atom_site_fract_x
 _atom_site_fract_y
 _atom_site_fract_z
 _atom_site_occupancy
  Ca  Ca0  1  0.750000  0.462087  0.822871  1
  Y  Y1  1  0.250000  0.037621  0.324348  1
  Y  Y2  1  0.250000  0.536943  0.175775  1
  Y  Y3  1  0.750000  0.960962  0.676793  1
  Mg  Mg4  1  0.250000  0.140378  0.938836  1
  Mg  Mg5  1  0.250000  0.636264  0.561956  1
  Mg  Mg6  1  0.750000  0.863154  0.060726  1
  Mg  Mg7  1  0.750000  0.362916  0.438816  1
  Pt  Pt8  1  0.250000  0.244980  0.619789  1
  Pt  Pt9  1  0.250000  0.763753  0.874069  1
  Pt  Pt10  1  0.750000  0.747688  0.373452  1
  Pt  Pt11  1  0.750000  0.243253  0.132568  1
