# generated using pymatgen
data_TbNd2(AlI)2
_symmetry_space_group_name_H-M   'P 1'
_cell_length_a   9.84637066
_cell_length_b   9.84637122
_cell_length_c   12.02264300
_cell_angle_alpha   59.77561315
_cell_angle_beta   59.77561212
_cell_angle_gamma   25.18793506
_symmetry_Int_Tables_number   1
_chemical_formula_structural   TbNd2(AlI)2
_chemical_formula_sum   'Tb2 Nd4 Al4 I4'
_cell_volume   424.98776448
_cell_formula_units_Z   2
loop_
 _symmetry_equiv_pos_site_id
 _symmetry_equiv_pos_as_xyz
  1  'x, y, z'
loop_
 _atom_site_type_symbol
 _atom_site_label
 _atom_site_symmetry_multiplicity
 _atom_site_fract_x
 _atom_site_fract_y
 _atom_site_fract_z
 _atom_site_occupancy
  Tb  Tb0  1  0.831001  0.831001  0.390566  1
  Tb  Tb1  1  0.168999  0.168999  0.609434  1
  Nd  Nd2  1  0.755432  0.755432  0.800293  1
  Nd  Nd3  1  0.244568  0.244568  0.199707  1
  Nd  Nd4  1  0.534769  0.534769  0.312191  1
  Nd  Nd5  1  0.465231  0.465231  0.687809  1
  Al  Al6  1  0.925981  0.925981  0.529913  1
  Al  Al7  1  0.074019  0.074019  0.470087  1
  Al  Al8  1  0.336364  0.336364  0.581773  1
  Al  Al9  1  0.663636  0.663636  0.418227  1
  I  I10  1  0.421868  0.421868  0.175537  1
  I  I11  1  0.578132  0.578132  0.824463  1
  I  I12  1  0.859896  0.859896  0.942092  1
  I  I13  1  0.140104  0.140104  0.057908  1
