# generated using pymatgen
data_TbSi4(RuRh)3
_symmetry_space_group_name_H-M   'P 1'
_cell_length_a   7.00514800
_cell_length_b   7.00514876
_cell_length_c   3.78620500
_cell_angle_alpha   90.00000000
_cell_angle_beta   90.00000000
_cell_angle_gamma   119.99999642
_symmetry_Int_Tables_number   1
_chemical_formula_structural   TbSi4(RuRh)3
_chemical_formula_sum   'Tb1 Si4 Ru3 Rh3'
_cell_volume   160.90496655
_cell_formula_units_Z   1
loop_
 _symmetry_equiv_pos_site_id
 _symmetry_equiv_pos_as_xyz
  1  'x, y, z'
loop_
 _atom_site_type_symbol
 _atom_site_label
 _atom_site_symmetry_multiplicity
 _atom_site_fract_x
 _atom_site_fract_y
 _atom_site_fract_z
 _atom_site_occupancy
  Tb  Tb0  1  0.000000  0.000000  0.000000  1
  Si  Si1  1  0.799711  0.200289  0.500000  1
  Si  Si2  1  0.799711  0.599424  0.500000  1
  Si  Si3  1  0.400576  0.200289  0.500000  1
  Si  Si4  1  0.333333  0.666667  0.000000  1
  Ru  Ru5  1  0.534781  0.465219  0.000000  1
  Ru  Ru6  1  0.534781  0.069564  0.000000  1
  Ru  Ru7  1  0.930436  0.465219  0.000000  1
  Rh  Rh8  1  0.198789  0.801211  0.500000  1
  Rh  Rh9  1  0.198789  0.397579  0.500000  1
  Rh  Rh10  1  0.602421  0.801211  0.500000  1
