# generated using pymatgen
data_Ho6TiAl23Os8
_symmetry_space_group_name_H-M   'P 1'
_cell_length_a   8.84089300
_cell_length_b   8.84089281
_cell_length_c   9.54974800
_cell_angle_alpha   90.00000000
_cell_angle_beta   90.00000000
_cell_angle_gamma   119.99999697
_symmetry_Int_Tables_number   1
_chemical_formula_structural   Ho6TiAl23Os8
_chemical_formula_sum   'Ho6 Ti1 Al23 Os8'
_cell_volume   646.42004627
_cell_formula_units_Z   1
loop_
 _symmetry_equiv_pos_site_id
 _symmetry_equiv_pos_as_xyz
  1  'x, y, z'
loop_
 _atom_site_type_symbol
 _atom_site_label
 _atom_site_symmetry_multiplicity
 _atom_site_fract_x
 _atom_site_fract_y
 _atom_site_fract_z
 _atom_site_occupancy
  Ho  Ho0  1  0.194740  0.389480  0.250003  1
  Ho  Ho1  1  0.806762  0.613524  0.747802  1
  Ho  Ho2  1  0.610520  0.805260  0.250003  1
  Ho  Ho3  1  0.386476  0.193238  0.747802  1
  Ho  Ho4  1  0.194740  0.805260  0.250003  1
  Ho  Ho5  1  0.806762  0.193238  0.747802  1
  Ti  Ti6  1  0.333333  0.666667  0.993159  1
  Al  Al7  1  0.666667  0.333333  0.980377  1
  Al  Al8  1  0.666667  0.333333  0.516884  1
  Al  Al9  1  0.333333  0.666667  0.481170  1
  Al  Al10  1  0.162405  0.324810  0.575460  1
  Al  Al11  1  0.837399  0.674798  0.423783  1
  Al  Al12  1  0.675190  0.837595  0.575460  1
  Al  Al13  1  0.836887  0.673775  0.077327  1
  Al  Al14  1  0.325202  0.162601  0.423783  1
  Al  Al15  1  0.159582  0.319165  0.925375  1
  Al  Al16  1  0.162405  0.837595  0.575460  1
  Al  Al17  1  0.326225  0.163113  0.077327  1
  Al  Al18  1  0.837399  0.162601  0.423783  1
  Al  Al19  1  0.680835  0.840418  0.925375  1
  Al  Al20  1  0.836887  0.163113  0.077327  1
  Al  Al21  1  0.159582  0.840418  0.925375  1
  Al  Al22  1  0.561638  0.123277  0.253300  1
  Al  Al23  1  0.441139  0.882279  0.750478  1
  Al  Al24  1  0.876723  0.438362  0.253300  1
  Al  Al25  1  0.117721  0.558861  0.750478  1
  Al  Al26  1  0.561638  0.438362  0.253300  1
  Al  Al27  1  0.441139  0.558861  0.750478  1
  Al  Al28  1  0.000000  0.000000  0.250124  1
  Al  Al29  1  0.000000  0.000000  0.749569  1
  Os  Os30  1  0.499306  0.998613  0.002772  1
  Os  Os31  1  0.001387  0.500694  0.002772  1
  Os  Os32  1  0.499731  0.999462  0.503246  1
  Os  Os33  1  0.499306  0.500694  0.002772  1
  Os  Os34  1  0.000538  0.500269  0.503246  1
  Os  Os35  1  0.499731  0.500269  0.503246  1
  Os  Os36  1  0.000000  0.000000  0.000231  1
  Os  Os37  1  0.000000  0.000000  0.499849  1
