# generated using pymatgen
data_PrDy2Er(Mo2O7)2
_symmetry_space_group_name_H-M   'P 1'
_cell_length_a   7.41281964
_cell_length_b   7.49421338
_cell_length_c   7.49421348
_cell_angle_alpha   59.00516035
_cell_angle_beta   58.89610487
_cell_angle_gamma   58.89610333
_symmetry_Int_Tables_number   1
_chemical_formula_structural   PrDy2Er(Mo2O7)2
_chemical_formula_sum   'Pr1 Dy2 Er1 Mo4 O14'
_cell_volume   287.21606485
_cell_formula_units_Z   1
loop_
 _symmetry_equiv_pos_site_id
 _symmetry_equiv_pos_as_xyz
  1  'x, y, z'
loop_
 _atom_site_type_symbol
 _atom_site_label
 _atom_site_symmetry_multiplicity
 _atom_site_fract_x
 _atom_site_fract_y
 _atom_site_fract_z
 _atom_site_occupancy
  Pr  Pr0  1  0.125000  0.125000  0.125000  1
  Dy  Dy1  1  0.125000  0.625000  0.125000  1
  Dy  Dy2  1  0.125000  0.125000  0.625000  1
  Er  Er3  1  0.625000  0.125000  0.125000  1
  Mo  Mo4  1  0.125000  0.625000  0.625000  1
  Mo  Mo5  1  0.625000  0.125000  0.625000  1
  Mo  Mo6  1  0.625000  0.625000  0.125000  1
  Mo  Mo7  1  0.625000  0.625000  0.625000  1
  O  O8  1  0.700910  0.712105  0.298961  1
  O  O9  1  0.286718  0.272569  0.709298  1
  O  O10  1  0.700910  0.298961  0.712105  1
  O  O11  1  0.286718  0.709298  0.272569  1
  O  O12  1  0.294936  0.713073  0.713073  1
  O  O13  1  0.693538  0.287217  0.287217  1
  O  O14  1  0.549090  0.537895  0.951039  1
  O  O15  1  0.963282  0.977431  0.540702  1
  O  O16  1  0.549090  0.951039  0.537895  1
  O  O17  1  0.963282  0.540702  0.977431  1
  O  O18  1  0.955064  0.536927  0.536927  1
  O  O19  1  0.556462  0.962783  0.962783  1
  O  O20  1  0.257792  0.253424  0.253424  1
  O  O21  1  0.992208  0.996576  0.996576  1
