# generated using pymatgen
data_Zr6Al11Si5Ir7
_symmetry_space_group_name_H-M   'P 1'
_cell_length_a   8.66933130
_cell_length_b   8.66933119
_cell_length_c   8.66933203
_cell_angle_alpha   59.99251801
_cell_angle_beta   59.99251703
_cell_angle_gamma   59.99252071
_symmetry_Int_Tables_number   1
_chemical_formula_structural   Zr6Al11Si5Ir7
_chemical_formula_sum   'Zr6 Al11 Si5 Ir7'
_cell_volume   460.64690437
_cell_formula_units_Z   1
loop_
 _symmetry_equiv_pos_site_id
 _symmetry_equiv_pos_as_xyz
  1  'x, y, z'
loop_
 _atom_site_type_symbol
 _atom_site_label
 _atom_site_symmetry_multiplicity
 _atom_site_fract_x
 _atom_site_fract_y
 _atom_site_fract_z
 _atom_site_occupancy
  Zr  Zr0  1  0.688452  0.310476  0.310476  1
  Zr  Zr1  1  0.312568  0.689789  0.689789  1
  Zr  Zr2  1  0.310476  0.688452  0.310476  1
  Zr  Zr3  1  0.310476  0.310476  0.688452  1
  Zr  Zr4  1  0.689789  0.312568  0.689789  1
  Zr  Zr5  1  0.689789  0.689789  0.312568  1
  Al  Al6  1  0.665916  0.665916  0.003688  1
  Al  Al7  1  0.665916  0.003688  0.665916  1
  Al  Al8  1  0.003688  0.665916  0.665916  1
  Al  Al9  1  0.121278  0.121278  0.121278  1
  Al  Al10  1  0.120940  0.120940  0.635601  1
  Al  Al11  1  0.635601  0.120940  0.120940  1
  Al  Al12  1  0.120940  0.635601  0.120940  1
  Al  Al13  1  0.880892  0.880892  0.880892  1
  Al  Al14  1  0.882235  0.882235  0.357368  1
  Al  Al15  1  0.882235  0.357368  0.882235  1
  Al  Al16  1  0.357368  0.882235  0.882235  1
  Si  Si17  1  0.343989  0.343989  0.343989  1
  Si  Si18  1  0.344399  0.344399  0.965362  1
  Si  Si19  1  0.965362  0.344399  0.344399  1
  Si  Si20  1  0.344399  0.965362  0.344399  1
  Si  Si21  1  0.664259  0.664259  0.664259  1
  Ir  Ir22  1  0.999831  0.999831  0.999831  1
  Ir  Ir23  1  0.491648  0.007953  0.007953  1
  Ir  Ir24  1  0.002873  0.494388  0.494388  1
  Ir  Ir25  1  0.007953  0.491648  0.007953  1
  Ir  Ir26  1  0.007953  0.007953  0.491648  1
  Ir  Ir27  1  0.494388  0.002873  0.494388  1
  Ir  Ir28  1  0.494388  0.494388  0.002873  1
