# generated using pymatgen
data_CsRbZr12(BI14)2
_symmetry_space_group_name_H-M   'P 1'
_cell_length_a   11.01506360
_cell_length_b   11.01506306
_cell_length_c   13.19996535
_cell_angle_alpha   89.98210929
_cell_angle_beta   89.98211206
_cell_angle_gamma   94.59460633
_symmetry_Int_Tables_number   1
_chemical_formula_structural   CsRbZr12(BI14)2
_chemical_formula_sum   'Cs1 Rb1 Zr12 B2 I28'
_cell_volume   1596.42623527
_cell_formula_units_Z   1
loop_
 _symmetry_equiv_pos_site_id
 _symmetry_equiv_pos_as_xyz
  1  'x, y, z'
loop_
 _atom_site_type_symbol
 _atom_site_label
 _atom_site_symmetry_multiplicity
 _atom_site_fract_x
 _atom_site_fract_y
 _atom_site_fract_z
 _atom_site_occupancy
  Cs  Cs0  1  0.500000  0.500000  0.500000  1
  Rb  Rb1  1  0.000000  0.000000  0.000000  1
  Zr  Zr2  1  0.869162  0.869162  0.596749  1
  Zr  Zr3  1  0.369209  0.369209  0.903316  1
  Zr  Zr4  1  0.331871  0.542997  0.108203  1
  Zr  Zr5  1  0.130838  0.130838  0.403251  1
  Zr  Zr6  1  0.168020  0.957052  0.608259  1
  Zr  Zr7  1  0.457003  0.668129  0.891797  1
  Zr  Zr8  1  0.668129  0.457003  0.891797  1
  Zr  Zr9  1  0.957052  0.168020  0.608259  1
  Zr  Zr10  1  0.831980  0.042948  0.391741  1
  Zr  Zr11  1  0.630791  0.630791  0.096684  1
  Zr  Zr12  1  0.542997  0.331871  0.108203  1
  Zr  Zr13  1  0.042948  0.831980  0.391741  1
  B  B14  1  0.500000  0.500000  0.000000  1
  B  B15  1  0.000000  0.000000  0.500000  1
  I  I16  1  0.464364  0.711247  0.247249  1
  I  I17  1  0.535636  0.288753  0.752751  1
  I  I18  1  0.896149  0.396168  0.749970  1
  I  I19  1  0.359628  0.110939  0.506955  1
  I  I20  1  0.345882  0.345882  0.257610  1
  I  I21  1  0.140298  0.388949  0.006966  1
  I  I22  1  0.153609  0.153609  0.758454  1
  I  I23  1  0.751274  0.248726  0.500000  1
  I  I24  1  0.654118  0.654118  0.742390  1
  I  I25  1  0.889061  0.640372  0.493045  1
  I  I26  1  0.248726  0.751274  0.500000  1
  I  I27  1  0.035501  0.789009  0.747655  1
  I  I28  1  0.611051  0.859702  0.993034  1
  I  I29  1  0.103851  0.603832  0.250030  1
  I  I30  1  0.711247  0.464364  0.247249  1
  I  I31  1  0.749063  0.250937  0.000000  1
  I  I32  1  0.396168  0.896149  0.749970  1
  I  I33  1  0.859702  0.611051  0.993034  1
  I  I34  1  0.288753  0.535636  0.752751  1
  I  I35  1  0.110939  0.359628  0.506955  1
  I  I36  1  0.250937  0.749063  0.000000  1
  I  I37  1  0.789009  0.035501  0.747655  1
  I  I38  1  0.640372  0.889061  0.493045  1
  I  I39  1  0.210991  0.964499  0.252345  1
  I  I40  1  0.846391  0.846391  0.241546  1
  I  I41  1  0.964499  0.210991  0.252345  1
  I  I42  1  0.388949  0.140298  0.006966  1
  I  I43  1  0.603832  0.103851  0.250030  1
