# generated using pymatgen
data_Rb14Ta2Tl3In3As10
_symmetry_space_group_name_H-M   'P 1'
_cell_length_a   8.76418396
_cell_length_b   9.64958742
_cell_length_c   14.63153837
_cell_angle_alpha   85.83828862
_cell_angle_beta   82.90854185
_cell_angle_gamma   86.93803417
_symmetry_Int_Tables_number   1
_chemical_formula_structural   Rb14Ta2Tl3In3As10
_chemical_formula_sum   'Rb14 Ta2 Tl3 In3 As10'
_cell_volume   1223.46070618
_cell_formula_units_Z   1
loop_
 _symmetry_equiv_pos_site_id
 _symmetry_equiv_pos_as_xyz
  1  'x, y, z'
loop_
 _atom_site_type_symbol
 _atom_site_label
 _atom_site_symmetry_multiplicity
 _atom_site_fract_x
 _atom_site_fract_y
 _atom_site_fract_z
 _atom_site_occupancy
  Rb  Rb0  1  0.842599  0.360016  0.646361  1
  Rb  Rb1  1  0.816607  0.807614  0.135758  1
  Rb  Rb2  1  0.239437  0.007400  0.468395  1
  Rb  Rb3  1  0.272772  0.256994  0.254115  1
  Rb  Rb4  1  0.735214  0.498874  0.972480  1
  Rb  Rb5  1  0.261576  0.500436  0.027286  1
  Rb  Rb6  1  0.677402  0.082662  0.882757  1
  Rb  Rb7  1  0.761920  0.989127  0.529674  1
  Rb  Rb8  1  0.728663  0.740482  0.745951  1
  Rb  Rb9  1  0.327999  0.345044  0.601266  1
  Rb  Rb10  1  0.156935  0.639687  0.353878  1
  Rb  Rb11  1  0.179099  0.192268  0.864898  1
  Rb  Rb12  1  0.325889  0.915539  0.119497  1
  Rb  Rb13  1  0.666071  0.659189  0.396598  1
  Ta  Ta14  1  0.352342  0.606491  0.775058  1
  Ta  Ta15  1  0.649617  0.392686  0.225092  1
  Tl  Tl16  1  0.043170  0.822362  0.877793  1
  Tl  Tl17  1  0.958869  0.178163  0.121673  1
  Tl  Tl18  1  0.369601  0.964509  0.700000  1
  In  In19  1  0.094971  0.724347  0.624061  1
  In  In20  1  0.906512  0.278890  0.376538  1
  In  In21  1  0.637086  0.044681  0.299136  1
  As  As22  1  0.926490  0.455706  0.208165  1
  As  As23  1  0.622034  0.194517  0.122918  1
  As  As24  1  0.074741  0.545359  0.791519  1
  As  As25  1  0.580940  0.298027  0.391081  1
  As  As26  1  0.420677  0.698815  0.608671  1
  As  As27  1  0.019010  0.005234  0.698694  1
  As  As28  1  0.512119  0.399589  0.809014  1
  As  As29  1  0.486067  0.596289  0.190658  1
  As  As30  1  0.379792  0.801396  0.879891  1
  As  As31  1  0.973779  0.997606  0.301123  1
