# generated using pymatgen
data_Yb2Pr3Si12Ir19
_symmetry_space_group_name_H-M   'P 1'
_cell_length_a   12.88970558
_cell_length_b   12.88970663
_cell_length_c   4.03363000
_cell_angle_alpha   90.00000000
_cell_angle_beta   90.00000000
_cell_angle_gamma   120.03448834
_symmetry_Int_Tables_number   1
_chemical_formula_structural   Yb2Pr3Si12Ir19
_chemical_formula_sum   'Yb2 Pr3 Si12 Ir19'
_cell_volume   580.17857433
_cell_formula_units_Z   1
loop_
 _symmetry_equiv_pos_site_id
 _symmetry_equiv_pos_as_xyz
  1  'x, y, z'
loop_
 _atom_site_type_symbol
 _atom_site_label
 _atom_site_symmetry_multiplicity
 _atom_site_fract_x
 _atom_site_fract_y
 _atom_site_fract_z
 _atom_site_occupancy
  Yb  Yb0  1  0.815504  0.999195  0.500000  1
  Yb  Yb1  1  0.999195  0.815504  0.500000  1
  Pr  Pr2  1  0.334030  0.666755  0.000000  1
  Pr  Pr3  1  0.666755  0.334030  0.000000  1
  Pr  Pr4  1  0.182547  0.182547  0.500000  1
  Si  Si5  1  0.817455  0.817455  0.000000  1
  Si  Si6  1  0.181243  0.996803  0.000000  1
  Si  Si7  1  0.996803  0.181243  0.000000  1
  Si  Si8  1  0.311110  0.832670  0.500000  1
  Si  Si9  1  0.165970  0.478150  0.500000  1
  Si  Si10  1  0.523335  0.689542  0.500000  1
  Si  Si11  1  0.832670  0.311110  0.500000  1
  Si  Si12  1  0.478150  0.165970  0.500000  1
  Si  Si13  1  0.689542  0.523335  0.500000  1
  Si  Si14  1  0.369632  0.369632  0.000000  1
  Si  Si15  1  0.632286  0.000028  0.000000  1
  Si  Si16  1  0.000028  0.632286  0.000000  1
  Ir  Ir17  1  0.193775  0.816589  0.000000  1
  Ir  Ir18  1  0.181702  0.376796  0.000000  1
  Ir  Ir19  1  0.623693  0.806769  0.000000  1
  Ir  Ir20  1  0.816589  0.193775  0.000000  1
  Ir  Ir21  1  0.376796  0.181702  0.000000  1
  Ir  Ir22  1  0.806769  0.623693  0.000000  1
  Ir  Ir23  1  0.718511  0.718511  0.500000  1
  Ir  Ir24  1  0.282754  0.999320  0.500000  1
  Ir  Ir25  1  0.999320  0.282754  0.500000  1
  Ir  Ir26  1  0.124977  0.638511  0.500000  1
  Ir  Ir27  1  0.361925  0.487611  0.500000  1
  Ir  Ir28  1  0.513410  0.875182  0.500000  1
  Ir  Ir29  1  0.638511  0.124977  0.500000  1
  Ir  Ir30  1  0.487611  0.361925  0.500000  1
  Ir  Ir31  1  0.875182  0.513410  0.500000  1
  Ir  Ir32  1  0.552754  0.552754  0.000000  1
  Ir  Ir33  1  0.448701  0.001282  0.000000  1
  Ir  Ir34  1  0.001282  0.448701  0.000000  1
  Ir  Ir35  1  0.999484  0.999484  0.000000  1
