# generated using pymatgen
data_Ti10ZnGaSb4
_symmetry_space_group_name_H-M   'P 1'
_cell_length_a   5.19527893
_cell_length_b   7.85662498
_cell_length_c   7.85662537
_cell_angle_alpha   83.71614072
_cell_angle_beta   70.67598647
_cell_angle_gamma   70.67596673
_symmetry_Int_Tables_number   1
_chemical_formula_structural   Ti10ZnGaSb4
_chemical_formula_sum   'Ti10 Zn1 Ga1 Sb4'
_cell_volume   285.57102254
_cell_formula_units_Z   1
loop_
 _symmetry_equiv_pos_site_id
 _symmetry_equiv_pos_as_xyz
  1  'x, y, z'
loop_
 _atom_site_type_symbol
 _atom_site_label
 _atom_site_symmetry_multiplicity
 _atom_site_fract_x
 _atom_site_fract_y
 _atom_site_fract_z
 _atom_site_occupancy
  Ti  Ti0  1  0.250000  0.500010  0.499990  1
  Ti  Ti1  1  0.750000  0.500056  0.499944  1
  Ti  Ti2  1  0.073302  0.142529  0.709240  1
  Ti  Ti3  1  0.924330  0.857412  0.290851  1
  Ti  Ti4  1  0.782073  0.290728  0.142563  1
  Ti  Ti5  1  0.426698  0.290760  0.857471  1
  Ti  Ti6  1  0.215587  0.709266  0.857326  1
  Ti  Ti7  1  0.575670  0.709149  0.142588  1
  Ti  Ti8  1  0.717927  0.857437  0.709272  1
  Ti  Ti9  1  0.284413  0.142674  0.290734  1
  Zn  Zn10  1  0.250000  0.999939  0.000061  1
  Ga  Ga11  1  0.750000  0.999984  0.000016  1
  Sb  Sb12  1  0.164377  0.500009  0.171189  1
  Sb  Sb13  1  0.835652  0.500017  0.828779  1
  Sb  Sb14  1  0.335623  0.828811  0.499991  1
  Sb  Sb15  1  0.664348  0.171221  0.499983  1
