# generated using pymatgen
data_Dy15ThMgCd3Co4
_symmetry_space_group_name_H-M   'P 1'
_cell_length_a   9.49899527
_cell_length_b   9.52135737
_cell_length_c   9.49899600
_cell_angle_alpha   60.07765899
_cell_angle_beta   59.99999745
_cell_angle_gamma   60.07766385
_symmetry_Int_Tables_number   1
_chemical_formula_structural   Dy15ThMgCd3Co4
_chemical_formula_sum   'Dy15 Th1 Mg1 Cd3 Co4'
_cell_volume   608.20227050
_cell_formula_units_Z   1
loop_
 _symmetry_equiv_pos_site_id
 _symmetry_equiv_pos_as_xyz
  1  'x, y, z'
loop_
 _atom_site_type_symbol
 _atom_site_label
 _atom_site_symmetry_multiplicity
 _atom_site_fract_x
 _atom_site_fract_y
 _atom_site_fract_z
 _atom_site_occupancy
  Dy  Dy0  1  0.686446  0.315149  0.686446  1
  Dy  Dy1  1  0.686446  0.315149  0.311959  1
  Dy  Dy2  1  0.935886  0.565176  0.563051  1
  Dy  Dy3  1  0.539179  0.150852  0.154984  1
  Dy  Dy4  1  0.154984  0.150852  0.539179  1
  Dy  Dy5  1  0.935910  0.939276  0.562407  1
  Dy  Dy6  1  0.311910  0.689048  0.311910  1
  Dy  Dy7  1  0.562407  0.939276  0.935910  1
  Dy  Dy8  1  0.562407  0.939276  0.562407  1
  Dy  Dy9  1  0.687132  0.689048  0.311910  1
  Dy  Dy10  1  0.563051  0.565176  0.935886  1
  Dy  Dy11  1  0.935886  0.565176  0.935886  1
  Dy  Dy12  1  0.311910  0.689048  0.687132  1
  Dy  Dy13  1  0.154984  0.150852  0.154984  1
  Dy  Dy14  1  0.311959  0.315149  0.686446  1
  Th  Th15  1  0.156808  0.529576  0.156808  1
  Mg  Mg16  1  0.925354  0.223940  0.925354  1
  Cd  Cd17  1  0.918645  0.918925  0.918645  1
  Cd  Cd18  1  0.918645  0.918925  0.243786  1
  Cd  Cd19  1  0.243786  0.918925  0.918645  1
  Co  Co20  1  0.355783  0.362775  0.925660  1
  Co  Co21  1  0.359041  0.922879  0.359041  1
  Co  Co22  1  0.925660  0.362775  0.355783  1
  Co  Co23  1  0.355783  0.362775  0.355783  1
