# generated using pymatgen
data_AcTb(ZnNi4)2
_symmetry_space_group_name_H-M   'P 1'
_cell_length_a   4.03929900
_cell_length_b   5.08348750
_cell_length_c   8.83126400
_cell_angle_alpha   89.48106668
_cell_angle_beta   90.00000000
_cell_angle_gamma   90.00000000
_symmetry_Int_Tables_number   1
_chemical_formula_structural   AcTb(ZnNi4)2
_chemical_formula_sum   'Ac1 Tb1 Zn2 Ni8'
_cell_volume   181.33131736
_cell_formula_units_Z   1
loop_
 _symmetry_equiv_pos_site_id
 _symmetry_equiv_pos_as_xyz
  1  'x, y, z'
loop_
 _atom_site_type_symbol
 _atom_site_label
 _atom_site_symmetry_multiplicity
 _atom_site_fract_x
 _atom_site_fract_y
 _atom_site_fract_z
 _atom_site_occupancy
  Ac  Ac0  1  0.000000  0.500000  0.500000  1
  Tb  Tb1  1  0.000000  0.000000  0.000000  1
  Zn  Zn2  1  0.500000  0.243945  0.240946  1
  Zn  Zn3  1  0.500000  0.756055  0.759054  1
  Ni  Ni4  1  0.000000  0.985485  0.328705  1
  Ni  Ni5  1  0.000000  0.486976  0.844854  1
  Ni  Ni6  1  0.000000  0.513024  0.155146  1
  Ni  Ni7  1  0.000000  0.014515  0.671295  1
  Ni  Ni8  1  0.500000  0.000000  0.500000  1
  Ni  Ni9  1  0.500000  0.500000  0.000000  1
  Ni  Ni10  1  0.500000  0.754545  0.241030  1
  Ni  Ni11  1  0.500000  0.245455  0.758970  1
