# generated using pymatgen
data_YbNi21B6W
_symmetry_space_group_name_H-M   'P 1'
_cell_length_a   7.44902708
_cell_length_b   7.44902754
_cell_length_c   7.44902800
_cell_angle_alpha   60.00000684
_cell_angle_beta   60.00000481
_cell_angle_gamma   60.00000524
_symmetry_Int_Tables_number   1
_chemical_formula_structural   YbNi21B6W
_chemical_formula_sum   'Yb1 Ni21 B6 W1'
_cell_volume   292.26970256
_cell_formula_units_Z   1
loop_
 _symmetry_equiv_pos_site_id
 _symmetry_equiv_pos_as_xyz
  1  'x, y, z'
loop_
 _atom_site_type_symbol
 _atom_site_label
 _atom_site_symmetry_multiplicity
 _atom_site_fract_x
 _atom_site_fract_y
 _atom_site_fract_z
 _atom_site_occupancy
  Yb  Yb0  1  0.250000  0.250000  0.250000  1
  Ni  Ni1  1  0.000000  0.000000  0.000000  1
  Ni  Ni2  1  0.618661  0.618661  0.144016  1
  Ni  Ni3  1  0.618661  0.144016  0.618661  1
  Ni  Ni4  1  0.144016  0.618661  0.618661  1
  Ni  Ni5  1  0.618661  0.618661  0.618661  1
  Ni  Ni6  1  0.388666  0.388666  0.834004  1
  Ni  Ni7  1  0.388666  0.834004  0.388666  1
  Ni  Ni8  1  0.834004  0.388666  0.388666  1
  Ni  Ni9  1  0.388666  0.388666  0.388666  1
  Ni  Ni10  1  0.996919  0.996919  0.342686  1
  Ni  Ni11  1  0.663475  0.996919  0.342686  1
  Ni  Ni12  1  0.996919  0.663475  0.342686  1
  Ni  Ni13  1  0.663475  0.342686  0.996919  1
  Ni  Ni14  1  0.996919  0.342686  0.996919  1
  Ni  Ni15  1  0.996919  0.342686  0.663475  1
  Ni  Ni16  1  0.342686  0.663475  0.996919  1
  Ni  Ni17  1  0.342686  0.996919  0.663475  1
  Ni  Ni18  1  0.342686  0.996919  0.996919  1
  Ni  Ni19  1  0.996919  0.996919  0.663475  1
  Ni  Ni20  1  0.996919  0.663475  0.996919  1
  Ni  Ni21  1  0.663475  0.996919  0.996919  1
  B  B22  1  0.731074  0.731074  0.268926  1
  B  B23  1  0.268926  0.731074  0.268926  1
  B  B24  1  0.731074  0.268926  0.268926  1
  B  B25  1  0.268926  0.268926  0.731074  1
  B  B26  1  0.731074  0.268926  0.731074  1
  B  B27  1  0.268926  0.731074  0.731074  1
  W  W28  1  0.750000  0.750000  0.750000  1
