# generated using pymatgen
data_Hf18Ta2Fe2Re5Rh
_symmetry_space_group_name_H-M   'P 1'
_cell_length_a   8.46975100
_cell_length_b   8.65668547
_cell_length_c   8.64456986
_cell_angle_alpha   120.05991508
_cell_angle_beta   90.00000000
_cell_angle_gamma   90.00000000
_symmetry_Int_Tables_number   1
_chemical_formula_structural   Hf18Ta2Fe2Re5Rh
_chemical_formula_sum   'Hf18 Ta2 Fe2 Re5 Rh1'
_cell_volume   548.57218287
_cell_formula_units_Z   1
loop_
 _symmetry_equiv_pos_site_id
 _symmetry_equiv_pos_as_xyz
  1  'x, y, z'
loop_
 _atom_site_type_symbol
 _atom_site_label
 _atom_site_symmetry_multiplicity
 _atom_site_fract_x
 _atom_site_fract_y
 _atom_site_fract_z
 _atom_site_occupancy
  Hf  Hf0  1  0.559926  0.798399  0.596758  1
  Hf  Hf1  1  0.558560  0.795731  0.201255  1
  Hf  Hf2  1  0.558526  0.405572  0.201249  1
  Hf  Hf3  1  0.436080  0.203521  0.406995  1
  Hf  Hf4  1  0.440271  0.200850  0.798115  1
  Hf  Hf5  1  0.440149  0.597211  0.798083  1
  Hf  Hf6  1  0.063920  0.203521  0.406995  1
  Hf  Hf7  1  0.059729  0.200850  0.798115  1
  Hf  Hf8  1  0.059851  0.597211  0.798083  1
  Hf  Hf9  1  0.940074  0.798399  0.596758  1
  Hf  Hf10  1  0.941440  0.795731  0.201255  1
  Hf  Hf11  1  0.941474  0.405572  0.201249  1
  Hf  Hf12  1  0.750000  0.458913  0.917741  1
  Hf  Hf13  1  0.750000  0.460603  0.543377  1
  Hf  Hf14  1  0.750000  0.082825  0.543301  1
  Hf  Hf15  1  0.250000  0.540555  0.081118  1
  Hf  Hf16  1  0.250000  0.541209  0.458448  1
  Hf  Hf17  1  0.250000  0.917267  0.458480  1
  Ta  Ta18  1  0.501001  0.001171  0.002271  1
  Ta  Ta19  1  0.998999  0.001171  0.002271  1
  Fe  Fe20  1  0.750000  0.665527  0.330667  1
  Fe  Fe21  1  0.250000  0.332677  0.665578  1
  Re  Re22  1  0.750000  0.111643  0.881179  1
  Re  Re23  1  0.750000  0.769548  0.881277  1
  Re  Re24  1  0.250000  0.885560  0.771212  1
  Re  Re25  1  0.250000  0.886905  0.114481  1
  Re  Re26  1  0.250000  0.227649  0.114543  1
  Rh  Rh27  1  0.750000  0.114209  0.229141  1
