# generated using pymatgen
data_Tb11ThTc3Ir
_symmetry_space_group_name_H-M   'P 1'
_cell_length_a   6.35973719
_cell_length_b   7.40250061
_cell_length_c   9.30678900
_cell_angle_alpha   90.00000000
_cell_angle_beta   90.00000000
_cell_angle_gamma   90.38120480
_symmetry_Int_Tables_number   1
_chemical_formula_structural   Tb11ThTc3Ir
_chemical_formula_sum   'Tb11 Th1 Tc3 Ir1'
_cell_volume   438.13492762
_cell_formula_units_Z   1
loop_
 _symmetry_equiv_pos_site_id
 _symmetry_equiv_pos_as_xyz
  1  'x, y, z'
loop_
 _atom_site_type_symbol
 _atom_site_label
 _atom_site_symmetry_multiplicity
 _atom_site_fract_x
 _atom_site_fract_y
 _atom_site_fract_z
 _atom_site_occupancy
  Tb  Tb0  1  0.334040  0.677103  0.065380  1
  Tb  Tb1  1  0.163737  0.176878  0.436395  1
  Tb  Tb2  1  0.667472  0.319507  0.565704  1
  Tb  Tb3  1  0.832653  0.825800  0.933947  1
  Tb  Tb4  1  0.667472  0.319507  0.934296  1
  Tb  Tb5  1  0.832653  0.825800  0.566053  1
  Tb  Tb6  1  0.334040  0.677103  0.434620  1
  Tb  Tb7  1  0.163737  0.176878  0.063605  1
  Tb  Tb8  1  0.627438  0.042593  0.250000  1
  Tb  Tb9  1  0.135366  0.459147  0.750000  1
  Tb  Tb10  1  0.367261  0.958697  0.750000  1
  Th  Th11  1  0.860791  0.550673  0.250000  1
  Tc  Tc12  1  0.022953  0.870940  0.250000  1
  Tc  Tc13  1  0.482799  0.388736  0.250000  1
  Tc  Tc14  1  0.964681  0.115270  0.750000  1
  Ir  Ir15  1  0.542908  0.615369  0.750000  1
