# generated using pymatgen
data_Dy4Y2TcSb2
_symmetry_space_group_name_H-M   'P 1'
_cell_length_a   8.21563879
_cell_length_b   8.20625003
_cell_length_c   4.24420700
_cell_angle_alpha   90.00000000
_cell_angle_beta   90.00000000
_cell_angle_gamma   119.96220087
_symmetry_Int_Tables_number   1
_chemical_formula_structural   Dy4Y2TcSb2
_chemical_formula_sum   'Dy4 Y2 Tc1 Sb2'
_cell_volume   247.90116204
_cell_formula_units_Z   1
loop_
 _symmetry_equiv_pos_site_id
 _symmetry_equiv_pos_as_xyz
  1  'x, y, z'
loop_
 _atom_site_type_symbol
 _atom_site_label
 _atom_site_symmetry_multiplicity
 _atom_site_fract_x
 _atom_site_fract_y
 _atom_site_fract_z
 _atom_site_occupancy
  Dy  Dy0  1  0.236412  0.999845  0.000000  1
  Dy  Dy1  1  0.763588  0.763433  0.000000  1
  Dy  Dy2  1  0.000000  0.236675  0.000000  1
  Dy  Dy3  1  0.000000  0.601013  0.500000  1
  Y  Y4  1  0.600854  0.000001  0.500000  1
  Y  Y5  1  0.399146  0.399147  0.500000  1
  Tc  Tc6  1  0.000000  0.999815  0.500000  1
  Sb  Sb7  1  0.333365  0.666719  0.000000  1
  Sb  Sb8  1  0.666635  0.333353  0.000000  1
