# generated using pymatgen
data_Yb2SmAl3Si2Ni
_symmetry_space_group_name_H-M   'P 1'
_cell_length_a   6.87928649
_cell_length_b   6.87928624
_cell_length_c   4.28201600
_cell_angle_alpha   90.00000000
_cell_angle_beta   90.00000000
_cell_angle_gamma   120.48036458
_symmetry_Int_Tables_number   1
_chemical_formula_structural   Yb2SmAl3Si2Ni
_chemical_formula_sum   'Yb2 Sm1 Al3 Si2 Ni1'
_cell_volume   174.63974421
_cell_formula_units_Z   1
loop_
 _symmetry_equiv_pos_site_id
 _symmetry_equiv_pos_as_xyz
  1  'x, y, z'
loop_
 _atom_site_type_symbol
 _atom_site_label
 _atom_site_symmetry_multiplicity
 _atom_site_fract_x
 _atom_site_fract_y
 _atom_site_fract_z
 _atom_site_occupancy
  Yb  Yb0  1  0.410439  0.999519  0.000000  1
  Yb  Yb1  1  0.999519  0.410439  0.000000  1
  Sm  Sm2  1  0.587067  0.587067  0.000000  1
  Al  Al3  1  0.766158  0.000078  0.500001  1
  Al  Al4  1  0.233431  0.233432  0.500001  1
  Al  Al5  1  0.000078  0.766158  0.500001  1
  Si  Si6  1  0.667350  0.334964  0.500001  1
  Si  Si7  1  0.334964  0.667351  0.500001  1
  Ni  Ni8  1  0.000993  0.000993  0.000000  1
