# generated using pymatgen
data_Ho3In4NiIr
_symmetry_space_group_name_H-M   'P 1'
_cell_length_a   7.90254100
_cell_length_b   7.90254066
_cell_length_c   3.67688100
_cell_angle_alpha   90.00000000
_cell_angle_beta   90.00000000
_cell_angle_gamma   120.00001399
_symmetry_Int_Tables_number   1
_chemical_formula_structural   Ho3In4NiIr
_chemical_formula_sum   'Ho3 In4 Ni1 Ir1'
_cell_volume   198.85826300
_cell_formula_units_Z   1
loop_
 _symmetry_equiv_pos_site_id
 _symmetry_equiv_pos_as_xyz
  1  'x, y, z'
loop_
 _atom_site_type_symbol
 _atom_site_label
 _atom_site_symmetry_multiplicity
 _atom_site_fract_x
 _atom_site_fract_y
 _atom_site_fract_z
 _atom_site_occupancy
  Ho  Ho0  1  0.047586  0.297920  0.500000  1
  Ho  Ho1  1  0.702080  0.749666  0.500000  1
  Ho  Ho2  1  0.250334  0.952414  0.500000  1
  In  In3  1  0.664036  0.081866  0.000000  1
  In  In4  1  0.918134  0.582171  0.000000  1
  In  In5  1  0.417829  0.335964  0.000000  1
  In  In6  1  0.333333  0.666667  0.000000  1
  Ni  Ni7  1  0.666667  0.333333  0.500000  1
  Ir  Ir8  1  0.000000  0.000000  0.000000  1
