# generated using pymatgen
data_SnSb7Au4
_symmetry_space_group_name_H-M   'P 1'
_cell_length_a   6.78220243
_cell_length_b   6.78220243
_cell_length_c   6.78220243
_cell_angle_alpha   90.10257029
_cell_angle_beta   89.89742971
_cell_angle_gamma   90.10257029
_symmetry_Int_Tables_number   1
_chemical_formula_structural   SnSb7Au4
_chemical_formula_sum   'Sn1 Sb7 Au4'
_cell_volume   311.96807918
_cell_formula_units_Z   1
loop_
 _symmetry_equiv_pos_site_id
 _symmetry_equiv_pos_as_xyz
  1  'x, y, z'
loop_
 _atom_site_type_symbol
 _atom_site_label
 _atom_site_symmetry_multiplicity
 _atom_site_fract_x
 _atom_site_fract_y
 _atom_site_fract_z
 _atom_site_occupancy
  Sn  Sn0  1  0.376390  0.123610  0.876390  1
  Sb  Sb1  1  0.124499  0.877459  0.375433  1
  Sb  Sb2  1  0.875433  0.375501  0.122541  1
  Sb  Sb3  1  0.622541  0.624567  0.624499  1
  Sb  Sb4  1  0.377216  0.375169  0.375757  1
  Sb  Sb5  1  0.124831  0.624243  0.877216  1
  Sb  Sb6  1  0.875757  0.122784  0.624831  1
  Sb  Sb7  1  0.624293  0.875707  0.124293  1
  Au  Au8  1  0.000134  0.499866  0.500134  1
  Au  Au9  1  0.499503  0.500336  0.999739  1
  Au  Au10  1  0.499739  0.000497  0.499664  1
  Au  Au11  1  0.999664  0.000261  0.999503  1
