# generated using pymatgen
data_Er2UFe2Ru
_symmetry_space_group_name_H-M   'P 1'
_cell_length_a   5.29389326
_cell_length_b   4.98693036
_cell_length_c   4.98227226
_cell_angle_alpha   66.85718818
_cell_angle_beta   67.00826501
_cell_angle_gamma   66.97697483
_symmetry_Int_Tables_number   1
_chemical_formula_structural   Er2UFe2Ru
_chemical_formula_sum   'Er2 U1 Fe2 Ru1'
_cell_volume   106.86503668
_cell_formula_units_Z   1
loop_
 _symmetry_equiv_pos_site_id
 _symmetry_equiv_pos_as_xyz
  1  'x, y, z'
loop_
 _atom_site_type_symbol
 _atom_site_label
 _atom_site_symmetry_multiplicity
 _atom_site_fract_x
 _atom_site_fract_y
 _atom_site_fract_z
 _atom_site_occupancy
  Er  Er0  1  0.637551  0.621777  0.621339  1
  Er  Er1  1  0.362449  0.378223  0.378661  1
  U  U2  1  0.000000  0.000000  0.000000  1
  Fe  Fe3  1  0.000000  0.500000  0.000000  1
  Fe  Fe4  1  0.000000  0.000000  0.500000  1
  Ru  Ru5  1  0.500000  0.000000  0.000000  1
