# generated using pymatgen
data_KRbSb2Pd
_symmetry_space_group_name_H-M   'P 1'
_cell_length_a   8.15509687
_cell_length_b   8.15509674
_cell_length_c   6.58582100
_cell_angle_alpha   90.00000000
_cell_angle_beta   90.00000000
_cell_angle_gamma   126.70406272
_symmetry_Int_Tables_number   1
_chemical_formula_structural   KRbSb2Pd
_chemical_formula_sum   'K2 Rb2 Sb4 Pd2'
_cell_volume   351.15436228
_cell_formula_units_Z   2
loop_
 _symmetry_equiv_pos_site_id
 _symmetry_equiv_pos_as_xyz
  1  'x, y, z'
loop_
 _atom_site_type_symbol
 _atom_site_label
 _atom_site_symmetry_multiplicity
 _atom_site_fract_x
 _atom_site_fract_y
 _atom_site_fract_z
 _atom_site_occupancy
  K  K0  1  0.804571  0.195429  0.250000  1
  K  K1  1  0.195429  0.804571  0.750000  1
  Rb  Rb2  1  0.399644  0.600356  0.250000  1
  Rb  Rb3  1  0.600356  0.399644  0.750000  1
  Sb  Sb4  1  0.915822  0.696484  0.250000  1
  Sb  Sb5  1  0.084178  0.303516  0.750000  1
  Sb  Sb6  1  0.303516  0.084178  0.250000  1
  Sb  Sb7  1  0.696484  0.915822  0.750000  1
  Pd  Pd8  1  0.000000  0.000000  0.000000  1
  Pd  Pd9  1  0.000000  0.000000  0.500000  1
