# generated using pymatgen
data_TbHgIr2O7
_symmetry_space_group_name_H-M   'P 1'
_cell_length_a   7.28457247
_cell_length_b   7.28457324
_cell_length_c   7.17646500
_cell_angle_alpha   60.48971985
_cell_angle_beta   60.48971642
_cell_angle_gamma   61.56430245
_symmetry_Int_Tables_number   1
_chemical_formula_structural   TbHgIr2O7
_chemical_formula_sum   'Tb2 Hg2 Ir4 O14'
_cell_volume   274.36487711
_cell_formula_units_Z   2
loop_
 _symmetry_equiv_pos_site_id
 _symmetry_equiv_pos_as_xyz
  1  'x, y, z'
loop_
 _atom_site_type_symbol
 _atom_site_label
 _atom_site_symmetry_multiplicity
 _atom_site_fract_x
 _atom_site_fract_y
 _atom_site_fract_z
 _atom_site_occupancy
  Tb  Tb0  1  0.625000  0.125000  0.125000  1
  Tb  Tb1  1  0.125000  0.625000  0.125000  1
  Hg  Hg2  1  0.125000  0.125000  0.625000  1
  Hg  Hg3  1  0.125000  0.125000  0.125000  1
  Ir  Ir4  1  0.125000  0.625000  0.625000  1
  Ir  Ir5  1  0.625000  0.125000  0.625000  1
  Ir  Ir6  1  0.625000  0.625000  0.125000  1
  Ir  Ir7  1  0.625000  0.625000  0.625000  1
  O  O8  1  0.711509  0.711509  0.288491  1
  O  O9  1  0.304136  0.304136  0.695864  1
  O  O10  1  0.690904  0.300284  0.713682  1
  O  O11  1  0.300284  0.690904  0.295130  1
  O  O12  1  0.300284  0.690904  0.713682  1
  O  O13  1  0.690904  0.300284  0.295130  1
  O  O14  1  0.538491  0.538491  0.961509  1
  O  O15  1  0.945864  0.945864  0.554136  1
  O  O16  1  0.559096  0.949716  0.536318  1
  O  O17  1  0.949716  0.559096  0.954870  1
  O  O18  1  0.949716  0.559096  0.536318  1
  O  O19  1  0.559096  0.949716  0.954870  1
  O  O20  1  0.248807  0.248807  0.251193  1
  O  O21  1  0.001193  0.001193  0.998807  1
