# generated using pymatgen
data_ErTm3Si4(RuRh)2
_symmetry_space_group_name_H-M   'P 1'
_cell_length_a   4.29040200
_cell_length_b   6.87973504
_cell_length_c   7.19314522
_cell_angle_alpha   89.92362167
_cell_angle_beta   90.00000000
_cell_angle_gamma   90.00000000
_symmetry_Int_Tables_number   1
_chemical_formula_structural   ErTm3Si4(RuRh)2
_chemical_formula_sum   'Er1 Tm3 Si4 Ru2 Rh2'
_cell_volume   212.31864882
_cell_formula_units_Z   1
loop_
 _symmetry_equiv_pos_site_id
 _symmetry_equiv_pos_as_xyz
  1  'x, y, z'
loop_
 _atom_site_type_symbol
 _atom_site_label
 _atom_site_symmetry_multiplicity
 _atom_site_fract_x
 _atom_site_fract_y
 _atom_site_fract_z
 _atom_site_occupancy
  Er  Er0  1  0.250000  0.988166  0.811119  1
  Tm  Tm1  1  0.750000  0.011962  0.189477  1
  Tm  Tm2  1  0.250000  0.495008  0.687530  1
  Tm  Tm3  1  0.750000  0.504977  0.312367  1
  Si  Si4  1  0.250000  0.300323  0.100144  1
  Si  Si5  1  0.750000  0.699576  0.900038  1
  Si  Si6  1  0.250000  0.797929  0.384693  1
  Si  Si7  1  0.750000  0.202314  0.615000  1
  Ru  Ru8  1  0.750000  0.345257  0.933769  1
  Ru  Ru9  1  0.250000  0.654511  0.066536  1
  Rh  Rh10  1  0.750000  0.845119  0.564657  1
  Rh  Rh11  1  0.250000  0.154858  0.434668  1
