# generated using pymatgen
data_ErTaB6Os
_symmetry_space_group_name_H-M   'P 1'
_cell_length_a   3.49035600
_cell_length_b   8.97661500
_cell_length_c   11.25199300
_cell_angle_alpha   90.00000000
_cell_angle_beta   90.00000000
_cell_angle_gamma   90.00000000
_symmetry_Int_Tables_number   1
_chemical_formula_structural   ErTaB6Os
_chemical_formula_sum   'Er4 Ta4 B24 Os4'
_cell_volume   352.54274162
_cell_formula_units_Z   4
loop_
 _symmetry_equiv_pos_site_id
 _symmetry_equiv_pos_as_xyz
  1  'x, y, z'
loop_
 _atom_site_type_symbol
 _atom_site_label
 _atom_site_symmetry_multiplicity
 _atom_site_fract_x
 _atom_site_fract_y
 _atom_site_fract_z
 _atom_site_occupancy
  Er  Er0  1  0.000000  0.323599  0.412789  1
  Er  Er1  1  0.000000  0.676401  0.587211  1
  Er  Er2  1  0.000000  0.823599  0.087211  1
  Er  Er3  1  0.000000  0.176401  0.912789  1
  Ta  Ta4  1  0.000000  0.946915  0.377117  1
  Ta  Ta5  1  0.000000  0.053085  0.622884  1
  Ta  Ta6  1  0.000000  0.446915  0.122883  1
  Ta  Ta7  1  0.000000  0.553085  0.877116  1
  B  B8  1  0.500000  0.554451  0.434348  1
  B  B9  1  0.500000  0.445549  0.565652  1
  B  B10  1  0.500000  0.054451  0.065652  1
  B  B11  1  0.500000  0.945549  0.934348  1
  B  B12  1  0.500000  0.754059  0.419505  1
  B  B13  1  0.500000  0.245941  0.580495  1
  B  B14  1  0.500000  0.254059  0.080495  1
  B  B15  1  0.500000  0.745941  0.919505  1
  B  B16  1  0.500000  0.797956  0.262805  1
  B  B17  1  0.500000  0.202044  0.737195  1
  B  B18  1  0.500000  0.297955  0.237195  1
  B  B19  1  0.500000  0.702044  0.762805  1
  B  B20  1  0.500000  0.629541  0.181112  1
  B  B21  1  0.500000  0.370459  0.818888  1
  B  B22  1  0.500000  0.129541  0.318888  1
  B  B23  1  0.500000  0.870459  0.681112  1
  B  B24  1  0.500000  0.980424  0.213645  1
  B  B25  1  0.500000  0.019576  0.786355  1
  B  B26  1  0.500000  0.480424  0.286355  1
  B  B27  1  0.500000  0.519576  0.713645  1
  B  B28  1  0.500000  0.600943  0.027008  1
  B  B29  1  0.500000  0.399057  0.972992  1
  B  B30  1  0.500000  0.100943  0.472992  1
  B  B31  1  0.500000  0.899057  0.527008  1
  Os  Os32  1  0.000000  0.643298  0.317884  1
  Os  Os33  1  0.000000  0.356702  0.682116  1
  Os  Os34  1  0.000000  0.143298  0.182116  1
  Os  Os35  1  0.000000  0.856702  0.817884  1
