# generated using pymatgen
data_Dy8Er8Cd4Ru3Pt
_symmetry_space_group_name_H-M   'P 1'
_cell_length_a   9.57794061
_cell_length_b   9.62141715
_cell_length_c   9.64750000
_cell_angle_alpha   59.91017078
_cell_angle_beta   59.75946076
_cell_angle_gamma   59.73219862
_symmetry_Int_Tables_number   1
_chemical_formula_structural   Dy8Er8Cd4Ru3Pt
_chemical_formula_sum   'Dy8 Er8 Cd4 Ru3 Pt1'
_cell_volume   625.80396938
_cell_formula_units_Z   1
loop_
 _symmetry_equiv_pos_site_id
 _symmetry_equiv_pos_as_xyz
  1  'x, y, z'
loop_
 _atom_site_type_symbol
 _atom_site_label
 _atom_site_symmetry_multiplicity
 _atom_site_fract_x
 _atom_site_fract_y
 _atom_site_fract_z
 _atom_site_occupancy
  Dy  Dy0  1  0.187491  0.188392  0.812052  1
  Dy  Dy1  1  0.815128  0.805862  0.189507  1
  Dy  Dy2  1  0.936870  0.561784  0.562011  1
  Dy  Dy3  1  0.557745  0.938536  0.938487  1
  Dy  Dy4  1  0.557726  0.938540  0.565230  1
  Dy  Dy5  1  0.936861  0.561799  0.939324  1
  Dy  Dy6  1  0.557572  0.565234  0.938603  1
  Dy  Dy7  1  0.937120  0.939310  0.561787  1
  Er  Er8  1  0.345620  0.350629  0.349288  1
  Er  Er9  1  0.345597  0.350620  0.954498  1
  Er  Er10  1  0.345471  0.955098  0.349711  1
  Er  Er11  1  0.964568  0.344721  0.345346  1
  Er  Er12  1  0.814590  0.189104  0.189830  1
  Er  Er13  1  0.187213  0.811361  0.811879  1
  Er  Er14  1  0.187207  0.811352  0.189580  1
  Er  Er15  1  0.814608  0.189110  0.806459  1
  Cd  Cd16  1  0.580268  0.579916  0.580399  1
  Cd  Cd17  1  0.580276  0.579912  0.259408  1
  Cd  Cd18  1  0.580644  0.259122  0.580105  1
  Cd  Cd19  1  0.256183  0.581306  0.581253  1
  Ru  Ru20  1  0.145363  0.138753  0.138304  1
  Ru  Ru21  1  0.145378  0.138756  0.577568  1
  Ru  Ru22  1  0.145873  0.577324  0.138407  1
  Pt  Pt23  1  0.574635  0.143456  0.140960  1
