# generated using pymatgen
data_Sc2B2Ru5W
_symmetry_space_group_name_H-M   'P 1'
_cell_length_a   9.47059600
_cell_length_b   9.47059600
_cell_length_c   3.04808200
_cell_angle_alpha   90.00000000
_cell_angle_beta   90.00000000
_cell_angle_gamma   90.00000000
_symmetry_Int_Tables_number   1
_chemical_formula_structural   Sc2B2Ru5W
_chemical_formula_sum   'Sc4 B4 Ru10 W2'
_cell_volume   273.38914560
_cell_formula_units_Z   2
loop_
 _symmetry_equiv_pos_site_id
 _symmetry_equiv_pos_as_xyz
  1  'x, y, z'
loop_
 _atom_site_type_symbol
 _atom_site_label
 _atom_site_symmetry_multiplicity
 _atom_site_fract_x
 _atom_site_fract_y
 _atom_site_fract_z
 _atom_site_occupancy
  Sc  Sc0  1  0.674129  0.174129  0.000000  1
  Sc  Sc1  1  0.325871  0.825871  0.000000  1
  Sc  Sc2  1  0.174129  0.325871  0.000000  1
  Sc  Sc3  1  0.825871  0.674129  0.000000  1
  B  B4  1  0.121035  0.621035  0.000000  1
  B  B5  1  0.878965  0.378965  0.000000  1
  B  B6  1  0.621035  0.878965  0.000000  1
  B  B7  1  0.378965  0.121035  0.000000  1
  Ru  Ru8  1  0.215621  0.071146  0.500000  1
  Ru  Ru9  1  0.784379  0.928854  0.500000  1
  Ru  Ru10  1  0.071146  0.784379  0.500000  1
  Ru  Ru11  1  0.715621  0.428854  0.500000  1
  Ru  Ru12  1  0.928854  0.215621  0.500000  1
  Ru  Ru13  1  0.284379  0.571146  0.500000  1
  Ru  Ru14  1  0.571146  0.715621  0.500000  1
  Ru  Ru15  1  0.428854  0.284379  0.500000  1
  Ru  Ru16  1  0.500000  0.000000  0.500000  1
  Ru  Ru17  1  0.000000  0.500000  0.500000  1
  W  W18  1  0.000000  0.000000  0.000000  1
  W  W19  1  0.500000  0.500000  0.000000  1
