# generated using pymatgen
data_Nd4Sn3RuF28
_symmetry_space_group_name_H-M   'P 1'
_cell_length_a   5.70393429
_cell_length_b   9.19074479
_cell_length_c   12.33347300
_cell_angle_alpha   62.18783947
_cell_angle_beta   90.05134983
_cell_angle_gamma   90.02933852
_symmetry_Int_Tables_number   1
_chemical_formula_structural   Nd4Sn3RuF28
_chemical_formula_sum   'Nd4 Sn3 Ru1 F28'
_cell_volume   571.87276587
_cell_formula_units_Z   1
loop_
 _symmetry_equiv_pos_site_id
 _symmetry_equiv_pos_as_xyz
  1  'x, y, z'
loop_
 _atom_site_type_symbol
 _atom_site_label
 _atom_site_symmetry_multiplicity
 _atom_site_fract_x
 _atom_site_fract_y
 _atom_site_fract_z
 _atom_site_occupancy
  Nd  Nd0  1  0.258535  0.809495  0.263325  1
  Nd  Nd1  1  0.742110  0.189406  0.733699  1
  Nd  Nd2  1  0.758538  0.187548  0.235358  1
  Nd  Nd3  1  0.242315  0.810375  0.767889  1
  Sn  Sn4  1  0.244971  0.272447  0.958494  1
  Sn  Sn5  1  0.256196  0.272603  0.457504  1
  Sn  Sn6  1  0.744051  0.727302  0.542400  1
  Ru  Ru7  1  0.755787  0.726445  0.043194  1
  F  F8  1  0.941927  0.707614  0.416663  1
  F  F9  1  0.058873  0.293899  0.582717  1
  F  F10  1  0.443704  0.292746  0.083852  1
  F  F11  1  0.561324  0.710740  0.917195  1
  F  F12  1  0.473263  0.728692  0.133370  1
  F  F13  1  0.531094  0.267618  0.866736  1
  F  F14  1  0.970905  0.274247  0.362593  1
  F  F15  1  0.028781  0.728150  0.636478  1
  F  F16  1  0.945662  0.741486  0.171177  1
  F  F17  1  0.051971  0.254350  0.829623  1
  F  F18  1  0.446383  0.258144  0.326531  1
  F  F19  1  0.553522  0.742959  0.672730  1
  F  F20  1  0.767791  0.491530  0.135913  1
  F  F21  1  0.229915  0.515857  0.860998  1
  F  F22  1  0.273748  0.516353  0.360518  1
  F  F23  1  0.725819  0.482912  0.639524  1
  F  F24  1  0.948778  0.282973  0.042609  1
  F  F25  1  0.044614  0.719102  0.957171  1
  F  F26  1  0.447863  0.719303  0.457439  1
  F  F27  1  0.553944  0.281639  0.541109  1
  F  F28  1  0.739729  0.972586  0.447189  1
  F  F29  1  0.260492  0.028264  0.553050  1
  F  F30  1  0.238598  0.027885  0.052708  1
  F  F31  1  0.756213  0.961044  0.952202  1
  F  F32  1  0.590902  0.966773  0.231227  1
  F  F33  1  0.409123  0.035745  0.768636  1
  F  F34  1  0.091253  0.032778  0.268172  1
  F  F35  1  0.911306  0.968987  0.730008  1
