# generated using pymatgen
data_Ca5InHg4
_symmetry_space_group_name_H-M   'P 1'
_cell_length_a   3.85140800
_cell_length_b   3.85140800
_cell_length_c   18.97995600
_cell_angle_alpha   90.00000000
_cell_angle_beta   90.00000000
_cell_angle_gamma   90.00000000
_symmetry_Int_Tables_number   1
_chemical_formula_structural   Ca5InHg4
_chemical_formula_sum   'Ca5 In1 Hg4'
_cell_volume   281.53620853
_cell_formula_units_Z   1
loop_
 _symmetry_equiv_pos_site_id
 _symmetry_equiv_pos_as_xyz
  1  'x, y, z'
loop_
 _atom_site_type_symbol
 _atom_site_label
 _atom_site_symmetry_multiplicity
 _atom_site_fract_x
 _atom_site_fract_y
 _atom_site_fract_z
 _atom_site_occupancy
  Ca  Ca0  1  0.500000  0.500000  0.103427  1
  Ca  Ca1  1  0.500000  0.500000  0.299473  1
  Ca  Ca2  1  0.500000  0.500000  0.500000  1
  Ca  Ca3  1  0.500000  0.500000  0.700527  1
  Ca  Ca4  1  0.500000  0.500000  0.896573  1
  In  In5  1  0.000000  0.000000  0.000000  1
  Hg  Hg6  1  0.000000  0.000000  0.201152  1
  Hg  Hg7  1  0.000000  0.000000  0.400993  1
  Hg  Hg8  1  0.000000  0.000000  0.599007  1
  Hg  Hg9  1  0.000000  0.000000  0.798848  1
