# generated using pymatgen
data_Cs6Ge2Se6O
_symmetry_space_group_name_H-M   'P 1'
_cell_length_a   13.40918600
_cell_length_b   9.54366894
_cell_length_c   9.84025416
_cell_angle_alpha   68.34528807
_cell_angle_beta   90.00000000
_cell_angle_gamma   90.00000000
_symmetry_Int_Tables_number   1
_chemical_formula_structural   Cs6Ge2Se6O
_chemical_formula_sum   'Cs12 Ge4 Se12 O2'
_cell_volume   1170.41055845
_cell_formula_units_Z   2
loop_
 _symmetry_equiv_pos_site_id
 _symmetry_equiv_pos_as_xyz
  1  'x, y, z'
loop_
 _atom_site_type_symbol
 _atom_site_label
 _atom_site_symmetry_multiplicity
 _atom_site_fract_x
 _atom_site_fract_y
 _atom_site_fract_z
 _atom_site_occupancy
  Cs  Cs0  1  0.328127  0.989657  0.007795  1
  Cs  Cs1  1  0.221480  0.694220  0.454384  1
  Cs  Cs2  1  0.560478  0.283359  0.228968  1
  Cs  Cs3  1  0.828127  0.510343  0.992205  1
  Cs  Cs4  1  0.439522  0.716641  0.771032  1
  Cs  Cs5  1  0.778520  0.305780  0.545616  1
  Cs  Cs6  1  0.060478  0.216641  0.771032  1
  Cs  Cs7  1  0.939522  0.783359  0.228968  1
  Cs  Cs8  1  0.278520  0.194220  0.454384  1
  Cs  Cs9  1  0.721480  0.805780  0.545616  1
  Cs  Cs10  1  0.671873  0.010343  0.992205  1
  Cs  Cs11  1  0.171873  0.489657  0.007795  1
  Ge  Ge12  1  0.490377  0.354132  0.679247  1
  Ge  Ge13  1  0.990377  0.145868  0.320753  1
  Ge  Ge14  1  0.509623  0.645868  0.320753  1
  Ge  Ge15  1  0.009623  0.854132  0.679247  1
  Se  Se16  1  0.978490  0.617097  0.658303  1
  Se  Se17  1  0.884655  0.913519  0.822581  1
  Se  Se18  1  0.823757  0.127537  0.244053  1
  Se  Se19  1  0.615345  0.413519  0.822581  1
  Se  Se20  1  0.323757  0.372463  0.755947  1
  Se  Se21  1  0.115345  0.086481  0.177419  1
  Se  Se22  1  0.478490  0.882903  0.341697  1
  Se  Se23  1  0.384655  0.586481  0.177419  1
  Se  Se24  1  0.021510  0.382903  0.341697  1
  Se  Se25  1  0.676243  0.627537  0.244053  1
  Se  Se26  1  0.521510  0.117097  0.658303  1
  Se  Se27  1  0.176243  0.872463  0.755947  1
  O  O28  1  0.500000  0.500000  0.500000  1
  O  O29  1  0.000000  0.000000  0.500000  1
