# generated using pymatgen
data_Nd3(GaCo)2
_symmetry_space_group_name_H-M   'P 1'
_cell_length_a   5.72944200
_cell_length_b   8.09932600
_cell_length_c   12.97543400
_cell_angle_alpha   90.00000000
_cell_angle_beta   90.00000000
_cell_angle_gamma   90.00000000
_symmetry_Int_Tables_number   1
_chemical_formula_structural   Nd3(GaCo)2
_chemical_formula_sum   'Nd12 Ga8 Co8'
_cell_volume   602.12006537
_cell_formula_units_Z   4
loop_
 _symmetry_equiv_pos_site_id
 _symmetry_equiv_pos_as_xyz
  1  'x, y, z'
loop_
 _atom_site_type_symbol
 _atom_site_label
 _atom_site_symmetry_multiplicity
 _atom_site_fract_x
 _atom_site_fract_y
 _atom_site_fract_z
 _atom_site_occupancy
  Nd  Nd0  1  0.357666  0.753678  0.750000  1
  Nd  Nd1  1  0.357666  0.746322  0.250000  1
  Nd  Nd2  1  0.642334  0.253678  0.750000  1
  Nd  Nd3  1  0.642334  0.246322  0.250000  1
  Nd  Nd4  1  0.154426  0.100340  0.403976  1
  Nd  Nd5  1  0.154426  0.399660  0.596024  1
  Nd  Nd6  1  0.845574  0.600340  0.096024  1
  Nd  Nd7  1  0.845574  0.899660  0.903976  1
  Nd  Nd8  1  0.845574  0.899660  0.596024  1
  Nd  Nd9  1  0.845574  0.600340  0.403976  1
  Nd  Nd10  1  0.154426  0.399660  0.903976  1
  Nd  Nd11  1  0.154426  0.100340  0.096024  1
  Ga  Ga12  1  0.845627  0.602052  0.750000  1
  Ga  Ga13  1  0.845627  0.897948  0.250000  1
  Ga  Ga14  1  0.154373  0.102052  0.750000  1
  Ga  Ga15  1  0.154373  0.397948  0.250000  1
  Ga  Ga16  1  0.630028  0.250000  0.000000  1
  Ga  Ga17  1  0.369972  0.750000  0.500000  1
  Ga  Ga18  1  0.369972  0.750000  0.000000  1
  Ga  Ga19  1  0.630028  0.250000  0.500000  1
  Co  Co20  1  0.368425  0.468993  0.411432  1
  Co  Co21  1  0.368425  0.031007  0.588568  1
  Co  Co22  1  0.631575  0.968993  0.088568  1
  Co  Co23  1  0.631575  0.531007  0.911432  1
  Co  Co24  1  0.631575  0.531007  0.588568  1
  Co  Co25  1  0.631575  0.968993  0.411432  1
  Co  Co26  1  0.368425  0.031007  0.911432  1
  Co  Co27  1  0.368425  0.468993  0.088568  1
