# generated using pymatgen
data_Dy2UAl3IrRu2
_symmetry_space_group_name_H-M   'P 1'
_cell_length_a   6.80385952
_cell_length_b   6.80386054
_cell_length_c   4.08380800
_cell_angle_alpha   90.00000000
_cell_angle_beta   90.00000000
_cell_angle_gamma   115.30127542
_symmetry_Int_Tables_number   1
_chemical_formula_structural   Dy2UAl3IrRu2
_chemical_formula_sum   'Dy2 U1 Al3 Ir1 Ru2'
_cell_volume   170.91476152
_cell_formula_units_Z   1
loop_
 _symmetry_equiv_pos_site_id
 _symmetry_equiv_pos_as_xyz
  1  'x, y, z'
loop_
 _atom_site_type_symbol
 _atom_site_label
 _atom_site_symmetry_multiplicity
 _atom_site_fract_x
 _atom_site_fract_y
 _atom_site_fract_z
 _atom_site_occupancy
  Dy  Dy0  1  0.418879  0.003058  0.500000  1
  Dy  Dy1  1  0.003058  0.418879  0.500000  1
  U  U2  1  0.587307  0.587307  0.500000  1
  Al  Al3  1  0.756782  0.013348  0.000000  1
  Al  Al4  1  0.013348  0.756782  0.000000  1
  Al  Al5  1  0.216239  0.216239  0.000000  1
  Ir  Ir6  1  0.981294  0.981294  0.500000  1
  Ru  Ru7  1  0.379724  0.643371  0.000000  1
  Ru  Ru8  1  0.643371  0.379724  0.000000  1
