# generated using pymatgen
data_Nd5Sn2BiP
_symmetry_space_group_name_H-M   'P 1'
_cell_length_a   9.45389847
_cell_length_b   9.45907280
_cell_length_c   6.97646500
_cell_angle_alpha   90.00000000
_cell_angle_beta   90.00000000
_cell_angle_gamma   120.01811309
_symmetry_Int_Tables_number   1
_chemical_formula_structural   Nd5Sn2BiP
_chemical_formula_sum   'Nd10 Sn4 Bi2 P2'
_cell_volume   540.18964825
_cell_formula_units_Z   2
loop_
 _symmetry_equiv_pos_site_id
 _symmetry_equiv_pos_as_xyz
  1  'x, y, z'
loop_
 _atom_site_type_symbol
 _atom_site_label
 _atom_site_symmetry_multiplicity
 _atom_site_fract_x
 _atom_site_fract_y
 _atom_site_fract_z
 _atom_site_occupancy
  Nd  Nd0  1  0.764131  0.759879  0.250000  1
  Nd  Nd1  1  0.235869  0.995749  0.250000  1
  Nd  Nd2  1  0.000000  0.239718  0.250000  1
  Nd  Nd3  1  0.238611  0.238217  0.750000  1
  Nd  Nd4  1  0.761389  0.999607  0.750000  1
  Nd  Nd5  1  0.000000  0.761076  0.750000  1
  Nd  Nd6  1  0.670239  0.336163  0.504025  1
  Nd  Nd7  1  0.329761  0.665926  0.504025  1
  Nd  Nd8  1  0.329761  0.665926  0.995975  1
  Nd  Nd9  1  0.670239  0.336163  0.995975  1
  Sn  Sn10  1  0.000000  0.599285  0.250000  1
  Sn  Sn11  1  0.600184  0.600570  0.750000  1
  Sn  Sn12  1  0.399816  0.000386  0.750000  1
  Sn  Sn13  1  0.000000  0.399967  0.750000  1
  Bi  Bi14  1  0.399695  0.399725  0.250000  1
  Bi  Bi15  1  0.600305  0.000031  0.250000  1
  P  P16  1  0.000000  0.000806  0.499268  1
  P  P17  1  0.000000  0.000806  0.000732  1
