# generated using pymatgen
data_AcTh13Au20
_symmetry_space_group_name_H-M   'P 1'
_cell_length_a   9.05352148
_cell_length_b   9.05352216
_cell_length_c   10.72081500
_cell_angle_alpha   89.98140668
_cell_angle_beta   89.98141301
_cell_angle_gamma   107.33179198
_symmetry_Int_Tables_number   1
_chemical_formula_structural   AcTh13Au20
_chemical_formula_sum   'Ac1 Th13 Au20'
_cell_volume   838.84610299
_cell_formula_units_Z   1
loop_
 _symmetry_equiv_pos_site_id
 _symmetry_equiv_pos_as_xyz
  1  'x, y, z'
loop_
 _atom_site_type_symbol
 _atom_site_label
 _atom_site_symmetry_multiplicity
 _atom_site_fract_x
 _atom_site_fract_y
 _atom_site_fract_z
 _atom_site_occupancy
  Ac  Ac0  1  0.802923  0.802926  0.302887  1
  Th  Th1  1  0.690415  0.310085  0.999699  1
  Th  Th2  1  0.310087  0.690416  0.999701  1
  Th  Th3  1  0.809859  0.188398  0.500071  1
  Th  Th4  1  0.188397  0.809857  0.500073  1
  Th  Th5  1  0.000383  0.000383  0.997333  1
  Th  Th6  1  0.498736  0.498735  0.503182  1
  Th  Th7  1  0.004994  0.498697  0.249856  1
  Th  Th8  1  0.998653  0.498555  0.751352  1
  Th  Th9  1  0.498555  0.998656  0.751352  1
  Th  Th10  1  0.498698  0.004997  0.249855  1
  Th  Th11  1  0.307487  0.307487  0.191638  1
  Th  Th12  1  0.694087  0.694083  0.806747  1
  Th  Th13  1  0.192394  0.192394  0.691869  1
  Au  Au14  1  0.855234  0.154509  0.204405  1
  Au  Au15  1  0.146140  0.849669  0.793902  1
  Au  Au16  1  0.645074  0.349847  0.707154  1
  Au  Au17  1  0.650359  0.357925  0.294676  1
  Au  Au18  1  0.357923  0.650357  0.294674  1
  Au  Au19  1  0.349848  0.645074  0.707152  1
  Au  Au20  1  0.849668  0.146137  0.793902  1
  Au  Au21  1  0.154510  0.855234  0.204404  1
  Au  Au22  1  0.938100  0.645534  0.003021  1
  Au  Au23  1  0.063234  0.354782  0.997106  1
  Au  Au24  1  0.555404  0.855145  0.505334  1
  Au  Au25  1  0.145874  0.440081  0.499195  1
  Au  Au26  1  0.440080  0.145874  0.499198  1
  Au  Au27  1  0.855144  0.555405  0.505340  1
  Au  Au28  1  0.354782  0.063231  0.997107  1
  Au  Au29  1  0.645531  0.938099  0.003023  1
  Au  Au30  1  0.104867  0.104866  0.402366  1
  Au  Au31  1  0.904084  0.904083  0.605494  1
  Au  Au32  1  0.397757  0.397756  0.894116  1
  Au  Au33  1  0.590722  0.590722  0.092813  1
