# generated using pymatgen
data_Ba3As2O
_symmetry_space_group_name_H-M   'P 1'
_cell_length_a   5.07165700
_cell_length_b   11.90199700
_cell_length_c   12.05275100
_cell_angle_alpha   90.00000000
_cell_angle_beta   90.00000000
_cell_angle_gamma   90.00000000
_symmetry_Int_Tables_number   1
_chemical_formula_structural   Ba3As2O
_chemical_formula_sum   'Ba12 As8 O4'
_cell_volume   727.53835730
_cell_formula_units_Z   4
loop_
 _symmetry_equiv_pos_site_id
 _symmetry_equiv_pos_as_xyz
  1  'x, y, z'
loop_
 _atom_site_type_symbol
 _atom_site_label
 _atom_site_symmetry_multiplicity
 _atom_site_fract_x
 _atom_site_fract_y
 _atom_site_fract_z
 _atom_site_occupancy
  Ba  Ba0  1  0.500000  0.242862  0.755061  1
  Ba  Ba1  1  0.500000  0.757138  0.244939  1
  Ba  Ba2  1  0.500000  0.742862  0.744939  1
  Ba  Ba3  1  0.500000  0.257138  0.255061  1
  Ba  Ba4  1  0.000000  0.176174  0.992772  1
  Ba  Ba5  1  0.000000  0.823826  0.007228  1
  Ba  Ba6  1  0.000000  0.676174  0.507228  1
  Ba  Ba7  1  0.000000  0.323826  0.492772  1
  Ba  Ba8  1  0.000000  0.480892  0.828912  1
  Ba  Ba9  1  0.000000  0.519108  0.171088  1
  Ba  Ba10  1  0.000000  0.980892  0.671088  1
  Ba  Ba11  1  0.000000  0.019108  0.328912  1
  As  As12  1  0.500000  0.989192  0.895247  1
  As  As13  1  0.500000  0.489192  0.604753  1
  As  As14  1  0.500000  0.510808  0.395247  1
  As  As15  1  0.500000  0.010808  0.104753  1
  As  As16  1  0.500000  0.104437  0.518314  1
  As  As17  1  0.500000  0.895563  0.481686  1
  As  As18  1  0.500000  0.604437  0.981686  1
  As  As19  1  0.500000  0.395563  0.018314  1
  O  O20  1  0.000000  0.266178  0.796824  1
  O  O21  1  0.000000  0.733822  0.203176  1
  O  O22  1  0.000000  0.766178  0.703176  1
  O  O23  1  0.000000  0.233822  0.296824  1
