# generated using pymatgen
data_Gd4MgSc3Ir4
_symmetry_space_group_name_H-M   'P 1'
_cell_length_a   4.31103700
_cell_length_b   7.30940043
_cell_length_c   8.86544400
_cell_angle_alpha   88.43301673
_cell_angle_beta   90.00000000
_cell_angle_gamma   90.00000000
_symmetry_Int_Tables_number   1
_chemical_formula_structural   Gd4MgSc3Ir4
_chemical_formula_sum   'Gd4 Mg1 Sc3 Ir4'
_cell_volume   279.25538466
_cell_formula_units_Z   1
loop_
 _symmetry_equiv_pos_site_id
 _symmetry_equiv_pos_as_xyz
  1  'x, y, z'
loop_
 _atom_site_type_symbol
 _atom_site_label
 _atom_site_symmetry_multiplicity
 _atom_site_fract_x
 _atom_site_fract_y
 _atom_site_fract_z
 _atom_site_occupancy
  Gd  Gd0  1  0.250000  0.513517  0.169159  1
  Gd  Gd1  1  0.750000  0.472646  0.832409  1
  Gd  Gd2  1  0.750000  0.979846  0.675503  1
  Gd  Gd3  1  0.250000  0.030493  0.319911  1
  Mg  Mg4  1  0.250000  0.141591  0.934249  1
  Sc  Sc5  1  0.250000  0.640274  0.561762  1
  Sc  Sc6  1  0.750000  0.364922  0.437930  1
  Sc  Sc7  1  0.750000  0.862228  0.055992  1
  Ir  Ir8  1  0.250000  0.755068  0.885275  1
  Ir  Ir9  1  0.750000  0.232451  0.130121  1
  Ir  Ir10  1  0.750000  0.741022  0.391664  1
  Ir  Ir11  1  0.250000  0.265941  0.606024  1
