# generated using pymatgen
data_Pu2Al3Pd
_symmetry_space_group_name_H-M   'P 1'
_cell_length_a   5.60830100
_cell_length_b   5.60830063
_cell_length_c   8.56336200
_cell_angle_alpha   90.00000000
_cell_angle_beta   90.00000000
_cell_angle_gamma   119.99999628
_symmetry_Int_Tables_number   1
_chemical_formula_structural   Pu2Al3Pd
_chemical_formula_sum   'Pu4 Al6 Pd2'
_cell_volume   233.25853918
_cell_formula_units_Z   2
loop_
 _symmetry_equiv_pos_site_id
 _symmetry_equiv_pos_as_xyz
  1  'x, y, z'
loop_
 _atom_site_type_symbol
 _atom_site_label
 _atom_site_symmetry_multiplicity
 _atom_site_fract_x
 _atom_site_fract_y
 _atom_site_fract_z
 _atom_site_occupancy
  Pu  Pu0  1  0.333333  0.666667  0.933247  1
  Pu  Pu1  1  0.666667  0.333333  0.066753  1
  Pu  Pu2  1  0.666667  0.333333  0.433247  1
  Pu  Pu3  1  0.333333  0.666667  0.566753  1
  Al  Al4  1  0.833868  0.166132  0.750000  1
  Al  Al5  1  0.833868  0.667736  0.750000  1
  Al  Al6  1  0.332264  0.166132  0.750000  1
  Al  Al7  1  0.166132  0.833868  0.250000  1
  Al  Al8  1  0.166132  0.332264  0.250000  1
  Al  Al9  1  0.667736  0.833868  0.250000  1
  Pd  Pd10  1  0.000000  0.000000  0.000000  1
  Pd  Pd11  1  0.000000  0.000000  0.500000  1
