# generated using pymatgen
data_Lu8Ta11Si16Os
_symmetry_space_group_name_H-M   'P 1'
_cell_length_a   6.77620785
_cell_length_b   6.97599508
_cell_length_c   13.18553235
_cell_angle_alpha   90.11084267
_cell_angle_beta   89.90066512
_cell_angle_gamma   89.96995780
_symmetry_Int_Tables_number   1
_chemical_formula_structural   Lu8Ta11Si16Os
_chemical_formula_sum   'Lu8 Ta11 Si16 Os1'
_cell_volume   623.28837534
_cell_formula_units_Z   1
loop_
 _symmetry_equiv_pos_site_id
 _symmetry_equiv_pos_as_xyz
  1  'x, y, z'
loop_
 _atom_site_type_symbol
 _atom_site_label
 _atom_site_symmetry_multiplicity
 _atom_site_fract_x
 _atom_site_fract_y
 _atom_site_fract_z
 _atom_site_occupancy
  Lu  Lu0  1  0.502019  0.328643  0.094844  1
  Lu  Lu1  1  0.999129  0.173185  0.404279  1
  Lu  Lu2  1  0.498508  0.672960  0.594574  1
  Lu  Lu3  1  0.999772  0.830004  0.905197  1
  Lu  Lu4  1  0.498594  0.671280  0.904444  1
  Lu  Lu5  1  0.998234  0.828082  0.595053  1
  Lu  Lu6  1  0.502274  0.328283  0.405713  1
  Lu  Lu7  1  0.002856  0.172990  0.095554  1
  Ta  Ta8  1  0.839388  0.328981  0.623975  1
  Ta  Ta9  1  0.337126  0.172618  0.872898  1
  Ta  Ta10  1  0.164236  0.673842  0.125399  1
  Ta  Ta11  1  0.660323  0.830300  0.376692  1
  Ta  Ta12  1  0.167700  0.672942  0.378178  1
  Ta  Ta13  1  0.663477  0.826512  0.125408  1
  Ta  Ta14  1  0.835624  0.325146  0.873003  1
  Ta  Ta15  1  0.664025  0.008545  0.749179  1
  Ta  Ta16  1  0.159744  0.492472  0.749220  1
  Ta  Ta17  1  0.337793  0.994848  0.251260  1
  Ta  Ta18  1  0.838890  0.507786  0.250360  1
  Si  Si19  1  0.661011  0.038194  0.543065  1
  Si  Si20  1  0.165090  0.464328  0.958395  1
  Si  Si21  1  0.333784  0.964649  0.040954  1
  Si  Si22  1  0.834635  0.537960  0.458600  1
  Si  Si23  1  0.332871  0.966465  0.461174  1
  Si  Si24  1  0.835303  0.534638  0.040595  1
  Si  Si25  1  0.664253  0.034268  0.959145  1
  Si  Si26  1  0.167186  0.455494  0.543803  1
  Si  Si27  1  0.534591  0.378592  0.746558  1
  Si  Si28  1  0.043670  0.119785  0.747910  1
  Si  Si29  1  0.461059  0.618602  0.251036  1
  Si  Si30  1  0.960473  0.880763  0.251133  1
  Si  Si31  1  0.794392  0.633352  0.749810  1
  Si  Si32  1  0.298102  0.867928  0.750154  1
  Si  Si33  1  0.205108  0.367662  0.250254  1
  Si  Si34  1  0.704323  0.133803  0.249593  1
  Os  Os35  1  0.334440  0.164096  0.622588  1
