# generated using pymatgen
data_YHo2Tm5(WO6)4
_symmetry_space_group_name_H-M   'P 1'
_cell_length_a   5.36066000
_cell_length_b   7.65469421
_cell_length_c   11.38641171
_cell_angle_alpha   75.37394235
_cell_angle_beta   90.00000000
_cell_angle_gamma   90.00000000
_symmetry_Int_Tables_number   1
_chemical_formula_structural   YHo2Tm5(WO6)4
_chemical_formula_sum   'Y1 Ho2 Tm5 W4 O24'
_cell_volume   452.09151118
_cell_formula_units_Z   1
loop_
 _symmetry_equiv_pos_site_id
 _symmetry_equiv_pos_as_xyz
  1  'x, y, z'
loop_
 _atom_site_type_symbol
 _atom_site_label
 _atom_site_symmetry_multiplicity
 _atom_site_fract_x
 _atom_site_fract_y
 _atom_site_fract_z
 _atom_site_occupancy
  Y  Y0  1  0.684108  0.500000  0.250000  1
  Ho  Ho1  1  0.741457  0.000000  0.250000  1
  Ho  Ho2  1  0.315306  0.500000  0.750000  1
  Tm  Tm3  1  0.184346  0.795219  0.077643  1
  Tm  Tm4  1  0.260285  0.000000  0.750000  1
  Tm  Tm5  1  0.184346  0.204781  0.422357  1
  Tm  Tm6  1  0.816364  0.205130  0.921107  1
  Tm  Tm7  1  0.816364  0.794870  0.578893  1
  W  W8  1  0.744410  0.724234  0.884843  1
  W  W9  1  0.255389  0.724142  0.385930  1
  W  W10  1  0.744410  0.275766  0.615157  1
  W  W11  1  0.255389  0.275858  0.114070  1
  O  O12  1  0.852502  0.364579  0.451595  1
  O  O13  1  0.463462  0.847721  0.930623  1
  O  O14  1  0.852502  0.635421  0.048405  1
  O  O15  1  0.019941  0.288457  0.729597  1
  O  O16  1  0.980957  0.286699  0.229794  1
  O  O17  1  0.148696  0.364631  0.950049  1
  O  O18  1  0.639736  0.488785  0.885534  1
  O  O19  1  0.536907  0.153766  0.068307  1
  O  O20  1  0.148696  0.635369  0.549951  1
  O  O21  1  0.019941  0.711543  0.770403  1
  O  O22  1  0.456639  0.207631  0.274011  1
  O  O23  1  0.043586  0.940911  0.397197  1
  O  O24  1  0.463462  0.152279  0.569377  1
  O  O25  1  0.980957  0.713301  0.270206  1
  O  O26  1  0.957881  0.058254  0.605342  1
  O  O27  1  0.540836  0.207068  0.774226  1
  O  O28  1  0.540836  0.792932  0.725774  1
  O  O29  1  0.043586  0.059089  0.102803  1
  O  O30  1  0.639736  0.511215  0.614466  1
  O  O31  1  0.357771  0.511800  0.113214  1
  O  O32  1  0.456639  0.792369  0.225989  1
  O  O33  1  0.357771  0.488200  0.386786  1
  O  O34  1  0.536907  0.846234  0.431693  1
  O  O35  1  0.957881  0.941746  0.894658  1
