# generated using pymatgen
data_Tm4Al18(OsPd)3
_symmetry_space_group_name_H-M   'P 1'
_cell_length_a   7.61640820
_cell_length_b   7.61640789
_cell_length_c   9.55095500
_cell_angle_alpha   89.88183370
_cell_angle_beta   89.88184123
_cell_angle_gamma   120.05031205
_symmetry_Int_Tables_number   1
_chemical_formula_structural   Tm4Al18(OsPd)3
_chemical_formula_sum   'Tm4 Al18 Os3 Pd3'
_cell_volume   479.57190804
_cell_formula_units_Z   1
loop_
 _symmetry_equiv_pos_site_id
 _symmetry_equiv_pos_as_xyz
  1  'x, y, z'
loop_
 _atom_site_type_symbol
 _atom_site_label
 _atom_site_symmetry_multiplicity
 _atom_site_fract_x
 _atom_site_fract_y
 _atom_site_fract_z
 _atom_site_occupancy
  Tm  Tm0  1  0.998085  0.669107  0.251646  1
  Tm  Tm1  1  0.004267  0.332971  0.747593  1
  Tm  Tm2  1  0.667029  0.995733  0.252407  1
  Tm  Tm3  1  0.330893  0.001915  0.748354  1
  Al  Al4  1  0.129419  0.127741  0.250243  1
  Al  Al5  1  0.872259  0.870581  0.749757  1
  Al  Al6  1  0.004809  0.338080  0.074920  1
  Al  Al7  1  0.002237  0.666225  0.924514  1
  Al  Al8  1  0.999585  0.660313  0.572676  1
  Al  Al9  1  0.339687  0.000415  0.427324  1
  Al  Al10  1  0.001050  0.338709  0.426280  1
  Al  Al11  1  0.661291  0.998950  0.573720  1
  Al  Al12  1  0.661920  0.995191  0.925080  1
  Al  Al13  1  0.333775  0.997763  0.075486  1
  Al  Al14  1  0.338819  0.338078  0.551546  1
  Al  Al15  1  0.661922  0.661181  0.448454  1
  Al  Al16  1  0.660203  0.666228  0.057988  1
  Al  Al17  1  0.333772  0.339797  0.942012  1
  Al  Al18  1  0.337317  0.549000  0.250427  1
  Al  Al19  1  0.663698  0.453442  0.746298  1
  Al  Al20  1  0.546558  0.336302  0.253702  1
  Al  Al21  1  0.451000  0.662683  0.749573  1
  Os  Os22  1  0.326931  0.673069  0.000000  1
  Os  Os23  1  0.328108  0.671892  0.500000  1
  Os  Os24  1  0.672802  0.327198  0.500000  1
  Pd  Pd25  1  0.672411  0.327589  0.000000  1
  Pd  Pd26  1  0.999916  0.000084  0.000000  1
  Pd  Pd27  1  0.000234  0.999766  0.500000  1
