# generated using pymatgen
data_Ba4As4Pd3Pt
_symmetry_space_group_name_H-M   'P 1'
_cell_length_a   6.84760500
_cell_length_b   6.84760500
_cell_length_c   6.84760500
_cell_angle_alpha   90.08752168
_cell_angle_beta   89.91247832
_cell_angle_gamma   89.91247832
_symmetry_Int_Tables_number   1
_chemical_formula_structural   Ba4As4Pd3Pt
_chemical_formula_sum   'Ba4 As4 Pd3 Pt1'
_cell_volume   321.08097940
_cell_formula_units_Z   1
loop_
 _symmetry_equiv_pos_site_id
 _symmetry_equiv_pos_as_xyz
  1  'x, y, z'
loop_
 _atom_site_type_symbol
 _atom_site_label
 _atom_site_symmetry_multiplicity
 _atom_site_fract_x
 _atom_site_fract_y
 _atom_site_fract_z
 _atom_site_occupancy
  Ba  Ba0  1  0.609360  0.390640  0.890640  1
  Ba  Ba1  1  0.390432  0.891830  0.607184  1
  Ba  Ba2  1  0.108170  0.107184  0.109568  1
  Ba  Ba3  1  0.892816  0.609568  0.391830  1
  As  As4  1  0.169382  0.325232  0.671684  1
  As  As5  1  0.674768  0.171684  0.330618  1
  As  As6  1  0.326677  0.673323  0.173323  1
  As  As7  1  0.828316  0.830618  0.825232  1
  Pd  Pd8  1  0.597274  0.904095  0.095838  1
  Pd  Pd9  1  0.095905  0.595838  0.902726  1
  Pd  Pd10  1  0.404162  0.402726  0.404095  1
  Pt  Pt11  1  0.902738  0.097262  0.597262  1
