# generated using pymatgen
data_Dy8Si16Tc11Rh
_symmetry_space_group_name_H-M   'P 1'
_cell_length_a   6.78553778
_cell_length_b   6.79326560
_cell_length_c   12.74882182
_cell_angle_alpha   89.67248220
_cell_angle_beta   90.23356813
_cell_angle_gamma   89.97184629
_symmetry_Int_Tables_number   1
_chemical_formula_structural   Dy8Si16Tc11Rh
_chemical_formula_sum   'Dy8 Si16 Tc11 Rh1'
_cell_volume   587.65462378
_cell_formula_units_Z   1
loop_
 _symmetry_equiv_pos_site_id
 _symmetry_equiv_pos_as_xyz
  1  'x, y, z'
loop_
 _atom_site_type_symbol
 _atom_site_label
 _atom_site_symmetry_multiplicity
 _atom_site_fract_x
 _atom_site_fract_y
 _atom_site_fract_z
 _atom_site_occupancy
  Dy  Dy0  1  0.008465  0.659747  0.031172  1
  Dy  Dy1  1  0.992548  0.337848  0.531315  1
  Dy  Dy2  1  0.664187  0.004334  0.970406  1
  Dy  Dy3  1  0.162307  0.495552  0.779808  1
  Dy  Dy4  1  0.835257  0.506892  0.280737  1
  Dy  Dy5  1  0.493974  0.161906  0.218817  1
  Dy  Dy6  1  0.504982  0.838782  0.717900  1
  Dy  Dy7  1  0.334184  0.993988  0.468332  1
  Si  Si8  1  0.017080  0.724849  0.438140  1
  Si  Si9  1  0.993519  0.258849  0.937497  1
  Si  Si10  1  0.722800  0.019884  0.560762  1
  Si  Si11  1  0.225180  0.480705  0.190403  1
  Si  Si12  1  0.765597  0.515577  0.687844  1
  Si  Si13  1  0.483522  0.231034  0.811971  1
  Si  Si14  1  0.517500  0.773642  0.313235  1
  Si  Si15  1  0.270005  0.980544  0.061308  1
  Si  Si16  1  0.807523  0.888125  0.185851  1
  Si  Si17  1  0.303219  0.615328  0.564505  1
  Si  Si18  1  0.690943  0.389642  0.063314  1
  Si  Si19  1  0.613742  0.305460  0.435743  1
  Si  Si20  1  0.392927  0.689238  0.937721  1
  Si  Si21  1  0.112897  0.194233  0.313568  1
  Si  Si22  1  0.192726  0.113028  0.686491  1
  Si  Si23  1  0.888561  0.812383  0.812641  1
  Tc  Tc24  1  0.314250  0.478365  0.381576  1
  Tc  Tc25  1  0.816305  0.019123  0.371586  1
  Tc  Tc26  1  0.980375  0.189389  0.129555  1
  Tc  Tc27  1  0.014242  0.817834  0.629100  1
  Tc  Tc28  1  0.475259  0.315979  0.619557  1
  Tc  Tc29  1  0.193883  0.968927  0.869107  1
  Tc  Tc30  1  0.662297  0.664789  0.499557  1
  Tc  Tc31  1  0.836705  0.165960  0.752952  1
  Tc  Tc32  1  0.162704  0.835583  0.250162  1
  Tc  Tc33  1  0.338337  0.334129  0.995817  1
  Tc  Tc34  1  0.516922  0.684863  0.123445  1
  Rh  Rh35  1  0.695076  0.533491  0.878104  1
