# generated using pymatgen
data_Pa3Co7(P3Ru)2
_symmetry_space_group_name_H-M   'P 1'
_cell_length_a   3.80518800
_cell_length_b   10.63115400
_cell_length_c   12.35392700
_cell_angle_alpha   89.99988143
_cell_angle_beta   90.00006023
_cell_angle_gamma   90.00003773
_symmetry_Int_Tables_number   1
_chemical_formula_structural   Pa3Co7(P3Ru)2
_chemical_formula_sum   'Pa6 Co14 P12 Ru4'
_cell_volume   499.76007544
_cell_formula_units_Z   2
loop_
 _symmetry_equiv_pos_site_id
 _symmetry_equiv_pos_as_xyz
  1  'x, y, z'
loop_
 _atom_site_type_symbol
 _atom_site_label
 _atom_site_symmetry_multiplicity
 _atom_site_fract_x
 _atom_site_fract_y
 _atom_site_fract_z
 _atom_site_occupancy
  Pa  Pa0  1  0.000001  0.500006  0.529285  1
  Pa  Pa1  1  0.500000  0.999981  0.476074  1
  Pa  Pa2  1  0.500000  0.818639  0.203169  1
  Pa  Pa3  1  0.500001  0.181361  0.203167  1
  Pa  Pa4  1  0.999999  0.682099  0.796308  1
  Pa  Pa5  1  0.000000  0.317940  0.796338  1
  Co  Co6  1  0.000000  0.499991  0.981102  1
  Co  Co7  1  0.500000  0.000001  0.018845  1
  Co  Co8  1  0.000000  0.195565  0.570651  1
  Co  Co9  1  0.000000  0.804439  0.570661  1
  Co  Co10  1  0.500000  0.876105  0.712520  1
  Co  Co11  1  0.500000  0.123865  0.712521  1
  Co  Co12  1  0.000000  0.624686  0.284482  1
  Co  Co13  1  0.999999  0.375300  0.284472  1
  Co  Co14  1  0.500000  0.331982  0.989787  1
  Co  Co15  1  0.500000  0.668005  0.989780  1
  Co  Co16  1  0.000000  0.167046  0.009353  1
  Co  Co17  1  0.000000  0.832980  0.009355  1
  Co  Co18  1  0.499999  0.500003  0.702516  1
  Co  Co19  1  0.000000  0.000004  0.296966  1
  P  P20  1  0.500000  0.309288  0.619991  1
  P  P21  1  0.500000  0.690738  0.620007  1
  P  P22  1  0.000000  0.183792  0.383069  1
  P  P23  1  0.000000  0.816218  0.383075  1
  P  P24  1  0.500000  0.499974  0.881701  1
  P  P25  1  0.000000  0.000017  0.117606  1
  P  P26  1  0.500001  0.849339  0.897047  1
  P  P27  1  0.500000  0.150686  0.897076  1
  P  P28  1  0.000001  0.652122  0.101342  1
  P  P29  1  0.000000  0.347866  0.101322  1
  P  P30  1  0.500000  0.500008  0.342168  1
  P  P31  1  0.000000  0.999981  0.656776  1
  Ru  Ru32  1  0.500000  0.301219  0.431038  1
  Ru  Ru33  1  0.500001  0.698782  0.431040  1
  Ru  Ru34  1  0.500000  0.499978  0.155331  1
  Ru  Ru35  1  0.000000  0.999999  0.844061  1
