# generated using pymatgen
data_Er7TmSc12(Ga7Si)2
_symmetry_space_group_name_H-M   'P 1'
_cell_length_a   7.22959631
_cell_length_b   7.45971331
_cell_length_c   14.44290002
_cell_angle_alpha   89.99429990
_cell_angle_beta   89.99913255
_cell_angle_gamma   90.24535138
_symmetry_Int_Tables_number   1
_chemical_formula_structural   Er7TmSc12(Ga7Si)2
_chemical_formula_sum   'Er7 Tm1 Sc12 Ga14 Si2'
_cell_volume   778.90879172
_cell_formula_units_Z   1
loop_
 _symmetry_equiv_pos_site_id
 _symmetry_equiv_pos_as_xyz
  1  'x, y, z'
loop_
 _atom_site_type_symbol
 _atom_site_label
 _atom_site_symmetry_multiplicity
 _atom_site_fract_x
 _atom_site_fract_y
 _atom_site_fract_z
 _atom_site_occupancy
  Er  Er0  1  0.012958  0.178993  0.096392  1
  Er  Er1  1  0.987053  0.820983  0.903622  1
  Er  Er2  1  0.489405  0.678006  0.904449  1
  Er  Er3  1  0.987056  0.820961  0.596357  1
  Er  Er4  1  0.510605  0.322003  0.095597  1
  Er  Er5  1  0.012953  0.178965  0.403643  1
  Er  Er6  1  0.510626  0.322023  0.404441  1
  Tm  Tm7  1  0.489368  0.678074  0.595604  1
  Sc  Sc8  1  0.160824  0.504184  0.749958  1
  Sc  Sc9  1  0.839228  0.495890  0.250002  1
  Sc  Sc10  1  0.336988  0.006169  0.249993  1
  Sc  Sc11  1  0.663002  0.993726  0.749966  1
  Sc  Sc12  1  0.331222  0.174387  0.622963  1
  Sc  Sc13  1  0.668780  0.825628  0.377059  1
  Sc  Sc14  1  0.170607  0.671559  0.376173  1
  Sc  Sc15  1  0.668803  0.825648  0.122974  1
  Sc  Sc16  1  0.829345  0.328489  0.623828  1
  Sc  Sc17  1  0.331190  0.174352  0.877011  1
  Sc  Sc18  1  0.829399  0.328480  0.876133  1
  Sc  Sc19  1  0.170571  0.671552  0.123829  1
  Ga  Ga20  1  0.032534  0.117349  0.750002  1
  Ga  Ga21  1  0.967484  0.882619  0.249998  1
  Ga  Ga22  1  0.467342  0.612172  0.250000  1
  Ga  Ga23  1  0.532651  0.387927  0.749971  1
  Ga  Ga24  1  0.285657  0.870685  0.749954  1
  Ga  Ga25  1  0.714408  0.129214  0.249994  1
  Ga  Ga26  1  0.159884  0.465791  0.540456  1
  Ga  Ga27  1  0.840197  0.534311  0.459586  1
  Ga  Ga28  1  0.338597  0.965104  0.459314  1
  Ga  Ga29  1  0.840239  0.534319  0.040428  1
  Ga  Ga30  1  0.661372  0.034699  0.540741  1
  Ga  Ga31  1  0.159743  0.465714  0.959592  1
  Ga  Ga32  1  0.661430  0.034837  0.959292  1
  Ga  Ga33  1  0.338571  0.965156  0.040714  1
  Si  Si34  1  0.215064  0.373178  0.250006  1
  Si  Si35  1  0.784841  0.626854  0.749956  1
