# generated using pymatgen
data_NdTh3(Ga3Ir)6
_symmetry_space_group_name_H-M   'P 1'
_cell_length_a   7.71604544
_cell_length_b   7.71547604
_cell_length_c   9.51189800
_cell_angle_alpha   90.00000000
_cell_angle_beta   90.00000000
_cell_angle_gamma   119.76500318
_symmetry_Int_Tables_number   1
_chemical_formula_structural   NdTh3(Ga3Ir)6
_chemical_formula_sum   'Nd1 Th3 Ga18 Ir6'
_cell_volume   491.56263020
_cell_formula_units_Z   1
loop_
 _symmetry_equiv_pos_site_id
 _symmetry_equiv_pos_as_xyz
  1  'x, y, z'
loop_
 _atom_site_type_symbol
 _atom_site_label
 _atom_site_symmetry_multiplicity
 _atom_site_fract_x
 _atom_site_fract_y
 _atom_site_fract_z
 _atom_site_occupancy
  Nd  Nd0  1  0.329567  0.004258  0.750000  1
  Th  Th1  1  0.996548  0.670351  0.250000  1
  Th  Th2  1  0.003048  0.330169  0.750000  1
  Th  Th3  1  0.669934  0.996414  0.250000  1
  Ga  Ga4  1  0.135278  0.133706  0.250000  1
  Ga  Ga5  1  0.869363  0.868293  0.750000  1
  Ga  Ga6  1  0.003551  0.335300  0.079705  1
  Ga  Ga7  1  0.000286  0.668207  0.919242  1
  Ga  Ga8  1  0.000286  0.668207  0.580758  1
  Ga  Ga9  1  0.335143  0.002839  0.423709  1
  Ga  Ga10  1  0.003551  0.335300  0.420295  1
  Ga  Ga11  1  0.661668  0.997221  0.580785  1
  Ga  Ga12  1  0.661668  0.997221  0.919215  1
  Ga  Ga13  1  0.335143  0.002839  0.076291  1
  Ga  Ga14  1  0.335158  0.332397  0.560668  1
  Ga  Ga15  1  0.664074  0.664104  0.441240  1
  Ga  Ga16  1  0.664074  0.664104  0.058760  1
  Ga  Ga17  1  0.335158  0.332397  0.939332  1
  Ga  Ga18  1  0.342311  0.543557  0.250000  1
  Ga  Ga19  1  0.656875  0.451985  0.750000  1
  Ga  Ga20  1  0.543705  0.340654  0.250000  1
  Ga  Ga21  1  0.454527  0.659967  0.750000  1
  Ir  Ir22  1  0.675346  0.330114  0.001707  1
  Ir  Ir23  1  0.327479  0.670505  0.001647  1
  Ir  Ir24  1  0.327479  0.670505  0.498353  1
  Ir  Ir25  1  0.675346  0.330114  0.498293  1
  Ir  Ir26  1  0.996717  0.999635  0.002225  1
  Ir  Ir27  1  0.996717  0.999635  0.497775  1
