# generated using pymatgen
data_Er10Sn5Bi
_symmetry_space_group_name_H-M   'P 1'
_cell_length_a   8.92978000
_cell_length_b   8.91619869
_cell_length_c   6.45096400
_cell_angle_alpha   90.00000000
_cell_angle_beta   90.00000000
_cell_angle_gamma   120.05040044
_symmetry_Int_Tables_number   1
_chemical_formula_structural   Er10Sn5Bi
_chemical_formula_sum   'Er10 Sn5 Bi1'
_cell_volume   444.58515654
_cell_formula_units_Z   1
loop_
 _symmetry_equiv_pos_site_id
 _symmetry_equiv_pos_as_xyz
  1  'x, y, z'
loop_
 _atom_site_type_symbol
 _atom_site_label
 _atom_site_symmetry_multiplicity
 _atom_site_fract_x
 _atom_site_fract_y
 _atom_site_fract_z
 _atom_site_occupancy
  Er  Er0  1  0.993565  0.757492  0.750000  1
  Er  Er1  1  0.000714  0.239176  0.250000  1
  Er  Er2  1  0.761538  0.760824  0.250000  1
  Er  Er3  1  0.764984  0.000000  0.750000  1
  Er  Er4  1  0.236073  0.242508  0.750000  1
  Er  Er5  1  0.237879  0.000000  0.250000  1
  Er  Er6  1  0.332692  0.662053  0.498191  1
  Er  Er7  1  0.670640  0.337947  0.001809  1
  Er  Er8  1  0.670640  0.337947  0.498191  1
  Er  Er9  1  0.332692  0.662053  0.001809  1
  Sn  Sn10  1  0.395981  0.393487  0.250000  1
  Sn  Sn11  1  0.002495  0.606513  0.250000  1
  Sn  Sn12  1  0.999070  0.396087  0.750000  1
  Sn  Sn13  1  0.602983  0.603913  0.750000  1
  Sn  Sn14  1  0.605108  0.000000  0.250000  1
  Bi  Bi15  1  0.392944  0.000000  0.750000  1
