# generated using pymatgen
data_Tb3TmAl13Ga5Ir6
_symmetry_space_group_name_H-M   'P 1'
_cell_length_a   7.52734330
_cell_length_b   7.53112608
_cell_length_c   9.56861300
_cell_angle_alpha   90.00000000
_cell_angle_beta   90.00000000
_cell_angle_gamma   119.55203400
_symmetry_Int_Tables_number   1
_chemical_formula_structural   Tb3TmAl13Ga5Ir6
_chemical_formula_sum   'Tb3 Tm1 Al13 Ga5 Ir6'
_cell_volume   471.87180005
_cell_formula_units_Z   1
loop_
 _symmetry_equiv_pos_site_id
 _symmetry_equiv_pos_as_xyz
  1  'x, y, z'
loop_
 _atom_site_type_symbol
 _atom_site_label
 _atom_site_symmetry_multiplicity
 _atom_site_fract_x
 _atom_site_fract_y
 _atom_site_fract_z
 _atom_site_occupancy
  Tb  Tb0  1  0.995129  0.670133  0.250000  1
  Tb  Tb1  1  0.000692  0.326199  0.750000  1
  Tb  Tb2  1  0.670501  0.996532  0.250000  1
  Tm  Tm3  1  0.329940  0.006264  0.750000  1
  Al  Al4  1  0.002882  0.335022  0.072167  1
  Al  Al5  1  0.999617  0.666012  0.926696  1
  Al  Al6  1  0.999617  0.666012  0.573304  1
  Al  Al7  1  0.334898  0.002228  0.428799  1
  Al  Al8  1  0.002882  0.335022  0.427833  1
  Al  Al9  1  0.663882  0.997560  0.573563  1
  Al  Al10  1  0.663882  0.997560  0.926437  1
  Al  Al11  1  0.334898  0.002228  0.071201  1
  Al  Al12  1  0.334114  0.333795  0.557320  1
  Al  Al13  1  0.665674  0.665655  0.447252  1
  Al  Al14  1  0.665674  0.665655  0.052748  1
  Al  Al15  1  0.334114  0.333795  0.942680  1
  Al  Al16  1  0.450863  0.662433  0.750000  1
  Ga  Ga17  1  0.130032  0.129900  0.250000  1
  Ga  Ga18  1  0.869788  0.868349  0.750000  1
  Ga  Ga19  1  0.338822  0.547238  0.250000  1
  Ga  Ga20  1  0.660803  0.453306  0.750000  1
  Ga  Ga21  1  0.546661  0.339074  0.250000  1
  Ir  Ir22  1  0.672162  0.327809  0.999911  1
  Ir  Ir23  1  0.329304  0.671907  0.997452  1
  Ir  Ir24  1  0.329304  0.671907  0.502548  1
  Ir  Ir25  1  0.672162  0.327809  0.500089  1
  Ir  Ir26  1  0.000850  0.000297  0.999565  1
  Ir  Ir27  1  0.000850  0.000297  0.500435  1
