# generated using pymatgen
data_Er10Tl3In5CoPt3
_symmetry_space_group_name_H-M   'P 1'
_cell_length_a   3.57545500
_cell_length_b   8.13570410
_cell_length_c   18.17989754
_cell_angle_alpha   89.97694376
_cell_angle_beta   90.00000000
_cell_angle_gamma   90.00000000
_symmetry_Int_Tables_number   1
_chemical_formula_structural   Er10Tl3In5CoPt3
_chemical_formula_sum   'Er10 Tl3 In5 Co1 Pt3'
_cell_volume   528.83215901
_cell_formula_units_Z   1
loop_
 _symmetry_equiv_pos_site_id
 _symmetry_equiv_pos_as_xyz
  1  'x, y, z'
loop_
 _atom_site_type_symbol
 _atom_site_label
 _atom_site_symmetry_multiplicity
 _atom_site_fract_x
 _atom_site_fract_y
 _atom_site_fract_z
 _atom_site_occupancy
  Er  Er0  1  0.000000  0.111360  0.408202  1
  Er  Er1  1  0.000000  0.883978  0.583445  1
  Er  Er2  1  0.000000  0.383642  0.916102  1
  Er  Er3  1  0.000000  0.618350  0.086863  1
  Er  Er4  1  0.000000  0.233766  0.223998  1
  Er  Er5  1  0.000000  0.758025  0.779061  1
  Er  Er6  1  0.000000  0.257124  0.720941  1
  Er  Er7  1  0.000000  0.756244  0.279306  1
  Er  Er8  1  0.000000  0.998872  0.002095  1
  Er  Er9  1  0.000000  0.501105  0.498149  1
  Tl  Tl10  1  0.500000  0.420691  0.352122  1
  Tl  Tl11  1  0.500000  0.575857  0.646002  1
  Tl  Tl12  1  0.500000  0.075455  0.853816  1
  In  In13  1  0.500000  0.929317  0.152635  1
  In  In14  1  0.500000  0.291654  0.068218  1
  In  In15  1  0.500000  0.706498  0.935041  1
  In  In16  1  0.500000  0.206921  0.563911  1
  In  In17  1  0.500000  0.797108  0.429880  1
  Co  Co18  1  0.500000  0.017305  0.304894  1
  Pt  Pt19  1  0.500000  0.976971  0.694303  1
  Pt  Pt20  1  0.500000  0.476848  0.805249  1
  Pt  Pt21  1  0.500000  0.522909  0.195766  1
