# generated using pymatgen
data_Nd2Sc2SnBi
_symmetry_space_group_name_H-M   'P 1'
_cell_length_a   8.92202557
_cell_length_b   8.92202565
_cell_length_c   8.92202582
_cell_angle_alpha   150.42190727
_cell_angle_beta   150.42190621
_cell_angle_gamma   42.32243982
_symmetry_Int_Tables_number   1
_chemical_formula_structural   Nd2Sc2SnBi
_chemical_formula_sum   'Nd2 Sc2 Sn1 Bi1'
_cell_volume   172.62343008
_cell_formula_units_Z   1
loop_
 _symmetry_equiv_pos_site_id
 _symmetry_equiv_pos_as_xyz
  1  'x, y, z'
loop_
 _atom_site_type_symbol
 _atom_site_label
 _atom_site_symmetry_multiplicity
 _atom_site_fract_x
 _atom_site_fract_y
 _atom_site_fract_z
 _atom_site_occupancy
  Nd  Nd0  1  0.823830  0.823830  0.000000  1
  Nd  Nd1  1  0.171322  0.171322  0.000000  1
  Sc  Sc2  1  0.003524  0.503524  0.500000  1
  Sc  Sc3  1  0.503524  0.003524  0.500000  1
  Sn  Sn4  1  0.625379  0.625379  0.000000  1
  Bi  Bi5  1  0.372422  0.372422  0.000000  1
