# generated using pymatgen
data_NdErIrRhO7
_symmetry_space_group_name_H-M   'P 1'
_cell_length_a   7.29631651
_cell_length_b   7.29631726
_cell_length_c   7.34362100
_cell_angle_alpha   59.78529904
_cell_angle_beta   59.78529560
_cell_angle_gamma   59.64134280
_symmetry_Int_Tables_number   1
_chemical_formula_structural   NdErIrRhO7
_chemical_formula_sum   'Nd2 Er2 Ir2 Rh2 O14'
_cell_volume   274.79082597
_cell_formula_units_Z   2
loop_
 _symmetry_equiv_pos_site_id
 _symmetry_equiv_pos_as_xyz
  1  'x, y, z'
loop_
 _atom_site_type_symbol
 _atom_site_label
 _atom_site_symmetry_multiplicity
 _atom_site_fract_x
 _atom_site_fract_y
 _atom_site_fract_z
 _atom_site_occupancy
  Nd  Nd0  1  0.125000  0.125000  0.625000  1
  Nd  Nd1  1  0.125000  0.125000  0.125000  1
  Er  Er2  1  0.625000  0.125000  0.125000  1
  Er  Er3  1  0.125000  0.625000  0.125000  1
  Ir  Ir4  1  0.625000  0.625000  0.125000  1
  Ir  Ir5  1  0.625000  0.625000  0.625000  1
  Rh  Rh6  1  0.125000  0.625000  0.625000  1
  Rh  Rh7  1  0.625000  0.125000  0.625000  1
  O  O8  1  0.707582  0.707582  0.292418  1
  O  O9  1  0.287349  0.287349  0.712651  1
  O  O10  1  0.699141  0.292918  0.721464  1
  O  O11  1  0.292918  0.699141  0.286478  1
  O  O12  1  0.292918  0.699141  0.721464  1
  O  O13  1  0.699141  0.292918  0.286478  1
  O  O14  1  0.542418  0.542418  0.957582  1
  O  O15  1  0.962651  0.962651  0.537349  1
  O  O16  1  0.550859  0.957082  0.528536  1
  O  O17  1  0.957082  0.550859  0.963522  1
  O  O18  1  0.957082  0.550859  0.528536  1
  O  O19  1  0.550859  0.957082  0.963522  1
  O  O20  1  0.259522  0.259522  0.240478  1
  O  O21  1  0.990478  0.990478  0.009522  1
