# generated using pymatgen
data_CaDyAl19SiOs4
_symmetry_space_group_name_H-M   'P 1'
_cell_length_a   6.88292606
_cell_length_b   6.86630049
_cell_length_c   9.10589100
_cell_angle_alpha   90.00000000
_cell_angle_beta   90.00000000
_cell_angle_gamma   95.92789974
_symmetry_Int_Tables_number   1
_chemical_formula_structural   CaDyAl19SiOs4
_chemical_formula_sum   'Ca1 Dy1 Al19 Si1 Os4'
_cell_volume   428.04536564
_cell_formula_units_Z   1
loop_
 _symmetry_equiv_pos_site_id
 _symmetry_equiv_pos_as_xyz
  1  'x, y, z'
loop_
 _atom_site_type_symbol
 _atom_site_label
 _atom_site_symmetry_multiplicity
 _atom_site_fract_x
 _atom_site_fract_y
 _atom_site_fract_z
 _atom_site_occupancy
  Ca  Ca0  1  0.872823  0.129604  0.750000  1
  Dy  Dy1  1  0.129693  0.874119  0.250000  1
  Al  Al2  1  0.621596  0.376962  0.549913  1
  Al  Al3  1  0.377460  0.623044  0.450858  1
  Al  Al4  1  0.377460  0.623044  0.049142  1
  Al  Al5  1  0.621596  0.376962  0.950087  1
  Al  Al6  1  0.223292  0.225137  0.499451  1
  Al  Al7  1  0.778289  0.778512  0.501233  1
  Al  Al8  1  0.778289  0.778512  0.998767  1
  Al  Al9  1  0.223292  0.225137  0.000549  1
  Al  Al10  1  0.844300  0.158487  0.100205  1
  Al  Al11  1  0.160008  0.842496  0.897882  1
  Al  Al12  1  0.160008  0.842496  0.602118  1
  Al  Al13  1  0.844300  0.158487  0.399795  1
  Al  Al14  1  0.143538  0.416894  0.250000  1
  Al  Al15  1  0.413131  0.140920  0.750000  1
  Al  Al16  1  0.586512  0.856492  0.250000  1
  Al  Al17  1  0.216661  0.482344  0.750000  1
  Al  Al18  1  0.781661  0.520344  0.250000  1
  Al  Al19  1  0.521859  0.775935  0.750000  1
  Al  Al20  1  0.480577  0.219440  0.250000  1
  Si  Si21  1  0.844849  0.566742  0.750000  1
  Os  Os22  1  0.998081  0.503685  0.503599  1
  Os  Os23  1  0.998081  0.503685  0.996401  1
  Os  Os24  1  0.501319  0.000261  0.999351  1
  Os  Os25  1  0.501319  0.000261  0.500649  1
