# generated using pymatgen
data_HoSe23
_symmetry_space_group_name_H-M   'P 1'
_cell_length_a   5.23736715
_cell_length_b   10.19426330
_cell_length_c   16.49151900
_cell_angle_alpha   88.31348080
_cell_angle_beta   86.83688808
_cell_angle_gamma   91.83957472
_symmetry_Int_Tables_number   1
_chemical_formula_structural   HoSe23
_chemical_formula_sum   'Ho1 Se23'
_cell_volume   878.27619183
_cell_formula_units_Z   1
loop_
 _symmetry_equiv_pos_site_id
 _symmetry_equiv_pos_as_xyz
  1  'x, y, z'
loop_
 _atom_site_type_symbol
 _atom_site_label
 _atom_site_symmetry_multiplicity
 _atom_site_fract_x
 _atom_site_fract_y
 _atom_site_fract_z
 _atom_site_occupancy
  Ho  Ho0  1  0.575916  0.430986  0.463330  1
  Se  Se1  1  0.543458  0.850165  0.374004  1
  Se  Se2  1  0.023893  0.321374  0.119043  1
  Se  Se3  1  0.790942  0.186901  0.486748  1
  Se  Se4  1  0.264987  0.786807  0.486910  1
  Se  Se5  1  0.242735  0.274265  0.994539  1
  Se  Se6  1  0.748607  0.712664  0.997377  1
  Se  Se7  1  0.085770  0.363077  0.416206  1
  Se  Se8  1  0.778794  0.653696  0.352486  1
  Se  Se9  1  0.769543  0.133213  0.161755  1
  Se  Se10  1  0.254615  0.869123  0.123415  1
  Se  Se11  1  0.736484  0.595360  0.608090  1
  Se  Se12  1  0.273210  0.309058  0.623273  1
  Se  Se13  1  0.217799  0.863726  0.832351  1
  Se  Se14  1  0.725413  0.120868  0.872124  1
  Se  Se15  1  0.016593  0.671967  0.105119  1
  Se  Se16  1  0.514108  0.801527  0.600743  1
  Se  Se17  1  0.520728  0.119895  0.619693  1
  Se  Se18  1  0.978718  0.669965  0.874005  1
  Se  Se19  1  0.969858  0.317367  0.888017  1
  Se  Se20  1  0.499515  0.496728  0.299945  1
  Se  Se21  1  0.042546  0.988122  0.226886  1
  Se  Se22  1  0.492039  0.459570  0.706803  1
  Se  Se23  1  0.933726  0.003575  0.767142  1
