# generated using pymatgen
data_Y7Sn23OsRh5
_symmetry_space_group_name_H-M   'P 1'
_cell_length_a   9.89394345
_cell_length_b   9.89394533
_cell_length_c   10.09314933
_cell_angle_alpha   90.14125367
_cell_angle_beta   89.85874879
_cell_angle_gamma   120.00635663
_symmetry_Int_Tables_number   1
_chemical_formula_structural   Y7Sn23OsRh5
_chemical_formula_sum   'Y7 Sn23 Os1 Rh5'
_cell_volume   855.59192942
_cell_formula_units_Z   1
loop_
 _symmetry_equiv_pos_site_id
 _symmetry_equiv_pos_as_xyz
  1  'x, y, z'
loop_
 _atom_site_type_symbol
 _atom_site_label
 _atom_site_symmetry_multiplicity
 _atom_site_fract_x
 _atom_site_fract_y
 _atom_site_fract_z
 _atom_site_occupancy
  Y  Y0  1  0.002556  0.997444  0.996667  1
  Y  Y1  1  0.043298  0.522075  0.308094  1
  Y  Y2  1  0.477925  0.956702  0.308094  1
  Y  Y3  1  0.478917  0.521083  0.307965  1
  Y  Y4  1  0.958996  0.480636  0.692878  1
  Y  Y5  1  0.519364  0.041004  0.692878  1
  Y  Y6  1  0.521057  0.478943  0.691975  1
  Sn  Sn7  1  0.999950  0.000050  0.498760  1
  Sn  Sn8  1  0.119038  0.880962  0.280058  1
  Sn  Sn9  1  0.762735  0.881898  0.280604  1
  Sn  Sn10  1  0.118102  0.237265  0.280604  1
  Sn  Sn11  1  0.880857  0.119143  0.720101  1
  Sn  Sn12  1  0.236227  0.118158  0.719756  1
  Sn  Sn13  1  0.881842  0.763773  0.719756  1
  Sn  Sn14  1  0.350726  0.999521  0.000188  1
  Sn  Sn15  1  0.648512  0.648485  0.999972  1
  Sn  Sn16  1  0.999674  0.350936  0.000101  1
  Sn  Sn17  1  0.351515  0.351488  0.999972  1
  Sn  Sn18  1  0.000479  0.649274  0.000188  1
  Sn  Sn19  1  0.649064  0.000326  0.000101  1
  Sn  Sn20  1  0.778678  0.557395  0.454864  1
  Sn  Sn21  1  0.778850  0.221150  0.454295  1
  Sn  Sn22  1  0.442605  0.221322  0.454864  1
  Sn  Sn23  1  0.221173  0.442477  0.545559  1
  Sn  Sn24  1  0.220724  0.779276  0.545023  1
  Sn  Sn25  1  0.557523  0.778827  0.545559  1
  Sn  Sn26  1  0.666592  0.333408  0.181516  1
  Sn  Sn27  1  0.332577  0.667423  0.819146  1
  Sn  Sn28  1  0.666690  0.333310  0.881340  1
  Sn  Sn29  1  0.333842  0.666158  0.120175  1
  Os  Os30  1  0.168222  0.831778  0.801384  1
  Rh  Rh31  1  0.663425  0.831129  0.802027  1
  Rh  Rh32  1  0.168871  0.336575  0.802027  1
  Rh  Rh33  1  0.831461  0.168539  0.197759  1
  Rh  Rh34  1  0.336826  0.168891  0.197876  1
  Rh  Rh35  1  0.831109  0.663174  0.197876  1
