# generated using pymatgen
data_TbEr11Tc3Ru
_symmetry_space_group_name_H-M   'P 1'
_cell_length_a   6.23657900
_cell_length_b   7.34749200
_cell_length_c   9.06117600
_cell_angle_alpha   90.00000000
_cell_angle_beta   90.00000000
_cell_angle_gamma   89.99630708
_symmetry_Int_Tables_number   1
_chemical_formula_structural   TbEr11Tc3Ru
_chemical_formula_sum   'Tb1 Er11 Tc3 Ru1'
_cell_volume   415.21220933
_cell_formula_units_Z   1
loop_
 _symmetry_equiv_pos_site_id
 _symmetry_equiv_pos_as_xyz
  1  'x, y, z'
loop_
 _atom_site_type_symbol
 _atom_site_label
 _atom_site_symmetry_multiplicity
 _atom_site_fract_x
 _atom_site_fract_y
 _atom_site_fract_z
 _atom_site_occupancy
  Tb  Tb0  1  0.129553  0.458734  0.750000  1
  Er  Er1  1  0.336356  0.676948  0.063065  1
  Er  Er2  1  0.161012  0.175655  0.437787  1
  Er  Er3  1  0.661041  0.323982  0.562167  1
  Er  Er4  1  0.837812  0.823657  0.937977  1
  Er  Er5  1  0.661041  0.323982  0.937833  1
  Er  Er6  1  0.837812  0.823657  0.562023  1
  Er  Er7  1  0.336356  0.676948  0.436935  1
  Er  Er8  1  0.161012  0.175655  0.062213  1
  Er  Er9  1  0.873686  0.540076  0.250000  1
  Er  Er10  1  0.626771  0.039481  0.250000  1
  Er  Er11  1  0.374208  0.958100  0.750000  1
  Tc  Tc12  1  0.041160  0.884413  0.250000  1
  Tc  Tc13  1  0.460739  0.386543  0.250000  1
  Tc  Tc14  1  0.960718  0.115474  0.750000  1
  Ru  Ru15  1  0.540721  0.616694  0.750000  1
