# generated using pymatgen
data_Ho3LuGa16Co3
_symmetry_space_group_name_H-M   'P 1'
_cell_length_a   6.01782700
_cell_length_b   6.01480500
_cell_length_c   11.10938100
_cell_angle_alpha   90.00000000
_cell_angle_beta   90.00000000
_cell_angle_gamma   90.00000000
_symmetry_Int_Tables_number   1
_chemical_formula_structural   Ho3LuGa16Co3
_chemical_formula_sum   'Ho3 Lu1 Ga16 Co3'
_cell_volume   402.11577601
_cell_formula_units_Z   1
loop_
 _symmetry_equiv_pos_site_id
 _symmetry_equiv_pos_as_xyz
  1  'x, y, z'
loop_
 _atom_site_type_symbol
 _atom_site_label
 _atom_site_symmetry_multiplicity
 _atom_site_fract_x
 _atom_site_fract_y
 _atom_site_fract_z
 _atom_site_occupancy
  Ho  Ho0  1  0.500000  0.000000  0.194640  1
  Ho  Ho1  1  0.000000  0.500000  0.194726  1
  Ho  Ho2  1  0.500000  0.000000  0.805027  1
  Lu  Lu3  1  0.000000  0.500000  0.804842  1
  Ga  Ga4  1  0.279445  0.280527  0.999427  1
  Ga  Ga5  1  0.720555  0.280527  0.999427  1
  Ga  Ga6  1  0.279445  0.719473  0.999427  1
  Ga  Ga7  1  0.720555  0.719473  0.999427  1
  Ga  Ga8  1  0.500000  0.500000  0.194849  1
  Ga  Ga9  1  0.000000  0.000000  0.217522  1
  Ga  Ga10  1  0.249450  0.249729  0.384710  1
  Ga  Ga11  1  0.750550  0.249729  0.384710  1
  Ga  Ga12  1  0.249450  0.750271  0.384710  1
  Ga  Ga13  1  0.750550  0.750271  0.384710  1
  Ga  Ga14  1  0.248920  0.250219  0.615907  1
  Ga  Ga15  1  0.751080  0.250219  0.615907  1
  Ga  Ga16  1  0.248920  0.749781  0.615907  1
  Ga  Ga17  1  0.751080  0.749781  0.615907  1
  Ga  Ga18  1  0.000000  0.000000  0.782725  1
  Ga  Ga19  1  0.500000  0.500000  0.805087  1
  Co  Co20  1  0.000000  0.000000  0.000139  1
  Co  Co21  1  0.500000  0.000000  0.500085  1
  Co  Co22  1  0.000000  0.500000  0.500187  1
