# generated using pymatgen
data_MnRu3F12
_symmetry_space_group_name_H-M   'P 1'
_cell_length_a   7.68575753
_cell_length_b   5.30635746
_cell_length_c   5.50126051
_cell_angle_alpha   90.36673850
_cell_angle_beta   89.74406270
_cell_angle_gamma   89.73860647
_symmetry_Int_Tables_number   1
_chemical_formula_structural   MnRu3F12
_chemical_formula_sum   'Mn1 Ru3 F12'
_cell_volume   224.35078137
_cell_formula_units_Z   1
loop_
 _symmetry_equiv_pos_site_id
 _symmetry_equiv_pos_as_xyz
  1  'x, y, z'
loop_
 _atom_site_type_symbol
 _atom_site_label
 _atom_site_symmetry_multiplicity
 _atom_site_fract_x
 _atom_site_fract_y
 _atom_site_fract_z
 _atom_site_occupancy
  Mn  Mn0  1  0.500000  0.000000  0.000000  1
  Ru  Ru1  1  0.000000  0.000000  0.000000  1
  Ru  Ru2  1  0.000000  0.500000  0.500000  1
  Ru  Ru3  1  0.500000  0.500000  0.500000  1
  F  F4  1  0.239454  0.114439  0.965731  1
  F  F5  1  0.561847  0.330566  0.195300  1
  F  F6  1  0.942451  0.319307  0.183438  1
  F  F7  1  0.053339  0.821404  0.315607  1
  F  F8  1  0.439855  0.803838  0.320162  1
  F  F9  1  0.749465  0.618351  0.537762  1
  F  F10  1  0.250535  0.381649  0.462238  1
  F  F11  1  0.560145  0.196162  0.679838  1
  F  F12  1  0.946661  0.178596  0.684393  1
  F  F13  1  0.057549  0.680693  0.816562  1
  F  F14  1  0.438153  0.669434  0.804700  1
  F  F15  1  0.760546  0.885561  0.034269  1
