# generated using pymatgen
data_LaPr3Ga9SiPd6
_symmetry_space_group_name_H-M   'P 1'
_cell_length_a   8.62051009
_cell_length_b   8.66598478
_cell_length_c   8.66598298
_cell_angle_alpha   138.61032020
_cell_angle_beta   106.83080445
_cell_angle_gamma   87.79590733
_symmetry_Int_Tables_number   1
_chemical_formula_structural   LaPr3Ga9SiPd6
_chemical_formula_sum   'La1 Pr3 Ga9 Si1 Pd6'
_cell_volume   393.02053317
_cell_formula_units_Z   1
loop_
 _symmetry_equiv_pos_site_id
 _symmetry_equiv_pos_as_xyz
  1  'x, y, z'
loop_
 _atom_site_type_symbol
 _atom_site_label
 _atom_site_symmetry_multiplicity
 _atom_site_fract_x
 _atom_site_fract_y
 _atom_site_fract_z
 _atom_site_occupancy
  La  La0  1  0.865496  0.631785  0.233713  1
  Pr  Pr1  1  0.134951  0.369799  0.765152  1
  Pr  Pr2  1  0.394122  0.131285  0.262837  1
  Pr  Pr3  1  0.599250  0.866760  0.732489  1
  Ga  Ga4  1  0.501680  0.749980  0.248189  1
  Ga  Ga5  1  0.501680  0.253491  0.751700  1
  Ga  Ga6  1  0.228258  0.969217  0.745591  1
  Ga  Ga7  1  0.770688  0.523942  0.750283  1
  Ga  Ga8  1  0.770688  0.020405  0.246746  1
  Ga  Ga9  1  0.228258  0.482667  0.259041  1
  Ga  Ga10  1  0.041878  0.891975  0.149903  1
  Ga  Ga11  1  0.959041  0.105797  0.853245  1
  Ga  Ga12  1  0.739683  0.390601  0.349083  1
  Si  Si13  1  0.256890  0.607941  0.648949  1
  Pd  Pd14  1  0.008606  0.745507  0.749362  1
  Pd  Pd15  1  0.008606  0.259245  0.263099  1
  Pd  Pd16  1  0.255586  0.865490  0.390095  1
  Pd  Pd17  1  0.750146  0.136815  0.613330  1
  Pd  Pd18  1  0.470855  0.362483  0.108371  1
  Pd  Pd19  1  0.513641  0.634817  0.878825  1
