# generated using pymatgen
data_Ca2UCo2Si7
_symmetry_space_group_name_H-M   'P 1'
_cell_length_a   4.01261490
_cell_length_b   4.08581300
_cell_length_c   12.34876365
_cell_angle_alpha   90.00000000
_cell_angle_beta   99.35031298
_cell_angle_gamma   90.00000000
_symmetry_Int_Tables_number   1
_chemical_formula_structural   Ca2UCo2Si7
_chemical_formula_sum   'Ca2 U1 Co2 Si7'
_cell_volume   199.76549878
_cell_formula_units_Z   1
loop_
 _symmetry_equiv_pos_site_id
 _symmetry_equiv_pos_as_xyz
  1  'x, y, z'
loop_
 _atom_site_type_symbol
 _atom_site_label
 _atom_site_symmetry_multiplicity
 _atom_site_fract_x
 _atom_site_fract_y
 _atom_site_fract_z
 _atom_site_occupancy
  Ca  Ca0  1  0.317632  0.000000  0.635265  1
  Ca  Ca1  1  0.682368  0.000000  0.364735  1
  U  U2  1  0.000000  0.500000  0.000000  1
  Co  Co3  1  0.125545  0.500000  0.251089  1
  Co  Co4  1  0.874455  0.500000  0.748911  1
  Si  Si5  1  0.500000  0.000000  0.000000  1
  Si  Si6  1  0.415015  0.500000  0.830030  1
  Si  Si7  1  0.584985  0.500000  0.169970  1
  Si  Si8  1  0.085198  0.000000  0.170396  1
  Si  Si9  1  0.914802  0.000000  0.829604  1
  Si  Si10  1  0.220417  0.500000  0.440833  1
  Si  Si11  1  0.779583  0.500000  0.559167  1
