# generated using pymatgen
data_Ti5Si6Tc6W
_symmetry_space_group_name_H-M   'P 1'
_cell_length_a   7.53938363
_cell_length_b   7.54147175
_cell_length_c   7.53938300
_cell_angle_alpha   126.19148040
_cell_angle_beta   128.88565283
_cell_angle_gamma   77.38744932
_symmetry_Int_Tables_number   1
_chemical_formula_structural   Ti5Si6Tc6W
_chemical_formula_sum   'Ti5 Si6 Tc6 W1'
_cell_volume   261.25904918
_cell_formula_units_Z   1
loop_
 _symmetry_equiv_pos_site_id
 _symmetry_equiv_pos_as_xyz
  1  'x, y, z'
loop_
 _atom_site_type_symbol
 _atom_site_label
 _atom_site_symmetry_multiplicity
 _atom_site_fract_x
 _atom_site_fract_y
 _atom_site_fract_z
 _atom_site_occupancy
  Ti  Ti0  1  0.948800  0.491959  0.043159  1
  Ti  Ti1  1  0.049060  0.095130  0.546070  1
  Ti  Ti2  1  0.450976  0.497111  0.546135  1
  Ti  Ti3  1  0.749980  0.897178  0.647198  1
  Ti  Ti4  1  0.551197  0.094495  0.043297  1
  Si  Si5  1  0.750021  0.497819  0.247799  1
  Si  Si6  1  0.166925  0.162745  0.996389  1
  Si  Si7  1  0.666356  0.162745  0.495819  1
  Si  Si8  1  0.332937  0.829536  0.495735  1
  Si  Si9  1  0.249948  0.498057  0.748108  1
  Si  Si10  1  0.833802  0.829536  0.996600  1
  Tc  Tc11  1  0.498632  0.237760  0.736383  1
  Tc  Tc12  1  0.001378  0.237760  0.239128  1
  Tc  Tc13  1  0.870204  0.497931  0.627473  1
  Tc  Tc14  1  0.629693  0.757195  0.127618  1
  Tc  Tc15  1  0.370456  0.497931  0.127727  1
  Tc  Tc16  1  0.129576  0.757195  0.627502  1
  W  W17  1  0.250056  0.900128  0.150070  1
