# generated using pymatgen
data_Li4Nd2DyHoSi6
_symmetry_space_group_name_H-M   'P 1'
_cell_length_a   9.34015603
_cell_length_b   9.34015492
_cell_length_c   6.79047000
_cell_angle_alpha   90.00000000
_cell_angle_beta   90.00000000
_cell_angle_gamma   153.20140582
_symmetry_Int_Tables_number   1
_chemical_formula_structural   Li4Nd2DyHoSi6
_chemical_formula_sum   'Li4 Nd2 Dy1 Ho1 Si6'
_cell_volume   267.08257378
_cell_formula_units_Z   1
loop_
 _symmetry_equiv_pos_site_id
 _symmetry_equiv_pos_as_xyz
  1  'x, y, z'
loop_
 _atom_site_type_symbol
 _atom_site_label
 _atom_site_symmetry_multiplicity
 _atom_site_fract_x
 _atom_site_fract_y
 _atom_site_fract_z
 _atom_site_occupancy
  Li  Li0  1  0.190247  0.809753  0.059988  1
  Li  Li1  1  0.190247  0.809753  0.440012  1
  Li  Li2  1  0.809707  0.190293  0.939907  1
  Li  Li3  1  0.809707  0.190293  0.560093  1
  Nd  Nd4  1  0.553752  0.446248  0.250000  1
  Nd  Nd5  1  0.446316  0.553684  0.750000  1
  Dy  Dy6  1  0.343971  0.656029  0.250000  1
  Ho  Ho7  1  0.655998  0.344002  0.750000  1
  Si  Si8  1  0.723297  0.276703  0.250000  1
  Si  Si9  1  0.276599  0.723401  0.750000  1
  Si  Si10  1  0.059619  0.940381  0.925241  1
  Si  Si11  1  0.940460  0.059540  0.074662  1
  Si  Si12  1  0.940460  0.059540  0.425338  1
  Si  Si13  1  0.059619  0.940381  0.574759  1
