# generated using pymatgen
data_Ta4OsSe10
_symmetry_space_group_name_H-M   'P 1'
_cell_length_a   9.97156272
_cell_length_b   9.97156281
_cell_length_c   10.53864772
_cell_angle_alpha   87.81844983
_cell_angle_beta   87.81844887
_cell_angle_gamma   19.98163079
_symmetry_Int_Tables_number   1
_chemical_formula_structural   Ta4OsSe10
_chemical_formula_sum   'Ta4 Os1 Se10'
_cell_volume   357.81259881
_cell_formula_units_Z   1
loop_
 _symmetry_equiv_pos_site_id
 _symmetry_equiv_pos_as_xyz
  1  'x, y, z'
loop_
 _atom_site_type_symbol
 _atom_site_label
 _atom_site_symmetry_multiplicity
 _atom_site_fract_x
 _atom_site_fract_y
 _atom_site_fract_z
 _atom_site_occupancy
  Ta  Ta0  1  0.131247  0.131247  0.267568  1
  Ta  Ta1  1  0.336051  0.336051  0.678964  1
  Ta  Ta2  1  0.529954  0.529954  0.065962  1
  Ta  Ta3  1  0.734061  0.734061  0.474481  1
  Os  Os4  1  0.928704  0.928704  0.864164  1
  Se  Se5  1  0.401011  0.401011  0.036123  1
  Se  Se6  1  0.602335  0.602335  0.445570  1
  Se  Se7  1  0.998140  0.998140  0.243606  1
  Se  Se8  1  0.801971  0.801971  0.853980  1
  Se  Se9  1  0.203241  0.203241  0.652718  1
  Se  Se10  1  0.728398  0.728398  0.226417  1
  Se  Se11  1  0.931714  0.931714  0.627212  1
  Se  Se12  1  0.126959  0.126959  0.018121  1
  Se  Se13  1  0.331290  0.331290  0.429726  1
  Se  Se14  1  0.522280  0.522280  0.823788  1
