# generated using pymatgen
data_CaAl3Zn
_symmetry_space_group_name_H-M   'P 1'
_cell_length_a   4.18099705
_cell_length_b   4.18099688
_cell_length_c   6.45000729
_cell_angle_alpha   71.08845106
_cell_angle_beta   71.08845187
_cell_angle_gamma   90.00000329
_symmetry_Int_Tables_number   1
_chemical_formula_structural   CaAl3Zn
_chemical_formula_sum   'Ca1 Al3 Zn1'
_cell_volume   100.20932291
_cell_formula_units_Z   1
loop_
 _symmetry_equiv_pos_site_id
 _symmetry_equiv_pos_as_xyz
  1  'x, y, z'
loop_
 _atom_site_type_symbol
 _atom_site_label
 _atom_site_symmetry_multiplicity
 _atom_site_fract_x
 _atom_site_fract_y
 _atom_site_fract_z
 _atom_site_occupancy
  Ca  Ca0  1  0.001161  0.001161  0.997678  1
  Al  Al1  1  0.747487  0.247487  0.505027  1
  Al  Al2  1  0.247487  0.747487  0.505027  1
  Al  Al3  1  0.393367  0.393367  0.213266  1
  Zn  Zn4  1  0.610498  0.610498  0.779004  1
