# generated using pymatgen
data_Ho16CdHg3Ir3Rh
_symmetry_space_group_name_H-M   'P 1'
_cell_length_a   9.56435238
_cell_length_b   9.56414824
_cell_length_c   9.56435107
_cell_angle_alpha   60.01333378
_cell_angle_beta   60.00364097
_cell_angle_gamma   60.01333704
_symmetry_Int_Tables_number   1
_chemical_formula_structural   Ho16CdHg3Ir3Rh
_chemical_formula_sum   'Ho16 Cd1 Hg3 Ir3 Rh1'
_cell_volume   618.78794069
_cell_formula_units_Z   1
loop_
 _symmetry_equiv_pos_site_id
 _symmetry_equiv_pos_as_xyz
  1  'x, y, z'
loop_
 _atom_site_type_symbol
 _atom_site_label
 _atom_site_symmetry_multiplicity
 _atom_site_fract_x
 _atom_site_fract_y
 _atom_site_fract_z
 _atom_site_occupancy
  Ho  Ho0  1  0.937922  0.938584  0.560505  1
  Ho  Ho1  1  0.561696  0.563261  0.937243  1
  Ho  Ho2  1  0.690164  0.690284  0.311163  1
  Ho  Ho3  1  0.147503  0.554924  0.147503  1
  Ho  Ho4  1  0.689476  0.312317  0.689476  1
  Ho  Ho5  1  0.150449  0.149908  0.150449  1
  Ho  Ho6  1  0.551916  0.148018  0.148779  1
  Ho  Ho7  1  0.690215  0.311071  0.310376  1
  Ho  Ho8  1  0.148779  0.148018  0.551916  1
  Ho  Ho9  1  0.309990  0.690990  0.309990  1
  Ho  Ho10  1  0.311163  0.690284  0.690164  1
  Ho  Ho11  1  0.937243  0.563261  0.561696  1
  Ho  Ho12  1  0.937998  0.561449  0.937998  1
  Ho  Ho13  1  0.562384  0.937626  0.562384  1
  Ho  Ho14  1  0.560505  0.938584  0.937922  1
  Ho  Ho15  1  0.310376  0.311071  0.690215  1
  Cd  Cd16  1  0.919716  0.241294  0.919716  1
  Hg  Hg17  1  0.914513  0.916238  0.254735  1
  Hg  Hg18  1  0.254735  0.916238  0.914513  1
  Hg  Hg19  1  0.914995  0.916600  0.914995  1
  Ir  Ir20  1  0.356863  0.357629  0.926862  1
  Ir  Ir21  1  0.357218  0.926569  0.357218  1
  Ir  Ir22  1  0.926862  0.357629  0.356863  1
  Rh  Rh23  1  0.357318  0.358158  0.357318  1
