# generated using pymatgen
data_Y2Ga3Ni2Pt7
_symmetry_space_group_name_H-M   'P 1'
_cell_length_a   7.76059843
_cell_length_b   7.76059804
_cell_length_c   9.92155695
_cell_angle_alpha   67.04425555
_cell_angle_beta   67.04424569
_cell_angle_gamma   59.26416988
_symmetry_Int_Tables_number   1
_chemical_formula_structural   Y2Ga3Ni2Pt7
_chemical_formula_sum   'Y4 Ga6 Ni4 Pt14'
_cell_volume   459.00286795
_cell_formula_units_Z   2
loop_
 _symmetry_equiv_pos_site_id
 _symmetry_equiv_pos_as_xyz
  1  'x, y, z'
loop_
 _atom_site_type_symbol
 _atom_site_label
 _atom_site_symmetry_multiplicity
 _atom_site_fract_x
 _atom_site_fract_y
 _atom_site_fract_z
 _atom_site_occupancy
  Y  Y0  1  0.419688  0.247153  0.250895  1
  Y  Y1  1  0.580312  0.752847  0.749105  1
  Y  Y2  1  0.752847  0.580312  0.249105  1
  Y  Y3  1  0.247153  0.419688  0.750895  1
  Ga  Ga4  1  0.500000  0.000000  0.000000  1
  Ga  Ga5  1  0.000000  0.500000  0.500000  1
  Ga  Ga6  1  0.640045  0.178473  0.506815  1
  Ga  Ga7  1  0.359955  0.821527  0.493185  1
  Ga  Ga8  1  0.821527  0.359955  0.993185  1
  Ga  Ga9  1  0.178473  0.640045  0.006815  1
  Ni  Ni10  1  0.278062  0.914685  0.251118  1
  Ni  Ni11  1  0.721938  0.085315  0.748882  1
  Ni  Ni12  1  0.085315  0.721938  0.248882  1
  Ni  Ni13  1  0.914685  0.278062  0.751118  1
  Pt  Pt14  1  0.460615  0.649102  0.085825  1
  Pt  Pt15  1  0.539385  0.350898  0.914175  1
  Pt  Pt16  1  0.350898  0.539385  0.414175  1
  Pt  Pt17  1  0.649102  0.460615  0.585825  1
  Pt  Pt18  1  0.879493  0.120507  0.250000  1
  Pt  Pt19  1  0.120507  0.879493  0.750000  1
  Pt  Pt20  1  0.815444  0.964591  0.074914  1
  Pt  Pt21  1  0.184556  0.035409  0.925086  1
  Pt  Pt22  1  0.035409  0.184556  0.425086  1
  Pt  Pt23  1  0.964591  0.815444  0.574914  1
  Pt  Pt24  1  0.703062  0.853229  0.413441  1
  Pt  Pt25  1  0.296938  0.146771  0.586559  1
  Pt  Pt26  1  0.146771  0.296938  0.086559  1
  Pt  Pt27  1  0.853229  0.703062  0.913441  1
