# generated using pymatgen
data_Tm6Al16Os6Ru
_symmetry_space_group_name_H-M   'P 1'
_cell_length_a   8.90122580
_cell_length_b   8.90113069
_cell_length_c   8.90125700
_cell_angle_alpha   60.00063774
_cell_angle_beta   59.99894219
_cell_angle_gamma   60.00059771
_symmetry_Int_Tables_number   1
_chemical_formula_structural   Tm6Al16Os6Ru
_chemical_formula_sum   'Tm6 Al16 Os6 Ru1'
_cell_volume   498.69144844
_cell_formula_units_Z   1
loop_
 _symmetry_equiv_pos_site_id
 _symmetry_equiv_pos_as_xyz
  1  'x, y, z'
loop_
 _atom_site_type_symbol
 _atom_site_label
 _atom_site_symmetry_multiplicity
 _atom_site_fract_x
 _atom_site_fract_y
 _atom_site_fract_z
 _atom_site_occupancy
  Tm  Tm0  1  0.711296  0.711306  0.288699  1
  Tm  Tm1  1  0.288694  0.711312  0.288683  1
  Tm  Tm2  1  0.711297  0.288698  0.288698  1
  Tm  Tm3  1  0.288704  0.288694  0.711301  1
  Tm  Tm4  1  0.711306  0.288688  0.711317  1
  Tm  Tm5  1  0.288703  0.711302  0.711302  1
  Al  Al6  1  0.879016  0.878993  0.362996  1
  Al  Al7  1  0.878993  0.362997  0.878993  1
  Al  Al8  1  0.363003  0.878992  0.879014  1
  Al  Al9  1  0.878992  0.879017  0.878994  1
  Al  Al10  1  0.120984  0.121007  0.637004  1
  Al  Al11  1  0.121007  0.637003  0.121007  1
  Al  Al12  1  0.636997  0.121008  0.120986  1
  Al  Al13  1  0.121008  0.120983  0.121006  1
  Al  Al14  1  0.666955  0.667011  0.999027  1
  Al  Al15  1  0.666997  0.999030  0.667009  1
  Al  Al16  1  0.999037  0.667003  0.666955  1
  Al  Al17  1  0.667000  0.666964  0.667006  1
  Al  Al18  1  0.333045  0.332989  0.000973  1
  Al  Al19  1  0.333003  0.000970  0.332991  1
  Al  Al20  1  0.000963  0.332997  0.333045  1
  Al  Al21  1  0.333000  0.333036  0.332994  1
  Os  Os22  1  0.000000  0.000000  0.500000  1
  Os  Os23  1  0.500000  0.000000  0.500000  1
  Os  Os24  1  0.000000  0.500000  0.500000  1
  Os  Os25  1  0.500000  0.500000  0.000000  1
  Os  Os26  1  0.000000  0.500000  0.000000  1
  Os  Os27  1  0.500000  0.000000  0.000000  1
  Ru  Ru28  1  0.000000  0.000000  0.000000  1
