# generated using pymatgen
data_Y5Lu5(PPb3)2
_symmetry_space_group_name_H-M   'P 1'
_cell_length_a   9.08847932
_cell_length_b   9.08847996
_cell_length_c   6.71309300
_cell_angle_alpha   90.00000000
_cell_angle_beta   90.00000000
_cell_angle_gamma   120.09793168
_symmetry_Int_Tables_number   1
_chemical_formula_structural   Y5Lu5(PPb3)2
_chemical_formula_sum   'Y5 Lu5 P2 Pb6'
_cell_volume   479.74046718
_cell_formula_units_Z   1
loop_
 _symmetry_equiv_pos_site_id
 _symmetry_equiv_pos_as_xyz
  1  'x, y, z'
loop_
 _atom_site_type_symbol
 _atom_site_label
 _atom_site_symmetry_multiplicity
 _atom_site_fract_x
 _atom_site_fract_y
 _atom_site_fract_z
 _atom_site_occupancy
  Y  Y0  1  0.239827  0.999959  0.250000  1
  Y  Y1  1  0.759807  0.999488  0.750000  1
  Y  Y2  1  0.999959  0.239827  0.250000  1
  Y  Y3  1  0.999488  0.759807  0.750000  1
  Y  Y4  1  0.239123  0.239123  0.750000  1
  Lu  Lu5  1  0.333685  0.666807  0.499864  1
  Lu  Lu6  1  0.666807  0.333685  0.499864  1
  Lu  Lu7  1  0.666807  0.333685  0.000136  1
  Lu  Lu8  1  0.333685  0.666807  0.000136  1
  Lu  Lu9  1  0.763463  0.763463  0.250000  1
  P  P10  1  0.998177  0.998177  0.001467  1
  P  P11  1  0.998177  0.998177  0.498533  1
  Pb  Pb12  1  0.401013  0.999984  0.750000  1
  Pb  Pb13  1  0.999984  0.401013  0.750000  1
  Pb  Pb14  1  0.402239  0.402239  0.250000  1
  Pb  Pb15  1  0.599634  0.999117  0.250000  1
  Pb  Pb16  1  0.999117  0.599634  0.250000  1
  Pb  Pb17  1  0.599006  0.599006  0.750000  1
