# generated using pymatgen
data_Tl3AuS13
_symmetry_space_group_name_H-M   'P 1'
_cell_length_a   4.95426400
_cell_length_b   13.37657770
_cell_length_c   14.77819794
_cell_angle_alpha   88.01458440
_cell_angle_beta   90.00000000
_cell_angle_gamma   90.00000000
_symmetry_Int_Tables_number   1
_chemical_formula_structural   Tl3AuS13
_chemical_formula_sum   'Tl6 Au2 S26'
_cell_volume   978.77945827
_cell_formula_units_Z   2
loop_
 _symmetry_equiv_pos_site_id
 _symmetry_equiv_pos_as_xyz
  1  'x, y, z'
loop_
 _atom_site_type_symbol
 _atom_site_label
 _atom_site_symmetry_multiplicity
 _atom_site_fract_x
 _atom_site_fract_y
 _atom_site_fract_z
 _atom_site_occupancy
  Tl  Tl0  1  0.208073  0.186472  0.715597  1
  Tl  Tl1  1  0.208073  0.313528  0.284403  1
  Tl  Tl2  1  0.108467  0.250000  0.000000  1
  Tl  Tl3  1  0.891533  0.750000  0.000000  1
  Tl  Tl4  1  0.791927  0.813528  0.284403  1
  Tl  Tl5  1  0.791927  0.686472  0.715597  1
  Au  Au6  1  0.000000  0.500000  0.500000  1
  Au  Au7  1  0.000000  0.000000  0.500000  1
  S  S8  1  0.293729  0.548836  0.621207  1
  S  S9  1  0.652427  0.557182  0.277110  1
  S  S10  1  0.347573  0.057182  0.277110  1
  S  S11  1  0.347573  0.442818  0.722890  1
  S  S12  1  0.889519  0.517536  0.165882  1
  S  S13  1  0.889519  0.982464  0.834118  1
  S  S14  1  0.110481  0.482464  0.834118  1
  S  S15  1  0.110481  0.017536  0.165882  1
  S  S16  1  0.664440  0.418685  0.092848  1
  S  S17  1  0.652427  0.942818  0.722890  1
  S  S18  1  0.335560  0.581315  0.907152  1
  S  S19  1  0.335560  0.918685  0.092848  1
  S  S20  1  0.699395  0.275390  0.148327  1
  S  S21  1  0.699395  0.224610  0.851673  1
  S  S22  1  0.300605  0.724610  0.851673  1
  S  S23  1  0.300605  0.775390  0.148327  1
  S  S24  1  0.090014  0.658888  0.422964  1
  S  S25  1  0.090014  0.841112  0.577036  1
  S  S26  1  0.909986  0.341112  0.577036  1
  S  S27  1  0.909986  0.158888  0.422964  1
  S  S28  1  0.673115  0.250000  0.500000  1
  S  S29  1  0.326885  0.750000  0.500000  1
  S  S30  1  0.706271  0.451164  0.378793  1
  S  S31  1  0.706271  0.048836  0.621207  1
  S  S32  1  0.664440  0.081315  0.907152  1
  S  S33  1  0.293729  0.951164  0.378793  1
