# generated using pymatgen
data_Y3HfZr6(Si5Ir2)4
_symmetry_space_group_name_H-M   'P 1'
_cell_length_a   12.48341922
_cell_length_b   12.48187946
_cell_length_c   4.14470800
_cell_angle_alpha   90.00000000
_cell_angle_beta   90.00000000
_cell_angle_gamma   90.16281281
_symmetry_Int_Tables_number   1
_chemical_formula_structural   Y3HfZr6(Si5Ir2)4
_chemical_formula_sum   'Y3 Hf1 Zr6 Si20 Ir8'
_cell_volume   645.81142720
_cell_formula_units_Z   1
loop_
 _symmetry_equiv_pos_site_id
 _symmetry_equiv_pos_as_xyz
  1  'x, y, z'
loop_
 _atom_site_type_symbol
 _atom_site_label
 _atom_site_symmetry_multiplicity
 _atom_site_fract_x
 _atom_site_fract_y
 _atom_site_fract_z
 _atom_site_occupancy
  Y  Y0  1  0.114915  0.614859  0.500000  1
  Y  Y1  1  0.384136  0.116124  0.500000  1
  Y  Y2  1  0.615856  0.884438  0.500000  1
  Hf  Hf3  1  0.173638  0.324420  0.500000  1
  Zr  Zr4  1  0.499705  0.500430  0.000000  1
  Zr  Zr5  1  0.000508  0.999941  0.000000  1
  Zr  Zr6  1  0.678179  0.178002  0.500000  1
  Zr  Zr7  1  0.324405  0.824205  0.500000  1
  Zr  Zr8  1  0.823958  0.674063  0.500000  1
  Zr  Zr9  1  0.883074  0.383002  0.500000  1
  Si  Si10  1  0.567872  0.067987  0.000000  1
  Si  Si11  1  0.433173  0.933319  0.000000  1
  Si  Si12  1  0.065186  0.432574  0.000000  1
  Si  Si13  1  0.932825  0.564846  0.000000  1
  Si  Si14  1  0.664347  0.698758  0.000000  1
  Si  Si15  1  0.335433  0.300038  0.000000  1
  Si  Si16  1  0.164340  0.800036  0.000000  1
  Si  Si17  1  0.837409  0.201927  0.000000  1
  Si  Si18  1  0.299869  0.663789  0.000000  1
  Si  Si19  1  0.701801  0.336854  0.000000  1
  Si  Si20  1  0.199131  0.164870  0.000000  1
  Si  Si21  1  0.800448  0.835919  0.000000  1
  Si  Si22  1  0.653730  0.504626  0.500000  1
  Si  Si23  1  0.346761  0.491804  0.500000  1
  Si  Si24  1  0.152905  0.993376  0.500000  1
  Si  Si25  1  0.847623  0.007088  0.500000  1
  Si  Si26  1  0.493342  0.652915  0.500000  1
  Si  Si27  1  0.506998  0.347619  0.500000  1
  Si  Si28  1  0.004662  0.153983  0.500000  1
  Si  Si29  1  0.991831  0.846997  0.500000  1
  Ir  Ir30  1  0.744754  0.520306  0.000000  1
  Ir  Ir31  1  0.255135  0.477213  0.000000  1
  Ir  Ir32  1  0.243260  0.979452  0.000000  1
  Ir  Ir33  1  0.757639  0.022505  0.000000  1
  Ir  Ir34  1  0.479011  0.743206  0.000000  1
  Ir  Ir35  1  0.522079  0.257570  0.000000  1
  Ir  Ir36  1  0.021581  0.245279  0.000000  1
  Ir  Ir37  1  0.978483  0.755663  0.000000  1
