# generated using pymatgen
data_RbHo(CuSb)2
_symmetry_space_group_name_H-M   'P 1'
_cell_length_a   4.46150900
_cell_length_b   9.38634711
_cell_length_c   7.70900037
_cell_angle_alpha   90.17432311
_cell_angle_beta   90.00000000
_cell_angle_gamma   90.00000000
_symmetry_Int_Tables_number   1
_chemical_formula_structural   RbHo(CuSb)2
_chemical_formula_sum   'Rb2 Ho2 Cu4 Sb4'
_cell_volume   322.83041220
_cell_formula_units_Z   2
loop_
 _symmetry_equiv_pos_site_id
 _symmetry_equiv_pos_as_xyz
  1  'x, y, z'
loop_
 _atom_site_type_symbol
 _atom_site_label
 _atom_site_symmetry_multiplicity
 _atom_site_fract_x
 _atom_site_fract_y
 _atom_site_fract_z
 _atom_site_occupancy
  Rb  Rb0  1  0.250000  0.499741  0.249083  1
  Rb  Rb1  1  0.750000  0.500259  0.750917  1
  Ho  Ho2  1  0.250000  0.000148  0.251289  1
  Ho  Ho3  1  0.750000  0.999852  0.748711  1
  Cu  Cu4  1  0.250000  0.828881  0.583192  1
  Cu  Cu5  1  0.750000  0.171119  0.416808  1
  Cu  Cu6  1  0.250000  0.168143  0.917005  1
  Cu  Cu7  1  0.750000  0.831857  0.082995  1
  Sb  Sb8  1  0.750000  0.792069  0.416441  1
  Sb  Sb9  1  0.250000  0.207931  0.583559  1
  Sb  Sb10  1  0.750000  0.206340  0.083065  1
  Sb  Sb11  1  0.250000  0.793660  0.916935  1
