# generated using pymatgen
data_Sr5Fe4OsO15
_symmetry_space_group_name_H-M   'P 1'
_cell_length_a   5.60458091
_cell_length_b   6.90280571
_cell_length_c   8.93822442
_cell_angle_alpha   105.21671687
_cell_angle_beta   71.69377317
_cell_angle_gamma   89.92634181
_symmetry_Int_Tables_number   1
_chemical_formula_structural   Sr5Fe4OsO15
_chemical_formula_sum   'Sr5 Fe4 Os1 O15'
_cell_volume   315.45992169
_cell_formula_units_Z   1
loop_
 _symmetry_equiv_pos_site_id
 _symmetry_equiv_pos_as_xyz
  1  'x, y, z'
loop_
 _atom_site_type_symbol
 _atom_site_label
 _atom_site_symmetry_multiplicity
 _atom_site_fract_x
 _atom_site_fract_y
 _atom_site_fract_z
 _atom_site_occupancy
  Sr  Sr0  1  0.600029  0.600053  0.800058  1
  Sr  Sr1  1  0.209060  0.205454  0.581736  1
  Sr  Sr2  1  0.990755  0.994583  0.018389  1
  Sr  Sr3  1  0.392949  0.411311  0.213773  1
  Sr  Sr4  1  0.806918  0.788561  0.386157  1
  Fe  Fe5  1  0.999300  0.512952  0.001343  1
  Fe  Fe6  1  0.201308  0.687002  0.598266  1
  Fe  Fe7  1  0.394191  0.898133  0.211599  1
  Fe  Fe8  1  0.805847  0.301867  0.388681  1
  Os  Os9  1  0.600082  0.100087  0.799914  1
  O  O10  1  0.100187  0.600080  0.800010  1
  O  O11  1  0.100040  0.100057  0.300130  1
  O  O12  1  0.600048  0.099890  0.300030  1
  O  O13  1  0.700179  0.175391  0.602078  1
  O  O14  1  0.499707  0.024562  0.997813  1
  O  O15  1  0.907772  0.394426  0.186566  1
  O  O16  1  0.292329  0.805407  0.413438  1
  O  O17  1  0.504539  0.493686  0.501855  1
  O  O18  1  0.695328  0.706192  0.098086  1
  O  O19  1  0.993630  0.494375  0.502202  1
  O  O20  1  0.205991  0.705787  0.098047  1
  O  O21  1  0.883581  0.905395  0.716143  1
  O  O22  1  0.316351  0.294813  0.883896  1
  O  O23  1  0.402042  0.904307  0.714388  1
  O  O24  1  0.797835  0.295629  0.885407  1
