# generated using pymatgen
data_PrTh2(AlNi)3
_symmetry_space_group_name_H-M   'P 1'
_cell_length_a   7.13774610
_cell_length_b   7.08955721
_cell_length_c   4.03739900
_cell_angle_alpha   90.00000000
_cell_angle_beta   90.00000000
_cell_angle_gamma   119.77691116
_symmetry_Int_Tables_number   1
_chemical_formula_structural   PrTh2(AlNi)3
_chemical_formula_sum   'Pr1 Th2 Al3 Ni3'
_cell_volume   177.33089966
_cell_formula_units_Z   1
loop_
 _symmetry_equiv_pos_site_id
 _symmetry_equiv_pos_as_xyz
  1  'x, y, z'
loop_
 _atom_site_type_symbol
 _atom_site_label
 _atom_site_symmetry_multiplicity
 _atom_site_fract_x
 _atom_site_fract_y
 _atom_site_fract_z
 _atom_site_occupancy
  Pr  Pr0  1  0.000000  0.419151  0.500000  1
  Th  Th1  1  0.578352  0.579064  0.500000  1
  Th  Th2  1  0.421648  0.000712  0.500000  1
  Al  Al3  1  0.000000  0.770345  0.000000  1
  Al  Al4  1  0.227174  0.227600  0.000000  1
  Al  Al5  1  0.772826  0.000426  0.000000  1
  Ni  Ni6  1  0.350001  0.680782  0.000000  1
  Ni  Ni7  1  0.649999  0.330780  0.000000  1
  Ni  Ni8  1  0.000000  0.991141  0.500000  1
