# generated using pymatgen
data_Ho4LuOs2
_symmetry_space_group_name_H-M   'P 1'
_cell_length_a   6.29059331
_cell_length_b   7.34995717
_cell_length_c   8.33722738
_cell_angle_alpha   96.88336358
_cell_angle_beta   112.16401582
_cell_angle_gamma   89.99999613
_symmetry_Int_Tables_number   1
_chemical_formula_structural   Ho4LuOs2
_chemical_formula_sum   'Ho8 Lu2 Os4'
_cell_volume   353.99094441
_cell_formula_units_Z   2
loop_
 _symmetry_equiv_pos_site_id
 _symmetry_equiv_pos_as_xyz
  1  'x, y, z'
loop_
 _atom_site_type_symbol
 _atom_site_label
 _atom_site_symmetry_multiplicity
 _atom_site_fract_x
 _atom_site_fract_y
 _atom_site_fract_z
 _atom_site_occupancy
  Ho  Ho0  1  0.527452  0.082312  0.818578  1
  Ho  Ho1  1  0.472548  0.917688  0.181422  1
  Ho  Ho2  1  0.708873  0.417688  0.181422  1
  Ho  Ho3  1  0.291127  0.582312  0.818578  1
  Ho  Ho4  1  0.296022  0.318302  0.435745  1
  Ho  Ho5  1  0.703978  0.681698  0.564255  1
  Ho  Ho6  1  0.860278  0.181698  0.564255  1
  Ho  Ho7  1  0.139722  0.818302  0.435745  1
  Lu  Lu8  1  0.080472  0.250000  0.000000  1
  Lu  Lu9  1  0.919528  0.750000  0.000000  1
  Os  Os10  1  0.318311  0.578034  0.216417  1
  Os  Os11  1  0.681689  0.421966  0.783583  1
  Os  Os12  1  0.101894  0.921966  0.783583  1
  Os  Os13  1  0.898106  0.078034  0.216417  1
