# generated using pymatgen
data_Nd19YSi15Ir
_symmetry_space_group_name_H-M   'P 1'
_cell_length_a   7.78803322
_cell_length_b   7.93706468
_cell_length_c   15.14768279
_cell_angle_alpha   89.74284157
_cell_angle_beta   89.66277436
_cell_angle_gamma   89.98308978
_symmetry_Int_Tables_number   1
_chemical_formula_structural   Nd19YSi15Ir
_chemical_formula_sum   'Nd19 Y1 Si15 Ir1'
_cell_volume   936.31505000
_cell_formula_units_Z   1
loop_
 _symmetry_equiv_pos_site_id
 _symmetry_equiv_pos_as_xyz
  1  'x, y, z'
loop_
 _atom_site_type_symbol
 _atom_site_label
 _atom_site_symmetry_multiplicity
 _atom_site_fract_x
 _atom_site_fract_y
 _atom_site_fract_z
 _atom_site_occupancy
  Nd  Nd0  1  0.812491  0.331603  0.615348  1
  Nd  Nd1  1  0.457872  0.686063  0.898495  1
  Nd  Nd2  1  0.958398  0.814350  0.898443  1
  Nd  Nd3  1  0.185310  0.683278  0.120797  1
  Nd  Nd4  1  0.690677  0.818608  0.121061  1
  Nd  Nd5  1  0.308223  0.179176  0.877957  1
  Nd  Nd6  1  0.185563  0.678140  0.380018  1
  Nd  Nd7  1  0.042529  0.188102  0.102869  1
  Nd  Nd8  1  0.312055  0.179680  0.622032  1
  Nd  Nd9  1  0.857591  0.490528  0.259853  1
  Nd  Nd10  1  0.364241  0.008359  0.253438  1
  Nd  Nd11  1  0.539007  0.318085  0.398826  1
  Nd  Nd12  1  0.810928  0.317421  0.878354  1
  Nd  Nd13  1  0.963268  0.813138  0.598590  1
  Nd  Nd14  1  0.460937  0.685519  0.601937  1
  Nd  Nd15  1  0.040824  0.187691  0.399983  1
  Nd  Nd16  1  0.693431  0.812066  0.384239  1
  Nd  Nd17  1  0.639161  0.993296  0.748348  1
  Nd  Nd18  1  0.543077  0.312595  0.102488  1
  Y  Y19  1  0.136709  0.511860  0.748224  1
  Si  Si20  1  0.478278  0.603108  0.245710  1
  Si  Si21  1  0.251920  0.378854  0.247213  1
  Si  Si22  1  0.514170  0.402018  0.750902  1
  Si  Si23  1  0.631914  0.025630  0.958839  1
  Si  Si24  1  0.016816  0.102451  0.748952  1
  Si  Si25  1  0.749930  0.621141  0.750763  1
  Si  Si26  1  0.750306  0.120051  0.248122  1
  Si  Si27  1  0.365259  0.970186  0.461061  1
  Si  Si28  1  0.981848  0.902396  0.248410  1
  Si  Si29  1  0.364952  0.974881  0.041195  1
  Si  Si30  1  0.634104  0.024277  0.542433  1
  Si  Si31  1  0.134596  0.474821  0.957475  1
  Si  Si32  1  0.144944  0.475645  0.542921  1
  Si  Si33  1  0.866177  0.525768  0.039238  1
  Si  Si34  1  0.246226  0.873833  0.750763  1
  Ir  Ir35  1  0.866266  0.515383  0.454701  1
