# generated using pymatgen
data_Zr10SiNiSb6
_symmetry_space_group_name_H-M   'P 1'
_cell_length_a   8.64889300
_cell_length_b   8.64889357
_cell_length_c   5.85074800
_cell_angle_alpha   90.00000000
_cell_angle_beta   90.00000000
_cell_angle_gamma   119.99999399
_symmetry_Int_Tables_number   1
_chemical_formula_structural   Zr10SiNiSb6
_chemical_formula_sum   'Zr10 Si1 Ni1 Sb6'
_cell_volume   379.02087333
_cell_formula_units_Z   1
loop_
 _symmetry_equiv_pos_site_id
 _symmetry_equiv_pos_as_xyz
  1  'x, y, z'
loop_
 _atom_site_type_symbol
 _atom_site_label
 _atom_site_symmetry_multiplicity
 _atom_site_fract_x
 _atom_site_fract_y
 _atom_site_fract_z
 _atom_site_occupancy
  Zr  Zr0  1  0.259196  0.000000  0.248979  1
  Zr  Zr1  1  0.259196  0.259196  0.751021  1
  Zr  Zr2  1  0.000000  0.740804  0.751021  1
  Zr  Zr3  1  0.000000  0.259196  0.248979  1
  Zr  Zr4  1  0.740804  0.740804  0.248979  1
  Zr  Zr5  1  0.740804  0.000000  0.751021  1
  Zr  Zr6  1  0.333333  0.666667  0.000000  1
  Zr  Zr7  1  0.666667  0.333333  0.500000  1
  Zr  Zr8  1  0.666667  0.333333  0.000000  1
  Zr  Zr9  1  0.333333  0.666667  0.500000  1
  Si  Si10  1  0.000000  0.000000  0.500000  1
  Ni  Ni11  1  0.000000  0.000000  0.000000  1
  Sb  Sb12  1  0.609449  0.000000  0.248523  1
  Sb  Sb13  1  0.609449  0.609449  0.751477  1
  Sb  Sb14  1  0.000000  0.390551  0.751477  1
  Sb  Sb15  1  0.000000  0.609449  0.248523  1
  Sb  Sb16  1  0.390551  0.390551  0.248523  1
  Sb  Sb17  1  0.390551  0.000000  0.751477  1
