# generated using pymatgen
data_Ga(S8Cl)3
_symmetry_space_group_name_H-M   'P 1'
_cell_length_a   5.26980628
_cell_length_b   15.17884533
_cell_length_c   15.17884113
_cell_angle_alpha   118.60821548
_cell_angle_beta   96.62852263
_cell_angle_gamma   96.62884862
_symmetry_Int_Tables_number   1
_chemical_formula_structural   Ga(S8Cl)3
_chemical_formula_sum   'Ga1 S24 Cl3'
_cell_volume   1038.30880298
_cell_formula_units_Z   1
loop_
 _symmetry_equiv_pos_site_id
 _symmetry_equiv_pos_as_xyz
  1  'x, y, z'
loop_
 _atom_site_type_symbol
 _atom_site_label
 _atom_site_symmetry_multiplicity
 _atom_site_fract_x
 _atom_site_fract_y
 _atom_site_fract_z
 _atom_site_occupancy
  Ga  Ga0  1  0.942945  0.999995  0.999993  1
  S  S1  1  0.344166  0.401123  0.000177  1
  S  S2  1  0.518209  0.716760  0.999749  1
  S  S3  1  0.255019  0.517483  0.128676  1
  S  S4  1  0.377089  0.739088  0.128559  1
  S  S5  1  0.527275  0.649391  0.180841  1
  S  S6  1  0.638771  0.389943  0.261074  1
  S  S7  1  0.801694  0.283252  0.283251  1
  S  S8  1  0.879276  0.531534  0.350561  1
  S  S9  1  0.127380  0.871313  0.388705  1
  S  S10  1  0.638775  0.261075  0.389943  1
  S  S11  1  0.344171  0.000176  0.401122  1
  S  S12  1  0.347482  0.819124  0.468566  1
  S  S13  1  0.738685  0.611314  0.482436  1
  S  S14  1  0.255022  0.128675  0.517481  1
  S  S15  1  0.879279  0.350563  0.531533  1
  S  S16  1  0.943215  0.598908  0.598907  1
  S  S17  1  0.248586  0.871128  0.610269  1
  S  S18  1  0.738685  0.482437  0.611312  1
  S  S19  1  0.527276  0.180842  0.649390  1
  S  S20  1  0.518213  0.999749  0.716758  1
  S  S21  1  0.377096  0.128560  0.739088  1
  S  S22  1  0.347486  0.468568  0.819125  1
  S  S23  1  0.248587  0.610269  0.871127  1
  S  S24  1  0.127379  0.388706  0.871313  1
  Cl  Cl25  1  0.990421  0.140508  0.999904  1
  Cl  Cl26  1  0.990425  0.999904  0.140507  1
  Cl  Cl27  1  0.852698  0.859639  0.859639  1
