# generated using pymatgen
data_Zr2ZnCoHg
_symmetry_space_group_name_H-M   'P 1'
_cell_length_a   7.37819000
_cell_length_b   7.34090000
_cell_length_c   3.28875900
_cell_angle_alpha   90.00000000
_cell_angle_beta   90.00000000
_cell_angle_gamma   90.00000000
_symmetry_Int_Tables_number   1
_chemical_formula_structural   Zr2ZnCoHg
_chemical_formula_sum   'Zr4 Zn2 Co2 Hg2'
_cell_volume   178.12759012
_cell_formula_units_Z   2
loop_
 _symmetry_equiv_pos_site_id
 _symmetry_equiv_pos_as_xyz
  1  'x, y, z'
loop_
 _atom_site_type_symbol
 _atom_site_label
 _atom_site_symmetry_multiplicity
 _atom_site_fract_x
 _atom_site_fract_y
 _atom_site_fract_z
 _atom_site_occupancy
  Zr  Zr0  1  0.665614  0.193747  0.500001  1
  Zr  Zr1  1  0.165614  0.306253  0.500001  1
  Zr  Zr2  1  0.826175  0.637960  0.500001  1
  Zr  Zr3  1  0.326176  0.862039  0.500001  1
  Zn  Zn4  1  0.132777  0.621125  0.000000  1
  Zn  Zn5  1  0.632776  0.878874  0.000000  1
  Co  Co6  1  0.384932  0.120677  0.000000  1
  Co  Co7  1  0.884931  0.379324  0.000000  1
  Hg  Hg8  1  0.990504  0.996786  0.000000  1
  Hg  Hg9  1  0.490503  0.503213  0.000000  1
