# generated using pymatgen
data_NaNb2WSe6
_symmetry_space_group_name_H-M   'P 1'
_cell_length_a   5.98175300
_cell_length_b   5.98175183
_cell_length_c   15.63107600
_cell_angle_alpha   90.00000000
_cell_angle_beta   90.00000000
_cell_angle_gamma   120.00000092
_symmetry_Int_Tables_number   1
_chemical_formula_structural   NaNb2WSe6
_chemical_formula_sum   'Na2 Nb4 W2 Se12'
_cell_volume   484.36903315
_cell_formula_units_Z   2
loop_
 _symmetry_equiv_pos_site_id
 _symmetry_equiv_pos_as_xyz
  1  'x, y, z'
loop_
 _atom_site_type_symbol
 _atom_site_label
 _atom_site_symmetry_multiplicity
 _atom_site_fract_x
 _atom_site_fract_y
 _atom_site_fract_z
 _atom_site_occupancy
  Na  Na0  1  0.333333  0.666667  0.251264  1
  Na  Na1  1  0.666667  0.333333  0.749673  1
  Nb  Nb2  1  0.666667  0.333333  0.999564  1
  Nb  Nb3  1  0.333333  0.666667  0.499833  1
  Nb  Nb4  1  0.000000  0.000000  0.500006  1
  Nb  Nb5  1  0.666667  0.333333  0.500166  1
  W  W6  1  0.333333  0.666667  0.999985  1
  W  W7  1  0.000000  0.000000  0.000034  1
  Se  Se8  1  0.669240  0.666524  0.391999  1
  Se  Se9  1  0.666502  0.669167  0.608024  1
  Se  Se10  1  0.009766  0.676374  0.894353  1
  Se  Se11  1  0.666609  0.990234  0.894353  1
  Se  Se12  1  0.668384  0.995457  0.105449  1
  Se  Se13  1  0.333476  0.002717  0.391999  1
  Se  Se14  1  0.002666  0.333498  0.608024  1
  Se  Se15  1  0.330833  0.997334  0.608024  1
  Se  Se16  1  0.004543  0.672928  0.105449  1
  Se  Se17  1  0.323626  0.333391  0.894353  1
  Se  Se18  1  0.997283  0.330760  0.391999  1
  Se  Se19  1  0.327072  0.331616  0.105449  1
