# generated using pymatgen
data_Y10Ho2InGa(NiOs)2
_symmetry_space_group_name_H-M   'P 1'
_cell_length_a   8.38616423
_cell_length_b   8.40911226
_cell_length_c   8.38616400
_cell_angle_alpha   112.96753210
_cell_angle_beta   109.93026010
_cell_angle_gamma   105.49269566
_symmetry_Int_Tables_number   1
_chemical_formula_structural   Y10Ho2InGa(NiOs)2
_chemical_formula_sum   'Y10 Ho2 In1 Ga1 Ni2 Os2'
_cell_volume   453.92312311
_cell_formula_units_Z   1
loop_
 _symmetry_equiv_pos_site_id
 _symmetry_equiv_pos_as_xyz
  1  'x, y, z'
loop_
 _atom_site_type_symbol
 _atom_site_label
 _atom_site_symmetry_multiplicity
 _atom_site_fract_x
 _atom_site_fract_y
 _atom_site_fract_z
 _atom_site_occupancy
  Y  Y0  1  0.433543  0.238709  0.192835  1
  Y  Y1  1  0.566457  0.761291  0.807165  1
  Y  Y2  1  0.045873  0.238709  0.805166  1
  Y  Y3  1  0.954127  0.761291  0.194834  1
  Y  Y4  1  0.179651  0.276911  0.457067  1
  Y  Y5  1  0.820349  0.723089  0.542933  1
  Y  Y6  1  0.180155  0.723089  0.902740  1
  Y  Y7  1  0.819845  0.276911  0.097260  1
  Y  Y8  1  0.329046  0.641701  0.312657  1
  Y  Y9  1  0.670954  0.358299  0.687343  1
  Ho  Ho10  1  0.330488  0.013987  0.683499  1
  Ho  Ho11  1  0.669512  0.986013  0.316501  1
  In  In12  1  0.500000  0.500000  0.000000  1
  Ga  Ga13  1  0.000000  0.000000  0.000000  1
  Ni  Ni14  1  0.115718  0.616804  0.501087  1
  Ni  Ni15  1  0.884282  0.383196  0.498913  1
  Os  Os16  1  0.331673  0.000000  0.331673  1
  Os  Os17  1  0.668327  0.000000  0.668327  1
