# generated using pymatgen
data_Y2Lu3Os2
_symmetry_space_group_name_H-M   'P 1'
_cell_length_a   6.21776492
_cell_length_b   7.35379176
_cell_length_c   8.33515106
_cell_angle_alpha   97.29277388
_cell_angle_beta   111.89979993
_cell_angle_gamma   89.99999721
_symmetry_Int_Tables_number   1
_chemical_formula_structural   Y2Lu3Os2
_chemical_formula_sum   'Y4 Lu6 Os4'
_cell_volume   350.29025797
_cell_formula_units_Z   2
loop_
 _symmetry_equiv_pos_site_id
 _symmetry_equiv_pos_as_xyz
  1  'x, y, z'
loop_
 _atom_site_type_symbol
 _atom_site_label
 _atom_site_symmetry_multiplicity
 _atom_site_fract_x
 _atom_site_fract_y
 _atom_site_fract_z
 _atom_site_occupancy
  Y  Y0  1  0.526823  0.080796  0.811909  1
  Y  Y1  1  0.473177  0.919204  0.188091  1
  Y  Y2  1  0.714914  0.419204  0.188091  1
  Y  Y3  1  0.285086  0.580796  0.811909  1
  Lu  Lu4  1  0.304515  0.317061  0.435419  1
  Lu  Lu5  1  0.695485  0.682939  0.564581  1
  Lu  Lu6  1  0.869097  0.182939  0.564581  1
  Lu  Lu7  1  0.130903  0.817061  0.435419  1
  Lu  Lu8  1  0.083206  0.250000  0.000000  1
  Lu  Lu9  1  0.916794  0.750000  0.000000  1
  Os  Os10  1  0.311932  0.577491  0.221868  1
  Os  Os11  1  0.688068  0.422509  0.778132  1
  Os  Os12  1  0.090066  0.922509  0.778132  1
  Os  Os13  1  0.909934  0.077491  0.221868  1
