# generated using pymatgen
data_Dy2PaCo2
_symmetry_space_group_name_H-M   'P 1'
_cell_length_a   5.95255170
_cell_length_b   5.95255066
_cell_length_c   5.95255064
_cell_angle_alpha   144.60067731
_cell_angle_beta   118.96069570
_cell_angle_gamma   72.58177850
_symmetry_Int_Tables_number   1
_chemical_formula_structural   Dy2PaCo2
_chemical_formula_sum   'Dy2 Pa1 Co2'
_cell_volume   104.99071938
_cell_formula_units_Z   1
loop_
 _symmetry_equiv_pos_site_id
 _symmetry_equiv_pos_as_xyz
  1  'x, y, z'
loop_
 _atom_site_type_symbol
 _atom_site_label
 _atom_site_symmetry_multiplicity
 _atom_site_fract_x
 _atom_site_fract_y
 _atom_site_fract_z
 _atom_site_occupancy
  Dy  Dy0  1  0.307244  0.807244  0.500000  1
  Dy  Dy1  1  0.692756  0.192756  0.500000  1
  Pa  Pa2  1  0.000000  0.000000  0.000000  1
  Co  Co3  1  0.284815  0.500000  0.784815  1
  Co  Co4  1  0.715185  0.500000  0.215185  1
