# generated using pymatgen
data_Pr10Tl3In3Br2
_symmetry_space_group_name_H-M   'P 1'
_cell_length_a   9.67397228
_cell_length_b   9.68125348
_cell_length_c   6.88541600
_cell_angle_alpha   90.00000000
_cell_angle_beta   90.00000000
_cell_angle_gamma   119.92551785
_symmetry_Int_Tables_number   1
_chemical_formula_structural   Pr10Tl3In3Br2
_chemical_formula_sum   'Pr10 Tl3 In3 Br2'
_cell_volume   558.88532844
_cell_formula_units_Z   1
loop_
 _symmetry_equiv_pos_site_id
 _symmetry_equiv_pos_as_xyz
  1  'x, y, z'
loop_
 _atom_site_type_symbol
 _atom_site_label
 _atom_site_symmetry_multiplicity
 _atom_site_fract_x
 _atom_site_fract_y
 _atom_site_fract_z
 _atom_site_occupancy
  Pr  Pr0  1  0.264528  0.000505  0.750000  1
  Pr  Pr1  1  0.734880  0.999012  0.250000  1
  Pr  Pr2  1  0.001404  0.265563  0.750000  1
  Pr  Pr3  1  0.999164  0.734717  0.250000  1
  Pr  Pr4  1  0.734794  0.734174  0.750000  1
  Pr  Pr5  1  0.264971  0.265021  0.250000  1
  Pr  Pr6  1  0.333223  0.666302  0.500612  1
  Pr  Pr7  1  0.667027  0.334351  0.500682  1
  Pr  Pr8  1  0.667027  0.334351  0.999318  1
  Pr  Pr9  1  0.333223  0.666302  0.999388  1
  Tl  Tl10  1  0.608679  0.999988  0.750000  1
  Tl  Tl11  1  0.392088  0.000463  0.250000  1
  Tl  Tl12  1  0.000175  0.391746  0.250000  1
  In  In13  1  0.999743  0.608486  0.750000  1
  In  In14  1  0.392783  0.392551  0.750000  1
  In  In15  1  0.607043  0.606802  0.250000  1
  Br  Br16  1  0.999623  0.999831  0.500064  1
  Br  Br17  1  0.999623  0.999831  0.999936  1
