# generated using pymatgen
data_HoAl10ReRh
_symmetry_space_group_name_H-M   'P 1'
_cell_length_a   6.87793678
_cell_length_b   6.88631028
_cell_length_c   9.17346300
_cell_angle_alpha   90.00000000
_cell_angle_beta   90.00000000
_cell_angle_gamma   96.56348462
_symmetry_Int_Tables_number   1
_chemical_formula_structural   HoAl10ReRh
_chemical_formula_sum   'Ho2 Al20 Re2 Rh2'
_cell_volume   431.64057714
_cell_formula_units_Z   2
loop_
 _symmetry_equiv_pos_site_id
 _symmetry_equiv_pos_as_xyz
  1  'x, y, z'
loop_
 _atom_site_type_symbol
 _atom_site_label
 _atom_site_symmetry_multiplicity
 _atom_site_fract_x
 _atom_site_fract_y
 _atom_site_fract_z
 _atom_site_occupancy
  Ho  Ho0  1  0.862982  0.120515  0.750000  1
  Ho  Ho1  1  0.137018  0.879485  0.250000  1
  Al  Al2  1  0.620260  0.375676  0.548063  1
  Al  Al3  1  0.379740  0.624324  0.451937  1
  Al  Al4  1  0.379740  0.624324  0.048063  1
  Al  Al5  1  0.620260  0.375676  0.951937  1
  Al  Al6  1  0.223749  0.223789  0.498172  1
  Al  Al7  1  0.776251  0.776211  0.501828  1
  Al  Al8  1  0.776251  0.776211  0.998172  1
  Al  Al9  1  0.223749  0.223789  0.001828  1
  Al  Al10  1  0.844404  0.156384  0.100568  1
  Al  Al11  1  0.155596  0.843616  0.899432  1
  Al  Al12  1  0.155596  0.843616  0.600568  1
  Al  Al13  1  0.844404  0.156384  0.399432  1
  Al  Al14  1  0.856759  0.586381  0.750000  1
  Al  Al15  1  0.143241  0.413619  0.250000  1
  Al  Al16  1  0.408973  0.142473  0.750000  1
  Al  Al17  1  0.591027  0.857527  0.250000  1
  Al  Al18  1  0.220667  0.479400  0.750000  1
  Al  Al19  1  0.779333  0.520600  0.250000  1
  Al  Al20  1  0.518874  0.780896  0.750000  1
  Al  Al21  1  0.481126  0.219104  0.250000  1
  Re  Re22  1  0.500000  0.000000  0.000000  1
  Re  Re23  1  0.500000  0.000000  0.500000  1
  Rh  Rh24  1  0.000000  0.500000  0.500000  1
  Rh  Rh25  1  0.000000  0.500000  0.000000  1
