# generated using pymatgen
data_Nd4TlInAg3Rh
_symmetry_space_group_name_H-M   'P 1'
_cell_length_a   8.14907902
_cell_length_b   8.17755629
_cell_length_c   3.86168800
_cell_angle_alpha   90.00000000
_cell_angle_beta   90.00000000
_cell_angle_gamma   90.21052256
_symmetry_Int_Tables_number   1
_chemical_formula_structural   Nd4TlInAg3Rh
_chemical_formula_sum   'Nd4 Tl1 In1 Ag3 Rh1'
_cell_volume   257.33942257
_cell_formula_units_Z   1
loop_
 _symmetry_equiv_pos_site_id
 _symmetry_equiv_pos_as_xyz
  1  'x, y, z'
loop_
 _atom_site_type_symbol
 _atom_site_label
 _atom_site_symmetry_multiplicity
 _atom_site_fract_x
 _atom_site_fract_y
 _atom_site_fract_z
 _atom_site_occupancy
  Nd  Nd0  1  0.684684  0.149003  0.500000  1
  Nd  Nd1  1  0.349746  0.816756  0.500000  1
  Nd  Nd2  1  0.807167  0.694266  0.500000  1
  Nd  Nd3  1  0.172076  0.325948  0.500000  1
  Tl  Tl4  1  0.499128  0.497228  0.000000  1
  In  In5  1  0.001222  0.999850  0.000000  1
  Ag  Ag6  1  0.373770  0.122547  0.000000  1
  Ag  Ag7  1  0.115783  0.631810  0.000000  1
  Ag  Ag8  1  0.871485  0.380978  0.000000  1
  Rh  Rh9  1  0.624938  0.881613  0.000000  1
