# generated using pymatgen
data_NdSmFe14(SiC)3
_symmetry_space_group_name_H-M   'P 1'
_cell_length_a   6.48088133
_cell_length_b   6.48088237
_cell_length_c   6.48088261
_cell_angle_alpha   84.12423460
_cell_angle_beta   84.12423394
_cell_angle_gamma   84.12422719
_symmetry_Int_Tables_number   1
_chemical_formula_structural   NdSmFe14(SiC)3
_chemical_formula_sum   'Nd1 Sm1 Fe14 Si3 C3'
_cell_volume   268.19221062
_cell_formula_units_Z   1
loop_
 _symmetry_equiv_pos_site_id
 _symmetry_equiv_pos_as_xyz
  1  'x, y, z'
loop_
 _atom_site_type_symbol
 _atom_site_label
 _atom_site_symmetry_multiplicity
 _atom_site_fract_x
 _atom_site_fract_y
 _atom_site_fract_z
 _atom_site_occupancy
  Nd  Nd0  1  0.350921  0.350921  0.350921  1
  Sm  Sm1  1  0.649934  0.649934  0.649934  1
  Fe  Fe2  1  0.715269  0.285022  0.999535  1
  Fe  Fe3  1  0.999535  0.715269  0.285022  1
  Fe  Fe4  1  0.285022  0.999535  0.715269  1
  Fe  Fe5  1  0.999535  0.285022  0.715269  1
  Fe  Fe6  1  0.715269  0.999535  0.285022  1
  Fe  Fe7  1  0.285022  0.715269  0.999535  1
  Fe  Fe8  1  0.338100  0.866628  0.338100  1
  Fe  Fe9  1  0.338100  0.338100  0.866628  1
  Fe  Fe10  1  0.866628  0.338100  0.338100  1
  Fe  Fe11  1  0.662277  0.132699  0.662277  1
  Fe  Fe12  1  0.662277  0.662277  0.132699  1
  Fe  Fe13  1  0.132699  0.662277  0.662277  1
  Fe  Fe14  1  0.903330  0.903330  0.903330  1
  Fe  Fe15  1  0.096378  0.096378  0.096378  1
  Si  Si16  1  0.999929  0.999929  0.500140  1
  Si  Si17  1  0.500140  0.999929  0.999929  1
  Si  Si18  1  0.999929  0.500140  0.999929  1
  C  C19  1  0.500847  0.500847  0.998014  1
  C  C20  1  0.998014  0.500847  0.500847  1
  C  C21  1  0.500847  0.998014  0.500847  1
