# generated using pymatgen
data_Tb6MnFe(Co4P3)4
_symmetry_space_group_name_H-M   'P 1'
_cell_length_a   3.69230300
_cell_length_b   10.52663600
_cell_length_c   12.18963900
_cell_angle_alpha   90.00000000
_cell_angle_beta   90.00000000
_cell_angle_gamma   90.00000000
_symmetry_Int_Tables_number   1
_chemical_formula_structural   Tb6MnFe(Co4P3)4
_chemical_formula_sum   'Tb6 Mn1 Fe1 Co16 P12'
_cell_volume   473.78115565
_cell_formula_units_Z   1
loop_
 _symmetry_equiv_pos_site_id
 _symmetry_equiv_pos_as_xyz
  1  'x, y, z'
loop_
 _atom_site_type_symbol
 _atom_site_label
 _atom_site_symmetry_multiplicity
 _atom_site_fract_x
 _atom_site_fract_y
 _atom_site_fract_z
 _atom_site_occupancy
  Tb  Tb0  1  0.000000  0.500000  0.522352  1
  Tb  Tb1  1  0.500000  0.000000  0.478759  1
  Tb  Tb2  1  0.500000  0.818078  0.205446  1
  Tb  Tb3  1  0.500000  0.181922  0.205446  1
  Tb  Tb4  1  0.000000  0.682463  0.795098  1
  Tb  Tb5  1  0.000000  0.317537  0.795098  1
  Mn  Mn6  1  0.500000  0.500000  0.159009  1
  Fe  Fe7  1  0.000000  0.000000  0.843326  1
  Co  Co8  1  0.500000  0.500000  0.702553  1
  Co  Co9  1  0.000000  0.000000  0.297081  1
  Co  Co10  1  0.000000  0.500000  0.986192  1
  Co  Co11  1  0.500000  0.000000  0.013264  1
  Co  Co12  1  0.500000  0.333354  0.994272  1
  Co  Co13  1  0.500000  0.666646  0.994272  1
  Co  Co14  1  0.000000  0.167069  0.005580  1
  Co  Co15  1  0.000000  0.832931  0.005580  1
  Co  Co16  1  0.500000  0.296828  0.429721  1
  Co  Co17  1  0.500000  0.703172  0.429721  1
  Co  Co18  1  0.000000  0.203438  0.569061  1
  Co  Co19  1  0.000000  0.796562  0.569061  1
  Co  Co20  1  0.500000  0.879278  0.709155  1
  Co  Co21  1  0.500000  0.120722  0.709155  1
  Co  Co22  1  0.000000  0.619998  0.290039  1
  Co  Co23  1  0.000000  0.380002  0.290039  1
  P  P24  1  0.500000  0.500000  0.882670  1
  P  P25  1  0.000000  0.000000  0.116711  1
  P  P26  1  0.500000  0.500000  0.344526  1
  P  P27  1  0.000000  0.000000  0.658136  1
  P  P28  1  0.500000  0.309970  0.615832  1
  P  P29  1  0.500000  0.690030  0.615832  1
  P  P30  1  0.000000  0.189289  0.384255  1
  P  P31  1  0.000000  0.810711  0.384255  1
  P  P32  1  0.500000  0.847752  0.892783  1
  P  P33  1  0.500000  0.152248  0.892783  1
  P  P34  1  0.000000  0.652705  0.106470  1
  P  P35  1  0.000000  0.347295  0.106470  1
