# generated using pymatgen
data_Nb12Ni5Os7N4
_symmetry_space_group_name_H-M   'P 1'
_cell_length_a   8.23272412
_cell_length_b   8.23272389
_cell_length_c   8.23272402
_cell_angle_alpha   59.89191645
_cell_angle_beta   59.89192059
_cell_angle_gamma   59.89191243
_symmetry_Int_Tables_number   1
_chemical_formula_structural   Nb12Ni5Os7N4
_chemical_formula_sum   'Nb12 Ni5 Os7 N4'
_cell_volume   393.59483784
_cell_formula_units_Z   1
loop_
 _symmetry_equiv_pos_site_id
 _symmetry_equiv_pos_as_xyz
  1  'x, y, z'
loop_
 _atom_site_type_symbol
 _atom_site_label
 _atom_site_symmetry_multiplicity
 _atom_site_fract_x
 _atom_site_fract_y
 _atom_site_fract_z
 _atom_site_occupancy
  Nb  Nb0  1  0.804128  0.804128  0.197743  1
  Nb  Nb1  1  0.194841  0.194841  0.802918  1
  Nb  Nb2  1  0.804128  0.197743  0.804128  1
  Nb  Nb3  1  0.194841  0.802918  0.194841  1
  Nb  Nb4  1  0.197743  0.804128  0.804128  1
  Nb  Nb5  1  0.802918  0.194841  0.194841  1
  Nb  Nb6  1  0.443903  0.443903  0.055141  1
  Nb  Nb7  1  0.053477  0.053477  0.444455  1
  Nb  Nb8  1  0.443903  0.055141  0.443903  1
  Nb  Nb9  1  0.053477  0.444455  0.053477  1
  Nb  Nb10  1  0.055141  0.443903  0.443903  1
  Nb  Nb11  1  0.444455  0.053477  0.053477  1
  Ni  Ni12  1  0.119046  0.631973  0.631973  1
  Ni  Ni13  1  0.631973  0.119046  0.631973  1
  Ni  Ni14  1  0.631973  0.631973  0.119046  1
  Ni  Ni15  1  0.624450  0.624450  0.624450  1
  Ni  Ni16  1  0.835090  0.835090  0.835090  1
  Os  Os17  1  0.746021  0.417069  0.417069  1
  Os  Os18  1  0.417069  0.746021  0.417069  1
  Os  Os19  1  0.417069  0.417069  0.746021  1
  Os  Os20  1  0.418231  0.418231  0.418231  1
  Os  Os21  1  0.505012  0.832119  0.832119  1
  Os  Os22  1  0.832119  0.505012  0.832119  1
  Os  Os23  1  0.832119  0.832119  0.505012  1
  N  N24  1  0.623608  0.124086  0.124086  1
  N  N25  1  0.124086  0.623608  0.124086  1
  N  N26  1  0.124086  0.124086  0.623608  1
  N  N27  1  0.125092  0.125092  0.125092  1
