# generated using pymatgen
data_SrPr6IrCl12
_symmetry_space_group_name_H-M   'P 1'
_cell_length_a   9.38213206
_cell_length_b   9.24363238
_cell_length_c   9.39014387
_cell_angle_alpha   106.44577364
_cell_angle_beta   106.49451279
_cell_angle_gamma   106.17412997
_symmetry_Int_Tables_number   1
_chemical_formula_structural   SrPr6IrCl12
_chemical_formula_sum   'Sr1 Pr6 Ir1 Cl12'
_cell_volume   689.49980733
_cell_formula_units_Z   1
loop_
 _symmetry_equiv_pos_site_id
 _symmetry_equiv_pos_as_xyz
  1  'x, y, z'
loop_
 _atom_site_type_symbol
 _atom_site_label
 _atom_site_symmetry_multiplicity
 _atom_site_fract_x
 _atom_site_fract_y
 _atom_site_fract_z
 _atom_site_occupancy
  Sr  Sr0  1  0.500000  0.500000  0.500000  1
  Pr  Pr1  1  0.109142  0.313803  0.016762  1
  Pr  Pr2  1  0.322615  0.016597  0.114746  1
  Pr  Pr3  1  0.016688  0.113662  0.321996  1
  Pr  Pr4  1  0.983313  0.886338  0.678005  1
  Pr  Pr5  1  0.677385  0.983404  0.885254  1
  Pr  Pr6  1  0.890858  0.686197  0.983238  1
  Ir  Ir7  1  0.000000  0.000000  0.000000  1
  Cl  Cl8  1  0.209050  0.679537  0.072068  1
  Cl  Cl9  1  0.446469  0.361403  0.160721  1
  Cl  Cl10  1  0.681885  0.072544  0.207509  1
  Cl  Cl11  1  0.927743  0.790039  0.317886  1
  Cl  Cl12  1  0.160868  0.448750  0.360808  1
  Cl  Cl13  1  0.359375  0.156096  0.446511  1
  Cl  Cl14  1  0.640625  0.843904  0.553490  1
  Cl  Cl15  1  0.839133  0.551250  0.639192  1
  Cl  Cl16  1  0.072258  0.209961  0.682115  1
  Cl  Cl17  1  0.318116  0.927457  0.792491  1
  Cl  Cl18  1  0.553531  0.638597  0.839280  1
  Cl  Cl19  1  0.790950  0.320463  0.927932  1
