# generated using pymatgen
data_ScTl3IrCl9
_symmetry_space_group_name_H-M   'P 1'
_cell_length_a   7.27931300
_cell_length_b   7.27931227
_cell_length_c   18.02484400
_cell_angle_alpha   90.00000000
_cell_angle_beta   90.00000000
_cell_angle_gamma   119.99998970
_symmetry_Int_Tables_number   1
_chemical_formula_structural   ScTl3IrCl9
_chemical_formula_sum   'Sc2 Tl6 Ir2 Cl18'
_cell_volume   827.14745041
_cell_formula_units_Z   2
loop_
 _symmetry_equiv_pos_site_id
 _symmetry_equiv_pos_as_xyz
  1  'x, y, z'
loop_
 _atom_site_type_symbol
 _atom_site_label
 _atom_site_symmetry_multiplicity
 _atom_site_fract_x
 _atom_site_fract_y
 _atom_site_fract_z
 _atom_site_occupancy
  Sc  Sc0  1  0.666667  0.333333  0.160836  1
  Sc  Sc1  1  0.333333  0.666667  0.839164  1
  Tl  Tl2  1  0.333333  0.666667  0.051972  1
  Tl  Tl3  1  0.666667  0.333333  0.948028  1
  Tl  Tl4  1  0.666667  0.333333  0.555439  1
  Tl  Tl5  1  0.333333  0.666667  0.444561  1
  Tl  Tl6  1  0.000000  0.000000  0.260956  1
  Tl  Tl7  1  0.000000  0.000000  0.739044  1
  Ir  Ir8  1  0.333333  0.666667  0.665245  1
  Ir  Ir9  1  0.666667  0.333333  0.334755  1
  Cl  Cl10  1  0.180836  0.361671  0.590625  1
  Cl  Cl11  1  0.819164  0.638329  0.409375  1
  Cl  Cl12  1  0.638329  0.819164  0.590625  1
  Cl  Cl13  1  0.827820  0.655641  0.088151  1
  Cl  Cl14  1  0.361671  0.180836  0.409375  1
  Cl  Cl15  1  0.172180  0.344359  0.911849  1
  Cl  Cl16  1  0.180836  0.819164  0.590625  1
  Cl  Cl17  1  0.344359  0.172180  0.088151  1
  Cl  Cl18  1  0.819164  0.180836  0.409375  1
  Cl  Cl19  1  0.655641  0.827820  0.911849  1
  Cl  Cl20  1  0.827820  0.172180  0.088151  1
  Cl  Cl21  1  0.172180  0.827820  0.911849  1
  Cl  Cl22  1  0.512515  0.025032  0.257100  1
  Cl  Cl23  1  0.487485  0.974968  0.742900  1
  Cl  Cl24  1  0.974968  0.487485  0.257100  1
  Cl  Cl25  1  0.025032  0.512515  0.742900  1
  Cl  Cl26  1  0.512515  0.487485  0.257100  1
  Cl  Cl27  1  0.487485  0.512515  0.742900  1
