# generated using pymatgen
data_Tb2Y2Mn3VB16
_symmetry_space_group_name_H-M   'P 1'
_cell_length_a   3.43163400
_cell_length_b   5.92630726
_cell_length_c   11.45889132
_cell_angle_alpha   90.03651180
_cell_angle_beta   90.00000000
_cell_angle_gamma   90.00000000
_symmetry_Int_Tables_number   1
_chemical_formula_structural   Tb2Y2Mn3VB16
_chemical_formula_sum   'Tb2 Y2 Mn3 V1 B16'
_cell_volume   233.03847992
_cell_formula_units_Z   1
loop_
 _symmetry_equiv_pos_site_id
 _symmetry_equiv_pos_as_xyz
  1  'x, y, z'
loop_
 _atom_site_type_symbol
 _atom_site_label
 _atom_site_symmetry_multiplicity
 _atom_site_fract_x
 _atom_site_fract_y
 _atom_site_fract_z
 _atom_site_occupancy
  Tb  Tb0  1  0.000000  0.626005  0.350860  1
  Tb  Tb1  1  0.000000  0.374157  0.650204  1
  Y  Y2  1  0.000000  0.124884  0.151361  1
  Y  Y3  1  0.000000  0.876506  0.848071  1
  Mn  Mn4  1  0.000000  0.377201  0.917882  1
  Mn  Mn5  1  0.000000  0.127302  0.417955  1
  Mn  Mn6  1  0.000000  0.872487  0.584310  1
  V  V7  1  0.000000  0.623856  0.080677  1
  B  B8  1  0.500000  0.783911  0.185855  1
  B  B9  1  0.500000  0.220704  0.816634  1
  B  B10  1  0.500000  0.279277  0.317298  1
  B  B11  1  0.500000  0.719778  0.683394  1
  B  B12  1  0.500000  0.864858  0.031084  1
  B  B13  1  0.500000  0.138564  0.965931  1
  B  B14  1  0.500000  0.361039  0.468128  1
  B  B15  1  0.500000  0.638747  0.532630  1
  B  B16  1  0.500000  0.888012  0.454399  1
  B  B17  1  0.500000  0.111776  0.546754  1
  B  B18  1  0.500000  0.383822  0.044168  1
  B  B19  1  0.500000  0.610211  0.951094  1
  B  B20  1  0.500000  0.975810  0.310216  1
  B  B21  1  0.500000  0.025116  0.690672  1
  B  B22  1  0.500000  0.472707  0.191906  1
  B  B23  1  0.500000  0.523268  0.808516  1
