# generated using pymatgen
data_Dy5Ho11Cd4NiOs3
_symmetry_space_group_name_H-M   'P 1'
_cell_length_a   9.56517880
_cell_length_b   9.67361240
_cell_length_c   9.67361250
_cell_angle_alpha   59.62547728
_cell_angle_beta   59.25402449
_cell_angle_gamma   59.25401973
_symmetry_Int_Tables_number   1
_chemical_formula_structural   Dy5Ho11Cd4NiOs3
_chemical_formula_sum   'Dy5 Ho11 Cd4 Ni1 Os3'
_cell_volume   623.94952384
_cell_formula_units_Z   1
loop_
 _symmetry_equiv_pos_site_id
 _symmetry_equiv_pos_as_xyz
  1  'x, y, z'
loop_
 _atom_site_type_symbol
 _atom_site_label
 _atom_site_symmetry_multiplicity
 _atom_site_fract_x
 _atom_site_fract_y
 _atom_site_fract_z
 _atom_site_occupancy
  Dy  Dy0  1  0.804204  0.189377  0.189377  1
  Dy  Dy1  1  0.803360  0.189526  0.818056  1
  Dy  Dy2  1  0.190853  0.807402  0.191966  1
  Dy  Dy3  1  0.803360  0.818056  0.189526  1
  Dy  Dy4  1  0.190853  0.191966  0.807402  1
  Ho  Ho5  1  0.601978  0.596520  0.596520  1
  Ho  Ho6  1  0.602592  0.596388  0.207992  1
  Ho  Ho7  1  0.602592  0.207992  0.596388  1
  Ho  Ho8  1  0.212758  0.596166  0.596166  1
  Ho  Ho9  1  0.060331  0.438050  0.438050  1
  Ho  Ho10  1  0.433226  0.060532  0.060532  1
  Ho  Ho11  1  0.436560  0.061066  0.440978  1
  Ho  Ho12  1  0.059826  0.439035  0.059989  1
  Ho  Ho13  1  0.436560  0.440978  0.061066  1
  Ho  Ho14  1  0.059826  0.059989  0.439035  1
  Ho  Ho15  1  0.189892  0.808771  0.808771  1
  Cd  Cd16  1  0.830013  0.829933  0.829933  1
  Cd  Cd17  1  0.829599  0.829842  0.508415  1
  Cd  Cd18  1  0.829599  0.508415  0.829842  1
  Cd  Cd19  1  0.505993  0.830806  0.830806  1
  Ni  Ni20  1  0.829416  0.391724  0.391724  1
  Os  Os21  1  0.394648  0.388900  0.388900  1
  Os  Os22  1  0.395980  0.389986  0.828584  1
  Os  Os23  1  0.395980  0.828584  0.389986  1
