# generated using pymatgen
data_Dy3YOs7W
_symmetry_space_group_name_H-M   'P 1'
_cell_length_a   5.30656301
_cell_length_b   5.30656385
_cell_length_c   8.90301800
_cell_angle_alpha   90.00055837
_cell_angle_beta   89.99944256
_cell_angle_gamma   117.99296271
_symmetry_Int_Tables_number   1
_chemical_formula_structural   Dy3YOs7W
_chemical_formula_sum   'Dy3 Y1 Os7 W1'
_cell_volume   221.37432823
_cell_formula_units_Z   1
loop_
 _symmetry_equiv_pos_site_id
 _symmetry_equiv_pos_as_xyz
  1  'x, y, z'
loop_
 _atom_site_type_symbol
 _atom_site_label
 _atom_site_symmetry_multiplicity
 _atom_site_fract_x
 _atom_site_fract_y
 _atom_site_fract_z
 _atom_site_occupancy
  Dy  Dy0  1  0.666644  0.333356  0.566381  1
  Dy  Dy1  1  0.666640  0.333360  0.933637  1
  Dy  Dy2  1  0.328860  0.671140  0.062378  1
  Y  Y3  1  0.328863  0.671137  0.437589  1
  Os  Os4  1  0.992126  0.007874  0.502415  1
  Os  Os5  1  0.992127  0.007873  0.997609  1
  Os  Os6  1  0.825229  0.649450  0.249990  1
  Os  Os7  1  0.350550  0.174771  0.249990  1
  Os  Os8  1  0.177283  0.822717  0.750011  1
  Os  Os9  1  0.173304  0.338586  0.750007  1
  Os  Os10  1  0.661414  0.826696  0.750007  1
  W  W11  1  0.836959  0.163041  0.249985  1
