# generated using pymatgen
data_Li4Ca2TbHoSi8
_symmetry_space_group_name_H-M   'P 1'
_cell_length_a   3.78906900
_cell_length_b   7.79352450
_cell_length_c   10.42262806
_cell_angle_alpha   89.36279253
_cell_angle_beta   90.00000000
_cell_angle_gamma   90.00000000
_symmetry_Int_Tables_number   1
_chemical_formula_structural   Li4Ca2TbHoSi8
_chemical_formula_sum   'Li4 Ca2 Tb1 Ho1 Si8'
_cell_volume   307.76327914
_cell_formula_units_Z   1
loop_
 _symmetry_equiv_pos_site_id
 _symmetry_equiv_pos_as_xyz
  1  'x, y, z'
loop_
 _atom_site_type_symbol
 _atom_site_label
 _atom_site_symmetry_multiplicity
 _atom_site_fract_x
 _atom_site_fract_y
 _atom_site_fract_z
 _atom_site_occupancy
  Li  Li0  1  0.250000  0.999183  0.389680  1
  Li  Li1  1  0.750000  0.000771  0.610160  1
  Li  Li2  1  0.250000  0.490880  0.109950  1
  Li  Li3  1  0.750000  0.509158  0.890139  1
  Ca  Ca4  1  0.250000  0.636565  0.634535  1
  Ca  Ca5  1  0.750000  0.363451  0.365415  1
  Tb  Tb6  1  0.250000  0.130168  0.865070  1
  Ho  Ho7  1  0.750000  0.870349  0.134991  1
  Si  Si8  1  0.750000  0.261759  0.062435  1
  Si  Si9  1  0.250000  0.738040  0.938550  1
  Si  Si10  1  0.750000  0.773379  0.425928  1
  Si  Si11  1  0.250000  0.227024  0.573490  1
  Si  Si12  1  0.750000  0.842678  0.827172  1
  Si  Si13  1  0.250000  0.156123  0.173194  1
  Si  Si14  1  0.750000  0.331547  0.683610  1
  Si  Si15  1  0.250000  0.668925  0.315679  1
