# generated using pymatgen
data_Ho20Cd6ReNi
_symmetry_space_group_name_H-M   'P 1'
_cell_length_a   9.53445800
_cell_length_b   9.53445987
_cell_length_c   9.82349900
_cell_angle_alpha   90.00000000
_cell_angle_beta   90.00000000
_cell_angle_gamma   119.99999351
_symmetry_Int_Tables_number   1
_chemical_formula_structural   Ho20Cd6ReNi
_chemical_formula_sum   'Ho20 Cd6 Re1 Ni1'
_cell_volume   773.37293710
_cell_formula_units_Z   1
loop_
 _symmetry_equiv_pos_site_id
 _symmetry_equiv_pos_as_xyz
  1  'x, y, z'
loop_
 _atom_site_type_symbol
 _atom_site_label
 _atom_site_symmetry_multiplicity
 _atom_site_fract_x
 _atom_site_fract_y
 _atom_site_fract_z
 _atom_site_occupancy
  Ho  Ho0  1  0.000000  0.000000  0.500472  1
  Ho  Ho1  1  0.000000  0.000000  0.999528  1
  Ho  Ho2  1  0.539431  0.460569  0.250000  1
  Ho  Ho3  1  0.539431  0.078861  0.250000  1
  Ho  Ho4  1  0.921139  0.460569  0.250000  1
  Ho  Ho5  1  0.457344  0.542656  0.750000  1
  Ho  Ho6  1  0.457344  0.914689  0.750000  1
  Ho  Ho7  1  0.085311  0.542656  0.750000  1
  Ho  Ho8  1  0.208897  0.791103  0.441181  1
  Ho  Ho9  1  0.208897  0.417796  0.441181  1
  Ho  Ho10  1  0.582204  0.791103  0.441181  1
  Ho  Ho11  1  0.788790  0.211210  0.562687  1
  Ho  Ho12  1  0.788790  0.577579  0.562687  1
  Ho  Ho13  1  0.422421  0.211210  0.562687  1
  Ho  Ho14  1  0.788790  0.211210  0.937313  1
  Ho  Ho15  1  0.788790  0.577579  0.937313  1
  Ho  Ho16  1  0.422421  0.211210  0.937313  1
  Ho  Ho17  1  0.208897  0.791103  0.058819  1
  Ho  Ho18  1  0.208897  0.417796  0.058819  1
  Ho  Ho19  1  0.582204  0.791103  0.058819  1
  Cd  Cd20  1  0.885286  0.114714  0.250000  1
  Cd  Cd21  1  0.885286  0.770572  0.250000  1
  Cd  Cd22  1  0.229428  0.114714  0.250000  1
  Cd  Cd23  1  0.114644  0.885356  0.750000  1
  Cd  Cd24  1  0.114644  0.229289  0.750000  1
  Cd  Cd25  1  0.770711  0.885356  0.750000  1
  Re  Re26  1  0.333333  0.666667  0.250000  1
  Ni  Ni27  1  0.666667  0.333333  0.750000  1
