# generated using pymatgen
data_Ho20Cd6IrRu
_symmetry_space_group_name_H-M   'P 1'
_cell_length_a   9.56036400
_cell_length_b   9.56036255
_cell_length_c   9.80702200
_cell_angle_alpha   90.00000000
_cell_angle_beta   90.00000000
_cell_angle_gamma   119.99999809
_symmetry_Int_Tables_number   1
_chemical_formula_structural   Ho20Cd6IrRu
_chemical_formula_sum   'Ho20 Cd6 Ir1 Ru1'
_cell_volume   776.27675118
_cell_formula_units_Z   1
loop_
 _symmetry_equiv_pos_site_id
 _symmetry_equiv_pos_as_xyz
  1  'x, y, z'
loop_
 _atom_site_type_symbol
 _atom_site_label
 _atom_site_symmetry_multiplicity
 _atom_site_fract_x
 _atom_site_fract_y
 _atom_site_fract_z
 _atom_site_occupancy
  Ho  Ho0  1  0.000000  0.000000  0.499617  1
  Ho  Ho1  1  0.000000  0.000000  0.000383  1
  Ho  Ho2  1  0.209350  0.790650  0.441015  1
  Ho  Ho3  1  0.209350  0.418700  0.441015  1
  Ho  Ho4  1  0.581300  0.790650  0.441015  1
  Ho  Ho5  1  0.790411  0.209589  0.559697  1
  Ho  Ho6  1  0.790411  0.580819  0.559697  1
  Ho  Ho7  1  0.419181  0.209589  0.559697  1
  Ho  Ho8  1  0.790411  0.209589  0.940303  1
  Ho  Ho9  1  0.790411  0.580819  0.940303  1
  Ho  Ho10  1  0.419181  0.209589  0.940303  1
  Ho  Ho11  1  0.209350  0.790650  0.058985  1
  Ho  Ho12  1  0.209350  0.418700  0.058985  1
  Ho  Ho13  1  0.581300  0.790650  0.058985  1
  Ho  Ho14  1  0.541305  0.458695  0.250000  1
  Ho  Ho15  1  0.541305  0.082610  0.250000  1
  Ho  Ho16  1  0.917390  0.458695  0.250000  1
  Ho  Ho17  1  0.458709  0.541291  0.750000  1
  Ho  Ho18  1  0.458709  0.917419  0.750000  1
  Ho  Ho19  1  0.082581  0.541291  0.750000  1
  Cd  Cd20  1  0.885440  0.114560  0.250000  1
  Cd  Cd21  1  0.885440  0.770880  0.250000  1
  Cd  Cd22  1  0.229120  0.114560  0.250000  1
  Cd  Cd23  1  0.114588  0.885412  0.750000  1
  Cd  Cd24  1  0.114588  0.229176  0.750000  1
  Cd  Cd25  1  0.770824  0.885412  0.750000  1
  Ir  Ir26  1  0.333333  0.666667  0.250000  1
  Ru  Ru27  1  0.666667  0.333333  0.750000  1
