# generated using pymatgen
data_Dy12Ho8Co3Bi8Os
_symmetry_space_group_name_H-M   'P 1'
_cell_length_a   7.95941024
_cell_length_b   8.91194000
_cell_length_c   12.40847401
_cell_angle_alpha   90.00000000
_cell_angle_beta   89.74582210
_cell_angle_gamma   90.00000000
_symmetry_Int_Tables_number   1
_chemical_formula_structural   Dy12Ho8Co3Bi8Os
_chemical_formula_sum   'Dy12 Ho8 Co3 Bi8 Os1'
_cell_volume   880.17138521
_cell_formula_units_Z   1
loop_
 _symmetry_equiv_pos_site_id
 _symmetry_equiv_pos_as_xyz
  1  'x, y, z'
loop_
 _atom_site_type_symbol
 _atom_site_label
 _atom_site_symmetry_multiplicity
 _atom_site_fract_x
 _atom_site_fract_y
 _atom_site_fract_z
 _atom_site_occupancy
  Dy  Dy0  1  0.346327  0.750000  0.701036  1
  Dy  Dy1  1  0.652804  0.250000  0.300589  1
  Dy  Dy2  1  0.847726  0.250000  0.799806  1
  Dy  Dy3  1  0.154784  0.750000  0.206311  1
  Dy  Dy4  1  0.880632  0.750000  0.805446  1
  Dy  Dy5  1  0.115087  0.250000  0.189419  1
  Dy  Dy6  1  0.384504  0.250000  0.688391  1
  Dy  Dy7  1  0.615331  0.750000  0.312731  1
  Dy  Dy8  1  0.052044  0.750000  0.497846  1
  Dy  Dy9  1  0.947540  0.250000  0.502617  1
  Dy  Dy10  1  0.554417  0.250000  0.003098  1
  Dy  Dy11  1  0.444582  0.750000  0.996630  1
  Ho  Ho12  1  0.674688  0.536946  0.563104  1
  Ho  Ho13  1  0.324548  0.461551  0.436930  1
  Ho  Ho14  1  0.176166  0.457447  0.935318  1
  Ho  Ho15  1  0.324548  0.038449  0.436930  1
  Ho  Ho16  1  0.824817  0.537590  0.063625  1
  Ho  Ho17  1  0.674688  0.963054  0.563104  1
  Ho  Ho18  1  0.824817  0.962410  0.063625  1
  Ho  Ho19  1  0.176166  0.042553  0.935318  1
  Co  Co20  1  0.931086  0.250000  0.008849  1
  Co  Co21  1  0.564395  0.250000  0.507824  1
  Co  Co22  1  0.434204  0.750000  0.492575  1
  Bi  Bi23  1  0.571872  0.508486  0.826131  1
  Bi  Bi24  1  0.429507  0.490828  0.173627  1
  Bi  Bi25  1  0.072203  0.490367  0.672290  1
  Bi  Bi26  1  0.429507  0.009172  0.173627  1
  Bi  Bi27  1  0.927545  0.508751  0.327351  1
  Bi  Bi28  1  0.571872  0.991514  0.826131  1
  Bi  Bi29  1  0.927545  0.991249  0.327351  1
  Bi  Bi30  1  0.072203  0.009633  0.672290  1
  Os  Os31  1  0.071844  0.750000  0.990078  1
