# generated using pymatgen
data_Mg2Zn3Ni
_symmetry_space_group_name_H-M   'P 1'
_cell_length_a   5.11357847
_cell_length_b   5.06648311
_cell_length_c   5.11357800
_cell_angle_alpha   59.69203195
_cell_angle_beta   60.00000307
_cell_angle_gamma   59.69203092
_symmetry_Int_Tables_number   1
_chemical_formula_structural   Mg2Zn3Ni
_chemical_formula_sum   'Mg2 Zn3 Ni1'
_cell_volume   93.24038169
_cell_formula_units_Z   1
loop_
 _symmetry_equiv_pos_site_id
 _symmetry_equiv_pos_as_xyz
  1  'x, y, z'
loop_
 _atom_site_type_symbol
 _atom_site_label
 _atom_site_symmetry_multiplicity
 _atom_site_fract_x
 _atom_site_fract_y
 _atom_site_fract_z
 _atom_site_occupancy
  Mg  Mg0  1  0.752678  0.741965  0.752678  1
  Mg  Mg1  1  0.497322  0.508035  0.497322  1
  Zn  Zn2  1  0.125000  0.125000  0.125000  1
  Zn  Zn3  1  0.625000  0.125000  0.125000  1
  Zn  Zn4  1  0.125000  0.125000  0.625000  1
  Ni  Ni5  1  0.125000  0.625000  0.125000  1
