# generated using pymatgen
data_Tb2Er8Tl5In3Pd4
_symmetry_space_group_name_H-M   'P 1'
_cell_length_a   3.60862400
_cell_length_b   8.19297846
_cell_length_c   18.32352706
_cell_angle_alpha   89.96127524
_cell_angle_beta   90.00000000
_cell_angle_gamma   90.00000000
_symmetry_Int_Tables_number   1
_chemical_formula_structural   Tb2Er8Tl5In3Pd4
_chemical_formula_sum   'Tb2 Er8 Tl5 In3 Pd4'
_cell_volume   541.74189307
_cell_formula_units_Z   1
loop_
 _symmetry_equiv_pos_site_id
 _symmetry_equiv_pos_as_xyz
  1  'x, y, z'
loop_
 _atom_site_type_symbol
 _atom_site_label
 _atom_site_symmetry_multiplicity
 _atom_site_fract_x
 _atom_site_fract_y
 _atom_site_fract_z
 _atom_site_occupancy
  Tb  Tb0  1  0.000000  0.499148  0.499114  1
  Tb  Tb1  1  0.000000  0.999814  0.000103  1
  Er  Er2  1  0.000000  0.740747  0.281083  1
  Er  Er3  1  0.000000  0.259510  0.718952  1
  Er  Er4  1  0.000000  0.759321  0.781585  1
  Er  Er5  1  0.000000  0.240546  0.218733  1
  Er  Er6  1  0.000000  0.616785  0.085751  1
  Er  Er7  1  0.000000  0.383091  0.914858  1
  Er  Er8  1  0.000000  0.884188  0.585868  1
  Er  Er9  1  0.000000  0.116380  0.414085  1
  Tl  Tl10  1  0.500000  0.707544  0.933362  1
  Tl  Tl11  1  0.500000  0.292750  0.066789  1
  Tl  Tl12  1  0.500000  0.792493  0.433218  1
  Tl  Tl13  1  0.500000  0.205216  0.565746  1
  Tl  Tl14  1  0.500000  0.584072  0.650037  1
  In  In15  1  0.500000  0.415919  0.348652  1
  In  In16  1  0.500000  0.916245  0.151139  1
  In  In17  1  0.500000  0.084087  0.849122  1
  Pd  Pd18  1  0.500000  0.527841  0.197709  1
  Pd  Pd19  1  0.500000  0.471249  0.803898  1
  Pd  Pd20  1  0.500000  0.975395  0.697977  1
  Pd  Pd21  1  0.500000  0.027657  0.302219  1
