# generated using pymatgen
data_Tm5BS4
_symmetry_space_group_name_H-M   'P 1'
_cell_length_a   6.62432513
_cell_length_b   6.62434374
_cell_length_c   6.62432200
_cell_angle_alpha   99.59637272
_cell_angle_beta   99.59602273
_cell_angle_gamma   131.80494247
_symmetry_Int_Tables_number   1
_chemical_formula_structural   Tm5BS4
_chemical_formula_sum   'Tm5 B1 S4'
_cell_volume   197.79963527
_cell_formula_units_Z   1
loop_
 _symmetry_equiv_pos_site_id
 _symmetry_equiv_pos_as_xyz
  1  'x, y, z'
loop_
 _atom_site_type_symbol
 _atom_site_label
 _atom_site_symmetry_multiplicity
 _atom_site_fract_x
 _atom_site_fract_y
 _atom_site_fract_z
 _atom_site_occupancy
  Tm  Tm0  1  0.405713  0.778451  0.184164  1
  Tm  Tm1  1  0.000000  0.000000  0.000000  1
  Tm  Tm2  1  0.594287  0.221549  0.815836  1
  Tm  Tm3  1  0.221552  0.405713  0.627262  1
  Tm  Tm4  1  0.778448  0.594287  0.372738  1
  B  B5  1  0.500000  0.500000  0.000000  1
  S  S6  1  0.095018  0.695956  0.790973  1
  S  S7  1  0.695936  0.904980  0.600924  1
  S  S8  1  0.304064  0.095020  0.399076  1
  S  S9  1  0.904982  0.304044  0.209027  1
