# generated using pymatgen
data_TbHo(Co3Si2)2
_symmetry_space_group_name_H-M   'P 1'
_cell_length_a   6.23628843
_cell_length_b   6.24057371
_cell_length_c   6.23628975
_cell_angle_alpha   130.56917236
_cell_angle_beta   113.12929121
_cell_angle_gamma   87.50170436
_symmetry_Int_Tables_number   1
_chemical_formula_structural   TbHo(Co3Si2)2
_chemical_formula_sum   'Tb1 Ho1 Co6 Si4'
_cell_volume   161.55750604
_cell_formula_units_Z   1
loop_
 _symmetry_equiv_pos_site_id
 _symmetry_equiv_pos_as_xyz
  1  'x, y, z'
loop_
 _atom_site_type_symbol
 _atom_site_label
 _atom_site_symmetry_multiplicity
 _atom_site_fract_x
 _atom_site_fract_y
 _atom_site_fract_z
 _atom_site_occupancy
  Tb  Tb0  1  0.750038  0.469542  0.719503  1
  Ho  Ho1  1  0.249925  0.532191  0.282267  1
  Co  Co2  1  0.999780  0.999656  0.499419  1
  Co  Co3  1  0.500236  0.999656  0.999875  1
  Co  Co4  1  0.722735  0.999135  0.722718  1
  Co  Co5  1  0.223577  0.499992  0.722704  1
  Co  Co6  1  0.276417  0.999135  0.276400  1
  Co  Co7  1  0.777288  0.499992  0.276413  1
  Si  Si8  1  0.081578  0.876163  0.794585  1
  Si  Si9  1  0.919677  0.125437  0.205760  1
  Si  Si10  1  0.580325  0.785955  0.205629  1
  Si  Si11  1  0.418424  0.213148  0.794725  1
