# generated using pymatgen
data_Er12AlFe2Co2Sn
_symmetry_space_group_name_H-M   'P 1'
_cell_length_a   8.25625102
_cell_length_b   8.25640663
_cell_length_c   8.25625101
_cell_angle_alpha   111.17204795
_cell_angle_beta   109.96203717
_cell_angle_gamma   107.30271871
_symmetry_Int_Tables_number   1
_chemical_formula_structural   Er12AlFe2Co2Sn
_chemical_formula_sum   'Er12 Al1 Fe2 Co2 Sn1'
_cell_volume   432.73711531
_cell_formula_units_Z   1
loop_
 _symmetry_equiv_pos_site_id
 _symmetry_equiv_pos_as_xyz
  1  'x, y, z'
loop_
 _atom_site_type_symbol
 _atom_site_label
 _atom_site_symmetry_multiplicity
 _atom_site_fract_x
 _atom_site_fract_y
 _atom_site_fract_z
 _atom_site_occupancy
  Er  Er0  1  0.314183  0.614942  0.300759  1
  Er  Er1  1  0.685817  0.385059  0.699241  1
  Er  Er2  1  0.314185  0.013427  0.699243  1
  Er  Er3  1  0.685815  0.986573  0.300757  1
  Er  Er4  1  0.437421  0.227096  0.210324  1
  Er  Er5  1  0.562579  0.772904  0.789676  1
  Er  Er6  1  0.016773  0.227096  0.789675  1
  Er  Er7  1  0.983227  0.772904  0.210325  1
  Er  Er8  1  0.185165  0.285414  0.470577  1
  Er  Er9  1  0.814835  0.714586  0.529423  1
  Er  Er10  1  0.185163  0.714586  0.899751  1
  Er  Er11  1  0.814837  0.285414  0.100249  1
  Al  Al12  1  0.000000  0.000000  0.000000  1
  Fe  Fe13  1  0.109660  0.609665  0.500005  1
  Fe  Fe14  1  0.890341  0.390336  0.499995  1
  Co  Co15  1  0.378036  0.000000  0.378036  1
  Co  Co16  1  0.621964  0.000000  0.621964  1
  Sn  Sn17  1  0.500000  0.500000  0.000000  1
