# generated using pymatgen
data_NdHo(ReO4)6
_symmetry_space_group_name_H-M   'P 1'
_cell_length_a   10.37648600
_cell_length_b   10.37648522
_cell_length_c   6.28274800
_cell_angle_alpha   90.00000000
_cell_angle_beta   90.00000000
_cell_angle_gamma   119.99999230
_symmetry_Int_Tables_number   1
_chemical_formula_structural   NdHo(ReO4)6
_chemical_formula_sum   'Nd1 Ho1 Re6 O24'
_cell_volume   585.84251057
_cell_formula_units_Z   1
loop_
 _symmetry_equiv_pos_site_id
 _symmetry_equiv_pos_as_xyz
  1  'x, y, z'
loop_
 _atom_site_type_symbol
 _atom_site_label
 _atom_site_symmetry_multiplicity
 _atom_site_fract_x
 _atom_site_fract_y
 _atom_site_fract_z
 _atom_site_occupancy
  Nd  Nd0  1  0.333333  0.666667  0.250000  1
  Ho  Ho1  1  0.666667  0.333333  0.750000  1
  Re  Re2  1  0.082978  0.391204  0.750000  1
  Re  Re3  1  0.401663  0.305174  0.250000  1
  Re  Re4  1  0.608796  0.691773  0.750000  1
  Re  Re5  1  0.903510  0.598337  0.250000  1
  Re  Re6  1  0.308227  0.917022  0.750000  1
  Re  Re7  1  0.694826  0.096490  0.250000  1
  O  O8  1  0.494939  0.650434  0.522926  1
  O  O9  1  0.349566  0.844505  0.522926  1
  O  O10  1  0.840833  0.724318  0.250000  1
  O  O11  1  0.121413  0.862022  0.750000  1
  O  O12  1  0.275682  0.116515  0.250000  1
  O  O13  1  0.137978  0.259391  0.750000  1
  O  O14  1  0.514991  0.350674  0.021245  1
  O  O15  1  0.883485  0.159167  0.250000  1
  O  O16  1  0.098910  0.692996  0.250000  1
  O  O17  1  0.155495  0.505061  0.977074  1
  O  O18  1  0.155495  0.505061  0.522926  1
  O  O19  1  0.887805  0.304567  0.750000  1
  O  O20  1  0.307004  0.405915  0.250000  1
  O  O21  1  0.695433  0.583237  0.750000  1
  O  O22  1  0.835683  0.485009  0.478755  1
  O  O23  1  0.416763  0.112195  0.750000  1
  O  O24  1  0.649326  0.164317  0.021245  1
  O  O25  1  0.494939  0.650434  0.977074  1
  O  O26  1  0.349566  0.844505  0.977074  1
  O  O27  1  0.649326  0.164317  0.478755  1
  O  O28  1  0.514991  0.350674  0.478755  1
  O  O29  1  0.835683  0.485009  0.021245  1
  O  O30  1  0.740609  0.878587  0.750000  1
  O  O31  1  0.594085  0.901090  0.250000  1
