# generated using pymatgen
data_PrHo7Sc12Si15Pt
_symmetry_space_group_name_H-M   'P 1'
_cell_length_a   7.08954516
_cell_length_b   7.44808537
_cell_length_c   13.98477925
_cell_angle_alpha   90.10616567
_cell_angle_beta   90.07712490
_cell_angle_gamma   90.20162818
_symmetry_Int_Tables_number   1
_chemical_formula_structural   PrHo7Sc12Si15Pt
_chemical_formula_sum   'Pr1 Ho7 Sc12 Si15 Pt1'
_cell_volume   738.43930106
_cell_formula_units_Z   1
loop_
 _symmetry_equiv_pos_site_id
 _symmetry_equiv_pos_as_xyz
  1  'x, y, z'
loop_
 _atom_site_type_symbol
 _atom_site_label
 _atom_site_symmetry_multiplicity
 _atom_site_fract_x
 _atom_site_fract_y
 _atom_site_fract_z
 _atom_site_occupancy
  Pr  Pr0  1  0.011531  0.176013  0.094870  1
  Ho  Ho1  1  0.990128  0.821893  0.903180  1
  Ho  Ho2  1  0.490033  0.677195  0.903320  1
  Ho  Ho3  1  0.989715  0.822127  0.594955  1
  Ho  Ho4  1  0.511805  0.322910  0.096878  1
  Ho  Ho5  1  0.012159  0.179113  0.403182  1
  Ho  Ho6  1  0.512014  0.322746  0.404883  1
  Ho  Ho7  1  0.488135  0.677284  0.594884  1
  Sc  Sc8  1  0.159204  0.504447  0.749895  1
  Sc  Sc9  1  0.838645  0.497734  0.250743  1
  Sc  Sc10  1  0.338323  0.004681  0.250817  1
  Sc  Sc11  1  0.664592  0.998670  0.749801  1
  Sc  Sc12  1  0.321543  0.172889  0.625620  1
  Sc  Sc13  1  0.671074  0.826477  0.374737  1
  Sc  Sc14  1  0.172637  0.676402  0.375315  1
  Sc  Sc15  1  0.671685  0.825977  0.127350  1
  Sc  Sc16  1  0.831438  0.322843  0.625608  1
  Sc  Sc17  1  0.323790  0.174149  0.873630  1
  Sc  Sc18  1  0.828885  0.324900  0.873491  1
  Sc  Sc19  1  0.171924  0.675665  0.126453  1
  Si  Si20  1  0.969280  0.880490  0.252102  1
  Si  Si21  1  0.470108  0.614113  0.251122  1
  Si  Si22  1  0.530182  0.387464  0.748847  1
  Si  Si23  1  0.287811  0.868369  0.749315  1
  Si  Si24  1  0.710016  0.129906  0.253094  1
  Si  Si25  1  0.216103  0.373713  0.252420  1
  Si  Si26  1  0.780629  0.626249  0.748898  1
  Si  Si27  1  0.158770  0.466075  0.538442  1
  Si  Si28  1  0.842837  0.535630  0.461249  1
  Si  Si29  1  0.344602  0.966326  0.460876  1
  Si  Si30  1  0.839723  0.540739  0.037072  1
  Si  Si31  1  0.657350  0.033306  0.539568  1
  Si  Si32  1  0.159781  0.471380  0.959758  1
  Si  Si33  1  0.656951  0.032762  0.959960  1
  Si  Si34  1  0.350555  0.961903  0.037892  1
  Pt  Pt35  1  0.026040  0.107459  0.749773  1
