# generated using pymatgen
data_Rb2BiP2Se7
_symmetry_space_group_name_H-M   'P 1'
_cell_length_a   7.16315844
_cell_length_b   12.90143311
_cell_length_c   17.98015800
_cell_angle_alpha   79.45452931
_cell_angle_beta   78.44297154
_cell_angle_gamma   73.88609728
_symmetry_Int_Tables_number   1
_chemical_formula_structural   Rb2BiP2Se7
_chemical_formula_sum   'Rb8 Bi4 P8 Se28'
_cell_volume   1549.59354421
_cell_formula_units_Z   4
loop_
 _symmetry_equiv_pos_site_id
 _symmetry_equiv_pos_as_xyz
  1  'x, y, z'
loop_
 _atom_site_type_symbol
 _atom_site_label
 _atom_site_symmetry_multiplicity
 _atom_site_fract_x
 _atom_site_fract_y
 _atom_site_fract_z
 _atom_site_occupancy
  Rb  Rb0  1  0.536821  0.858889  0.118355  1
  Rb  Rb1  1  0.487811  0.359164  0.618201  1
  Rb  Rb2  1  0.463179  0.141111  0.881645  1
  Rb  Rb3  1  0.812671  0.849863  0.523361  1
  Rb  Rb4  1  0.512189  0.640836  0.381799  1
  Rb  Rb5  1  0.187329  0.150137  0.476639  1
  Rb  Rb6  1  0.185567  0.649910  0.976543  1
  Rb  Rb7  1  0.814433  0.350090  0.023457  1
  Bi  Bi8  1  0.887026  0.080377  0.242713  1
  Bi  Bi9  1  0.112974  0.919623  0.757287  1
  Bi  Bi10  1  0.211083  0.419800  0.257242  1
  Bi  Bi11  1  0.788917  0.580200  0.742758  1
  P  P12  1  0.070818  0.712942  0.193527  1
  P  P13  1  0.977617  0.786787  0.306080  1
  P  P14  1  0.330959  0.691645  0.639005  1
  P  P15  1  0.929182  0.287058  0.806473  1
  P  P16  1  0.669041  0.308355  0.360995  1
  P  P17  1  0.022383  0.213213  0.693920  1
  P  P18  1  0.338461  0.191490  0.139552  1
  P  P19  1  0.661539  0.808510  0.860448  1
  Se  Se20  1  0.131385  0.610513  0.606950  1
  Se  Se21  1  0.348335  0.888916  0.892641  1
  Se  Se22  1  0.253553  0.872297  0.598562  1
  Se  Se23  1  0.883104  0.600762  0.196484  1
  Se  Se24  1  0.116896  0.399238  0.803516  1
  Se  Se25  1  0.634993  0.614015  0.588929  1
  Se  Se26  1  0.051270  0.845783  0.100456  1
  Se  Se27  1  0.948730  0.154217  0.899544  1
  Se  Se28  1  0.651665  0.111084  0.107359  1
  Se  Se29  1  0.226234  0.177090  0.266587  1
  Se  Se30  1  0.318901  0.101459  0.696677  1
  Se  Se31  1  0.365007  0.385985  0.411071  1
  Se  Se32  1  0.836798  0.886422  0.910845  1
  Se  Se33  1  0.868615  0.389487  0.393050  1
  Se  Se34  1  0.163202  0.113578  0.089155  1
  Se  Se35  1  0.681099  0.898541  0.303323  1
  Se  Se36  1  0.002518  0.346505  0.601260  1
  Se  Se37  1  0.329166  0.676894  0.766051  1
  Se  Se38  1  0.670834  0.323106  0.233949  1
  Se  Se39  1  0.724480  0.627917  0.901213  1
  Se  Se40  1  0.375728  0.609024  0.199318  1
  Se  Se41  1  0.275520  0.372083  0.098787  1
  Se  Se42  1  0.815860  0.108444  0.699683  1
  Se  Se43  1  0.746447  0.127703  0.401438  1
  Se  Se44  1  0.773766  0.822910  0.733413  1
  Se  Se45  1  0.624272  0.390976  0.800682  1
  Se  Se46  1  0.184140  0.891556  0.300317  1
  Se  Se47  1  0.997482  0.653495  0.398740  1
