# generated using pymatgen
data_TbY4AlRuO12
_symmetry_space_group_name_H-M   'P 1'
_cell_length_a   6.82748671
_cell_length_b   6.82791656
_cell_length_c   7.28884519
_cell_angle_alpha   74.49689462
_cell_angle_beta   74.49792005
_cell_angle_gamma   50.56839873
_symmetry_Int_Tables_number   1
_chemical_formula_structural   TbY4AlRuO12
_chemical_formula_sum   'Tb1 Y4 Al1 Ru1 O12'
_cell_volume   250.71816422
_cell_formula_units_Z   1
loop_
 _symmetry_equiv_pos_site_id
 _symmetry_equiv_pos_as_xyz
  1  'x, y, z'
loop_
 _atom_site_type_symbol
 _atom_site_label
 _atom_site_symmetry_multiplicity
 _atom_site_fract_x
 _atom_site_fract_y
 _atom_site_fract_z
 _atom_site_occupancy
  Tb  Tb0  1  0.308540  0.306763  0.332560  1
  Y  Y1  1  0.693345  0.691081  0.667761  1
  Y  Y2  1  0.686097  0.705781  0.141297  1
  Y  Y3  1  0.997922  0.002089  0.000017  1
  Y  Y4  1  0.294156  0.314036  0.858508  1
  Al  Al5  1  0.252928  0.747046  0.500019  1
  Ru  Ru6  1  0.763718  0.236252  0.500075  1
  O  O7  1  0.400164  0.907736  0.922891  1
  O  O8  1  0.576643  0.098995  0.582037  1
  O  O9  1  0.900589  0.423783  0.418145  1
  O  O10  1  0.092081  0.600082  0.076737  1
  O  O11  1  0.005869  0.994289  0.322243  1
  O  O12  1  0.503427  0.497460  0.679686  1
  O  O13  1  0.899272  0.403913  0.926299  1
  O  O14  1  0.100585  0.580551  0.580492  1
  O  O15  1  0.419965  0.898820  0.419811  1
  O  O16  1  0.596332  0.100517  0.073390  1
  O  O17  1  0.502826  0.496478  0.320379  1
  O  O18  1  0.005542  0.994327  0.677652  1
