# generated using pymatgen
data_AlVRe4O17F
_symmetry_space_group_name_H-M   'P 1'
_cell_length_a   8.06703507
_cell_length_b   8.06703396
_cell_length_c   8.92601275
_cell_angle_alpha   89.84874204
_cell_angle_beta   90.15125684
_cell_angle_gamma   138.52780163
_symmetry_Int_Tables_number   1
_chemical_formula_structural   AlVRe4O17F
_chemical_formula_sum   'Al1 V1 Re4 O17 F1'
_cell_volume   384.68908831
_cell_formula_units_Z   1
loop_
 _symmetry_equiv_pos_site_id
 _symmetry_equiv_pos_as_xyz
  1  'x, y, z'
loop_
 _atom_site_type_symbol
 _atom_site_label
 _atom_site_symmetry_multiplicity
 _atom_site_fract_x
 _atom_site_fract_y
 _atom_site_fract_z
 _atom_site_occupancy
  Al  Al0  1  0.875508  0.124492  0.763297  1
  V  V1  1  0.119758  0.880242  0.279769  1
  Re  Re2  1  0.514877  0.485123  0.689959  1
  Re  Re3  1  0.480904  0.519096  0.185785  1
  Re  Re4  1  0.231177  0.768823  0.869384  1
  Re  Re5  1  0.774724  0.225276  0.378319  1
  O  O6  1  0.068942  0.931058  0.437497  1
  O  O7  1  0.573256  0.426744  0.856790  1
  O  O8  1  0.424327  0.575673  0.353644  1
  O  O9  1  0.592107  0.407893  0.546710  1
  O  O10  1  0.403700  0.596300  0.042098  1
  O  O11  1  0.967025  0.538841  0.332175  1
  O  O12  1  0.031643  0.451837  0.823323  1
  O  O13  1  0.461159  0.032975  0.332175  1
  O  O14  1  0.548163  0.968357  0.823323  1
  O  O15  1  0.808555  0.191445  0.568058  1
  O  O16  1  0.198478  0.801522  0.057770  1
  O  O17  1  0.867177  0.132823  0.266492  1
  O  O18  1  0.136628  0.863372  0.761714  1
  O  O19  1  0.801359  0.702311  0.174524  1
  O  O20  1  0.192937  0.298666  0.678635  1
  O  O21  1  0.297689  0.198641  0.174524  1
  O  O22  1  0.701334  0.807063  0.678635  1
  F  F23  1  0.928576  0.071424  0.931344  1
