# generated using pymatgen
data_Zr2TaRe2Mo
_symmetry_space_group_name_H-M   'P 1'
_cell_length_a   5.37484180
_cell_length_b   5.37484271
_cell_length_c   5.48535400
_cell_angle_alpha   59.84614430
_cell_angle_beta   59.84613865
_cell_angle_gamma   59.87920122
_symmetry_Int_Tables_number   1
_chemical_formula_structural   Zr2TaRe2Mo
_chemical_formula_sum   'Zr2 Ta1 Re2 Mo1'
_cell_volume   111.68915365
_cell_formula_units_Z   1
loop_
 _symmetry_equiv_pos_site_id
 _symmetry_equiv_pos_as_xyz
  1  'x, y, z'
loop_
 _atom_site_type_symbol
 _atom_site_label
 _atom_site_symmetry_multiplicity
 _atom_site_fract_x
 _atom_site_fract_y
 _atom_site_fract_z
 _atom_site_occupancy
  Zr  Zr0  1  0.748198  0.748198  0.753578  1
  Zr  Zr1  1  0.501802  0.501802  0.496422  1
  Ta  Ta2  1  0.125000  0.125000  0.625000  1
  Re  Re3  1  0.125000  0.625000  0.125000  1
  Re  Re4  1  0.625000  0.125000  0.125000  1
  Mo  Mo5  1  0.125000  0.125000  0.125000  1
