# generated using pymatgen
data_SrMn2Nb2(PO4)6
_symmetry_space_group_name_H-M   'P 1'
_cell_length_a   8.61659600
_cell_length_b   9.31075393
_cell_length_c   12.49603110
_cell_angle_alpha   87.20482044
_cell_angle_beta   90.00000000
_cell_angle_gamma   90.00000000
_symmetry_Int_Tables_number   1
_chemical_formula_structural   SrMn2Nb2(PO4)6
_chemical_formula_sum   'Sr2 Mn4 Nb4 P12 O48'
_cell_volume   1001.32639689
_cell_formula_units_Z   2
loop_
 _symmetry_equiv_pos_site_id
 _symmetry_equiv_pos_as_xyz
  1  'x, y, z'
loop_
 _atom_site_type_symbol
 _atom_site_label
 _atom_site_symmetry_multiplicity
 _atom_site_fract_x
 _atom_site_fract_y
 _atom_site_fract_z
 _atom_site_occupancy
  Sr  Sr0  1  0.000000  0.000000  0.500000  1
  Sr  Sr1  1  0.500000  0.500000  0.500000  1
  Mn  Mn2  1  0.503784  0.802631  0.642175  1
  Mn  Mn3  1  0.003784  0.697369  0.357825  1
  Mn  Mn4  1  0.496216  0.197369  0.357825  1
  Mn  Mn5  1  0.996216  0.302631  0.642175  1
  Nb  Nb6  1  0.498453  0.211630  0.854304  1
  Nb  Nb7  1  0.998453  0.288370  0.145696  1
  Nb  Nb8  1  0.501547  0.788370  0.145696  1
  Nb  Nb9  1  0.001547  0.711630  0.854304  1
  P  P10  1  0.349644  0.853235  0.398111  1
  P  P11  1  0.280231  0.491215  0.741364  1
  P  P12  1  0.150356  0.353235  0.398111  1
  P  P13  1  0.858863  0.364535  0.887790  1
  P  P14  1  0.358863  0.135465  0.112210  1
  P  P15  1  0.780231  0.008785  0.258636  1
  P  P16  1  0.219769  0.991215  0.741364  1
  P  P17  1  0.641137  0.864535  0.887790  1
  P  P18  1  0.141137  0.635465  0.112210  1
  P  P19  1  0.849644  0.646765  0.601889  1
  P  P20  1  0.719769  0.508785  0.258636  1
  P  P21  1  0.650356  0.146765  0.601889  1
  O  O22  1  0.314602  0.904639  0.662187  1
  O  O23  1  0.172694  0.822365  0.398297  1
  O  O24  1  0.430610  0.765854  0.490756  1
  O  O25  1  0.422852  0.791414  0.294559  1
  O  O26  1  0.395301  0.582270  0.676379  1
  O  O27  1  0.134545  0.514849  0.402313  1
  O  O28  1  0.185398  0.404639  0.662187  1
  O  O29  1  0.369843  0.382220  0.819666  1
  O  O30  1  0.125036  0.470254  0.112600  1
  O  O31  1  0.824120  0.418297  0.186329  1
  O  O32  1  0.327306  0.322365  0.398297  1
  O  O33  1  0.069390  0.265854  0.490756  1
  O  O34  1  0.077148  0.291414  0.294559  1
  O  O35  1  0.681974  0.329436  0.890114  1
  O  O36  1  0.926412  0.298823  0.995040  1
  O  O37  1  0.941051  0.297253  0.795662  1
  O  O38  1  0.441051  0.202747  0.204338  1
  O  O39  1  0.426412  0.201177  0.004960  1
  O  O40  1  0.181974  0.170564  0.109886  1
  O  O41  1  0.869843  0.117780  0.180334  1
  O  O42  1  0.365455  0.014849  0.402313  1
  O  O43  1  0.104699  0.082270  0.676379  1
  O  O44  1  0.324120  0.081703  0.813671  1
  O  O45  1  0.625036  0.029746  0.887400  1
  O  O46  1  0.374964  0.970254  0.112600  1
  O  O47  1  0.675880  0.918297  0.186329  1
  O  O48  1  0.895301  0.917730  0.323621  1
  O  O49  1  0.634545  0.985151  0.597687  1
  O  O50  1  0.130157  0.882220  0.819666  1
  O  O51  1  0.818026  0.829436  0.890114  1
  O  O52  1  0.573588  0.798823  0.995040  1
  O  O53  1  0.558949  0.797253  0.795662  1
  O  O54  1  0.058949  0.702747  0.204338  1
  O  O55  1  0.073588  0.701177  0.004960  1
  O  O56  1  0.318026  0.670564  0.109886  1
  O  O57  1  0.922852  0.708586  0.705441  1
  O  O58  1  0.930610  0.734146  0.509244  1
  O  O59  1  0.672694  0.677635  0.601703  1
  O  O60  1  0.175880  0.581703  0.813671  1
  O  O61  1  0.874964  0.529746  0.887400  1
  O  O62  1  0.630157  0.617780  0.180334  1
  O  O63  1  0.814602  0.595361  0.337813  1
  O  O64  1  0.865455  0.485151  0.597687  1
  O  O65  1  0.604699  0.417730  0.323621  1
  O  O66  1  0.577148  0.208586  0.705441  1
  O  O67  1  0.569390  0.234146  0.509244  1
  O  O68  1  0.827306  0.177635  0.601703  1
  O  O69  1  0.685398  0.095361  0.337813  1
