# generated using pymatgen
data_Ba3Li3(NiN)4
_symmetry_space_group_name_H-M   'P 1'
_cell_length_a   4.17530590
_cell_length_b   7.05782769
_cell_length_c   9.85104416
_cell_angle_alpha   110.99136928
_cell_angle_beta   102.23501657
_cell_angle_gamma   89.99999707
_symmetry_Int_Tables_number   1
_chemical_formula_structural   Ba3Li3(NiN)4
_chemical_formula_sum   'Ba3 Li3 Ni4 N4'
_cell_volume   263.95623609
_cell_formula_units_Z   1
loop_
 _symmetry_equiv_pos_site_id
 _symmetry_equiv_pos_as_xyz
  1  'x, y, z'
loop_
 _atom_site_type_symbol
 _atom_site_label
 _atom_site_symmetry_multiplicity
 _atom_site_fract_x
 _atom_site_fract_y
 _atom_site_fract_z
 _atom_site_occupancy
  Ba  Ba0  1  0.000000  0.000000  0.000000  1
  Ba  Ba1  1  0.219624  0.219624  0.439248  1
  Ba  Ba2  1  0.780377  0.780376  0.560752  1
  Li  Li3  1  0.500001  0.500000  0.000000  1
  Li  Li4  1  0.113148  0.613147  0.226293  1
  Li  Li5  1  0.886854  0.386853  0.773707  1
  Ni  Ni6  1  0.617146  0.367947  0.234291  1
  Ni  Ni7  1  0.617146  0.866345  0.234291  1
  Ni  Ni8  1  0.382855  0.133655  0.765709  1
  Ni  Ni9  1  0.382855  0.632054  0.765709  1
  N  N10  1  0.616696  0.116695  0.233391  1
  N  N11  1  0.614422  0.614421  0.228843  1
  N  N12  1  0.385578  0.385578  0.771156  1
  N  N13  1  0.383305  0.883304  0.766609  1
