# generated using pymatgen
data_Tb17Dy3(Bi2Ir)4
_symmetry_space_group_name_H-M   'P 1'
_cell_length_a   8.05026415
_cell_length_b   9.03727018
_cell_length_c   12.55686036
_cell_angle_alpha   90.01991715
_cell_angle_beta   89.98096243
_cell_angle_gamma   89.98870244
_symmetry_Int_Tables_number   1
_chemical_formula_structural   Tb17Dy3(Bi2Ir)4
_chemical_formula_sum   'Tb17 Dy3 Bi8 Ir4'
_cell_volume   913.54175703
_cell_formula_units_Z   1
loop_
 _symmetry_equiv_pos_site_id
 _symmetry_equiv_pos_as_xyz
  1  'x, y, z'
loop_
 _atom_site_type_symbol
 _atom_site_label
 _atom_site_symmetry_multiplicity
 _atom_site_fract_x
 _atom_site_fract_y
 _atom_site_fract_z
 _atom_site_occupancy
  Tb  Tb0  1  0.840869  0.749926  0.793145  1
  Tb  Tb1  1  0.159114  0.250056  0.206845  1
  Tb  Tb2  1  0.340845  0.250067  0.706912  1
  Tb  Tb3  1  0.659230  0.749955  0.293097  1
  Tb  Tb4  1  0.376657  0.749952  0.693345  1
  Tb  Tb5  1  0.623463  0.250074  0.306670  1
  Tb  Tb6  1  0.876622  0.250104  0.806720  1
  Tb  Tb7  1  0.123352  0.749894  0.193243  1
  Tb  Tb8  1  0.946276  0.749935  0.501367  1
  Tb  Tb9  1  0.053549  0.250057  0.498646  1
  Tb  Tb10  1  0.446347  0.250120  0.998638  1
  Tb  Tb11  1  0.553675  0.749890  0.001362  1
  Tb  Tb12  1  0.676743  0.041796  0.566208  1
  Tb  Tb13  1  0.323246  0.958297  0.433816  1
  Tb  Tb14  1  0.176734  0.958234  0.933809  1
  Tb  Tb15  1  0.323390  0.541683  0.433854  1
  Tb  Tb16  1  0.823269  0.041741  0.066184  1
  Dy  Dy17  1  0.676259  0.458265  0.566125  1
  Dy  Dy18  1  0.823893  0.458326  0.066060  1
  Dy  Dy19  1  0.176101  0.541722  0.933942  1
  Bi  Bi20  1  0.569164  0.491180  0.827347  1
  Bi  Bi21  1  0.430872  0.508797  0.172593  1
  Bi  Bi22  1  0.069200  0.508805  0.672654  1
  Bi  Bi23  1  0.430703  0.991172  0.172655  1
  Bi  Bi24  1  0.930687  0.491163  0.327305  1
  Bi  Bi25  1  0.569300  0.008830  0.827358  1
  Bi  Bi26  1  0.930705  0.008834  0.327341  1
  Bi  Bi27  1  0.069305  0.991168  0.672655  1
  Ir  Ir28  1  0.570468  0.749763  0.509110  1
  Ir  Ir29  1  0.429979  0.250201  0.490990  1
  Ir  Ir30  1  0.070181  0.250393  0.990968  1
  Ir  Ir31  1  0.929801  0.749603  0.009034  1
