# generated using pymatgen
data_TbLu2Fe7Co2
_symmetry_space_group_name_H-M   'P 1'
_cell_length_a   8.57625969
_cell_length_b   8.57625919
_cell_length_c   8.57626087
_cell_angle_alpha   34.41188832
_cell_angle_beta   34.41189095
_cell_angle_gamma   34.41189584
_symmetry_Int_Tables_number   1
_chemical_formula_structural   TbLu2Fe7Co2
_chemical_formula_sum   'Tb1 Lu2 Fe7 Co2'
_cell_volume   179.70640081
_cell_formula_units_Z   1
loop_
 _symmetry_equiv_pos_site_id
 _symmetry_equiv_pos_as_xyz
  1  'x, y, z'
loop_
 _atom_site_type_symbol
 _atom_site_label
 _atom_site_symmetry_multiplicity
 _atom_site_fract_x
 _atom_site_fract_y
 _atom_site_fract_z
 _atom_site_occupancy
  Tb  Tb0  1  0.000104  0.000104  0.000104  1
  Lu  Lu1  1  0.142280  0.142280  0.142280  1
  Lu  Lu2  1  0.857530  0.857530  0.857530  1
  Fe  Fe3  1  0.667273  0.667273  0.667273  1
  Fe  Fe4  1  0.081790  0.583422  0.583422  1
  Fe  Fe5  1  0.583422  0.583422  0.081790  1
  Fe  Fe6  1  0.583422  0.081790  0.583422  1
  Fe  Fe7  1  0.417002  0.917663  0.417002  1
  Fe  Fe8  1  0.917663  0.417002  0.417002  1
  Fe  Fe9  1  0.417002  0.417002  0.917663  1
  Co  Co10  1  0.499972  0.499972  0.499972  1
  Co  Co11  1  0.332540  0.332540  0.332540  1
