# generated using pymatgen
data_CaYb(HfAs2)2
_symmetry_space_group_name_H-M   'P 1'
_cell_length_a   3.87020400
_cell_length_b   3.87020365
_cell_length_c   13.43378300
_cell_angle_alpha   90.00000000
_cell_angle_beta   90.00000000
_cell_angle_gamma   120.00002009
_symmetry_Int_Tables_number   1
_chemical_formula_structural   CaYb(HfAs2)2
_chemical_formula_sum   'Ca1 Yb1 Hf2 As4'
_cell_volume   174.25953392
_cell_formula_units_Z   1
loop_
 _symmetry_equiv_pos_site_id
 _symmetry_equiv_pos_as_xyz
  1  'x, y, z'
loop_
 _atom_site_type_symbol
 _atom_site_label
 _atom_site_symmetry_multiplicity
 _atom_site_fract_x
 _atom_site_fract_y
 _atom_site_fract_z
 _atom_site_occupancy
  Ca  Ca0  1  0.666667  0.333333  0.878221  1
  Yb  Yb1  1  0.333333  0.666667  0.379516  1
  Hf  Hf2  1  0.666667  0.333333  0.621035  1
  Hf  Hf3  1  0.333333  0.666667  0.123134  1
  As  As4  1  0.666667  0.333333  0.239620  1
  As  As5  1  0.333333  0.666667  0.736729  1
  As  As6  1  0.000000  0.000000  0.509981  1
  As  As7  1  0.000000  0.000000  0.011764  1
