# generated using pymatgen
data_CaNd(Si2Rh3)2
_symmetry_space_group_name_H-M   'P 1'
_cell_length_a   6.68727402
_cell_length_b   6.68727317
_cell_length_c   6.68727396
_cell_angle_alpha   130.15375955
_cell_angle_beta   115.29982310
_cell_angle_gamma   85.85986152
_symmetry_Int_Tables_number   1
_chemical_formula_structural   CaNd(Si2Rh3)2
_chemical_formula_sum   'Ca1 Nd1 Si4 Rh6'
_cell_volume   197.49382061
_cell_formula_units_Z   1
loop_
 _symmetry_equiv_pos_site_id
 _symmetry_equiv_pos_as_xyz
  1  'x, y, z'
loop_
 _atom_site_type_symbol
 _atom_site_label
 _atom_site_symmetry_multiplicity
 _atom_site_fract_x
 _atom_site_fract_y
 _atom_site_fract_z
 _atom_site_occupancy
  Ca  Ca0  1  0.750000  0.035219  0.285219  1
  Nd  Nd1  1  0.250000  0.961374  0.711374  1
  Si  Si2  1  0.579112  0.381744  0.802632  1
  Si  Si3  1  0.423188  0.621464  0.198276  1
  Si  Si4  1  0.076812  0.275088  0.198276  1
  Si  Si5  1  0.920888  0.723520  0.802632  1
  Rh  Rh6  1  0.215130  0.499061  0.715414  1
  Rh  Rh7  1  0.716353  0.000284  0.715414  1
  Rh  Rh8  1  0.783647  0.499061  0.283931  1
  Rh  Rh9  1  0.284870  0.000284  0.283931  1
  Rh  Rh10  1  0.500164  0.501451  0.501615  1
  Rh  Rh11  1  0.999836  0.501451  0.001287  1
