# generated using pymatgen
data_Hf20Ga12N
_symmetry_space_group_name_H-M   'P 1'
_cell_length_a   5.69474970
_cell_length_b   7.98137504
_cell_length_c   13.89043100
_cell_angle_alpha   90.00000825
_cell_angle_beta   90.00000000
_cell_angle_gamma   90.03412695
_symmetry_Int_Tables_number   1
_chemical_formula_structural   Hf20Ga12N
_chemical_formula_sum   'Hf20 Ga12 N1'
_cell_volume   631.34682875
_cell_formula_units_Z   1
loop_
 _symmetry_equiv_pos_site_id
 _symmetry_equiv_pos_as_xyz
  1  'x, y, z'
loop_
 _atom_site_type_symbol
 _atom_site_label
 _atom_site_symmetry_multiplicity
 _atom_site_fract_x
 _atom_site_fract_y
 _atom_site_fract_z
 _atom_site_occupancy
  Hf  Hf0  1  0.500000  0.000001  0.335124  1
  Hf  Hf1  1  0.500001  0.499999  0.833480  1
  Hf  Hf2  1  0.500000  0.499999  0.166509  1
  Hf  Hf3  1  0.500000  0.000000  0.664882  1
  Hf  Hf4  1  0.000000  0.500001  0.165693  1
  Hf  Hf5  1  0.000000  0.999999  0.668905  1
  Hf  Hf6  1  0.000000  0.000000  0.331099  1
  Hf  Hf7  1  0.000001  0.500001  0.834300  1
  Hf  Hf8  1  0.760771  0.232241  0.999999  1
  Hf  Hf9  1  0.750374  0.740484  0.499998  1
  Hf  Hf10  1  0.750992  0.380283  0.379160  1
  Hf  Hf11  1  0.761542  0.883599  0.882816  1
  Hf  Hf12  1  0.761543  0.883604  0.117181  1
  Hf  Hf13  1  0.750998  0.380278  0.620839  1
  Hf  Hf14  1  0.239229  0.767761  0.999999  1
  Hf  Hf15  1  0.249624  0.259514  0.499998  1
  Hf  Hf16  1  0.238458  0.116397  0.117181  1
  Hf  Hf17  1  0.249002  0.619722  0.620839  1
  Hf  Hf18  1  0.249006  0.619716  0.379160  1
  Hf  Hf19  1  0.238459  0.116402  0.882816  1
  Ga  Ga20  1  0.746349  0.602097  0.000027  1
  Ga  Ga21  1  0.753951  0.106677  0.499988  1
  Ga  Ga22  1  0.746002  0.198058  0.198609  1
  Ga  Ga23  1  0.749754  0.697202  0.697503  1
  Ga  Ga24  1  0.749757  0.697212  0.302487  1
  Ga  Ga25  1  0.745996  0.198054  0.801398  1
  Ga  Ga26  1  0.253650  0.397903  0.000027  1
  Ga  Ga27  1  0.246044  0.893323  0.499988  1
  Ga  Ga28  1  0.250242  0.302789  0.302486  1
  Ga  Ga29  1  0.254007  0.801947  0.801399  1
  Ga  Ga30  1  0.254002  0.801942  0.198610  1
  Ga  Ga31  1  0.250246  0.302797  0.697503  1
  N  N32  1  0.000000  0.000001  0.999999  1
