# generated using pymatgen
data_Rb5Eu3Br12
_symmetry_space_group_name_H-M   'P 1'
_cell_length_a   14.24944900
_cell_length_b   14.24944940
_cell_length_c   4.58433400
_cell_angle_alpha   90.00000000
_cell_angle_beta   90.00000000
_cell_angle_gamma   120.00000139
_symmetry_Int_Tables_number   1
_chemical_formula_structural   Rb5Eu3Br12
_chemical_formula_sum   'Rb5 Eu3 Br12'
_cell_volume   806.12619161
_cell_formula_units_Z   1
loop_
 _symmetry_equiv_pos_site_id
 _symmetry_equiv_pos_as_xyz
  1  'x, y, z'
loop_
 _atom_site_type_symbol
 _atom_site_label
 _atom_site_symmetry_multiplicity
 _atom_site_fract_x
 _atom_site_fract_y
 _atom_site_fract_z
 _atom_site_occupancy
  Rb  Rb0  1  0.333333  0.666667  0.000000  1
  Rb  Rb1  1  0.666667  0.333333  0.000000  1
  Rb  Rb2  1  0.712091  0.000000  0.000000  1
  Rb  Rb3  1  0.000000  0.712091  0.000000  1
  Rb  Rb4  1  0.287909  0.287909  0.000000  1
  Eu  Eu5  1  0.327032  0.000000  0.500000  1
  Eu  Eu6  1  0.000000  0.327032  0.500000  1
  Eu  Eu7  1  0.672968  0.672968  0.500000  1
  Br  Br8  1  0.186582  0.000000  0.000000  1
  Br  Br9  1  0.000000  0.186582  0.000000  1
  Br  Br10  1  0.813418  0.813418  0.000000  1
  Br  Br11  1  0.462641  0.000000  0.000000  1
  Br  Br12  1  0.000000  0.462641  0.000000  1
  Br  Br13  1  0.537359  0.537359  0.000000  1
  Br  Br14  1  0.239497  0.443717  0.500000  1
  Br  Br15  1  0.556283  0.795781  0.500000  1
  Br  Br16  1  0.443717  0.239497  0.500000  1
  Br  Br17  1  0.204219  0.760503  0.500000  1
  Br  Br18  1  0.795781  0.556283  0.500000  1
  Br  Br19  1  0.760503  0.204219  0.500000  1
