# generated using pymatgen
data_TbYb3Tm4(B6Os)4
_symmetry_space_group_name_H-M   'P 1'
_cell_length_a   3.62680100
_cell_length_b   9.11918458
_cell_length_c   11.51337800
_cell_angle_alpha   89.93813129
_cell_angle_beta   90.00000000
_cell_angle_gamma   90.00000000
_symmetry_Int_Tables_number   1
_chemical_formula_structural   TbYb3Tm4(B6Os)4
_chemical_formula_sum   'Tb1 Yb3 Tm4 B24 Os4'
_cell_volume   380.78711410
_cell_formula_units_Z   1
loop_
 _symmetry_equiv_pos_site_id
 _symmetry_equiv_pos_as_xyz
  1  'x, y, z'
loop_
 _atom_site_type_symbol
 _atom_site_label
 _atom_site_symmetry_multiplicity
 _atom_site_fract_x
 _atom_site_fract_y
 _atom_site_fract_z
 _atom_site_occupancy
  Tb  Tb0  1  0.000000  0.176298  0.914763  1
  Yb  Yb1  1  0.000000  0.324404  0.414440  1
  Yb  Yb2  1  0.000000  0.675664  0.585121  1
  Yb  Yb3  1  0.000000  0.822899  0.086258  1
  Tm  Tm4  1  0.000000  0.941539  0.368007  1
  Tm  Tm5  1  0.000000  0.057577  0.630260  1
  Tm  Tm6  1  0.000000  0.443498  0.131917  1
  Tm  Tm7  1  0.000000  0.558383  0.868913  1
  B  B8  1  0.500000  0.553209  0.433032  1
  B  B9  1  0.500000  0.446263  0.567702  1
  B  B10  1  0.500000  0.053574  0.067226  1
  B  B11  1  0.500000  0.945579  0.933211  1
  B  B12  1  0.500000  0.748915  0.417571  1
  B  B13  1  0.500000  0.250893  0.582352  1
  B  B14  1  0.500000  0.249507  0.082262  1
  B  B15  1  0.500000  0.751141  0.918027  1
  B  B16  1  0.500000  0.791272  0.264247  1
  B  B17  1  0.500000  0.208449  0.735479  1
  B  B18  1  0.500000  0.291623  0.234894  1
  B  B19  1  0.500000  0.709402  0.764980  1
  B  B20  1  0.500000  0.630719  0.185699  1
  B  B21  1  0.500000  0.369535  0.815048  1
  B  B22  1  0.500000  0.130764  0.313878  1
  B  B23  1  0.500000  0.869537  0.684928  1
  B  B24  1  0.500000  0.982385  0.211028  1
  B  B25  1  0.500000  0.016988  0.788039  1
  B  B26  1  0.500000  0.483179  0.288724  1
  B  B27  1  0.500000  0.516789  0.711989  1
  B  B28  1  0.500000  0.598638  0.027296  1
  B  B29  1  0.500000  0.401292  0.972932  1
  B  B30  1  0.500000  0.096833  0.472756  1
  B  B31  1  0.500000  0.903054  0.526276  1
  Os  Os32  1  0.000000  0.638891  0.320533  1
  Os  Os33  1  0.000000  0.360142  0.680733  1
  Os  Os34  1  0.000000  0.138608  0.179501  1
  Os  Os35  1  0.000000  0.862554  0.819981  1
