# generated using pymatgen
data_Dy13Ho7Bi12
_symmetry_space_group_name_H-M   'P 1'
_cell_length_a   8.26241672
_cell_length_b   9.51125403
_cell_length_c   12.05066133
_cell_angle_alpha   89.99376070
_cell_angle_beta   90.02306247
_cell_angle_gamma   90.00638423
_symmetry_Int_Tables_number   1
_chemical_formula_structural   Dy13Ho7Bi12
_chemical_formula_sum   'Dy13 Ho7 Bi12'
_cell_volume   947.01251153
_cell_formula_units_Z   1
loop_
 _symmetry_equiv_pos_site_id
 _symmetry_equiv_pos_as_xyz
  1  'x, y, z'
loop_
 _atom_site_type_symbol
 _atom_site_label
 _atom_site_symmetry_multiplicity
 _atom_site_fract_x
 _atom_site_fract_y
 _atom_site_fract_z
 _atom_site_occupancy
  Dy  Dy0  1  0.352540  0.750318  0.215557  1
  Dy  Dy1  1  0.851977  0.750245  0.284166  1
  Dy  Dy2  1  0.647839  0.250084  0.784278  1
  Dy  Dy3  1  0.147922  0.250189  0.715698  1
  Dy  Dy4  1  0.192219  0.563778  0.441498  1
  Dy  Dy5  1  0.475559  0.249993  0.488201  1
  Dy  Dy6  1  0.975408  0.250096  0.011714  1
  Dy  Dy7  1  0.524902  0.750169  0.511882  1
  Dy  Dy8  1  0.024620  0.750034  0.988167  1
  Dy  Dy9  1  0.312667  0.250005  0.218567  1
  Dy  Dy10  1  0.812824  0.250000  0.281417  1
  Dy  Dy11  1  0.687305  0.750051  0.781517  1
  Dy  Dy12  1  0.187310  0.750218  0.718723  1
  Ho  Ho13  1  0.692409  0.564761  0.058473  1
  Ho  Ho14  1  0.192373  0.935234  0.441440  1
  Ho  Ho15  1  0.307537  0.064740  0.941533  1
  Ho  Ho16  1  0.807782  0.435207  0.558470  1
  Ho  Ho17  1  0.307626  0.435219  0.941472  1
  Ho  Ho18  1  0.807322  0.064686  0.558606  1
  Ho  Ho19  1  0.692438  0.935259  0.058459  1
  Bi  Bi20  1  0.407027  0.749987  0.956977  1
  Bi  Bi21  1  0.906811  0.750358  0.543138  1
  Bi  Bi22  1  0.593011  0.250006  0.042968  1
  Bi  Bi23  1  0.092594  0.248692  0.457234  1
  Bi  Bi24  1  0.565442  0.995564  0.325355  1
  Bi  Bi25  1  0.065273  0.504662  0.174437  1
  Bi  Bi26  1  0.434557  0.495520  0.674727  1
  Bi  Bi27  1  0.934551  0.004670  0.825446  1
  Bi  Bi28  1  0.434639  0.004650  0.674622  1
  Bi  Bi29  1  0.934439  0.495464  0.825475  1
  Bi  Bi30  1  0.565691  0.504640  0.325300  1
  Bi  Bi31  1  0.065386  0.995501  0.174485  1
