# generated using pymatgen
data_Ba4VCoO8
_symmetry_space_group_name_H-M   'P 1'
_cell_length_a   7.72146300
_cell_length_b   6.21983018
_cell_length_c   11.86802990
_cell_angle_alpha   62.23260347
_cell_angle_beta   90.00000000
_cell_angle_gamma   90.00000000
_symmetry_Int_Tables_number   1
_chemical_formula_structural   Ba4VCoO8
_chemical_formula_sum   'Ba8 V2 Co2 O16'
_cell_volume   504.34132514
_cell_formula_units_Z   2
loop_
 _symmetry_equiv_pos_site_id
 _symmetry_equiv_pos_as_xyz
  1  'x, y, z'
loop_
 _atom_site_type_symbol
 _atom_site_label
 _atom_site_symmetry_multiplicity
 _atom_site_fract_x
 _atom_site_fract_y
 _atom_site_fract_z
 _atom_site_occupancy
  Ba  Ba0  1  0.994851  0.963225  0.306784  1
  Ba  Ba1  1  0.494851  0.036775  0.193216  1
  Ba  Ba2  1  0.999327  0.018253  0.696148  1
  Ba  Ba3  1  0.499327  0.981747  0.803852  1
  Ba  Ba4  1  0.660321  0.312907  0.444532  1
  Ba  Ba5  1  0.160321  0.687093  0.055468  1
  Ba  Ba6  1  0.348309  0.667328  0.605053  1
  Ba  Ba7  1  0.848309  0.332672  0.894947  1
  V  V8  1  0.222990  0.348119  0.413155  1
  V  V9  1  0.722990  0.651881  0.086845  1
  Co  Co10  1  0.781454  0.674311  0.575124  1
  Co  Co11  1  0.281454  0.325689  0.924876  1
  O  O12  1  0.311413  0.262582  0.565121  1
  O  O13  1  0.811413  0.737418  0.934879  1
  O  O14  1  0.669516  0.764046  0.417973  1
  O  O15  1  0.169516  0.235954  0.082027  1
  O  O16  1  0.322396  0.161055  0.359729  1
  O  O17  1  0.822396  0.838945  0.140271  1
  O  O18  1  0.665679  0.860858  0.640032  1
  O  O19  1  0.165679  0.139142  0.859968  1
  O  O20  1  0.264571  0.653650  0.311656  1
  O  O21  1  0.764571  0.346350  0.188344  1
  O  O22  1  0.739847  0.333080  0.671327  1
  O  O23  1  0.239847  0.666920  0.828673  1
  O  O24  1  0.517050  0.268913  0.930601  1
  O  O25  1  0.017050  0.731087  0.569399  1
  O  O26  1  0.502277  0.702955  0.076583  1
  O  O27  1  0.002277  0.297045  0.423417  1
