# generated using pymatgen
data_Nb12Co8ReRu3C4
_symmetry_space_group_name_H-M   'P 1'
_cell_length_a   8.13859717
_cell_length_b   8.14196563
_cell_length_c   8.14196600
_cell_angle_alpha   59.99999852
_cell_angle_beta   59.98630628
_cell_angle_gamma   59.98630214
_symmetry_Int_Tables_number   1
_chemical_formula_structural   Nb12Co8ReRu3C4
_chemical_formula_sum   'Nb12 Co8 Re1 Ru3 C4'
_cell_volume   381.41973907
_cell_formula_units_Z   1
loop_
 _symmetry_equiv_pos_site_id
 _symmetry_equiv_pos_as_xyz
  1  'x, y, z'
loop_
 _atom_site_type_symbol
 _atom_site_label
 _atom_site_symmetry_multiplicity
 _atom_site_fract_x
 _atom_site_fract_y
 _atom_site_fract_z
 _atom_site_occupancy
  Nb  Nb0  1  0.694771  0.306365  0.692500  1
  Nb  Nb1  1  0.945280  0.554976  0.554976  1
  Nb  Nb2  1  0.555229  0.943635  0.943635  1
  Nb  Nb3  1  0.945280  0.554976  0.944769  1
  Nb  Nb4  1  0.555229  0.557500  0.943635  1
  Nb  Nb5  1  0.945280  0.944769  0.554976  1
  Nb  Nb6  1  0.694771  0.692500  0.306365  1
  Nb  Nb7  1  0.304720  0.695024  0.695024  1
  Nb  Nb8  1  0.694771  0.306365  0.306365  1
  Nb  Nb9  1  0.304720  0.305231  0.695024  1
  Nb  Nb10  1  0.555229  0.943635  0.557500  1
  Nb  Nb11  1  0.304720  0.695024  0.305231  1
  Co  Co12  1  0.327921  0.326679  0.326679  1
  Co  Co13  1  0.229621  0.923459  0.923459  1
  Co  Co14  1  0.922079  0.231279  0.923321  1
  Co  Co15  1  0.922079  0.923321  0.231279  1
  Co  Co16  1  0.327921  0.018721  0.326679  1
  Co  Co17  1  0.327921  0.326679  0.018721  1
  Co  Co18  1  0.020379  0.326541  0.326541  1
  Co  Co19  1  0.922079  0.923321  0.923321  1
  Re  Re20  1  0.625000  0.125000  0.125000  1
  Ru  Ru21  1  0.125000  0.125000  0.125000  1
  Ru  Ru22  1  0.125000  0.625000  0.125000  1
  Ru  Ru23  1  0.125000  0.125000  0.625000  1
  C  C24  1  0.625000  0.625000  0.625000  1
  C  C25  1  0.125000  0.625000  0.625000  1
  C  C26  1  0.625000  0.125000  0.625000  1
  C  C27  1  0.625000  0.625000  0.125000  1
