# generated using pymatgen
data_PrZn3Si
_symmetry_space_group_name_H-M   'P 1'
_cell_length_a   6.03860204
_cell_length_b   6.03860250
_cell_length_c   5.90098200
_cell_angle_alpha   90.00000000
_cell_angle_beta   90.00000000
_cell_angle_gamma   120.19079226
_symmetry_Int_Tables_number   1
_chemical_formula_structural   PrZn3Si
_chemical_formula_sum   'Pr2 Zn6 Si2'
_cell_volume   185.99000515
_cell_formula_units_Z   2
loop_
 _symmetry_equiv_pos_site_id
 _symmetry_equiv_pos_as_xyz
  1  'x, y, z'
loop_
 _atom_site_type_symbol
 _atom_site_label
 _atom_site_symmetry_multiplicity
 _atom_site_fract_x
 _atom_site_fract_y
 _atom_site_fract_z
 _atom_site_occupancy
  Pr  Pr0  1  0.252990  0.747010  0.750000  1
  Pr  Pr1  1  0.747010  0.252990  0.250000  1
  Zn  Zn2  1  0.627741  0.372259  0.750000  1
  Zn  Zn3  1  0.372259  0.627741  0.250000  1
  Zn  Zn4  1  0.760572  0.760572  0.000000  1
  Zn  Zn5  1  0.760572  0.760572  0.500000  1
  Zn  Zn6  1  0.239428  0.239428  0.000000  1
  Zn  Zn7  1  0.239428  0.239428  0.500000  1
  Si  Si8  1  0.858682  0.141318  0.750000  1
  Si  Si9  1  0.141318  0.858682  0.250000  1
