# generated using pymatgen
data_Mo(Pt3Rh)2
_symmetry_space_group_name_H-M   'P 1'
_cell_length_a   6.28622112
_cell_length_b   6.28621896
_cell_length_c   6.19842449
_cell_angle_alpha   95.66313701
_cell_angle_beta   95.66314127
_cell_angle_gamma   143.64862774
_symmetry_Int_Tables_number   1
_chemical_formula_structural   Mo(Pt3Rh)2
_chemical_formula_sum   'Mo1 Pt6 Rh2'
_cell_volume   137.72857928
_cell_formula_units_Z   1
loop_
 _symmetry_equiv_pos_site_id
 _symmetry_equiv_pos_as_xyz
  1  'x, y, z'
loop_
 _atom_site_type_symbol
 _atom_site_label
 _atom_site_symmetry_multiplicity
 _atom_site_fract_x
 _atom_site_fract_y
 _atom_site_fract_z
 _atom_site_occupancy
  Mo  Mo0  1  0.000000  0.000000  0.000000  1
  Pt  Pt1  1  0.660855  0.339145  0.000000  1
  Pt  Pt2  1  0.339145  0.660855  0.000000  1
  Pt  Pt3  1  0.003453  0.327947  0.331400  1
  Pt  Pt4  1  0.996547  0.672053  0.668600  1
  Pt  Pt5  1  0.672053  0.996547  0.668600  1
  Pt  Pt6  1  0.327947  0.003453  0.331400  1
  Rh  Rh7  1  0.339107  0.339107  0.678216  1
  Rh  Rh8  1  0.660893  0.660893  0.321784  1
