# generated using pymatgen
data_Tb4Y3RhI12
_symmetry_space_group_name_H-M   'P 1'
_cell_length_a   9.82712848
_cell_length_b   9.83468225
_cell_length_c   9.83287372
_cell_angle_alpha   106.93825605
_cell_angle_beta   106.95834214
_cell_angle_gamma   106.99425256
_symmetry_Int_Tables_number   1
_chemical_formula_structural   Tb4Y3RhI12
_chemical_formula_sum   'Tb4 Y3 Rh1 I12'
_cell_volume   792.21516809
_cell_formula_units_Z   1
loop_
 _symmetry_equiv_pos_site_id
 _symmetry_equiv_pos_as_xyz
  1  'x, y, z'
loop_
 _atom_site_type_symbol
 _atom_site_label
 _atom_site_symmetry_multiplicity
 _atom_site_fract_x
 _atom_site_fract_y
 _atom_site_fract_z
 _atom_site_occupancy
  Tb  Tb0  1  0.704071  0.904932  0.976414  1
  Tb  Tb1  1  0.095145  0.023006  0.296111  1
  Tb  Tb2  1  0.023171  0.296203  0.094879  1
  Tb  Tb3  1  0.295741  0.094770  0.023069  1
  Y  Y4  1  0.499927  0.499901  0.499888  1
  Y  Y5  1  0.905138  0.976505  0.703835  1
  Y  Y6  1  0.976716  0.703852  0.905116  1
  Rh  Rh7  1  0.000037  0.000343  0.000454  1
  I  I8  1  0.535969  0.837048  0.612523  1
  I  I9  1  0.837435  0.613003  0.536022  1
  I  I10  1  0.612900  0.535520  0.836866  1
  I  I11  1  0.464648  0.163201  0.387502  1
  I  I12  1  0.163144  0.387490  0.464600  1
  I  I13  1  0.387539  0.464566  0.163141  1
  I  I14  1  0.676209  0.224362  0.070659  1
  I  I15  1  0.223691  0.070438  0.676141  1
  I  I16  1  0.070466  0.676201  0.223648  1
  I  I17  1  0.323184  0.775286  0.929043  1
  I  I18  1  0.775631  0.929284  0.324605  1
  I  I19  1  0.929238  0.324089  0.775484  1
