# generated using pymatgen
data_Tb3YCu3Sb8
_symmetry_space_group_name_H-M   'P 1'
_cell_length_a   10.64006958
_cell_length_b   10.63981642
_cell_length_c   10.63973473
_cell_angle_alpha   146.60284877
_cell_angle_beta   146.60325946
_cell_angle_gamma   47.95442376
_symmetry_Int_Tables_number   1
_chemical_formula_structural   Tb3YCu3Sb8
_chemical_formula_sum   'Tb3 Y1 Cu3 Sb8'
_cell_volume   363.45734773
_cell_formula_units_Z   1
loop_
 _symmetry_equiv_pos_site_id
 _symmetry_equiv_pos_as_xyz
  1  'x, y, z'
loop_
 _atom_site_type_symbol
 _atom_site_label
 _atom_site_symmetry_multiplicity
 _atom_site_fract_x
 _atom_site_fract_y
 _atom_site_fract_z
 _atom_site_occupancy
  Tb  Tb0  1  0.633487  0.633474  0.507618  1
  Tb  Tb1  1  0.125868  0.125855  0.492382  1
  Tb  Tb2  1  0.874219  0.366551  0.000000  1
  Y  Y3  1  0.366589  0.874179  0.000000  1
  Cu  Cu4  1  0.999967  0.000013  0.000000  1
  Cu  Cu5  1  0.999980  0.499987  0.499947  1
  Cu  Cu6  1  0.500033  0.000040  0.500053  1
  Sb  Sb7  1  0.333470  0.333490  0.515148  1
  Sb  Sb8  1  0.818322  0.818342  0.484852  1
  Sb  Sb9  1  0.666477  0.181600  0.000000  1
  Sb  Sb10  1  0.181590  0.666473  0.000000  1
  Sb  Sb11  1  0.249947  0.249991  0.000000  1
  Sb  Sb12  1  0.749999  0.749981  0.000000  1
  Sb  Sb13  1  0.750027  0.250013  0.500003  1
  Sb  Sb14  1  0.250024  0.750010  0.499997  1
