# generated using pymatgen
data_Li2Tm2As6Rh7
_symmetry_space_group_name_H-M   'P 1'
_cell_length_a   7.06775196
_cell_length_b   7.06775221
_cell_length_c   7.15067593
_cell_angle_alpha   109.25669302
_cell_angle_beta   109.25669667
_cell_angle_gamma   109.43025352
_symmetry_Int_Tables_number   1
_chemical_formula_structural   Li2Tm2As6Rh7
_chemical_formula_sum   'Li2 Tm2 As6 Rh7'
_cell_volume   276.55446760
_cell_formula_units_Z   1
loop_
 _symmetry_equiv_pos_site_id
 _symmetry_equiv_pos_as_xyz
  1  'x, y, z'
loop_
 _atom_site_type_symbol
 _atom_site_label
 _atom_site_symmetry_multiplicity
 _atom_site_fract_x
 _atom_site_fract_y
 _atom_site_fract_z
 _atom_site_occupancy
  Li  Li0  1  0.500000  0.500000  0.500000  1
  Li  Li1  1  0.000000  0.000000  0.500000  1
  Tm  Tm2  1  0.000000  0.500000  0.000000  1
  Tm  Tm3  1  0.500000  0.000000  0.000000  1
  As  As4  1  0.685093  0.986209  0.671303  1
  As  As5  1  0.685429  0.685429  0.000000  1
  As  As6  1  0.314571  0.314571  0.000000  1
  As  As7  1  0.986209  0.685093  0.671303  1
  As  As8  1  0.013791  0.314907  0.328697  1
  As  As9  1  0.314907  0.013791  0.328697  1
  Rh  Rh10  1  0.500579  0.749204  0.249783  1
  Rh  Rh11  1  0.750000  0.250000  0.500000  1
  Rh  Rh12  1  0.250000  0.750000  0.500000  1
  Rh  Rh13  1  0.250796  0.499421  0.750217  1
  Rh  Rh14  1  0.000000  0.000000  0.000000  1
  Rh  Rh15  1  0.499421  0.250796  0.750217  1
  Rh  Rh16  1  0.749204  0.500579  0.249783  1
