# generated using pymatgen
data_Ca9Nd(Si3H)2
_symmetry_space_group_name_H-M   'P 1'
_cell_length_a   9.06509389
_cell_length_b   9.06509431
_cell_length_c   9.05417567
_cell_angle_alpha   129.96328647
_cell_angle_beta   129.96328730
_cell_angle_gamma   73.56245028
_symmetry_Int_Tables_number   1
_chemical_formula_structural   Ca9Nd(Si3H)2
_chemical_formula_sum   'Ca9 Nd1 Si6 H2'
_cell_volume   426.32236074
_cell_formula_units_Z   1
loop_
 _symmetry_equiv_pos_site_id
 _symmetry_equiv_pos_as_xyz
  1  'x, y, z'
loop_
 _atom_site_type_symbol
 _atom_site_label
 _atom_site_symmetry_multiplicity
 _atom_site_fract_x
 _atom_site_fract_y
 _atom_site_fract_z
 _atom_site_occupancy
  Ca  Ca0  1  0.498319  0.505069  0.999946  1
  Ca  Ca1  1  0.005069  0.998319  0.999946  1
  Ca  Ca2  1  0.179900  0.679900  0.158329  1
  Ca  Ca3  1  0.020392  0.182637  0.501588  1
  Ca  Ca4  1  0.682637  0.520392  0.501588  1
  Ca  Ca5  1  0.480219  0.980219  0.167472  1
  Ca  Ca6  1  0.816622  0.316622  0.836762  1
  Ca  Ca7  1  0.979142  0.816232  0.497209  1
  Ca  Ca8  1  0.316232  0.479142  0.497209  1
  Nd  Nd9  1  0.527914  0.027914  0.847729  1
  Si  Si10  1  0.252337  0.245567  0.994939  1
  Si  Si11  1  0.745567  0.752337  0.994939  1
  Si  Si12  1  0.884193  0.384193  0.272405  1
  Si  Si13  1  0.111010  0.611010  0.720853  1
  Si  Si14  1  0.388043  0.111902  0.504293  1
  Si  Si15  1  0.611902  0.888043  0.504293  1
  H  H16  1  0.250587  0.750587  0.499443  1
  H  H17  1  0.749914  0.249914  0.501057  1
