# generated using pymatgen
data_Ce(SiTc2)2
_symmetry_space_group_name_H-M   'P 1'
_cell_length_a   7.25157023
_cell_length_b   7.25157064
_cell_length_c   4.07310000
_cell_angle_alpha   90.00000000
_cell_angle_beta   90.00000000
_cell_angle_gamma   146.99202800
_symmetry_Int_Tables_number   1
_chemical_formula_structural   Ce(SiTc2)2
_chemical_formula_sum   'Ce1 Si2 Tc4'
_cell_volume   116.67854678
_cell_formula_units_Z   1
loop_
 _symmetry_equiv_pos_site_id
 _symmetry_equiv_pos_as_xyz
  1  'x, y, z'
loop_
 _atom_site_type_symbol
 _atom_site_label
 _atom_site_symmetry_multiplicity
 _atom_site_fract_x
 _atom_site_fract_y
 _atom_site_fract_z
 _atom_site_occupancy
  Ce  Ce0  1  0.000000  0.000000  0.000000  1
  Si  Si1  1  0.411878  0.588122  0.500000  1
  Si  Si2  1  0.588122  0.411878  0.500000  1
  Tc  Tc3  1  0.187066  0.812934  0.500000  1
  Tc  Tc4  1  0.305257  0.694743  0.000000  1
  Tc  Tc5  1  0.812934  0.187066  0.500000  1
  Tc  Tc6  1  0.694743  0.305257  0.000000  1
