# generated using pymatgen
data_Er3Co5(P3Ir2)2
_symmetry_space_group_name_H-M   'P 1'
_cell_length_a   3.78060100
_cell_length_b   10.82245400
_cell_length_c   12.51458300
_cell_angle_alpha   90.00000000
_cell_angle_beta   90.00000000
_cell_angle_gamma   90.00000000
_symmetry_Int_Tables_number   1
_chemical_formula_structural   Er3Co5(P3Ir2)2
_chemical_formula_sum   'Er6 Co10 P12 Ir8'
_cell_volume   512.03892418
_cell_formula_units_Z   2
loop_
 _symmetry_equiv_pos_site_id
 _symmetry_equiv_pos_as_xyz
  1  'x, y, z'
loop_
 _atom_site_type_symbol
 _atom_site_label
 _atom_site_symmetry_multiplicity
 _atom_site_fract_x
 _atom_site_fract_y
 _atom_site_fract_z
 _atom_site_occupancy
  Er  Er0  1  0.000000  0.500000  0.521257  1
  Er  Er1  1  0.500000  0.000000  0.478743  1
  Er  Er2  1  0.500000  0.815485  0.197151  1
  Er  Er3  1  0.500000  0.184515  0.197151  1
  Er  Er4  1  0.000000  0.684515  0.802849  1
  Er  Er5  1  0.000000  0.315485  0.802849  1
  Co  Co6  1  0.000000  0.500000  0.991680  1
  Co  Co7  1  0.500000  0.000000  0.008320  1
  Co  Co8  1  0.500000  0.878887  0.716513  1
  Co  Co9  1  0.500000  0.121113  0.716513  1
  Co  Co10  1  0.000000  0.621113  0.283487  1
  Co  Co11  1  0.000000  0.378887  0.283487  1
  Co  Co12  1  0.500000  0.332742  0.995383  1
  Co  Co13  1  0.500000  0.667258  0.995383  1
  Co  Co14  1  0.000000  0.167258  0.004617  1
  Co  Co15  1  0.000000  0.832742  0.004617  1
  P  P16  1  0.500000  0.310256  0.625518  1
  P  P17  1  0.500000  0.689744  0.625518  1
  P  P18  1  0.000000  0.189744  0.374482  1
  P  P19  1  0.000000  0.810256  0.374482  1
  P  P20  1  0.500000  0.500000  0.894128  1
  P  P21  1  0.000000  0.000000  0.105872  1
  P  P22  1  0.500000  0.842537  0.896739  1
  P  P23  1  0.500000  0.157463  0.896739  1
  P  P24  1  0.000000  0.657463  0.103261  1
  P  P25  1  0.000000  0.342537  0.103261  1
  P  P26  1  0.500000  0.500000  0.344741  1
  P  P27  1  0.000000  0.000000  0.655259  1
  Ir  Ir28  1  0.500000  0.298996  0.426167  1
  Ir  Ir29  1  0.500000  0.701004  0.426167  1
  Ir  Ir30  1  0.000000  0.201004  0.573833  1
  Ir  Ir31  1  0.000000  0.798996  0.573833  1
  Ir  Ir32  1  0.500000  0.500000  0.159439  1
  Ir  Ir33  1  0.000000  0.000000  0.840561  1
  Ir  Ir34  1  0.500000  0.500000  0.708829  1
  Ir  Ir35  1  0.000000  0.000000  0.291171  1
