# generated using pymatgen
data_Ti9V3Sn9Hg
_symmetry_space_group_name_H-M   'P 1'
_cell_length_a   9.21162800
_cell_length_b   9.21162812
_cell_length_c   5.63624400
_cell_angle_alpha   90.00000000
_cell_angle_beta   90.00000000
_cell_angle_gamma   119.99999956
_symmetry_Int_Tables_number   1
_chemical_formula_structural   Ti9V3Sn9Hg
_chemical_formula_sum   'Ti9 V3 Sn9 Hg1'
_cell_volume   414.18389492
_cell_formula_units_Z   1
loop_
 _symmetry_equiv_pos_site_id
 _symmetry_equiv_pos_as_xyz
  1  'x, y, z'
loop_
 _atom_site_type_symbol
 _atom_site_label
 _atom_site_symmetry_multiplicity
 _atom_site_fract_x
 _atom_site_fract_y
 _atom_site_fract_z
 _atom_site_occupancy
  Ti  Ti0  1  0.842004  0.684009  0.756816  1
  Ti  Ti1  1  0.157996  0.842004  0.243184  1
  Ti  Ti2  1  0.684009  0.842004  0.243184  1
  Ti  Ti3  1  0.315991  0.157996  0.756816  1
  Ti  Ti4  1  0.842004  0.157996  0.756816  1
  Ti  Ti5  1  0.157996  0.315991  0.243184  1
  Ti  Ti6  1  0.500000  0.000000  0.500000  1
  Ti  Ti7  1  0.000000  0.500000  0.500000  1
  Ti  Ti8  1  0.500000  0.500000  0.500000  1
  V  V9  1  0.500000  0.500000  0.000000  1
  V  V10  1  0.000000  0.500000  0.000000  1
  V  V11  1  0.500000  0.000000  0.000000  1
  Sn  Sn12  1  0.204049  0.408096  0.750788  1
  Sn  Sn13  1  0.795951  0.204049  0.249212  1
  Sn  Sn14  1  0.408096  0.204049  0.249212  1
  Sn  Sn15  1  0.591904  0.795951  0.750788  1
  Sn  Sn16  1  0.204049  0.795951  0.750788  1
  Sn  Sn17  1  0.795951  0.591904  0.249212  1
  Sn  Sn18  1  0.666667  0.333333  0.762309  1
  Sn  Sn19  1  0.333333  0.666667  0.237691  1
  Sn  Sn20  1  0.000000  0.000000  0.000000  1
  Hg  Hg21  1  0.000000  0.000000  0.500000  1
