# generated using pymatgen
data_Y2Sc3Pb4
_symmetry_space_group_name_H-M   'P 1'
_cell_length_a   7.93905600
_cell_length_b   15.11488800
_cell_length_c   8.00915400
_cell_angle_alpha   90.00000000
_cell_angle_beta   90.00000000
_cell_angle_gamma   90.00000000
_symmetry_Int_Tables_number   1
_chemical_formula_structural   Y2Sc3Pb4
_chemical_formula_sum   'Y8 Sc12 Pb16'
_cell_volume   961.08199929
_cell_formula_units_Z   4
loop_
 _symmetry_equiv_pos_site_id
 _symmetry_equiv_pos_as_xyz
  1  'x, y, z'
loop_
 _atom_site_type_symbol
 _atom_site_label
 _atom_site_symmetry_multiplicity
 _atom_site_fract_x
 _atom_site_fract_y
 _atom_site_fract_z
 _atom_site_occupancy
  Y  Y0  1  0.471059  0.595733  0.677386  1
  Y  Y1  1  0.971059  0.904267  0.822614  1
  Y  Y2  1  0.528941  0.095733  0.322614  1
  Y  Y3  1  0.028941  0.404267  0.177386  1
  Y  Y4  1  0.528941  0.404267  0.322614  1
  Y  Y5  1  0.028941  0.095733  0.177386  1
  Y  Y6  1  0.471059  0.904267  0.677386  1
  Y  Y7  1  0.971059  0.595733  0.822614  1
  Sc  Sc8  1  0.632176  0.624587  0.155734  1
  Sc  Sc9  1  0.132176  0.875413  0.344266  1
  Sc  Sc10  1  0.367824  0.124587  0.844266  1
  Sc  Sc11  1  0.867824  0.375413  0.655734  1
  Sc  Sc12  1  0.367824  0.375413  0.844266  1
  Sc  Sc13  1  0.867824  0.124587  0.655734  1
  Sc  Sc14  1  0.632176  0.875413  0.155734  1
  Sc  Sc15  1  0.132176  0.624587  0.344266  1
  Sc  Sc16  1  0.800566  0.750000  0.492679  1
  Sc  Sc17  1  0.300566  0.750000  0.007321  1
  Sc  Sc18  1  0.199434  0.250000  0.507321  1
  Sc  Sc19  1  0.699434  0.250000  0.992679  1
  Pb  Pb20  1  0.704769  0.456041  0.956797  1
  Pb  Pb21  1  0.204769  0.043959  0.543203  1
  Pb  Pb22  1  0.295231  0.956041  0.043203  1
  Pb  Pb23  1  0.795231  0.543959  0.456797  1
  Pb  Pb24  1  0.295231  0.543959  0.043203  1
  Pb  Pb25  1  0.795231  0.956041  0.456797  1
  Pb  Pb26  1  0.704769  0.043959  0.956797  1
  Pb  Pb27  1  0.204769  0.456041  0.543203  1
  Pb  Pb28  1  0.440285  0.750000  0.367980  1
  Pb  Pb29  1  0.940285  0.750000  0.132020  1
  Pb  Pb30  1  0.559715  0.250000  0.632020  1
  Pb  Pb31  1  0.059715  0.250000  0.867980  1
  Pb  Pb32  1  0.659129  0.750000  0.846733  1
  Pb  Pb33  1  0.159129  0.750000  0.653267  1
  Pb  Pb34  1  0.340871  0.250000  0.153267  1
  Pb  Pb35  1  0.840871  0.250000  0.346733  1
