# generated using pymatgen
data_Nd2MnCo16
_symmetry_space_group_name_H-M   'P 1'
_cell_length_a   6.34934231
_cell_length_b   6.34934190
_cell_length_c   6.34934186
_cell_angle_alpha   83.16028554
_cell_angle_beta   83.16028605
_cell_angle_gamma   83.16029036
_symmetry_Int_Tables_number   1
_chemical_formula_structural   Nd2MnCo16
_chemical_formula_sum   'Nd2 Mn1 Co16'
_cell_volume   250.90498421
_cell_formula_units_Z   1
loop_
 _symmetry_equiv_pos_site_id
 _symmetry_equiv_pos_as_xyz
  1  'x, y, z'
loop_
 _atom_site_type_symbol
 _atom_site_label
 _atom_site_symmetry_multiplicity
 _atom_site_fract_x
 _atom_site_fract_y
 _atom_site_fract_z
 _atom_site_occupancy
  Nd  Nd0  1  0.655479  0.655479  0.655479  1
  Nd  Nd1  1  0.346149  0.346149  0.346149  1
  Mn  Mn2  1  0.096221  0.096221  0.096221  1
  Co  Co3  1  0.715156  0.284585  0.998844  1
  Co  Co4  1  0.998844  0.715156  0.284585  1
  Co  Co5  1  0.284585  0.998844  0.715156  1
  Co  Co6  1  0.998844  0.284585  0.715156  1
  Co  Co7  1  0.715156  0.998844  0.284585  1
  Co  Co8  1  0.284585  0.715156  0.998844  1
  Co  Co9  1  0.345269  0.345269  0.848781  1
  Co  Co10  1  0.848781  0.345269  0.345269  1
  Co  Co11  1  0.345269  0.848781  0.345269  1
  Co  Co12  1  0.657575  0.657575  0.151037  1
  Co  Co13  1  0.151037  0.657575  0.657575  1
  Co  Co14  1  0.657575  0.151037  0.657575  1
  Co  Co15  1  0.997638  0.997638  0.504535  1
  Co  Co16  1  0.504535  0.997638  0.997638  1
  Co  Co17  1  0.997638  0.504535  0.997638  1
  Co  Co18  1  0.899669  0.899669  0.899669  1
