# generated using pymatgen
data_Tc2P4Ru5W
_symmetry_space_group_name_H-M   'P 1'
_cell_length_a   3.92881400
_cell_length_b   5.99767065
_cell_length_c   6.89589849
_cell_angle_alpha   89.93259307
_cell_angle_beta   90.00000000
_cell_angle_gamma   90.00000000
_symmetry_Int_Tables_number   1
_chemical_formula_structural   Tc2P4Ru5W
_chemical_formula_sum   'Tc2 P4 Ru5 W1'
_cell_volume   162.49299421
_cell_formula_units_Z   1
loop_
 _symmetry_equiv_pos_site_id
 _symmetry_equiv_pos_as_xyz
  1  'x, y, z'
loop_
 _atom_site_type_symbol
 _atom_site_label
 _atom_site_symmetry_multiplicity
 _atom_site_fract_x
 _atom_site_fract_y
 _atom_site_fract_z
 _atom_site_occupancy
  Tc  Tc0  1  0.750000  0.025394  0.661038  1
  Tc  Tc1  1  0.250000  0.977307  0.340553  1
  P  P2  1  0.250000  0.745968  0.611548  1
  P  P3  1  0.750000  0.252056  0.388909  1
  P  P4  1  0.250000  0.243308  0.887882  1
  P  P5  1  0.750000  0.757932  0.113867  1
  Ru  Ru6  1  0.250000  0.469200  0.157629  1
  Ru  Ru7  1  0.250000  0.358973  0.574094  1
  Ru  Ru8  1  0.750000  0.638018  0.426262  1
  Ru  Ru9  1  0.250000  0.861238  0.927706  1
  Ru  Ru10  1  0.750000  0.145336  0.072171  1
  W  W11  1  0.750000  0.525272  0.838341  1
