# generated using pymatgen
data_Y10Lu6MgHg3Rh4
_symmetry_space_group_name_H-M   'P 1'
_cell_length_a   9.58732104
_cell_length_b   9.58444310
_cell_length_c   9.58444295
_cell_angle_alpha   59.48146180
_cell_angle_beta   59.98463580
_cell_angle_gamma   59.98463259
_symmetry_Int_Tables_number   1
_chemical_formula_structural   Y10Lu6MgHg3Rh4
_chemical_formula_sum   'Y10 Lu6 Mg1 Hg3 Rh4'
_cell_volume   620.13326050
_cell_formula_units_Z   1
loop_
 _symmetry_equiv_pos_site_id
 _symmetry_equiv_pos_as_xyz
  1  'x, y, z'
loop_
 _atom_site_type_symbol
 _atom_site_label
 _atom_site_symmetry_multiplicity
 _atom_site_fract_x
 _atom_site_fract_y
 _atom_site_fract_z
 _atom_site_occupancy
  Y  Y0  1  0.436664  0.061755  0.437541  1
  Y  Y1  1  0.058152  0.440102  0.059969  1
  Y  Y2  1  0.436664  0.437541  0.061755  1
  Y  Y3  1  0.058152  0.059969  0.440102  1
  Y  Y4  1  0.187492  0.813896  0.813896  1
  Y  Y5  1  0.811846  0.186313  0.186313  1
  Y  Y6  1  0.810992  0.189291  0.811992  1
  Y  Y7  1  0.187883  0.810281  0.190799  1
  Y  Y8  1  0.810992  0.811992  0.189291  1
  Y  Y9  1  0.187883  0.190799  0.810281  1
  Lu  Lu10  1  0.596358  0.597449  0.597449  1
  Lu  Lu11  1  0.600606  0.596826  0.207411  1
  Lu  Lu12  1  0.600606  0.207411  0.596826  1
  Lu  Lu13  1  0.193503  0.603719  0.603719  1
  Lu  Lu14  1  0.057317  0.441786  0.441786  1
  Lu  Lu15  1  0.436820  0.061262  0.061262  1
  Mg  Mg16  1  0.536732  0.820357  0.820357  1
  Hg  Hg17  1  0.833525  0.834366  0.834366  1
  Hg  Hg18  1  0.832622  0.836024  0.494578  1
  Hg  Hg19  1  0.832622  0.494578  0.836024  1
  Rh  Rh20  1  0.385345  0.398649  0.398649  1
  Rh  Rh21  1  0.393424  0.390828  0.818176  1
  Rh  Rh22  1  0.393424  0.818176  0.390828  1
  Rh  Rh23  1  0.820380  0.396632  0.396632  1
