# generated using pymatgen
data_PaInCo3
_symmetry_space_group_name_H-M   'P 1'
_cell_length_a   5.29621100
_cell_length_b   7.14732500
_cell_length_c   8.25192000
_cell_angle_alpha   90.00000000
_cell_angle_beta   90.00000000
_cell_angle_gamma   90.00000000
_symmetry_Int_Tables_number   1
_chemical_formula_structural   PaInCo3
_chemical_formula_sum   'Pa4 In4 Co12'
_cell_volume   312.36604479
_cell_formula_units_Z   4
loop_
 _symmetry_equiv_pos_site_id
 _symmetry_equiv_pos_as_xyz
  1  'x, y, z'
loop_
 _atom_site_type_symbol
 _atom_site_label
 _atom_site_symmetry_multiplicity
 _atom_site_fract_x
 _atom_site_fract_y
 _atom_site_fract_z
 _atom_site_occupancy
  Pa  Pa0  1  0.750000  0.882944  0.847090  1
  Pa  Pa1  1  0.750000  0.382944  0.652910  1
  Pa  Pa2  1  0.250000  0.117056  0.152910  1
  Pa  Pa3  1  0.250000  0.617056  0.347090  1
  In  In4  1  0.750000  0.941074  0.405535  1
  In  In5  1  0.750000  0.441074  0.094465  1
  In  In6  1  0.250000  0.058926  0.594465  1
  In  In7  1  0.250000  0.558926  0.905535  1
  Co  Co8  1  0.750000  0.576777  0.387953  1
  Co  Co9  1  0.750000  0.076777  0.112047  1
  Co  Co10  1  0.250000  0.423223  0.612047  1
  Co  Co11  1  0.250000  0.923223  0.887953  1
  Co  Co12  1  0.000121  0.271581  0.368924  1
  Co  Co13  1  0.499879  0.771581  0.131076  1
  Co  Co14  1  0.500121  0.728419  0.631076  1
  Co  Co15  1  0.999879  0.228419  0.868924  1
  Co  Co16  1  0.999879  0.728419  0.631076  1
  Co  Co17  1  0.500121  0.228419  0.868924  1
  Co  Co18  1  0.499879  0.271581  0.368924  1
  Co  Co19  1  0.000121  0.771581  0.131076  1
