# generated using pymatgen
data_ErTm2Sc2Si3
_symmetry_space_group_name_H-M   'P 1'
_cell_length_a   8.20667213
_cell_length_b   8.20417118
_cell_length_c   5.98260900
_cell_angle_alpha   90.00000000
_cell_angle_beta   90.00000000
_cell_angle_gamma   119.98992078
_symmetry_Int_Tables_number   1
_chemical_formula_structural   ErTm2Sc2Si3
_chemical_formula_sum   'Er2 Tm4 Sc4 Si6'
_cell_volume   348.87282985
_cell_formula_units_Z   2
loop_
 _symmetry_equiv_pos_site_id
 _symmetry_equiv_pos_as_xyz
  1  'x, y, z'
loop_
 _atom_site_type_symbol
 _atom_site_label
 _atom_site_symmetry_multiplicity
 _atom_site_fract_x
 _atom_site_fract_y
 _atom_site_fract_z
 _atom_site_occupancy
  Er  Er0  1  0.000000  0.755637  0.750000  1
  Er  Er1  1  0.000000  0.244363  0.250000  1
  Tm  Tm2  1  0.755378  0.755423  0.250000  1
  Tm  Tm3  1  0.755378  0.999955  0.750000  1
  Tm  Tm4  1  0.244622  0.244577  0.750000  1
  Tm  Tm5  1  0.244622  0.000045  0.250000  1
  Sc  Sc6  1  0.333380  0.666690  0.500000  1
  Sc  Sc7  1  0.666620  0.333310  0.000000  1
  Sc  Sc8  1  0.666620  0.333310  0.500000  1
  Sc  Sc9  1  0.333380  0.666690  0.000000  1
  Si  Si10  1  0.398325  0.000074  0.750000  1
  Si  Si11  1  0.398325  0.398252  0.250000  1
  Si  Si12  1  0.000000  0.601886  0.250000  1
  Si  Si13  1  0.000000  0.398114  0.750000  1
  Si  Si14  1  0.601675  0.601748  0.750000  1
  Si  Si15  1  0.601675  0.999926  0.250000  1
