# generated using pymatgen
data_TbNd3Al24Pt8Rh
_symmetry_space_group_name_H-M   'P 1'
_cell_length_a   7.55910529
_cell_length_b   7.58262702
_cell_length_c   13.27635991
_cell_angle_alpha   84.57810317
_cell_angle_beta   79.12531353
_cell_angle_gamma   59.93823755
_symmetry_Int_Tables_number   1
_chemical_formula_structural   TbNd3Al24Pt8Rh
_chemical_formula_sum   'Tb1 Nd3 Al24 Pt8 Rh1'
_cell_volume   646.78396777
_cell_formula_units_Z   1
loop_
 _symmetry_equiv_pos_site_id
 _symmetry_equiv_pos_as_xyz
  1  'x, y, z'
loop_
 _atom_site_type_symbol
 _atom_site_label
 _atom_site_symmetry_multiplicity
 _atom_site_fract_x
 _atom_site_fract_y
 _atom_site_fract_z
 _atom_site_occupancy
  Tb  Tb0  1  0.266579  0.501993  0.192224  1
  Nd  Nd1  1  0.394525  0.167127  0.808961  1
  Nd  Nd2  1  0.605577  0.832938  0.191282  1
  Nd  Nd3  1  0.732567  0.497881  0.809064  1
  Al  Al4  1  0.688955  0.829929  0.947649  1
  Al  Al5  1  0.310954  0.171642  0.054084  1
  Al  Al6  1  0.146858  0.832153  0.560493  1
  Al  Al7  1  0.853413  0.167775  0.438636  1
  Al  Al8  1  0.480334  0.166837  0.558047  1
  Al  Al9  1  0.519751  0.833258  0.441240  1
  Al  Al10  1  0.215122  0.166412  0.330952  1
  Al  Al11  1  0.785475  0.834246  0.667484  1
  Al  Al12  1  0.436517  0.507898  0.667469  1
  Al  Al13  1  0.563104  0.492060  0.330891  1
  Al  Al14  1  0.110752  0.159282  0.665326  1
  Al  Al15  1  0.890596  0.839932  0.333033  1
  Al  Al16  1  0.346118  0.500914  0.948874  1
  Al  Al17  1  0.651191  0.499259  0.054123  1
  Al  Al18  1  0.013833  0.170140  0.958949  1
  Al  Al19  1  0.986794  0.828578  0.043391  1
  Al  Al20  1  0.186716  0.499199  0.440962  1
  Al  Al21  1  0.813712  0.500759  0.557956  1
  Al  Al22  1  0.734743  0.166702  0.183734  1
  Al  Al23  1  0.262912  0.835878  0.816416  1
  Al  Al24  1  0.061342  0.630010  0.817568  1
  Al  Al25  1  0.941525  0.369525  0.182645  1
  Al  Al26  1  0.858746  0.038408  0.816177  1
  Al  Al27  1  0.140746  0.959082  0.183807  1
  Pt  Pt28  1  0.120609  0.493783  0.636812  1
  Pt  Pt29  1  0.880259  0.506550  0.362264  1
  Pt  Pt30  1  0.657386  0.171294  0.000323  1
  Pt  Pt31  1  0.342123  0.828757  0.000384  1
  Pt  Pt32  1  0.537811  0.167501  0.362418  1
  Pt  Pt33  1  0.461583  0.833142  0.636691  1
  Pt  Pt34  1  0.780513  0.173674  0.635661  1
  Pt  Pt35  1  0.220047  0.825366  0.363394  1
  Rh  Rh36  1  0.000211  0.500119  0.000616  1
