# generated using pymatgen
data_Nd7Sm(LuIn5)4
_symmetry_space_group_name_H-M   'P 1'
_cell_length_a   6.63578590
_cell_length_b   10.44781306
_cell_length_c   12.35871300
_cell_angle_alpha   90.05409964
_cell_angle_beta   90.05357623
_cell_angle_gamma   90.08079998
_symmetry_Int_Tables_number   1
_chemical_formula_structural   Nd7Sm(LuIn5)4
_chemical_formula_sum   'Nd7 Sm1 Lu4 In20'
_cell_volume   856.82117276
_cell_formula_units_Z   1
loop_
 _symmetry_equiv_pos_site_id
 _symmetry_equiv_pos_as_xyz
  1  'x, y, z'
loop_
 _atom_site_type_symbol
 _atom_site_label
 _atom_site_symmetry_multiplicity
 _atom_site_fract_x
 _atom_site_fract_y
 _atom_site_fract_z
 _atom_site_occupancy
  Nd  Nd0  1  0.886389  0.488212  0.142596  1
  Nd  Nd1  1  0.613367  0.011698  0.642758  1
  Nd  Nd2  1  0.113298  0.988283  0.856950  1
  Nd  Nd3  1  0.386793  0.511717  0.357953  1
  Nd  Nd4  1  0.113030  0.511746  0.857080  1
  Nd  Nd5  1  0.387046  0.988216  0.357669  1
  Nd  Nd6  1  0.886389  0.011613  0.142602  1
  Sm  Sm7  1  0.613076  0.488062  0.642417  1
  Lu  Lu8  1  0.353252  0.749874  0.053289  1
  Lu  Lu9  1  0.147627  0.750294  0.553602  1
  Lu  Lu10  1  0.647117  0.249848  0.946457  1
  Lu  Lu11  1  0.852870  0.250418  0.446909  1
  In  In12  1  0.613085  0.748819  0.505092  1
  In  In13  1  0.887024  0.749825  0.003012  1
  In  In14  1  0.388072  0.250401  0.496723  1
  In  In15  1  0.112890  0.249965  0.996376  1
  In  In16  1  0.650733  0.749787  0.241204  1
  In  In17  1  0.848986  0.748938  0.740309  1
  In  In18  1  0.349836  0.251055  0.758574  1
  In  In19  1  0.150258  0.250121  0.259341  1
  In  In20  1  0.111106  0.749697  0.277132  1
  In  In21  1  0.389158  0.749504  0.776892  1
  In  In22  1  0.887240  0.251462  0.722372  1
  In  In23  1  0.610898  0.250109  0.222830  1
  In  In24  1  0.873763  0.543646  0.403291  1
  In  In25  1  0.626489  0.955885  0.902813  1
  In  In26  1  0.126456  0.044479  0.597221  1
  In  In27  1  0.373848  0.456387  0.096914  1
  In  In28  1  0.127013  0.456889  0.597632  1
  In  In29  1  0.373473  0.043894  0.097160  1
  In  In30  1  0.873238  0.955946  0.403149  1
  In  In31  1  0.626184  0.543208  0.901683  1
