# generated using pymatgen
data_Th10Sn5Bi3
_symmetry_space_group_name_H-M   'P 1'
_cell_length_a   9.77164300
_cell_length_b   9.77164132
_cell_length_c   6.56382800
_cell_angle_alpha   90.00000000
_cell_angle_beta   90.00000000
_cell_angle_gamma   119.99999553
_symmetry_Int_Tables_number   1
_chemical_formula_structural   Th10Sn5Bi3
_chemical_formula_sum   'Th10 Sn5 Bi3'
_cell_volume   542.77889511
_cell_formula_units_Z   1
loop_
 _symmetry_equiv_pos_site_id
 _symmetry_equiv_pos_as_xyz
  1  'x, y, z'
loop_
 _atom_site_type_symbol
 _atom_site_label
 _atom_site_symmetry_multiplicity
 _atom_site_fract_x
 _atom_site_fract_y
 _atom_site_fract_z
 _atom_site_occupancy
  Th  Th0  1  0.000000  0.718458  0.750000  1
  Th  Th1  1  0.281542  0.281542  0.750000  1
  Th  Th2  1  0.333333  0.666667  0.496054  1
  Th  Th3  1  0.666667  0.333333  0.496054  1
  Th  Th4  1  0.718532  0.718532  0.250000  1
  Th  Th5  1  0.718458  0.000000  0.750000  1
  Th  Th6  1  0.000000  0.281468  0.250000  1
  Th  Th7  1  0.281468  0.000000  0.250000  1
  Th  Th8  1  0.333333  0.666667  0.003946  1
  Th  Th9  1  0.666667  0.333333  0.003946  1
  Sn  Sn10  1  0.619261  0.000000  0.250000  1
  Sn  Sn11  1  0.380739  0.380739  0.250000  1
  Sn  Sn12  1  0.000000  0.000000  0.999768  1
  Sn  Sn13  1  0.000000  0.619261  0.250000  1
  Sn  Sn14  1  0.000000  0.000000  0.500232  1
  Bi  Bi15  1  0.618707  0.618707  0.750000  1
  Bi  Bi16  1  0.000000  0.381293  0.750000  1
  Bi  Bi17  1  0.381293  0.000000  0.750000  1
