# generated using pymatgen
data_Ho3Mn8Si6Ni
_symmetry_space_group_name_H-M   'P 1'
_cell_length_a   3.73633100
_cell_length_b   10.98280000
_cell_length_c   12.98826400
_cell_angle_alpha   90.00000000
_cell_angle_beta   90.00000000
_cell_angle_gamma   90.00000000
_symmetry_Int_Tables_number   1
_chemical_formula_structural   Ho3Mn8Si6Ni
_chemical_formula_sum   'Ho6 Mn16 Si12 Ni2'
_cell_volume   532.97829821
_cell_formula_units_Z   2
loop_
 _symmetry_equiv_pos_site_id
 _symmetry_equiv_pos_as_xyz
  1  'x, y, z'
loop_
 _atom_site_type_symbol
 _atom_site_label
 _atom_site_symmetry_multiplicity
 _atom_site_fract_x
 _atom_site_fract_y
 _atom_site_fract_z
 _atom_site_occupancy
  Ho  Ho0  1  0.000000  0.500000  0.530657  1
  Ho  Ho1  1  0.500000  0.000000  0.469343  1
  Ho  Ho2  1  0.500000  0.820303  0.206322  1
  Ho  Ho3  1  0.500000  0.179697  0.206322  1
  Ho  Ho4  1  0.000000  0.679697  0.793678  1
  Ho  Ho5  1  0.000000  0.320303  0.793678  1
  Mn  Mn6  1  0.000000  0.500000  0.988785  1
  Mn  Mn7  1  0.500000  0.000000  0.011215  1
  Mn  Mn8  1  0.500000  0.299145  0.433388  1
  Mn  Mn9  1  0.500000  0.700855  0.433388  1
  Mn  Mn10  1  0.000000  0.200855  0.566612  1
  Mn  Mn11  1  0.000000  0.799145  0.566612  1
  Mn  Mn12  1  0.500000  0.883759  0.701255  1
  Mn  Mn13  1  0.500000  0.116241  0.701255  1
  Mn  Mn14  1  0.000000  0.616241  0.298745  1
  Mn  Mn15  1  0.000000  0.383759  0.298745  1
  Mn  Mn16  1  0.500000  0.331759  0.996342  1
  Mn  Mn17  1  0.500000  0.668241  0.996342  1
  Mn  Mn18  1  0.000000  0.168241  0.003658  1
  Mn  Mn19  1  0.000000  0.831759  0.003658  1
  Mn  Mn20  1  0.500000  0.500000  0.162380  1
  Mn  Mn21  1  0.000000  0.000000  0.837620  1
  Si  Si22  1  0.500000  0.314581  0.618141  1
  Si  Si23  1  0.500000  0.685419  0.618141  1
  Si  Si24  1  0.000000  0.185419  0.381859  1
  Si  Si25  1  0.000000  0.814581  0.381859  1
  Si  Si26  1  0.500000  0.500000  0.879831  1
  Si  Si27  1  0.000000  0.000000  0.120169  1
  Si  Si28  1  0.500000  0.848693  0.884287  1
  Si  Si29  1  0.500000  0.151307  0.884287  1
  Si  Si30  1  0.000000  0.651307  0.115713  1
  Si  Si31  1  0.000000  0.348693  0.115713  1
  Si  Si32  1  0.500000  0.500000  0.356575  1
  Si  Si33  1  0.000000  0.000000  0.643425  1
  Ni  Ni34  1  0.500000  0.500000  0.704425  1
  Ni  Ni35  1  0.000000  0.000000  0.295575  1
