# generated using pymatgen
data_Tb11DyTc3Pt
_symmetry_space_group_name_H-M   'P 1'
_cell_length_a   6.33246836
_cell_length_b   7.42169592
_cell_length_c   9.25817919
_cell_angle_alpha   90.01472496
_cell_angle_beta   90.01789038
_cell_angle_gamma   90.04128998
_symmetry_Int_Tables_number   1
_chemical_formula_structural   Tb11DyTc3Pt
_chemical_formula_sum   'Tb11 Dy1 Tc3 Pt1'
_cell_volume   435.11255896
_cell_formula_units_Z   1
loop_
 _symmetry_equiv_pos_site_id
 _symmetry_equiv_pos_as_xyz
  1  'x, y, z'
loop_
 _atom_site_type_symbol
 _atom_site_label
 _atom_site_symmetry_multiplicity
 _atom_site_fract_x
 _atom_site_fract_y
 _atom_site_fract_z
 _atom_site_occupancy
  Tb  Tb0  1  0.328604  0.675711  0.067415  1
  Tb  Tb1  1  0.165491  0.177447  0.435617  1
  Tb  Tb2  1  0.668765  0.318773  0.559260  1
  Tb  Tb3  1  0.836752  0.827488  0.939472  1
  Tb  Tb4  1  0.668773  0.318731  0.940836  1
  Tb  Tb5  1  0.836553  0.827344  0.560584  1
  Tb  Tb6  1  0.328699  0.675711  0.432558  1
  Tb  Tb7  1  0.871314  0.543037  0.249926  1
  Tb  Tb8  1  0.624545  0.038744  0.249906  1
  Tb  Tb9  1  0.129543  0.455462  0.750082  1
  Tb  Tb10  1  0.369635  0.964789  0.750095  1
  Dy  Dy11  1  0.165460  0.177348  0.064279  1
  Tc  Tc12  1  0.038848  0.886213  0.249968  1
  Tc  Tc13  1  0.463166  0.387303  0.249886  1
  Tc  Tc14  1  0.956968  0.113158  0.750145  1
  Pt  Pt15  1  0.546881  0.612740  0.749970  1
