# generated using pymatgen
data_Ca15(SiAs6)2
_symmetry_space_group_name_H-M   'P 1'
_cell_length_a   9.00569133
_cell_length_b   9.00569157
_cell_length_c   9.00569163
_cell_angle_alpha   88.82384600
_cell_angle_beta   88.82385708
_cell_angle_gamma   88.82384549
_symmetry_Int_Tables_number   1
_chemical_formula_structural   Ca15(SiAs6)2
_chemical_formula_sum   'Ca15 Si2 As12'
_cell_volume   729.92849049
_cell_formula_units_Z   1
loop_
 _symmetry_equiv_pos_site_id
 _symmetry_equiv_pos_as_xyz
  1  'x, y, z'
loop_
 _atom_site_type_symbol
 _atom_site_label
 _atom_site_symmetry_multiplicity
 _atom_site_fract_x
 _atom_site_fract_y
 _atom_site_fract_z
 _atom_site_occupancy
  Ca  Ca0  1  0.408697  0.286172  0.773450  1
  Ca  Ca1  1  0.773450  0.408697  0.286172  1
  Ca  Ca2  1  0.286172  0.773450  0.408697  1
  Ca  Ca3  1  0.019974  0.527280  0.660642  1
  Ca  Ca4  1  0.660642  0.019974  0.527280  1
  Ca  Ca5  1  0.527280  0.660642  0.019974  1
  Ca  Ca6  1  0.169550  0.531753  0.029320  1
  Ca  Ca7  1  0.029320  0.169550  0.531753  1
  Ca  Ca8  1  0.531753  0.029320  0.169550  1
  Ca  Ca9  1  0.775692  0.290245  0.921772  1
  Ca  Ca10  1  0.921772  0.775692  0.290245  1
  Ca  Ca11  1  0.290245  0.921772  0.775692  1
  Ca  Ca12  1  0.167266  0.167266  0.167266  1
  Ca  Ca13  1  0.397938  0.397938  0.397938  1
  Ca  Ca14  1  0.947329  0.947329  0.947329  1
  Si  Si15  1  0.756928  0.756928  0.756928  1
  Si  Si16  1  0.605083  0.605083  0.605083  1
  As  As17  1  0.703532  0.355574  0.604662  1
  As  As18  1  0.604662  0.703532  0.355574  1
  As  As19  1  0.355574  0.604662  0.703532  1
  As  As20  1  0.617249  0.968093  0.853683  1
  As  As21  1  0.853683  0.617249  0.968093  1
  As  As22  1  0.968093  0.853683  0.617249  1
  As  As23  1  0.473863  0.343365  0.086634  1
  As  As24  1  0.086634  0.473863  0.343365  1
  As  As25  1  0.343365  0.086634  0.473863  1
  As  As26  1  0.094060  0.237644  0.847281  1
  As  As27  1  0.847281  0.094060  0.237644  1
  As  As28  1  0.237644  0.847281  0.094060  1
