# generated using pymatgen
data_Dy10ErTh5(MgRu)4
_symmetry_space_group_name_H-M   'P 1'
_cell_length_a   9.71402938
_cell_length_b   9.77483401
_cell_length_c   9.77483283
_cell_angle_alpha   59.87527282
_cell_angle_beta   60.20555301
_cell_angle_gamma   60.20555901
_symmetry_Int_Tables_number   1
_chemical_formula_structural   Dy10ErTh5(MgRu)4
_chemical_formula_sum   'Dy10 Er1 Th5 Mg4 Ru4'
_cell_volume   657.70623295
_cell_formula_units_Z   1
loop_
 _symmetry_equiv_pos_site_id
 _symmetry_equiv_pos_as_xyz
  1  'x, y, z'
loop_
 _atom_site_type_symbol
 _atom_site_label
 _atom_site_symmetry_multiplicity
 _atom_site_fract_x
 _atom_site_fract_y
 _atom_site_fract_z
 _atom_site_occupancy
  Dy  Dy0  1  0.191025  0.810019  0.184872  1
  Dy  Dy1  1  0.814085  0.184872  0.810019  1
  Dy  Dy2  1  0.191025  0.184872  0.810019  1
  Dy  Dy3  1  0.814085  0.810019  0.184872  1
  Dy  Dy4  1  0.932786  0.567214  0.567214  1
  Dy  Dy5  1  0.565047  0.934953  0.934953  1
  Dy  Dy6  1  0.563025  0.935832  0.564275  1
  Dy  Dy7  1  0.936868  0.564275  0.935832  1
  Dy  Dy8  1  0.563025  0.564275  0.935832  1
  Dy  Dy9  1  0.936868  0.935832  0.564275  1
  Er  Er10  1  0.186504  0.813496  0.813496  1
  Th  Th11  1  0.342286  0.348703  0.348703  1
  Th  Th12  1  0.346103  0.347396  0.960397  1
  Th  Th13  1  0.346103  0.960397  0.347396  1
  Th  Th14  1  0.960308  0.348703  0.348703  1
  Th  Th15  1  0.815976  0.184024  0.184024  1
  Mg  Mg16  1  0.580805  0.579705  0.579705  1
  Mg  Mg17  1  0.579472  0.582075  0.258978  1
  Mg  Mg18  1  0.579472  0.258978  0.582075  1
  Mg  Mg19  1  0.259784  0.579705  0.579705  1
  Ru  Ru20  1  0.128147  0.147784  0.147784  1
  Ru  Ru21  1  0.145459  0.141459  0.567624  1
  Ru  Ru22  1  0.145459  0.567624  0.141459  1
  Ru  Ru23  1  0.576285  0.147784  0.147784  1
