# generated using pymatgen
data_La2Pa(GaIr)3
_symmetry_space_group_name_H-M   'P 1'
_cell_length_a   7.41859700
_cell_length_b   7.41164412
_cell_length_c   3.97210800
_cell_angle_alpha   90.00000000
_cell_angle_beta   90.00000000
_cell_angle_gamma   120.03103257
_symmetry_Int_Tables_number   1
_chemical_formula_structural   La2Pa(GaIr)3
_chemical_formula_sum   'La2 Pa1 Ga3 Ir3'
_cell_volume   189.08284425
_cell_formula_units_Z   1
loop_
 _symmetry_equiv_pos_site_id
 _symmetry_equiv_pos_as_xyz
  1  'x, y, z'
loop_
 _atom_site_type_symbol
 _atom_site_label
 _atom_site_symmetry_multiplicity
 _atom_site_fract_x
 _atom_site_fract_y
 _atom_site_fract_z
 _atom_site_occupancy
  La  La0  1  0.001473  0.586334  0.000000  1
  La  La1  1  0.415138  0.413666  0.000000  1
  Pa  Pa2  1  0.585753  0.000000  0.000000  1
  Ga  Ga3  1  0.236028  0.000000  0.500000  1
  Ga  Ga4  1  0.996284  0.239107  0.500000  1
  Ga  Ga5  1  0.757176  0.760893  0.500000  1
  Ir  Ir6  1  0.368660  0.709339  0.500000  1
  Ir  Ir7  1  0.659322  0.290661  0.500000  1
  Ir  Ir8  1  0.980166  0.000000  0.000000  1
