# generated using pymatgen
data_Ta3Ti16Si16Ru
_symmetry_space_group_name_H-M   'P 1'
_cell_length_a   6.69668596
_cell_length_b   6.69668521
_cell_length_c   12.21317773
_cell_angle_alpha   90.29417302
_cell_angle_beta   89.70582973
_cell_angle_gamma   89.91122031
_symmetry_Int_Tables_number   1
_chemical_formula_structural   Ta3Ti16Si16Ru
_chemical_formula_sum   'Ta3 Ti16 Si16 Ru1'
_cell_volume   547.69213909
_cell_formula_units_Z   1
loop_
 _symmetry_equiv_pos_site_id
 _symmetry_equiv_pos_as_xyz
  1  'x, y, z'
loop_
 _atom_site_type_symbol
 _atom_site_label
 _atom_site_symmetry_multiplicity
 _atom_site_fract_x
 _atom_site_fract_y
 _atom_site_fract_z
 _atom_site_occupancy
  Ta  Ta0  1  0.170071  0.170071  0.000000  1
  Ta  Ta1  1  0.328505  0.672071  0.252690  1
  Ta  Ta2  1  0.672071  0.328505  0.747310  1
  Ti  Ti3  1  0.994905  0.152733  0.619943  1
  Ti  Ti4  1  0.350846  0.494583  0.871062  1
  Ti  Ti5  1  0.646716  0.500631  0.370361  1
  Ti  Ti6  1  0.494583  0.350846  0.128938  1
  Ti  Ti7  1  0.500631  0.646716  0.629639  1
  Ti  Ti8  1  0.004033  0.851509  0.123991  1
  Ti  Ti9  1  0.152733  0.994905  0.380057  1
  Ti  Ti10  1  0.851509  0.004033  0.876009  1
  Ti  Ti11  1  0.002890  0.343655  0.221722  1
  Ti  Ti12  1  0.162179  0.499417  0.470867  1
  Ti  Ti13  1  0.843366  0.496527  0.969540  1
  Ti  Ti14  1  0.499417  0.162179  0.529133  1
  Ti  Ti15  1  0.496527  0.843366  0.030460  1
  Ti  Ti16  1  0.998196  0.655005  0.721220  1
  Ti  Ti17  1  0.343655  0.002890  0.778278  1
  Ti  Ti18  1  0.655005  0.998196  0.278780  1
  Si  Si19  1  0.045282  0.301700  0.812609  1
  Si  Si20  1  0.197538  0.546132  0.063285  1
  Si  Si21  1  0.803301  0.463394  0.559806  1
  Si  Si22  1  0.546132  0.197538  0.936715  1
  Si  Si23  1  0.463394  0.803301  0.440194  1
  Si  Si24  1  0.949682  0.701490  0.317356  1
  Si  Si25  1  0.301700  0.045282  0.187391  1
  Si  Si26  1  0.701490  0.949682  0.682644  1
  Si  Si27  1  0.292196  0.357788  0.672301  1
  Si  Si28  1  0.140358  0.792034  0.922133  1
  Si  Si29  1  0.859493  0.205290  0.421830  1
  Si  Si30  1  0.792034  0.140358  0.077867  1
  Si  Si31  1  0.205290  0.859493  0.578170  1
  Si  Si32  1  0.708099  0.640498  0.172336  1
  Si  Si33  1  0.357788  0.292196  0.327699  1
  Si  Si34  1  0.640498  0.708099  0.827664  1
  Ru  Ru35  1  0.827885  0.827885  0.500000  1
