# generated using pymatgen
data_La2Zn21Ni
_symmetry_space_group_name_H-M   'P 1'
_cell_length_a   8.29538425
_cell_length_b   8.28371795
_cell_length_c   8.28371812
_cell_angle_alpha   99.69865511
_cell_angle_beta   100.06926664
_cell_angle_gamma   130.95951594
_symmetry_Int_Tables_number   1
_chemical_formula_structural   La2Zn21Ni
_chemical_formula_sum   'La2 Zn21 Ni1'
_cell_volume   391.37164493
_cell_formula_units_Z   1
loop_
 _symmetry_equiv_pos_site_id
 _symmetry_equiv_pos_as_xyz
  1  'x, y, z'
loop_
 _atom_site_type_symbol
 _atom_site_label
 _atom_site_symmetry_multiplicity
 _atom_site_fract_x
 _atom_site_fract_y
 _atom_site_fract_z
 _atom_site_occupancy
  La  La0  1  0.253444  0.750156  0.503289  1
  La  La1  1  0.996556  0.999844  0.996711  1
  Zn  Zn2  1  0.899949  0.571642  0.089825  1
  Zn  Zn3  1  0.625000  0.875000  0.250000  1
  Zn  Zn4  1  0.431053  0.505920  0.323545  1
  Zn  Zn5  1  0.489593  0.573043  0.671628  1
  Zn  Zn6  1  0.431053  0.107507  0.925133  1
  Zn  Zn7  1  0.760407  0.176957  0.828372  1
  Zn  Zn8  1  0.489593  0.817965  0.916550  1
  Zn  Zn9  1  0.502844  0.493109  0.009734  1
  Zn  Zn10  1  0.760407  0.932035  0.583450  1
  Zn  Zn11  1  0.747156  0.256891  0.490266  1
  Zn  Zn12  1  0.068606  0.656035  0.830969  1
  Zn  Zn13  1  0.125000  0.375000  0.750000  1
  Zn  Zn14  1  0.350051  0.178358  0.410175  1
  Zn  Zn15  1  0.818947  0.642493  0.574867  1
  Zn  Zn16  1  0.899949  0.810124  0.328307  1
  Zn  Zn17  1  0.181394  0.093965  0.669031  1
  Zn  Zn18  1  0.068606  0.237637  0.412571  1
  Zn  Zn19  1  0.350051  0.939876  0.171693  1
  Zn  Zn20  1  0.818947  0.244080  0.176455  1
  Zn  Zn21  1  0.181394  0.512363  0.087429  1
  Zn  Zn22  1  0.625000  0.375000  0.750000  1
  Ni  Ni23  1  0.625000  0.375000  0.250000  1
