# generated using pymatgen
data_Er2Tm6Ti3Si16Mo9
_symmetry_space_group_name_H-M   'P 1'
_cell_length_a   6.88606303
_cell_length_b   6.88626430
_cell_length_c   12.74222202
_cell_angle_alpha   89.99954424
_cell_angle_beta   89.99762139
_cell_angle_gamma   89.76264623
_symmetry_Int_Tables_number   1
_chemical_formula_structural   Er2Tm6Ti3Si16Mo9
_chemical_formula_sum   'Er2 Tm6 Ti3 Si16 Mo9'
_cell_volume   604.22142618
_cell_formula_units_Z   1
loop_
 _symmetry_equiv_pos_site_id
 _symmetry_equiv_pos_as_xyz
  1  'x, y, z'
loop_
 _atom_site_type_symbol
 _atom_site_label
 _atom_site_symmetry_multiplicity
 _atom_site_fract_x
 _atom_site_fract_y
 _atom_site_fract_z
 _atom_site_occupancy
  Er  Er0  1  0.001611  0.339801  0.531330  1
  Er  Er1  1  0.000160  0.659374  0.031094  1
  Tm  Tm2  1  0.339775  0.001473  0.468663  1
  Tm  Tm3  1  0.497428  0.839300  0.719423  1
  Tm  Tm4  1  0.499020  0.161469  0.217611  1
  Tm  Tm5  1  0.839257  0.497431  0.280570  1
  Tm  Tm6  1  0.161546  0.499010  0.782383  1
  Tm  Tm7  1  0.659267  0.000283  0.968926  1
  Ti  Ti8  1  0.169898  0.831553  0.248707  1
  Ti  Ti9  1  0.831492  0.169831  0.751396  1
  Ti  Ti10  1  0.668839  0.668962  0.499988  1
  Si  Si11  1  0.201156  0.129703  0.683201  1
  Si  Si12  1  0.373288  0.697426  0.933492  1
  Si  Si13  1  0.629259  0.298984  0.432984  1
  Si  Si14  1  0.697259  0.372864  0.066447  1
  Si  Si15  1  0.299156  0.629705  0.566962  1
  Si  Si16  1  0.796550  0.871248  0.183729  1
  Si  Si17  1  0.129941  0.200902  0.316838  1
  Si  Si18  1  0.871018  0.796747  0.816309  1
  Si  Si19  1  0.288615  0.963799  0.061725  1
  Si  Si20  1  0.539188  0.792020  0.313604  1
  Si  Si21  1  0.458378  0.210115  0.815152  1
  Si  Si22  1  0.791854  0.539365  0.686521  1
  Si  Si23  1  0.210315  0.458207  0.184985  1
  Si  Si24  1  0.708934  0.040821  0.563951  1
  Si  Si25  1  0.963627  0.288171  0.938210  1
  Si  Si26  1  0.041019  0.709375  0.435972  1
  Mo  Mo27  1  0.331518  0.331344  0.999989  1
  Mo  Mo28  1  0.155685  0.000954  0.872907  1
  Mo  Mo29  1  0.496989  0.666729  0.124410  1
  Mo  Mo30  1  0.505282  0.340552  0.624541  1
  Mo  Mo31  1  0.666519  0.496909  0.875558  1
  Mo  Mo32  1  0.340699  0.505373  0.375428  1
  Mo  Mo33  1  0.840604  0.993923  0.374157  1
  Mo  Mo34  1  0.000887  0.155642  0.127038  1
  Mo  Mo35  1  0.993966  0.840637  0.625799  1
