# generated using pymatgen
data_GdYScAuO7
_symmetry_space_group_name_H-M   'P 1'
_cell_length_a   7.38924543
_cell_length_b   7.38924601
_cell_length_c   7.38924563
_cell_angle_alpha   119.41749217
_cell_angle_beta   120.11466638
_cell_angle_gamma   90.40669914
_symmetry_Int_Tables_number   1
_chemical_formula_structural   GdYScAuO7
_chemical_formula_sum   'Gd2 Y2 Sc2 Au2 O14'
_cell_volume   286.27694279
_cell_formula_units_Z   2
loop_
 _symmetry_equiv_pos_site_id
 _symmetry_equiv_pos_as_xyz
  1  'x, y, z'
loop_
 _atom_site_type_symbol
 _atom_site_label
 _atom_site_symmetry_multiplicity
 _atom_site_fract_x
 _atom_site_fract_y
 _atom_site_fract_z
 _atom_site_occupancy
  Gd  Gd0  1  0.000000  0.500000  0.500000  1
  Gd  Gd1  1  0.500000  0.500000  0.000000  1
  Y  Y2  1  0.000000  0.500000  0.000000  1
  Y  Y3  1  0.000000  0.000000  0.500000  1
  Sc  Sc4  1  0.500000  0.000000  0.000000  1
  Sc  Sc5  1  0.500000  0.500000  0.500000  1
  Au  Au6  1  0.500000  0.000000  0.500000  1
  Au  Au7  1  0.000000  0.000000  0.000000  1
  O  O8  1  0.881504  0.631504  0.250000  1
  O  O9  1  0.118496  0.368496  0.750000  1
  O  O10  1  0.834972  0.084972  0.750000  1
  O  O11  1  0.405551  0.655551  0.750000  1
  O  O12  1  0.848839  0.666253  0.767378  1
  O  O13  1  0.398875  0.081461  0.732622  1
  O  O14  1  0.848839  0.081461  0.182585  1
  O  O15  1  0.398875  0.666253  0.317415  1
  O  O16  1  0.165028  0.915028  0.250000  1
  O  O17  1  0.594449  0.344449  0.250000  1
  O  O18  1  0.151161  0.333747  0.232622  1
  O  O19  1  0.601125  0.918539  0.267378  1
  O  O20  1  0.151161  0.918539  0.817415  1
  O  O21  1  0.601125  0.333747  0.682585  1
