# generated using pymatgen
data_Ce2ErCd3Ru2
_symmetry_space_group_name_H-M   'P 1'
_cell_length_a   8.16469054
_cell_length_b   8.16469059
_cell_length_c   4.94390975
_cell_angle_alpha   83.08334639
_cell_angle_beta   83.08334960
_cell_angle_gamma   35.10046623
_symmetry_Int_Tables_number   1
_chemical_formula_structural   Ce2ErCd3Ru2
_chemical_formula_sum   'Ce2 Er1 Cd3 Ru2'
_cell_volume   187.99002010
_cell_formula_units_Z   1
loop_
 _symmetry_equiv_pos_site_id
 _symmetry_equiv_pos_as_xyz
  1  'x, y, z'
loop_
 _atom_site_type_symbol
 _atom_site_label
 _atom_site_symmetry_multiplicity
 _atom_site_fract_x
 _atom_site_fract_y
 _atom_site_fract_z
 _atom_site_occupancy
  Ce  Ce0  1  0.826904  0.826904  0.574189  1
  Ce  Ce1  1  0.173096  0.173096  0.425811  1
  Er  Er2  1  0.000000  0.000000  0.000000  1
  Cd  Cd3  1  0.377775  0.377775  0.045308  1
  Cd  Cd4  1  0.500000  0.500000  0.500000  1
  Cd  Cd5  1  0.622225  0.622225  0.954692  1
  Ru  Ru6  1  0.792319  0.792319  0.120012  1
  Ru  Ru7  1  0.207681  0.207681  0.879988  1
