# generated using pymatgen
data_NaScCo3P7Ru9
_symmetry_space_group_name_H-M   'P 1'
_cell_length_a   9.31059100
_cell_length_b   9.31059133
_cell_length_c   3.78459200
_cell_angle_alpha   90.00000000
_cell_angle_beta   90.00000000
_cell_angle_gamma   119.99999527
_symmetry_Int_Tables_number   1
_chemical_formula_structural   NaScCo3P7Ru9
_chemical_formula_sum   'Na1 Sc1 Co3 P7 Ru9'
_cell_volume   284.12158786
_cell_formula_units_Z   1
loop_
 _symmetry_equiv_pos_site_id
 _symmetry_equiv_pos_as_xyz
  1  'x, y, z'
loop_
 _atom_site_type_symbol
 _atom_site_label
 _atom_site_symmetry_multiplicity
 _atom_site_fract_x
 _atom_site_fract_y
 _atom_site_fract_z
 _atom_site_occupancy
  Na  Na0  1  0.333333  0.666667  0.000000  1
  Sc  Sc1  1  0.666667  0.333333  0.500000  1
  Co  Co2  1  0.731847  0.889518  0.000000  1
  Co  Co3  1  0.110482  0.842327  0.000000  1
  Co  Co4  1  0.157673  0.268153  0.000000  1
  P  P5  1  0.601916  0.718853  0.500000  1
  P  P6  1  0.000000  0.000000  0.000000  1
  P  P7  1  0.281147  0.883062  0.500000  1
  P  P8  1  0.116938  0.398084  0.500000  1
  P  P9  1  0.890157  0.583616  0.000000  1
  P  P10  1  0.416384  0.306541  0.000000  1
  P  P11  1  0.693459  0.109843  0.000000  1
  Ru  Ru12  1  0.562762  0.951118  0.500000  1
  Ru  Ru13  1  0.388357  0.437238  0.500000  1
  Ru  Ru14  1  0.915986  0.117517  0.500000  1
  Ru  Ru15  1  0.201531  0.084014  0.500000  1
  Ru  Ru16  1  0.882483  0.798469  0.500000  1
  Ru  Ru17  1  0.423583  0.065714  0.000000  1
  Ru  Ru18  1  0.934286  0.357869  0.000000  1
  Ru  Ru19  1  0.642131  0.576417  0.000000  1
  Ru  Ru20  1  0.048882  0.611643  0.500000  1
