# generated using pymatgen
data_Tb8SiAsBr12
_symmetry_space_group_name_H-M   'P 1'
_cell_length_a   4.07375300
_cell_length_b   13.29004138
_cell_length_c   14.06392957
_cell_angle_alpha   89.91830587
_cell_angle_beta   90.00000000
_cell_angle_gamma   90.00000000
_symmetry_Int_Tables_number   1
_chemical_formula_structural   Tb8SiAsBr12
_chemical_formula_sum   'Tb8 Si1 As1 Br12'
_cell_volume   761.42523830
_cell_formula_units_Z   1
loop_
 _symmetry_equiv_pos_site_id
 _symmetry_equiv_pos_as_xyz
  1  'x, y, z'
loop_
 _atom_site_type_symbol
 _atom_site_label
 _atom_site_symmetry_multiplicity
 _atom_site_fract_x
 _atom_site_fract_y
 _atom_site_fract_z
 _atom_site_occupancy
  Tb  Tb0  1  0.500000  0.118479  0.340801  1
  Tb  Tb1  1  0.500000  0.881521  0.659199  1
  Tb  Tb2  1  0.500000  0.618269  0.158929  1
  Tb  Tb3  1  0.500000  0.381731  0.841071  1
  Tb  Tb4  1  0.000000  0.117793  0.578072  1
  Tb  Tb5  1  0.000000  0.882207  0.421928  1
  Tb  Tb6  1  0.000000  0.618008  0.921752  1
  Tb  Tb7  1  0.000000  0.381992  0.078248  1
  Si  Si8  1  0.500000  0.500000  0.000000  1
  As  As9  1  0.500000  0.000000  0.500000  1
  Br  Br10  1  0.500000  0.243691  0.162490  1
  Br  Br11  1  0.500000  0.756309  0.837510  1
  Br  Br12  1  0.500000  0.743838  0.337680  1
  Br  Br13  1  0.500000  0.256162  0.662320  1
  Br  Br14  1  0.000000  0.254911  0.411509  1
  Br  Br15  1  0.000000  0.745089  0.588491  1
  Br  Br16  1  0.000000  0.755087  0.088636  1
  Br  Br17  1  0.000000  0.244913  0.911364  1
  Br  Br18  1  0.000000  0.001529  0.243651  1
  Br  Br19  1  0.000000  0.998471  0.756349  1
  Br  Br20  1  0.000000  0.501613  0.256562  1
  Br  Br21  1  0.000000  0.498387  0.743438  1
