# generated using pymatgen
data_Y2TmTh11Os6
_symmetry_space_group_name_H-M   'P 1'
_cell_length_a   9.89209116
_cell_length_b   9.98685492
_cell_length_c   6.38463234
_cell_angle_alpha   90.06530103
_cell_angle_beta   90.01134002
_cell_angle_gamma   120.28637924
_symmetry_Int_Tables_number   1
_chemical_formula_structural   Y2TmTh11Os6
_chemical_formula_sum   'Y2 Tm1 Th11 Os6'
_cell_volume   544.65614597
_cell_formula_units_Z   1
loop_
 _symmetry_equiv_pos_site_id
 _symmetry_equiv_pos_as_xyz
  1  'x, y, z'
loop_
 _atom_site_type_symbol
 _atom_site_label
 _atom_site_symmetry_multiplicity
 _atom_site_fract_x
 _atom_site_fract_y
 _atom_site_fract_z
 _atom_site_occupancy
  Y  Y0  1  0.073922  0.535620  0.298885  1
  Y  Y1  1  0.927713  0.463402  0.798098  1
  Tm  Tm2  1  0.460484  0.536802  0.300124  1
  Th  Th3  1  0.252620  0.128547  0.509927  1
  Th  Th4  1  0.540633  0.080426  0.796379  1
  Th  Th5  1  0.745309  0.871844  0.014631  1
  Th  Th6  1  0.666601  0.334025  0.273347  1
  Th  Th7  1  0.126548  0.870511  0.009346  1
  Th  Th8  1  0.460824  0.917574  0.296031  1
  Th  Th9  1  0.536893  0.466370  0.801457  1
  Th  Th10  1  0.874723  0.129464  0.512316  1
  Th  Th11  1  0.125173  0.254566  0.015189  1
  Th  Th12  1  0.873257  0.746172  0.509349  1
  Th  Th13  1  0.332872  0.665326  0.769262  1
  Os  Os14  1  0.811829  0.629267  0.048285  1
  Os  Os15  1  0.812702  0.181834  0.046882  1
  Os  Os16  1  0.629736  0.812723  0.545127  1
  Os  Os17  1  0.371442  0.187664  0.042015  1
  Os  Os18  1  0.187905  0.369176  0.553334  1
  Os  Os19  1  0.188815  0.818685  0.544011  1
