# generated using pymatgen
data_Tm2Ga2IrPt
_symmetry_space_group_name_H-M   'P 1'
_cell_length_a   4.38222600
_cell_length_b   6.71439400
_cell_length_c   7.73613900
_cell_angle_alpha   90.00000000
_cell_angle_beta   90.00000000
_cell_angle_gamma   90.00000000
_symmetry_Int_Tables_number   1
_chemical_formula_structural   Tm2Ga2IrPt
_chemical_formula_sum   'Tm4 Ga4 Ir2 Pt2'
_cell_volume   227.62809175
_cell_formula_units_Z   2
loop_
 _symmetry_equiv_pos_site_id
 _symmetry_equiv_pos_as_xyz
  1  'x, y, z'
loop_
 _atom_site_type_symbol
 _atom_site_label
 _atom_site_symmetry_multiplicity
 _atom_site_fract_x
 _atom_site_fract_y
 _atom_site_fract_z
 _atom_site_occupancy
  Tm  Tm0  1  0.250000  0.975259  0.313955  1
  Tm  Tm1  1  0.250000  0.475259  0.186045  1
  Tm  Tm2  1  0.750000  0.020084  0.690623  1
  Tm  Tm3  1  0.750000  0.520084  0.809377  1
  Ga  Ga4  1  0.250000  0.343716  0.569169  1
  Ga  Ga5  1  0.250000  0.843716  0.930831  1
  Ga  Ga6  1  0.750000  0.659346  0.436187  1
  Ga  Ga7  1  0.750000  0.159346  0.063813  1
  Ir  Ir8  1  0.250000  0.234704  0.889452  1
  Ir  Ir9  1  0.250000  0.734704  0.610548  1
  Pt  Pt10  1  0.750000  0.766891  0.112043  1
  Pt  Pt11  1  0.750000  0.266891  0.387957  1
