# generated using pymatgen
data_Y(Th2Ir)3
_symmetry_space_group_name_H-M   'P 1'
_cell_length_a   10.01518700
_cell_length_b   10.04242136
_cell_length_c   6.35141737
_cell_angle_alpha   90.39210366
_cell_angle_beta   90.00000000
_cell_angle_gamma   119.91032720
_symmetry_Int_Tables_number   1
_chemical_formula_structural   Y(Th2Ir)3
_chemical_formula_sum   'Y2 Th12 Ir6'
_cell_volume   553.70312152
_cell_formula_units_Z   2
loop_
 _symmetry_equiv_pos_site_id
 _symmetry_equiv_pos_as_xyz
  1  'x, y, z'
loop_
 _atom_site_type_symbol
 _atom_site_label
 _atom_site_symmetry_multiplicity
 _atom_site_fract_x
 _atom_site_fract_y
 _atom_site_fract_z
 _atom_site_occupancy
  Y  Y0  1  0.458789  0.539243  0.294867  1
  Y  Y1  1  0.080453  0.539243  0.294867  1
  Th  Th2  1  0.915809  0.458172  0.797126  1
  Th  Th3  1  0.255123  0.129499  0.498947  1
  Th  Th4  1  0.541867  0.083733  0.794251  1
  Th  Th5  1  0.744832  0.872880  0.000453  1
  Th  Th6  1  0.666197  0.332394  0.306436  1
  Th  Th7  1  0.128048  0.872880  0.000453  1
  Th  Th8  1  0.456646  0.913294  0.292851  1
  Th  Th9  1  0.542363  0.458172  0.797126  1
  Th  Th10  1  0.874376  0.129499  0.498947  1
  Th  Th11  1  0.127766  0.255533  0.999707  1
  Th  Th12  1  0.871137  0.742275  0.497016  1
  Th  Th13  1  0.332911  0.665823  0.783366  1
  Ir  Ir14  1  0.811610  0.623219  0.053751  1
  Ir  Ir15  1  0.812872  0.189130  0.054480  1
  Ir  Ir16  1  0.626757  0.816509  0.553190  1
  Ir  Ir17  1  0.376257  0.189130  0.054480  1
  Ir  Ir18  1  0.186432  0.372864  0.558498  1
  Ir  Ir19  1  0.189752  0.816509  0.553190  1
