# generated using pymatgen
data_V6ZnGa2CoN2
_symmetry_space_group_name_H-M   'P 1'
_cell_length_a   6.54625548
_cell_length_b   6.53445900
_cell_length_c   6.53474450
_cell_angle_alpha   90.00000000
_cell_angle_beta   90.09993602
_cell_angle_gamma   90.00000000
_symmetry_Int_Tables_number   1
_chemical_formula_structural   V6ZnGa2CoN2
_chemical_formula_sum   'V12 Zn2 Ga4 Co2 N4'
_cell_volume   279.53136081
_cell_formula_units_Z   2
loop_
 _symmetry_equiv_pos_site_id
 _symmetry_equiv_pos_as_xyz
  1  'x, y, z'
loop_
 _atom_site_type_symbol
 _atom_site_label
 _atom_site_symmetry_multiplicity
 _atom_site_fract_x
 _atom_site_fract_y
 _atom_site_fract_z
 _atom_site_occupancy
  V  V0  1  0.784580  0.960608  0.377278  1
  V  V1  1  0.705214  0.041225  0.870305  1
  V  V2  1  0.215420  0.460608  0.122722  1
  V  V3  1  0.294786  0.541225  0.629695  1
  V  V4  1  0.955955  0.377209  0.790194  1
  V  V5  1  0.044045  0.877209  0.709806  1
  V  V6  1  0.463182  0.125825  0.211747  1
  V  V7  1  0.536818  0.625825  0.288253  1
  V  V8  1  0.379588  0.785578  0.955190  1
  V  V9  1  0.871450  0.706357  0.036544  1
  V  V10  1  0.128550  0.206357  0.463456  1
  V  V11  1  0.620412  0.285578  0.544810  1
  Zn  Zn12  1  0.929944  0.571162  0.429154  1
  Zn  Zn13  1  0.070056  0.071162  0.070846  1
  Ga  Ga14  1  0.185347  0.824246  0.326236  1
  Ga  Ga15  1  0.327647  0.179024  0.820971  1
  Ga  Ga16  1  0.814653  0.324246  0.173764  1
  Ga  Ga17  1  0.672353  0.679024  0.679029  1
  Co  Co18  1  0.571628  0.428672  0.925009  1
  Co  Co19  1  0.428372  0.928672  0.574991  1
  N  N20  1  0.874357  0.125860  0.626044  1
  N  N21  1  0.625462  0.874235  0.123692  1
  N  N22  1  0.125643  0.625860  0.873956  1
  N  N23  1  0.374538  0.374235  0.376308  1
