# generated using pymatgen
data_Ca20Si11Sb
_symmetry_space_group_name_H-M   'P 1'
_cell_length_a   7.67803100
_cell_length_b   7.67803100
_cell_length_c   14.82682900
_cell_angle_alpha   90.00000000
_cell_angle_beta   90.00000000
_cell_angle_gamma   90.00000000
_symmetry_Int_Tables_number   1
_chemical_formula_structural   Ca20Si11Sb
_chemical_formula_sum   'Ca20 Si11 Sb1'
_cell_volume   874.07359605
_cell_formula_units_Z   1
loop_
 _symmetry_equiv_pos_site_id
 _symmetry_equiv_pos_as_xyz
  1  'x, y, z'
loop_
 _atom_site_type_symbol
 _atom_site_label
 _atom_site_symmetry_multiplicity
 _atom_site_fract_x
 _atom_site_fract_y
 _atom_site_fract_z
 _atom_site_occupancy
  Ca  Ca0  1  0.325540  0.681507  0.113048  1
  Ca  Ca1  1  0.181507  0.174460  0.113048  1
  Ca  Ca2  1  0.500000  0.000000  0.733577  1
  Ca  Ca3  1  0.324299  0.681892  0.390979  1
  Ca  Ca4  1  0.667108  0.689394  0.887107  1
  Ca  Ca5  1  0.181892  0.175701  0.390979  1
  Ca  Ca6  1  0.675701  0.318108  0.390979  1
  Ca  Ca7  1  0.172872  0.815572  0.608904  1
  Ca  Ca8  1  0.332892  0.310606  0.887107  1
  Ca  Ca9  1  0.189394  0.832892  0.887107  1
  Ca  Ca10  1  0.500000  0.000000  0.250085  1
  Ca  Ca11  1  0.827128  0.184428  0.608904  1
  Ca  Ca12  1  0.315572  0.327128  0.608904  1
  Ca  Ca13  1  0.818108  0.824299  0.390979  1
  Ca  Ca14  1  0.810606  0.167108  0.887107  1
  Ca  Ca15  1  0.818493  0.825540  0.113048  1
  Ca  Ca16  1  0.000000  0.500000  0.259611  1
  Ca  Ca17  1  0.000000  0.500000  0.755239  1
  Ca  Ca18  1  0.674460  0.318493  0.113048  1
  Ca  Ca19  1  0.684428  0.672872  0.608904  1
  Si  Si20  1  0.112754  0.114094  0.749315  1
  Si  Si21  1  0.385906  0.612754  0.749315  1
  Si  Si22  1  0.614147  0.612510  0.250762  1
  Si  Si23  1  0.500000  0.000000  0.004524  1
  Si  Si24  1  0.112510  0.885853  0.250762  1
  Si  Si25  1  0.614094  0.387246  0.749315  1
  Si  Si26  1  0.887246  0.885906  0.749315  1
  Si  Si27  1  0.385853  0.387490  0.250762  1
  Si  Si28  1  0.887490  0.114147  0.250762  1
  Si  Si29  1  0.500000  0.000000  0.502704  1
  Si  Si30  1  0.000000  0.500000  0.496696  1
  Sb  Sb31  1  0.000000  0.500000  0.997104  1
