# generated using pymatgen
data_Ca2YbEu2Sn3H
_symmetry_space_group_name_H-M   'P 1'
_cell_length_a   9.57357763
_cell_length_b   9.57357754
_cell_length_c   9.57984492
_cell_angle_alpha   128.81817584
_cell_angle_beta   128.81817351
_cell_angle_gamma   75.26529540
_symmetry_Int_Tables_number   1
_chemical_formula_structural   Ca2YbEu2Sn3H
_chemical_formula_sum   'Ca4 Yb2 Eu4 Sn6 H2'
_cell_volume   518.93423779
_cell_formula_units_Z   2
loop_
 _symmetry_equiv_pos_site_id
 _symmetry_equiv_pos_as_xyz
  1  'x, y, z'
loop_
 _atom_site_type_symbol
 _atom_site_label
 _atom_site_symmetry_multiplicity
 _atom_site_fract_x
 _atom_site_fract_y
 _atom_site_fract_z
 _atom_site_occupancy
  Ca  Ca0  1  0.494576  0.494635  0.000057  1
  Ca  Ca1  1  0.994635  0.994576  0.000057  1
  Ca  Ca2  1  0.510280  0.010280  0.821104  1
  Ca  Ca3  1  0.189331  0.689331  0.178994  1
  Yb  Yb4  1  0.009990  0.189028  0.500119  1
  Yb  Yb5  1  0.689028  0.509990  0.500119  1
  Eu  Eu6  1  0.488466  0.988466  0.172737  1
  Eu  Eu7  1  0.815648  0.315648  0.827244  1
  Eu  Eu8  1  0.988318  0.816435  0.499817  1
  Eu  Eu9  1  0.316435  0.488318  0.499817  1
  Sn  Sn10  1  0.250179  0.250285  0.999920  1
  Sn  Sn11  1  0.750285  0.750179  0.999920  1
  Sn  Sn12  1  0.872571  0.372571  0.247067  1
  Sn  Sn13  1  0.125472  0.625472  0.752774  1
  Sn  Sn14  1  0.371623  0.126797  0.500195  1
  Sn  Sn15  1  0.626797  0.871623  0.500195  1
  H  H16  1  0.253447  0.753447  0.500009  1
  H  H17  1  0.752917  0.252917  0.499854  1
