# generated using pymatgen
data_Pr20CoOs3Au8
_symmetry_space_group_name_H-M   'P 1'
_cell_length_a   8.55821783
_cell_length_b   8.66912600
_cell_length_c   12.31390791
_cell_angle_alpha   90.00000000
_cell_angle_beta   89.85868697
_cell_angle_gamma   90.00000000
_symmetry_Int_Tables_number   1
_chemical_formula_structural   Pr20CoOs3Au8
_chemical_formula_sum   'Pr20 Co1 Os3 Au8'
_cell_volume   913.59398577
_cell_formula_units_Z   1
loop_
 _symmetry_equiv_pos_site_id
 _symmetry_equiv_pos_as_xyz
  1  'x, y, z'
loop_
 _atom_site_type_symbol
 _atom_site_label
 _atom_site_symmetry_multiplicity
 _atom_site_fract_x
 _atom_site_fract_y
 _atom_site_fract_z
 _atom_site_occupancy
  Pr  Pr0  1  0.844161  0.750000  0.788141  1
  Pr  Pr1  1  0.154983  0.250000  0.216435  1
  Pr  Pr2  1  0.342568  0.250000  0.717738  1
  Pr  Pr3  1  0.656182  0.750000  0.282745  1
  Pr  Pr4  1  0.387188  0.750000  0.700661  1
  Pr  Pr5  1  0.614532  0.250000  0.299283  1
  Pr  Pr6  1  0.888165  0.250000  0.799458  1
  Pr  Pr7  1  0.111803  0.750000  0.198227  1
  Pr  Pr8  1  0.944687  0.750000  0.494541  1
  Pr  Pr9  1  0.054154  0.250000  0.505526  1
  Pr  Pr10  1  0.448832  0.250000  0.006012  1
  Pr  Pr11  1  0.550268  0.750000  0.995108  1
  Pr  Pr12  1  0.675818  0.041572  0.577617  1
  Pr  Pr13  1  0.323543  0.958393  0.422459  1
  Pr  Pr14  1  0.175809  0.958063  0.923893  1
  Pr  Pr15  1  0.323543  0.541607  0.422459  1
  Pr  Pr16  1  0.825076  0.034138  0.073076  1
  Pr  Pr17  1  0.675818  0.458428  0.577617  1
  Pr  Pr18  1  0.825076  0.465862  0.073076  1
  Pr  Pr19  1  0.175809  0.541937  0.923893  1
  Co  Co20  1  0.935378  0.750000  0.009039  1
  Os  Os21  1  0.571654  0.750000  0.507925  1
  Os  Os22  1  0.427853  0.250000  0.492257  1
  Os  Os23  1  0.069677  0.250000  0.991449  1
  Au  Au24  1  0.576562  0.479063  0.831032  1
  Au  Au25  1  0.423422  0.521597  0.169950  1
  Au  Au26  1  0.074673  0.523003  0.670470  1
  Au  Au27  1  0.423422  0.978403  0.169950  1
  Au  Au28  1  0.924054  0.480151  0.329229  1
  Au  Au29  1  0.576562  0.020937  0.831032  1
  Au  Au30  1  0.924054  0.019849  0.329229  1
  Au  Au31  1  0.074673  0.976997  0.670470  1
