# generated using pymatgen
data_Er12In2Si3Ir
_symmetry_space_group_name_H-M   'P 1'
_cell_length_a   8.47451792
_cell_length_b   8.47451750
_cell_length_c   8.47451650
_cell_angle_alpha   113.20830256
_cell_angle_beta   111.85507878
_cell_angle_gamma   103.51291727
_symmetry_Int_Tables_number   1
_chemical_formula_structural   Er12In2Si3Ir
_chemical_formula_sum   'Er12 In2 Si3 Ir1'
_cell_volume   464.69562870
_cell_formula_units_Z   1
loop_
 _symmetry_equiv_pos_site_id
 _symmetry_equiv_pos_as_xyz
  1  'x, y, z'
loop_
 _atom_site_type_symbol
 _atom_site_label
 _atom_site_symmetry_multiplicity
 _atom_site_fract_x
 _atom_site_fract_y
 _atom_site_fract_z
 _atom_site_occupancy
  Er  Er0  1  0.185237  0.289826  0.470658  1
  Er  Er1  1  0.819169  0.714579  0.529342  1
  Er  Er2  1  0.185237  0.714579  0.895410  1
  Er  Er3  1  0.819169  0.289826  0.104590  1
  Er  Er4  1  0.316479  0.622973  0.306494  1
  Er  Er5  1  0.677303  0.379848  0.702546  1
  Er  Er6  1  0.316479  0.009985  0.693506  1
  Er  Er7  1  0.677303  0.974757  0.297454  1
  Er  Er8  1  0.446907  0.242518  0.204390  1
  Er  Er9  1  0.551968  0.759692  0.792276  1
  Er  Er10  1  0.038128  0.242518  0.795610  1
  Er  Er11  1  0.967416  0.759692  0.207724  1
  In  In12  1  0.501303  0.501303  0.000000  1
  In  In13  1  0.997070  0.997070  0.000000  1
  Si  Si14  1  0.874427  0.374427  0.500000  1
  Si  Si15  1  0.358473  0.003792  0.354682  1
  Si  Si16  1  0.649110  0.003792  0.645318  1
  Ir  Ir17  1  0.118823  0.618823  0.500000  1
