# generated using pymatgen
data_Er4Co4HgBr
_symmetry_space_group_name_H-M   'P 1'
_cell_length_a   3.88516800
_cell_length_b   3.88516957
_cell_length_c   16.29191200
_cell_angle_alpha   90.00000000
_cell_angle_beta   90.00000000
_cell_angle_gamma   119.99998662
_symmetry_Int_Tables_number   1
_chemical_formula_structural   Er4Co4HgBr
_chemical_formula_sum   'Er4 Co4 Hg1 Br1'
_cell_volume   212.97200891
_cell_formula_units_Z   1
loop_
 _symmetry_equiv_pos_site_id
 _symmetry_equiv_pos_as_xyz
  1  'x, y, z'
loop_
 _atom_site_type_symbol
 _atom_site_label
 _atom_site_symmetry_multiplicity
 _atom_site_fract_x
 _atom_site_fract_y
 _atom_site_fract_z
 _atom_site_occupancy
  Er  Er0  1  0.000000  0.000000  0.113174  1
  Er  Er1  1  0.000000  0.000000  0.894720  1
  Er  Er2  1  0.000000  0.000000  0.605280  1
  Er  Er3  1  0.000000  0.000000  0.386826  1
  Co  Co4  1  0.333333  0.666667  0.500585  1
  Co  Co5  1  0.666667  0.333333  0.499035  1
  Co  Co6  1  0.666667  0.333333  0.000965  1
  Co  Co7  1  0.333333  0.666667  0.999415  1
  Hg  Hg8  1  0.333333  0.666667  0.250000  1
  Br  Br9  1  0.666667  0.333333  0.750000  1
