# generated using pymatgen
data_ZrSc7Nb12Si15Ge
_symmetry_space_group_name_H-M   'P 1'
_cell_length_a   6.72749314
_cell_length_b   6.91524645
_cell_length_c   13.19118259
_cell_angle_alpha   89.95116266
_cell_angle_beta   90.16765439
_cell_angle_gamma   90.05991580
_symmetry_Int_Tables_number   1
_chemical_formula_structural   ZrSc7Nb12Si15Ge
_chemical_formula_sum   'Zr1 Sc7 Nb12 Si15 Ge1'
_cell_volume   613.68061392
_cell_formula_units_Z   1
loop_
 _symmetry_equiv_pos_site_id
 _symmetry_equiv_pos_as_xyz
  1  'x, y, z'
loop_
 _atom_site_type_symbol
 _atom_site_label
 _atom_site_symmetry_multiplicity
 _atom_site_fract_x
 _atom_site_fract_y
 _atom_site_fract_z
 _atom_site_occupancy
  Zr  Zr0  1  0.500292  0.673619  0.597381  1
  Sc  Sc1  1  0.000313  0.824974  0.904953  1
  Sc  Sc2  1  0.499145  0.325245  0.095510  1
  Sc  Sc3  1  0.002805  0.176283  0.403745  1
  Sc  Sc4  1  0.499107  0.327758  0.404278  1
  Sc  Sc5  1  0.999029  0.174610  0.095563  1
  Sc  Sc6  1  0.500592  0.673885  0.904659  1
  Sc  Sc7  1  0.999792  0.823462  0.595863  1
  Nb  Nb8  1  0.659864  0.176820  0.625948  1
  Nb  Nb9  1  0.163221  0.324888  0.875144  1
  Nb  Nb10  1  0.337158  0.826012  0.124890  1
  Nb  Nb11  1  0.839753  0.671292  0.373910  1
  Nb  Nb12  1  0.336016  0.824623  0.375042  1
  Nb  Nb13  1  0.837776  0.674458  0.124744  1
  Nb  Nb14  1  0.662469  0.174400  0.874785  1
  Nb  Nb15  1  0.163931  0.326718  0.624786  1
  Nb  Nb16  1  0.835725  0.495683  0.749784  1
  Nb  Nb17  1  0.336666  0.004788  0.749090  1
  Nb  Nb18  1  0.163735  0.504259  0.249976  1
  Nb  Nb19  1  0.662741  0.993440  0.248543  1
  Si  Si20  1  0.168529  0.532522  0.039258  1
  Si  Si21  1  0.331006  0.032938  0.960859  1
  Si  Si22  1  0.830906  0.465288  0.538366  1
  Si  Si23  1  0.326126  0.034254  0.539022  1
  Si  Si24  1  0.831384  0.467159  0.960825  1
  Si  Si25  1  0.668529  0.967140  0.039214  1
  Si  Si26  1  0.170238  0.532934  0.461114  1
  Si  Si27  1  0.458440  0.387168  0.751192  1
  Si  Si28  1  0.958673  0.115214  0.749790  1
  Si  Si29  1  0.541062  0.613453  0.249587  1
  Si  Si30  1  0.041157  0.886027  0.249592  1
  Si  Si31  1  0.704514  0.863920  0.751242  1
  Si  Si32  1  0.202444  0.637816  0.751280  1
  Si  Si33  1  0.296653  0.137317  0.249884  1
  Si  Si34  1  0.795099  0.361218  0.249604  1
  Ge  Ge35  1  0.675111  0.968410  0.460579  1
