# generated using pymatgen
data_DyLu2Co9(GeB2)2
_symmetry_space_group_name_H-M   'P 1'
_cell_length_a   5.12897104
_cell_length_b   5.12949629
_cell_length_c   9.42711204
_cell_angle_alpha   89.99937365
_cell_angle_beta   90.00127516
_cell_angle_gamma   119.99660629
_symmetry_Int_Tables_number   1
_chemical_formula_structural   DyLu2Co9(GeB2)2
_chemical_formula_sum   'Dy1 Lu2 Co9 Ge2 B4'
_cell_volume   214.79744807
_cell_formula_units_Z   1
loop_
 _symmetry_equiv_pos_site_id
 _symmetry_equiv_pos_as_xyz
  1  'x, y, z'
loop_
 _atom_site_type_symbol
 _atom_site_label
 _atom_site_symmetry_multiplicity
 _atom_site_fract_x
 _atom_site_fract_y
 _atom_site_fract_z
 _atom_site_occupancy
  Dy  Dy0  1  0.999992  0.000000  0.000057  1
  Lu  Lu1  1  0.999971  0.000000  0.339884  1
  Lu  Lu2  1  0.000000  0.000000  0.660119  1
  Co  Co3  1  0.499997  0.000000  0.500031  1
  Co  Co4  1  0.499987  0.499998  0.499986  1
  Co  Co5  1  0.999989  0.500002  0.499986  1
  Co  Co6  1  0.499966  0.000000  0.203964  1
  Co  Co7  1  0.499975  0.499994  0.203931  1
  Co  Co8  1  0.999981  0.500006  0.203931  1
  Co  Co9  1  0.500051  0.000000  0.795999  1
  Co  Co10  1  0.500019  0.499999  0.796044  1
  Co  Co11  1  0.000020  0.500001  0.796044  1
  Ge  Ge12  1  0.333233  0.666477  0.000047  1
  Ge  Ge13  1  0.666756  0.333523  0.000047  1
  B  B14  1  0.333307  0.666652  0.348119  1
  B  B15  1  0.666654  0.333348  0.348119  1
  B  B16  1  0.666690  0.333381  0.651847  1
  B  B17  1  0.333310  0.666619  0.651847  1
