# generated using pymatgen
data_Dy10Tm2TlCo4Rh
_symmetry_space_group_name_H-M   'P 1'
_cell_length_a   8.29511843
_cell_length_b   8.30438235
_cell_length_c   8.29511764
_cell_angle_alpha   110.92440571
_cell_angle_beta   110.44343192
_cell_angle_gamma   107.02900420
_symmetry_Int_Tables_number   1
_chemical_formula_structural   Dy10Tm2TlCo4Rh
_chemical_formula_sum   'Dy10 Tm2 Tl1 Co4 Rh1'
_cell_volume   439.51847463
_cell_formula_units_Z   1
loop_
 _symmetry_equiv_pos_site_id
 _symmetry_equiv_pos_as_xyz
  1  'x, y, z'
loop_
 _atom_site_type_symbol
 _atom_site_label
 _atom_site_symmetry_multiplicity
 _atom_site_fract_x
 _atom_site_fract_y
 _atom_site_fract_z
 _atom_site_occupancy
  Dy  Dy0  1  0.406245  0.210019  0.194170  1
  Dy  Dy1  1  0.593755  0.789981  0.805830  1
  Dy  Dy2  1  0.015850  0.210019  0.803774  1
  Dy  Dy3  1  0.984150  0.789981  0.196226  1
  Dy  Dy4  1  0.185285  0.291500  0.479451  1
  Dy  Dy5  1  0.814715  0.708500  0.520549  1
  Dy  Dy6  1  0.187951  0.708500  0.893785  1
  Dy  Dy7  1  0.812049  0.291500  0.106215  1
  Dy  Dy8  1  0.313469  0.619328  0.305857  1
  Dy  Dy9  1  0.686531  0.380672  0.694143  1
  Tm  Tm10  1  0.314592  0.007791  0.693198  1
  Tm  Tm11  1  0.685408  0.992209  0.306802  1
  Tl  Tl12  1  0.500000  0.500000  0.000000  1
  Co  Co13  1  0.380216  0.000000  0.380216  1
  Co  Co14  1  0.619784  0.000000  0.619784  1
  Co  Co15  1  0.112206  0.613373  0.501168  1
  Co  Co16  1  0.887794  0.386627  0.498832  1
  Rh  Rh17  1  0.000000  0.000000  0.000000  1
