# generated using pymatgen
data_Ho10FeBi4Rh
_symmetry_space_group_name_H-M   'P 1'
_cell_length_a   7.97026407
_cell_length_b   8.93282200
_cell_length_c   12.40367818
_cell_angle_alpha   90.00000000
_cell_angle_beta   90.06170130
_cell_angle_gamma   90.00000000
_symmetry_Int_Tables_number   1
_chemical_formula_structural   Ho10FeBi4Rh
_chemical_formula_sum   'Ho20 Fe2 Bi8 Rh2'
_cell_volume   883.10354601
_cell_formula_units_Z   2
loop_
 _symmetry_equiv_pos_site_id
 _symmetry_equiv_pos_as_xyz
  1  'x, y, z'
loop_
 _atom_site_type_symbol
 _atom_site_label
 _atom_site_symmetry_multiplicity
 _atom_site_fract_x
 _atom_site_fract_y
 _atom_site_fract_z
 _atom_site_occupancy
  Ho  Ho0  1  0.838634  0.750000  0.789803  1
  Ho  Ho1  1  0.161366  0.250000  0.210197  1
  Ho  Ho2  1  0.348518  0.250000  0.696998  1
  Ho  Ho3  1  0.651482  0.750000  0.303002  1
  Ho  Ho4  1  0.383086  0.750000  0.689861  1
  Ho  Ho5  1  0.616914  0.250000  0.310139  1
  Ho  Ho6  1  0.877926  0.250000  0.808398  1
  Ho  Ho7  1  0.122074  0.750000  0.191602  1
  Ho  Ho8  1  0.945239  0.750000  0.503722  1
  Ho  Ho9  1  0.054761  0.250000  0.496278  1
  Ho  Ho10  1  0.450582  0.250000  0.998311  1
  Ho  Ho11  1  0.549418  0.750000  0.001689  1
  Ho  Ho12  1  0.674196  0.036941  0.560846  1
  Ho  Ho13  1  0.325804  0.963059  0.439154  1
  Ho  Ho14  1  0.177444  0.957922  0.933037  1
  Ho  Ho15  1  0.325804  0.536941  0.439154  1
  Ho  Ho16  1  0.822556  0.042078  0.066963  1
  Ho  Ho17  1  0.674196  0.463059  0.560846  1
  Ho  Ho18  1  0.822556  0.457922  0.066963  1
  Ho  Ho19  1  0.177444  0.542078  0.933037  1
  Fe  Fe20  1  0.572124  0.750000  0.512535  1
  Fe  Fe21  1  0.427876  0.250000  0.487465  1
  Bi  Bi22  1  0.569602  0.490233  0.826922  1
  Bi  Bi23  1  0.430398  0.509767  0.173078  1
  Bi  Bi24  1  0.070257  0.507383  0.673229  1
  Bi  Bi25  1  0.430398  0.990233  0.173078  1
  Bi  Bi26  1  0.929743  0.492617  0.326771  1
  Bi  Bi27  1  0.569602  0.009767  0.826922  1
  Bi  Bi28  1  0.929743  0.007383  0.326771  1
  Bi  Bi29  1  0.070257  0.992617  0.673229  1
  Rh  Rh30  1  0.070821  0.250000  0.992433  1
  Rh  Rh31  1  0.929179  0.750000  0.007567  1
