# generated using pymatgen
data_Dy19YCd3Hg3Ru2
_symmetry_space_group_name_H-M   'P 1'
_cell_length_a   9.58868828
_cell_length_b   9.58372652
_cell_length_c   9.79630600
_cell_angle_alpha   90.00000000
_cell_angle_beta   90.00000000
_cell_angle_gamma   119.98288750
_symmetry_Int_Tables_number   1
_chemical_formula_structural   Dy19YCd3Hg3Ru2
_chemical_formula_sum   'Dy19 Y1 Cd3 Hg3 Ru2'
_cell_volume   779.76089064
_cell_formula_units_Z   1
loop_
 _symmetry_equiv_pos_site_id
 _symmetry_equiv_pos_as_xyz
  1  'x, y, z'
loop_
 _atom_site_type_symbol
 _atom_site_label
 _atom_site_symmetry_multiplicity
 _atom_site_fract_x
 _atom_site_fract_y
 _atom_site_fract_z
 _atom_site_occupancy
  Dy  Dy0  1  0.999849  0.999925  0.491106  1
  Dy  Dy1  1  0.999849  0.999925  0.008894  1
  Dy  Dy2  1  0.209781  0.790958  0.439678  1
  Dy  Dy3  1  0.209781  0.418824  0.439678  1
  Dy  Dy4  1  0.580791  0.790396  0.440106  1
  Dy  Dy5  1  0.789789  0.209313  0.559129  1
  Dy  Dy6  1  0.789789  0.580476  0.559129  1
  Dy  Dy7  1  0.419449  0.209724  0.559247  1
  Dy  Dy8  1  0.789789  0.209313  0.940871  1
  Dy  Dy9  1  0.789789  0.580476  0.940871  1
  Dy  Dy10  1  0.419449  0.209724  0.940753  1
  Dy  Dy11  1  0.209781  0.790958  0.060322  1
  Dy  Dy12  1  0.209781  0.418824  0.060322  1
  Dy  Dy13  1  0.580791  0.790396  0.059894  1
  Dy  Dy14  1  0.541063  0.459091  0.250000  1
  Dy  Dy15  1  0.541063  0.081973  0.250000  1
  Dy  Dy16  1  0.918152  0.459076  0.250000  1
  Dy  Dy17  1  0.459534  0.540845  0.750000  1
  Dy  Dy18  1  0.459534  0.918689  0.750000  1
  Y  Y19  1  0.082530  0.541265  0.750000  1
  Cd  Cd20  1  0.113185  0.887655  0.750000  1
  Cd  Cd21  1  0.113185  0.225530  0.750000  1
  Cd  Cd22  1  0.773957  0.886979  0.750000  1
  Hg  Hg23  1  0.879760  0.120094  0.250000  1
  Hg  Hg24  1  0.879760  0.759667  0.250000  1
  Hg  Hg25  1  0.240348  0.120174  0.250000  1
  Ru  Ru26  1  0.333288  0.666645  0.250000  1
  Ru  Ru27  1  0.666176  0.333088  0.750000  1
