# generated using pymatgen
data_Lu5MnGaTe2
_symmetry_space_group_name_H-M   'P 1'
_cell_length_a   8.54743612
_cell_length_b   8.54743740
_cell_length_c   7.66759185
_cell_angle_alpha   91.73252431
_cell_angle_beta   91.73252199
_cell_angle_gamma   126.77513950
_symmetry_Int_Tables_number   1
_chemical_formula_structural   Lu5MnGaTe2
_chemical_formula_sum   'Lu10 Mn2 Ga2 Te4'
_cell_volume   447.67939246
_cell_formula_units_Z   2
loop_
 _symmetry_equiv_pos_site_id
 _symmetry_equiv_pos_as_xyz
  1  'x, y, z'
loop_
 _atom_site_type_symbol
 _atom_site_label
 _atom_site_symmetry_multiplicity
 _atom_site_fract_x
 _atom_site_fract_y
 _atom_site_fract_z
 _atom_site_occupancy
  Lu  Lu0  1  0.000000  0.000000  0.000000  1
  Lu  Lu1  1  0.500000  0.500000  0.500000  1
  Lu  Lu2  1  0.808242  0.569948  0.187299  1
  Lu  Lu3  1  0.430052  0.191758  0.812701  1
  Lu  Lu4  1  0.968816  0.725720  0.654561  1
  Lu  Lu5  1  0.274280  0.031184  0.345439  1
  Lu  Lu6  1  0.191758  0.430052  0.812701  1
  Lu  Lu7  1  0.569948  0.808242  0.187299  1
  Lu  Lu8  1  0.031184  0.274280  0.345439  1
  Lu  Lu9  1  0.725720  0.968816  0.654561  1
  Mn  Mn10  1  0.892371  0.892371  0.394816  1
  Mn  Mn11  1  0.107629  0.107629  0.605184  1
  Ga  Ga12  1  0.625757  0.625757  0.874979  1
  Ga  Ga13  1  0.374243  0.374243  0.125021  1
  Te  Te14  1  0.212701  0.787299  0.000000  1
  Te  Te15  1  0.706379  0.293621  0.500000  1
  Te  Te16  1  0.787299  0.212701  0.000000  1
  Te  Te17  1  0.293621  0.706379  0.500000  1
