# generated using pymatgen
data_Dy5Ho7In2CoSiTc2
_symmetry_space_group_name_H-M   'P 1'
_cell_length_a   8.48573501
_cell_length_b   8.48461494
_cell_length_c   8.48930029
_cell_angle_alpha   113.63604297
_cell_angle_beta   111.54606884
_cell_angle_gamma   103.37886930
_symmetry_Int_Tables_number   1
_chemical_formula_structural   Dy5Ho7In2CoSiTc2
_chemical_formula_sum   'Dy5 Ho7 In2 Co1 Si1 Tc2'
_cell_volume   466.57179841
_cell_formula_units_Z   1
loop_
 _symmetry_equiv_pos_site_id
 _symmetry_equiv_pos_as_xyz
  1  'x, y, z'
loop_
 _atom_site_type_symbol
 _atom_site_label
 _atom_site_symmetry_multiplicity
 _atom_site_fract_x
 _atom_site_fract_y
 _atom_site_fract_z
 _atom_site_occupancy
  Dy  Dy0  1  0.811185  0.281336  0.104171  1
  Dy  Dy1  1  0.342896  0.657713  0.314888  1
  Dy  Dy2  1  0.673164  0.354969  0.681403  1
  Dy  Dy3  1  0.342677  0.027879  0.684851  1
  Dy  Dy4  1  0.673159  0.991468  0.318516  1
  Ho  Ho5  1  0.432747  0.237977  0.195198  1
  Ho  Ho6  1  0.549536  0.754530  0.794522  1
  Ho  Ho7  1  0.042995  0.237959  0.804864  1
  Ho  Ho8  1  0.960282  0.755230  0.205329  1
  Ho  Ho9  1  0.177055  0.281179  0.469723  1
  Ho  Ho10  1  0.811643  0.707395  0.530390  1
  Ho  Ho11  1  0.177042  0.707234  0.895726  1
  In  In12  1  0.499644  0.499671  0.999972  1
  In  In13  1  0.995581  0.995215  0.999879  1
  Co  Co14  1  0.891565  0.391619  0.500351  1
  Si  Si15  1  0.120794  0.620794  0.500663  1
  Tc  Tc16  1  0.321659  0.998995  0.322555  1
  Tc  Tc17  1  0.676373  0.998837  0.676999  1
