# generated using pymatgen
data_CePrCuSi4Pd
_symmetry_space_group_name_H-M   'P 1'
_cell_length_a   8.72751560
_cell_length_b   8.72751537
_cell_length_c   4.12123200
_cell_angle_alpha   90.00000000
_cell_angle_beta   90.00000000
_cell_angle_gamma   151.63853012
_symmetry_Int_Tables_number   1
_chemical_formula_structural   CePrCuSi4Pd
_chemical_formula_sum   'Ce1 Pr1 Cu1 Si4 Pd1'
_cell_volume   149.11855816
_cell_formula_units_Z   1
loop_
 _symmetry_equiv_pos_site_id
 _symmetry_equiv_pos_as_xyz
  1  'x, y, z'
loop_
 _atom_site_type_symbol
 _atom_site_label
 _atom_site_symmetry_multiplicity
 _atom_site_fract_x
 _atom_site_fract_y
 _atom_site_fract_z
 _atom_site_occupancy
  Ce  Ce0  1  0.892823  0.107177  0.250000  1
  Pr  Pr1  1  0.099397  0.900603  0.750000  1
  Cu  Cu2  1  0.324700  0.675300  0.750000  1
  Si  Si3  1  0.534619  0.465381  0.250000  1
  Si  Si4  1  0.461673  0.538327  0.750000  1
  Si  Si5  1  0.250581  0.749419  0.250000  1
  Si  Si6  1  0.756242  0.243758  0.750000  1
  Pd  Pd7  1  0.679963  0.320037  0.250000  1
