# generated using pymatgen
data_Na2Dy2P7Ir8
_symmetry_space_group_name_H-M   'P 1'
_cell_length_a   3.95216300
_cell_length_b   12.65210145
_cell_length_c   13.16125258
_cell_angle_alpha   80.07760338
_cell_angle_beta   90.00000000
_cell_angle_gamma   90.00000000
_symmetry_Int_Tables_number   1
_chemical_formula_structural   Na2Dy2P7Ir8
_chemical_formula_sum   'Na4 Dy4 P14 Ir16'
_cell_volume   648.26041871
_cell_formula_units_Z   2
loop_
 _symmetry_equiv_pos_site_id
 _symmetry_equiv_pos_as_xyz
  1  'x, y, z'
loop_
 _atom_site_type_symbol
 _atom_site_label
 _atom_site_symmetry_multiplicity
 _atom_site_fract_x
 _atom_site_fract_y
 _atom_site_fract_z
 _atom_site_occupancy
  Na  Na0  1  0.750000  0.713561  0.892600  1
  Na  Na1  1  0.250000  0.099190  0.796343  1
  Na  Na2  1  0.750000  0.900810  0.203657  1
  Na  Na3  1  0.250000  0.286439  0.107400  1
  Dy  Dy4  1  0.750000  0.789187  0.563050  1
  Dy  Dy5  1  0.250000  0.210813  0.436950  1
  Dy  Dy6  1  0.750000  0.479045  0.706351  1
  Dy  Dy7  1  0.250000  0.520955  0.293649  1
  P  P8  1  0.250000  0.909600  0.412158  1
  P  P9  1  0.750000  0.475093  0.128320  1
  P  P10  1  0.250000  0.524907  0.871680  1
  P  P11  1  0.750000  0.090400  0.587842  1
  P  P12  1  0.250000  0.742126  0.080495  1
  P  P13  1  0.750000  0.257874  0.919505  1
  P  P14  1  0.750000  0.158824  0.281238  1
  P  P15  1  0.250000  0.841176  0.718762  1
  P  P16  1  0.250000  0.058666  0.097470  1
  P  P17  1  0.750000  0.941334  0.902530  1
  P  P18  1  0.250000  0.302378  0.689856  1
  P  P19  1  0.750000  0.697622  0.310144  1
  P  P20  1  0.250000  0.609060  0.563114  1
  P  P21  1  0.750000  0.390940  0.436886  1
  Ir  Ir22  1  0.250000  0.983134  0.575490  1
  Ir  Ir23  1  0.750000  0.016866  0.424510  1
  Ir  Ir24  1  0.250000  0.657833  0.724455  1
  Ir  Ir25  1  0.750000  0.342167  0.275545  1
  Ir  Ir26  1  0.250000  0.554947  0.047796  1
  Ir  Ir27  1  0.750000  0.445053  0.952204  1
  Ir  Ir28  1  0.250000  0.064983  0.269628  1
  Ir  Ir29  1  0.750000  0.935017  0.730372  1
  Ir  Ir30  1  0.250000  0.422491  0.525860  1
  Ir  Ir31  1  0.750000  0.577509  0.474140  1
  Ir  Ir32  1  0.250000  0.917744  0.000624  1
  Ir  Ir33  1  0.750000  0.082256  0.999376  1
  Ir  Ir34  1  0.250000  0.729417  0.398500  1
  Ir  Ir35  1  0.750000  0.270583  0.601500  1
  Ir  Ir36  1  0.250000  0.339209  0.857938  1
  Ir  Ir37  1  0.750000  0.660791  0.142062  1
