# generated using pymatgen
data_Pr3Ni29(Ge2B5)2
_symmetry_space_group_name_H-M   'P 1'
_cell_length_a   8.06091400
_cell_length_b   11.47751400
_cell_length_c   11.47751400
_cell_angle_alpha   90.00000000
_cell_angle_beta   90.00000000
_cell_angle_gamma   90.00000000
_symmetry_Int_Tables_number   1
_chemical_formula_structural   Pr3Ni29(Ge2B5)2
_chemical_formula_sum   'Pr6 Ni58 Ge8 B20'
_cell_volume   1061.89102488
_cell_formula_units_Z   2
loop_
 _symmetry_equiv_pos_site_id
 _symmetry_equiv_pos_as_xyz
  1  'x, y, z'
loop_
 _atom_site_type_symbol
 _atom_site_label
 _atom_site_symmetry_multiplicity
 _atom_site_fract_x
 _atom_site_fract_y
 _atom_site_fract_z
 _atom_site_occupancy
  Pr  Pr0  1  0.000000  0.500000  0.500000  1
  Pr  Pr1  1  0.000000  0.000000  0.500000  1
  Pr  Pr2  1  0.000000  0.500000  0.000000  1
  Pr  Pr3  1  0.000000  0.000000  0.000000  1
  Pr  Pr4  1  0.500000  0.750000  0.250000  1
  Pr  Pr5  1  0.500000  0.250000  0.750000  1
  Ni  Ni6  1  0.338243  0.426948  0.589960  1
  Ni  Ni7  1  0.521179  0.750000  0.524683  1
  Ni  Ni8  1  0.521179  0.524683  0.750000  1
  Ni  Ni9  1  0.521179  0.975317  0.750000  1
  Ni  Ni10  1  0.969224  0.250000  0.086683  1
  Ni  Ni11  1  0.969224  0.413317  0.250000  1
  Ni  Ni12  1  0.969224  0.086683  0.250000  1
  Ni  Ni13  1  0.969224  0.250000  0.413317  1
  Ni  Ni14  1  0.030776  0.750000  0.913317  1
  Ni  Ni15  1  0.030776  0.750000  0.586683  1
  Ni  Ni16  1  0.030776  0.586683  0.750000  1
  Ni  Ni17  1  0.030776  0.913317  0.750000  1
  Ni  Ni18  1  0.253639  0.135880  0.135880  1
  Ni  Ni19  1  0.253639  0.364120  0.135880  1
  Ni  Ni20  1  0.253639  0.135880  0.364120  1
  Ni  Ni21  1  0.253639  0.364120  0.364120  1
  Ni  Ni22  1  0.746361  0.635880  0.864120  1
  Ni  Ni23  1  0.746361  0.864120  0.635880  1
  Ni  Ni24  1  0.746361  0.635880  0.635880  1
  Ni  Ni25  1  0.746361  0.864120  0.864120  1
  Ni  Ni26  1  0.699722  0.140606  0.140606  1
  Ni  Ni27  1  0.699722  0.359394  0.140606  1
  Ni  Ni28  1  0.699722  0.140606  0.359394  1
  Ni  Ni29  1  0.699722  0.359394  0.359394  1
  Ni  Ni30  1  0.300278  0.640606  0.859394  1
  Ni  Ni31  1  0.300278  0.859394  0.640606  1
  Ni  Ni32  1  0.300278  0.640606  0.640606  1
  Ni  Ni33  1  0.300278  0.859394  0.859394  1
  Ni  Ni34  1  0.338243  0.073052  0.589960  1
  Ni  Ni35  1  0.338243  0.910040  0.073052  1
  Ni  Ni36  1  0.338243  0.589960  0.426948  1
  Ni  Ni37  1  0.338243  0.426948  0.910040  1
  Ni  Ni38  1  0.661757  0.573052  0.410040  1
  Ni  Ni39  1  0.661757  0.926948  0.089960  1
  Ni  Ni40  1  0.661757  0.089960  0.573052  1
  Ni  Ni41  1  0.884414  0.250000  0.862778  1
  Ni  Ni42  1  0.661757  0.926948  0.410040  1
  Ni  Ni43  1  0.661757  0.089960  0.926948  1
  Ni  Ni44  1  0.661757  0.410040  0.573052  1
  Ni  Ni45  1  0.661757  0.573052  0.089960  1
  Ni  Ni46  1  0.521179  0.750000  0.975317  1
  Ni  Ni47  1  0.884414  0.637222  0.250000  1
  Ni  Ni48  1  0.338243  0.910040  0.426948  1
  Ni  Ni49  1  0.338243  0.589960  0.073052  1
  Ni  Ni50  1  0.884414  0.862778  0.250000  1
  Ni  Ni51  1  0.884414  0.250000  0.637222  1
  Ni  Ni52  1  0.531079  0.750000  0.750000  1
  Ni  Ni53  1  0.468921  0.250000  0.250000  1
  Ni  Ni54  1  0.115586  0.750000  0.362778  1
  Ni  Ni55  1  0.478821  0.250000  0.475317  1
  Ni  Ni56  1  0.478821  0.024683  0.250000  1
  Ni  Ni57  1  0.478821  0.475317  0.250000  1
  Ni  Ni58  1  0.478821  0.250000  0.024683  1
  Ni  Ni59  1  0.115586  0.362778  0.750000  1
  Ni  Ni60  1  0.115586  0.137222  0.750000  1
  Ni  Ni61  1  0.115586  0.750000  0.137222  1
  Ni  Ni62  1  0.661757  0.410040  0.926948  1
  Ni  Ni63  1  0.338243  0.073052  0.910040  1
  Ge  Ge64  1  0.821315  0.434479  0.750000  1
  Ge  Ge65  1  0.178685  0.250000  0.565521  1
  Ge  Ge66  1  0.178685  0.934479  0.250000  1
  Ge  Ge67  1  0.178685  0.565521  0.250000  1
  Ge  Ge68  1  0.178685  0.250000  0.934479  1
  Ge  Ge69  1  0.821315  0.750000  0.434479  1
  Ge  Ge70  1  0.821315  0.750000  0.065521  1
  Ge  Ge71  1  0.821315  0.065521  0.750000  1
  B  B72  1  0.517574  0.937915  0.937915  1
  B  B73  1  0.517574  0.562085  0.562085  1
  B  B74  1  0.517574  0.937915  0.562085  1
  B  B75  1  0.517574  0.562085  0.937915  1
  B  B76  1  0.482426  0.437915  0.437915  1
  B  B77  1  0.482426  0.062085  0.437915  1
  B  B78  1  0.262928  0.002528  0.750000  1
  B  B79  1  0.262928  0.497472  0.750000  1
  B  B80  1  0.262928  0.750000  0.497472  1
  B  B81  1  0.262928  0.750000  0.002528  1
  B  B82  1  0.737072  0.250000  0.502528  1
  B  B83  1  0.737072  0.997472  0.250000  1
  B  B84  1  0.737072  0.502528  0.250000  1
  B  B85  1  0.737072  0.250000  0.997472  1
  B  B86  1  0.143147  0.750000  0.750000  1
  B  B87  1  0.856853  0.250000  0.250000  1
  B  B88  1  0.897482  0.750000  0.750000  1
  B  B89  1  0.102518  0.250000  0.250000  1
  B  B90  1  0.482426  0.437915  0.062085  1
  B  B91  1  0.482426  0.062085  0.062085  1
