# generated using pymatgen
data_Gd6BiO12
_symmetry_space_group_name_H-M   'P 1'
_cell_length_a   6.64461012
_cell_length_b   6.64459875
_cell_length_c   6.64462453
_cell_angle_alpha   98.97200319
_cell_angle_beta   98.97330482
_cell_angle_gamma   98.97243771
_symmetry_Int_Tables_number   1
_chemical_formula_structural   Gd6BiO12
_chemical_formula_sum   'Gd6 Bi1 O12'
_cell_volume   281.30051098
_cell_formula_units_Z   1
loop_
 _symmetry_equiv_pos_site_id
 _symmetry_equiv_pos_as_xyz
  1  'x, y, z'
loop_
 _atom_site_type_symbol
 _atom_site_label
 _atom_site_symmetry_multiplicity
 _atom_site_fract_x
 _atom_site_fract_y
 _atom_site_fract_z
 _atom_site_occupancy
  Gd  Gd0  1  0.608294  0.306313  0.140491  1
  Gd  Gd1  1  0.140512  0.608301  0.306313  1
  Gd  Gd2  1  0.693688  0.859499  0.391693  1
  Gd  Gd3  1  0.306312  0.140501  0.608307  1
  Gd  Gd4  1  0.859488  0.391699  0.693687  1
  Gd  Gd5  1  0.391705  0.693687  0.859509  1
  Bi  Bi6  1  0.000000  0.000000  0.000000  1
  O  O7  1  0.686528  0.929344  0.048736  1
  O  O8  1  0.951264  0.313468  0.070651  1
  O  O9  1  0.433254  0.588012  0.177471  1
  O  O10  1  0.070654  0.951264  0.313469  1
  O  O11  1  0.822531  0.566751  0.411990  1
  O  O12  1  0.588007  0.177470  0.433250  1
  O  O13  1  0.411993  0.822530  0.566750  1
  O  O14  1  0.177469  0.433249  0.588010  1
  O  O15  1  0.929346  0.048736  0.686531  1
  O  O16  1  0.566746  0.411987  0.822529  1
  O  O17  1  0.048736  0.686532  0.929349  1
  O  O18  1  0.313472  0.070656  0.951264  1
