# generated using pymatgen
data_Y2U2ReB12Ru
_symmetry_space_group_name_H-M   'P 1'
_cell_length_a   3.61947000
_cell_length_b   9.31840020
_cell_length_c   11.44050147
_cell_angle_alpha   90.05820245
_cell_angle_beta   90.00000000
_cell_angle_gamma   90.00000000
_symmetry_Int_Tables_number   1
_chemical_formula_structural   Y2U2ReB12Ru
_chemical_formula_sum   'Y4 U4 Re2 B24 Ru2'
_cell_volume   385.86125908
_cell_formula_units_Z   2
loop_
 _symmetry_equiv_pos_site_id
 _symmetry_equiv_pos_as_xyz
  1  'x, y, z'
loop_
 _atom_site_type_symbol
 _atom_site_label
 _atom_site_symmetry_multiplicity
 _atom_site_fract_x
 _atom_site_fract_y
 _atom_site_fract_z
 _atom_site_occupancy
  Y  Y0  1  0.000000  0.335552  0.406645  1
  Y  Y1  1  0.000000  0.664448  0.593355  1
  Y  Y2  1  0.000000  0.837689  0.091659  1
  Y  Y3  1  0.000000  0.162311  0.908341  1
  U  U4  1  0.000000  0.959023  0.397136  1
  U  U5  1  0.000000  0.040977  0.602864  1
  U  U6  1  0.000000  0.455593  0.101704  1
  U  U7  1  0.000000  0.544407  0.898296  1
  Re  Re8  1  0.000000  0.146002  0.181586  1
  Re  Re9  1  0.000000  0.853998  0.818414  1
  B  B10  1  0.500000  0.551655  0.430663  1
  B  B11  1  0.500000  0.448345  0.569337  1
  B  B12  1  0.500000  0.052017  0.069174  1
  B  B13  1  0.500000  0.947983  0.930826  1
  B  B14  1  0.500000  0.742944  0.422495  1
  B  B15  1  0.500000  0.257056  0.577505  1
  B  B16  1  0.500000  0.243260  0.076990  1
  B  B17  1  0.500000  0.756740  0.923010  1
  B  B18  1  0.500000  0.801649  0.274720  1
  B  B19  1  0.500000  0.198351  0.725280  1
  B  B20  1  0.500000  0.302229  0.225098  1
  B  B21  1  0.500000  0.697771  0.774902  1
  B  B22  1  0.500000  0.644111  0.188860  1
  B  B23  1  0.500000  0.355889  0.811140  1
  B  B24  1  0.500000  0.143908  0.311646  1
  B  B25  1  0.500000  0.856092  0.688354  1
  B  B26  1  0.500000  0.988407  0.219670  1
  B  B27  1  0.500000  0.011593  0.780330  1
  B  B28  1  0.500000  0.489157  0.280939  1
  B  B29  1  0.500000  0.510843  0.719061  1
  B  B30  1  0.500000  0.640881  0.039726  1
  B  B31  1  0.500000  0.359119  0.960274  1
  B  B32  1  0.500000  0.141710  0.461620  1
  B  B33  1  0.500000  0.858290  0.538380  1
  Ru  Ru34  1  0.000000  0.644593  0.319392  1
  Ru  Ru35  1  0.000000  0.355407  0.680608  1
