# generated using pymatgen
data_Tb4Er12Cd3InPd4
_symmetry_space_group_name_H-M   'P 1'
_cell_length_a   9.64417994
_cell_length_b   9.64417910
_cell_length_c   9.64417985
_cell_angle_alpha   60.01174700
_cell_angle_beta   60.01175431
_cell_angle_gamma   60.01174942
_symmetry_Int_Tables_number   1
_chemical_formula_structural   Tb4Er12Cd3InPd4
_chemical_formula_sum   'Tb4 Er12 Cd3 In1 Pd4'
_cell_volume   634.44875579
_cell_formula_units_Z   1
loop_
 _symmetry_equiv_pos_site_id
 _symmetry_equiv_pos_as_xyz
  1  'x, y, z'
loop_
 _atom_site_type_symbol
 _atom_site_label
 _atom_site_symmetry_multiplicity
 _atom_site_fract_x
 _atom_site_fract_y
 _atom_site_fract_z
 _atom_site_occupancy
  Tb  Tb0  1  0.352066  0.352066  0.352066  1
  Tb  Tb1  1  0.356691  0.356691  0.933746  1
  Tb  Tb2  1  0.356691  0.933746  0.356691  1
  Tb  Tb3  1  0.933746  0.356691  0.356691  1
  Er  Er4  1  0.811606  0.188721  0.188721  1
  Er  Er5  1  0.189966  0.810941  0.810941  1
  Er  Er6  1  0.188721  0.811606  0.188721  1
  Er  Er7  1  0.810941  0.189966  0.810941  1
  Er  Er8  1  0.188721  0.188721  0.811606  1
  Er  Er9  1  0.810941  0.810941  0.189966  1
  Er  Er10  1  0.935371  0.567453  0.567453  1
  Er  Er11  1  0.565709  0.935238  0.935238  1
  Er  Er12  1  0.567453  0.935371  0.567453  1
  Er  Er13  1  0.935238  0.565709  0.935238  1
  Er  Er14  1  0.567453  0.567453  0.935371  1
  Er  Er15  1  0.935238  0.935238  0.565709  1
  Cd  Cd16  1  0.581107  0.581107  0.250424  1
  Cd  Cd17  1  0.581107  0.250424  0.581107  1
  Cd  Cd18  1  0.250424  0.581107  0.581107  1
  In  In19  1  0.583003  0.583003  0.583003  1
  Pd  Pd20  1  0.145262  0.145262  0.145262  1
  Pd  Pd21  1  0.141662  0.141662  0.569219  1
  Pd  Pd22  1  0.141662  0.569219  0.141662  1
  Pd  Pd23  1  0.569219  0.141662  0.141662  1
