# generated using pymatgen
data_Li3Tm3Si2Pb
_symmetry_space_group_name_H-M   'P 1'
_cell_length_a   7.03206800
_cell_length_b   7.03206841
_cell_length_c   4.26627600
_cell_angle_alpha   90.00000000
_cell_angle_beta   90.00000000
_cell_angle_gamma   119.99999808
_symmetry_Int_Tables_number   1
_chemical_formula_structural   Li3Tm3Si2Pb
_chemical_formula_sum   'Li3 Tm3 Si2 Pb1'
_cell_volume   182.70302446
_cell_formula_units_Z   1
loop_
 _symmetry_equiv_pos_site_id
 _symmetry_equiv_pos_as_xyz
  1  'x, y, z'
loop_
 _atom_site_type_symbol
 _atom_site_label
 _atom_site_symmetry_multiplicity
 _atom_site_fract_x
 _atom_site_fract_y
 _atom_site_fract_z
 _atom_site_occupancy
  Li  Li0  1  0.245856  0.000000  0.500000  1
  Li  Li1  1  0.754144  0.754144  0.500000  1
  Li  Li2  1  0.000000  0.245856  0.500000  1
  Tm  Tm3  1  0.000000  0.549750  0.000000  1
  Tm  Tm4  1  0.549750  0.000000  0.000000  1
  Tm  Tm5  1  0.450250  0.450250  0.000000  1
  Si  Si6  1  0.333333  0.666667  0.500000  1
  Si  Si7  1  0.666667  0.333333  0.500000  1
  Pb  Pb8  1  0.000000  0.000000  0.000000  1
