# generated using pymatgen
data_Ho2LuHfAl17GaIr6
_symmetry_space_group_name_H-M   'P 1'
_cell_length_a   7.50919809
_cell_length_b   7.50477892
_cell_length_c   9.39526300
_cell_angle_alpha   90.00000000
_cell_angle_beta   90.00000000
_cell_angle_gamma   119.51112902
_symmetry_Int_Tables_number   1
_chemical_formula_structural   Ho2LuHfAl17GaIr6
_chemical_formula_sum   'Ho2 Lu1 Hf1 Al17 Ga1 Ir6'
_cell_volume   460.77556973
_cell_formula_units_Z   1
loop_
 _symmetry_equiv_pos_site_id
 _symmetry_equiv_pos_as_xyz
  1  'x, y, z'
loop_
 _atom_site_type_symbol
 _atom_site_label
 _atom_site_symmetry_multiplicity
 _atom_site_fract_x
 _atom_site_fract_y
 _atom_site_fract_z
 _atom_site_occupancy
  Ho  Ho0  1  0.005862  0.324696  0.750000  1
  Ho  Ho1  1  0.326420  0.006897  0.750000  1
  Lu  Lu2  1  0.672418  0.996167  0.250000  1
  Hf  Hf3  1  0.997397  0.673251  0.250000  1
  Al  Al4  1  0.126894  0.124736  0.250000  1
  Al  Al5  1  0.999888  0.337863  0.080067  1
  Al  Al6  1  0.999135  0.664703  0.929405  1
  Al  Al7  1  0.999135  0.664703  0.570595  1
  Al  Al8  1  0.333691  0.998385  0.419841  1
  Al  Al9  1  0.999888  0.337863  0.419933  1
  Al  Al10  1  0.664239  0.998183  0.573402  1
  Al  Al11  1  0.664239  0.998183  0.926598  1
  Al  Al12  1  0.333691  0.998385  0.080159  1
  Al  Al13  1  0.334052  0.334290  0.550167  1
  Al  Al14  1  0.668919  0.667265  0.439725  1
  Al  Al15  1  0.668919  0.667265  0.060275  1
  Al  Al16  1  0.334052  0.334290  0.949833  1
  Al  Al17  1  0.336543  0.550420  0.250000  1
  Al  Al18  1  0.661462  0.451302  0.750000  1
  Al  Al19  1  0.555518  0.343552  0.250000  1
  Al  Al20  1  0.449823  0.660334  0.750000  1
  Ga  Ga21  1  0.866188  0.865118  0.750000  1
  Ir  Ir22  1  0.673101  0.328926  0.001178  1
  Ir  Ir23  1  0.328527  0.673083  0.001917  1
  Ir  Ir24  1  0.328527  0.673083  0.498083  1
  Ir  Ir25  1  0.673101  0.328926  0.498822  1
  Ir  Ir26  1  0.999188  0.999066  0.004365  1
  Ir  Ir27  1  0.999188  0.999066  0.495635  1
