# generated using pymatgen
data_TbScCrB6
_symmetry_space_group_name_H-M   'P 1'
_cell_length_a   3.47832700
_cell_length_b   9.02407600
_cell_length_c   11.39463200
_cell_angle_alpha   90.00000000
_cell_angle_beta   90.00000000
_cell_angle_gamma   90.00000000
_symmetry_Int_Tables_number   1
_chemical_formula_structural   TbScCrB6
_chemical_formula_sum   'Tb4 Sc4 Cr4 B24'
_cell_volume   357.66253962
_cell_formula_units_Z   4
loop_
 _symmetry_equiv_pos_site_id
 _symmetry_equiv_pos_as_xyz
  1  'x, y, z'
loop_
 _atom_site_type_symbol
 _atom_site_label
 _atom_site_symmetry_multiplicity
 _atom_site_fract_x
 _atom_site_fract_y
 _atom_site_fract_z
 _atom_site_occupancy
  Tb  Tb0  1  0.000000  0.822754  0.085434  1
  Tb  Tb1  1  0.000000  0.177246  0.914566  1
  Tb  Tb2  1  0.000000  0.322754  0.414566  1
  Tb  Tb3  1  0.000000  0.677246  0.585434  1
  Sc  Sc4  1  0.000000  0.443253  0.130897  1
  Sc  Sc5  1  0.000000  0.556747  0.869103  1
  Sc  Sc6  1  0.000000  0.943253  0.369103  1
  Sc  Sc7  1  0.000000  0.056747  0.630897  1
  Cr  Cr8  1  0.000000  0.141705  0.181918  1
  Cr  Cr9  1  0.000000  0.858295  0.818082  1
  Cr  Cr10  1  0.000000  0.641705  0.318082  1
  Cr  Cr11  1  0.000000  0.358295  0.681918  1
  B  B12  1  0.500000  0.055002  0.068025  1
  B  B13  1  0.500000  0.944998  0.931975  1
  B  B14  1  0.500000  0.555002  0.431975  1
  B  B15  1  0.500000  0.444998  0.568025  1
  B  B16  1  0.500000  0.253282  0.082857  1
  B  B17  1  0.500000  0.746718  0.917143  1
  B  B18  1  0.500000  0.753282  0.417143  1
  B  B19  1  0.500000  0.246718  0.582857  1
  B  B20  1  0.500000  0.294606  0.235290  1
  B  B21  1  0.500000  0.705394  0.764710  1
  B  B22  1  0.500000  0.794606  0.264710  1
  B  B23  1  0.500000  0.205394  0.735290  1
  B  B24  1  0.500000  0.129435  0.316341  1
  B  B25  1  0.500000  0.870565  0.683659  1
  B  B26  1  0.500000  0.629435  0.183659  1
  B  B27  1  0.500000  0.370565  0.816341  1
  B  B28  1  0.500000  0.482799  0.286358  1
  B  B29  1  0.500000  0.517201  0.713642  1
  B  B30  1  0.500000  0.982799  0.213642  1
  B  B31  1  0.500000  0.017201  0.786358  1
  B  B32  1  0.500000  0.095727  0.473961  1
  B  B33  1  0.500000  0.904273  0.526039  1
  B  B34  1  0.500000  0.595727  0.026039  1
  B  B35  1  0.500000  0.404273  0.973961  1
