# generated using pymatgen
data_Pa2Al9RePdPt
_symmetry_space_group_name_H-M   'P 1'
_cell_length_a   7.64596331
_cell_length_b   7.65001309
_cell_length_c   9.37503484
_cell_angle_alpha   90.04843260
_cell_angle_beta   90.05959283
_cell_angle_gamma   118.12710449
_symmetry_Int_Tables_number   1
_chemical_formula_structural   Pa2Al9RePdPt
_chemical_formula_sum   'Pa4 Al18 Re2 Pd2 Pt2'
_cell_volume   483.60171521
_cell_formula_units_Z   2
loop_
 _symmetry_equiv_pos_site_id
 _symmetry_equiv_pos_as_xyz
  1  'x, y, z'
loop_
 _atom_site_type_symbol
 _atom_site_label
 _atom_site_symmetry_multiplicity
 _atom_site_fract_x
 _atom_site_fract_y
 _atom_site_fract_z
 _atom_site_occupancy
  Pa  Pa0  1  0.996047  0.699564  0.250220  1
  Pa  Pa1  1  0.003953  0.300436  0.749780  1
  Pa  Pa2  1  0.699100  0.995516  0.250216  1
  Pa  Pa3  1  0.300900  0.004484  0.749784  1
  Al  Al4  1  0.151331  0.151365  0.250131  1
  Al  Al5  1  0.848669  0.848635  0.749869  1
  Al  Al6  1  0.005284  0.344165  0.081373  1
  Al  Al7  1  0.994716  0.655835  0.918627  1
  Al  Al8  1  0.993998  0.654967  0.582191  1
  Al  Al9  1  0.345878  0.006455  0.418237  1
  Al  Al10  1  0.006002  0.345033  0.417809  1
  Al  Al11  1  0.654122  0.993545  0.581763  1
  Al  Al12  1  0.655103  0.994350  0.918999  1
  Al  Al13  1  0.344897  0.005650  0.081001  1
  Al  Al14  1  0.333394  0.333067  0.546308  1
  Al  Al15  1  0.666606  0.666933  0.453692  1
  Al  Al16  1  0.667525  0.667809  0.043847  1
  Al  Al17  1  0.332475  0.332191  0.956153  1
  Al  Al18  1  0.353214  0.564131  0.250684  1
  Al  Al19  1  0.646786  0.435869  0.749316  1
  Al  Al20  1  0.563814  0.352302  0.250679  1
  Al  Al21  1  0.436186  0.647698  0.749321  1
  Re  Re22  1  0.000000  0.000000  0.000000  1
  Re  Re23  1  0.000000  0.000000  0.500000  1
  Pd  Pd24  1  0.327038  0.671973  0.499861  1
  Pd  Pd25  1  0.672962  0.328027  0.500139  1
  Pt  Pt26  1  0.672993  0.328059  0.999899  1
  Pt  Pt27  1  0.327007  0.671941  0.000101  1
