# generated using pymatgen
data_Er2Tm6Co3Si12Rh
_symmetry_space_group_name_H-M   'P 1'
_cell_length_a   7.99473200
_cell_length_b   7.99473286
_cell_length_c   7.77654300
_cell_angle_alpha   90.00000000
_cell_angle_beta   90.00000000
_cell_angle_gamma   119.99999645
_symmetry_Int_Tables_number   1
_chemical_formula_structural   Er2Tm6Co3Si12Rh
_chemical_formula_sum   'Er2 Tm6 Co3 Si12 Rh1'
_cell_volume   430.45235818
_cell_formula_units_Z   1
loop_
 _symmetry_equiv_pos_site_id
 _symmetry_equiv_pos_as_xyz
  1  'x, y, z'
loop_
 _atom_site_type_symbol
 _atom_site_label
 _atom_site_symmetry_multiplicity
 _atom_site_fract_x
 _atom_site_fract_y
 _atom_site_fract_z
 _atom_site_occupancy
  Er  Er0  1  0.000000  0.000000  0.751356  1
  Er  Er1  1  0.000000  0.000000  0.248939  1
  Tm  Tm2  1  0.983453  0.491728  0.248471  1
  Tm  Tm3  1  0.508272  0.491728  0.248471  1
  Tm  Tm4  1  0.494482  0.988963  0.750175  1
  Tm  Tm5  1  0.011037  0.505518  0.750175  1
  Tm  Tm6  1  0.494482  0.505518  0.750175  1
  Tm  Tm7  1  0.508272  0.016547  0.248471  1
  Co  Co8  1  0.333333  0.666667  0.033910  1
  Co  Co9  1  0.666667  0.333333  0.966935  1
  Co  Co10  1  0.666667  0.333333  0.533381  1
  Si  Si11  1  0.166271  0.833729  0.500559  1
  Si  Si12  1  0.166271  0.332542  0.500559  1
  Si  Si13  1  0.667458  0.833729  0.500559  1
  Si  Si14  1  0.342481  0.171241  0.998505  1
  Si  Si15  1  0.827924  0.655849  0.501155  1
  Si  Si16  1  0.828759  0.171241  0.998505  1
  Si  Si17  1  0.828759  0.657519  0.998505  1
  Si  Si18  1  0.171938  0.343875  0.001069  1
  Si  Si19  1  0.656125  0.828062  0.001069  1
  Si  Si20  1  0.344151  0.172076  0.501155  1
  Si  Si21  1  0.827924  0.172076  0.501155  1
  Si  Si22  1  0.171938  0.828062  0.001069  1
  Rh  Rh23  1  0.333333  0.666667  0.465680  1
