# generated using pymatgen
data_Tb8Y8MgTl(CdPt2)2
_symmetry_space_group_name_H-M   'P 1'
_cell_length_a   9.76228612
_cell_length_b   9.76228683
_cell_length_c   9.78270400
_cell_angle_alpha   59.93079859
_cell_angle_beta   59.93079617
_cell_angle_gamma   60.03205656
_symmetry_Int_Tables_number   1
_chemical_formula_structural   Tb8Y8MgTl(CdPt2)2
_chemical_formula_sum   'Tb8 Y8 Mg1 Tl1 Cd2 Pt4'
_cell_volume   658.71390559
_cell_formula_units_Z   1
loop_
 _symmetry_equiv_pos_site_id
 _symmetry_equiv_pos_as_xyz
  1  'x, y, z'
loop_
 _atom_site_type_symbol
 _atom_site_label
 _atom_site_symmetry_multiplicity
 _atom_site_fract_x
 _atom_site_fract_y
 _atom_site_fract_z
 _atom_site_occupancy
  Tb  Tb0  1  0.350046  0.350046  0.349822  1
  Tb  Tb1  1  0.351208  0.351208  0.946903  1
  Tb  Tb2  1  0.352882  0.945225  0.351263  1
  Tb  Tb3  1  0.945225  0.352882  0.351263  1
  Tb  Tb4  1  0.812316  0.189397  0.187364  1
  Tb  Tb5  1  0.191034  0.809292  0.808149  1
  Tb  Tb6  1  0.189397  0.812316  0.187364  1
  Tb  Tb7  1  0.809292  0.191034  0.808149  1
  Y  Y8  1  0.191405  0.191405  0.808073  1
  Y  Y9  1  0.810328  0.810328  0.188948  1
  Y  Y10  1  0.938841  0.564348  0.563857  1
  Y  Y11  1  0.565029  0.936453  0.934087  1
  Y  Y12  1  0.564348  0.938841  0.563857  1
  Y  Y13  1  0.936453  0.565029  0.934087  1
  Y  Y14  1  0.565036  0.565036  0.935366  1
  Y  Y15  1  0.937667  0.937667  0.562297  1
  Mg  Mg16  1  0.575283  0.575283  0.271073  1
  Tl  Tl17  1  0.583790  0.583790  0.583793  1
  Cd  Cd18  1  0.580517  0.250788  0.582586  1
  Cd  Cd19  1  0.250788  0.580517  0.582586  1
  Pt  Pt20  1  0.142702  0.142702  0.144971  1
  Pt  Pt21  1  0.142108  0.142108  0.569952  1
  Pt  Pt22  1  0.142352  0.571952  0.142094  1
  Pt  Pt23  1  0.571952  0.142352  0.142094  1
