# generated using pymatgen
data_Tb2Si3Ni14H3
_symmetry_space_group_name_H-M   'P 1'
_cell_length_a   6.25640870
_cell_length_b   6.25640883
_cell_length_c   6.25641021
_cell_angle_alpha   83.52503144
_cell_angle_beta   83.52503330
_cell_angle_gamma   83.52502436
_symmetry_Int_Tables_number   1
_chemical_formula_structural   Tb2Si3Ni14H3
_chemical_formula_sum   'Tb2 Si3 Ni14 H3'
_cell_volume   240.53347472
_cell_formula_units_Z   1
loop_
 _symmetry_equiv_pos_site_id
 _symmetry_equiv_pos_as_xyz
  1  'x, y, z'
loop_
 _atom_site_type_symbol
 _atom_site_label
 _atom_site_symmetry_multiplicity
 _atom_site_fract_x
 _atom_site_fract_y
 _atom_site_fract_z
 _atom_site_occupancy
  Tb  Tb0  1  0.651232  0.651232  0.651232  1
  Tb  Tb1  1  0.348768  0.348768  0.348768  1
  Si  Si2  1  0.000000  0.000000  0.500000  1
  Si  Si3  1  0.000000  0.500000  0.000000  1
  Si  Si4  1  0.500000  0.000000  0.000000  1
  Ni  Ni5  1  0.291419  0.708581  0.000000  1
  Ni  Ni6  1  0.708581  0.000000  0.291419  1
  Ni  Ni7  1  0.000000  0.291419  0.708581  1
  Ni  Ni8  1  0.291419  0.000000  0.708581  1
  Ni  Ni9  1  0.000000  0.708581  0.291419  1
  Ni  Ni10  1  0.708581  0.291419  0.000000  1
  Ni  Ni11  1  0.342437  0.342437  0.861664  1
  Ni  Ni12  1  0.342437  0.861664  0.342437  1
  Ni  Ni13  1  0.861664  0.342437  0.342437  1
  Ni  Ni14  1  0.657563  0.657563  0.138336  1
  Ni  Ni15  1  0.657563  0.138336  0.657563  1
  Ni  Ni16  1  0.138336  0.657563  0.657563  1
  Ni  Ni17  1  0.899964  0.899964  0.899964  1
  Ni  Ni18  1  0.100036  0.100036  0.100036  1
  H  H19  1  0.500000  0.500000  0.000000  1
  H  H20  1  0.500000  0.000000  0.500000  1
  H  H21  1  0.000000  0.500000  0.500000  1
