# generated using pymatgen
data_Ac2Pr(SnRh)3
_symmetry_space_group_name_H-M   'P 1'
_cell_length_a   7.68803690
_cell_length_b   7.60931294
_cell_length_c   4.30731300
_cell_angle_alpha   90.00000000
_cell_angle_beta   90.00000000
_cell_angle_gamma   119.66184889
_symmetry_Int_Tables_number   1
_chemical_formula_structural   Ac2Pr(SnRh)3
_chemical_formula_sum   'Ac2 Pr1 Sn3 Rh3'
_cell_volume   218.96148791
_cell_formula_units_Z   1
loop_
 _symmetry_equiv_pos_site_id
 _symmetry_equiv_pos_as_xyz
  1  'x, y, z'
loop_
 _atom_site_type_symbol
 _atom_site_label
 _atom_site_symmetry_multiplicity
 _atom_site_fract_x
 _atom_site_fract_y
 _atom_site_fract_z
 _atom_site_occupancy
  Ac  Ac0  1  0.584645  0.000170  0.500000  1
  Ac  Ac1  1  0.415355  0.415525  0.500000  1
  Pr  Pr2  1  0.000000  0.588224  0.500000  1
  Sn  Sn3  1  0.237657  0.991767  0.000000  1
  Sn  Sn4  1  0.762343  0.754109  0.000000  1
  Sn  Sn5  1  0.000000  0.251798  0.000000  1
  Rh  Rh6  1  0.000000  0.999119  0.500000  1
  Rh  Rh7  1  0.332537  0.665913  0.000000  1
  Rh  Rh8  1  0.667463  0.333375  0.000000  1
