# generated using pymatgen
data_TaTi2Fe4MoP4
_symmetry_space_group_name_H-M   'P 1'
_cell_length_a   3.58785100
_cell_length_b   6.05720308
_cell_length_c   6.83823536
_cell_angle_alpha   89.73921703
_cell_angle_beta   90.00000000
_cell_angle_gamma   90.00000000
_symmetry_Int_Tables_number   1
_chemical_formula_structural   TaTi2Fe4MoP4
_chemical_formula_sum   'Ta1 Ti2 Fe4 Mo1 P4'
_cell_volume   148.60933105
_cell_formula_units_Z   1
loop_
 _symmetry_equiv_pos_site_id
 _symmetry_equiv_pos_as_xyz
  1  'x, y, z'
loop_
 _atom_site_type_symbol
 _atom_site_label
 _atom_site_symmetry_multiplicity
 _atom_site_fract_x
 _atom_site_fract_y
 _atom_site_fract_z
 _atom_site_occupancy
  Ta  Ta0  1  0.750000  0.978064  0.176359  1
  Ti  Ti1  1  0.250000  0.520671  0.681185  1
  Ti  Ti2  1  0.750000  0.477733  0.321184  1
  Fe  Fe3  1  0.250000  0.143155  0.439000  1
  Fe  Fe4  1  0.250000  0.645731  0.062992  1
  Fe  Fe5  1  0.750000  0.856778  0.559820  1
  Fe  Fe6  1  0.750000  0.358196  0.936359  1
  Mo  Mo7  1  0.250000  0.022247  0.825480  1
  P  P8  1  0.250000  0.769276  0.383643  1
  P  P9  1  0.250000  0.279927  0.118647  1
  P  P10  1  0.750000  0.226059  0.620543  1
  P  P11  1  0.750000  0.722164  0.874786  1
