# generated using pymatgen
data_Sm2Y(AlI)2
_symmetry_space_group_name_H-M   'P 1'
_cell_length_a   9.77458705
_cell_length_b   9.77458716
_cell_length_c   11.91371908
_cell_angle_alpha   59.88812168
_cell_angle_beta   59.88812246
_cell_angle_gamma   25.20648180
_symmetry_Int_Tables_number   1
_chemical_formula_structural   Sm2Y(AlI)2
_chemical_formula_sum   'Sm4 Y2 Al4 I4'
_cell_volume   415.80606133
_cell_formula_units_Z   2
loop_
 _symmetry_equiv_pos_site_id
 _symmetry_equiv_pos_as_xyz
  1  'x, y, z'
loop_
 _atom_site_type_symbol
 _atom_site_label
 _atom_site_symmetry_multiplicity
 _atom_site_fract_x
 _atom_site_fract_y
 _atom_site_fract_z
 _atom_site_occupancy
  Sm  Sm0  1  0.756078  0.756078  0.797950  1
  Sm  Sm1  1  0.243922  0.243922  0.202050  1
  Sm  Sm2  1  0.533974  0.533974  0.314325  1
  Sm  Sm3  1  0.466026  0.466026  0.685675  1
  Y  Y4  1  0.830972  0.830972  0.390053  1
  Y  Y5  1  0.169028  0.169028  0.609947  1
  Al  Al6  1  0.926217  0.926217  0.529400  1
  Al  Al7  1  0.073783  0.073783  0.470600  1
  Al  Al8  1  0.335931  0.335931  0.583607  1
  Al  Al9  1  0.664069  0.664069  0.416393  1
  I  I10  1  0.422305  0.422305  0.174594  1
  I  I11  1  0.577695  0.577695  0.825406  1
  I  I12  1  0.859354  0.859354  0.941061  1
  I  I13  1  0.140646  0.140646  0.058939  1
