# generated using pymatgen
data_RuS27
_symmetry_space_group_name_H-M   'P 1'
_cell_length_a   15.12826523
_cell_length_b   15.12439145
_cell_length_c   15.11967772
_cell_angle_alpha   118.61466066
_cell_angle_beta   118.65969602
_cell_angle_gamma   118.73031735
_symmetry_Int_Tables_number   1
_chemical_formula_structural   RuS27
_chemical_formula_sum   'Ru1 S27'
_cell_volume   1030.53076258
_cell_formula_units_Z   1
loop_
 _symmetry_equiv_pos_site_id
 _symmetry_equiv_pos_as_xyz
  1  'x, y, z'
loop_
 _atom_site_type_symbol
 _atom_site_label
 _atom_site_symmetry_multiplicity
 _atom_site_fract_x
 _atom_site_fract_y
 _atom_site_fract_z
 _atom_site_occupancy
  Ru  Ru0  1  0.965881  0.965887  0.965781  1
  S  S1  1  0.802484  0.519668  0.519665  1
  S  S2  1  0.521132  0.521224  0.803764  1
  S  S3  1  0.520319  0.803062  0.520423  1
  S  S4  1  0.249309  0.378424  0.638437  1
  S  S5  1  0.349140  0.948233  0.348962  1
  S  S6  1  0.348682  0.348582  0.947821  1
  S  S7  1  0.948586  0.349471  0.349371  1
  S  S8  1  0.128208  0.740552  0.257390  1
  S  S9  1  0.256991  0.127905  0.740216  1
  S  S10  1  0.740486  0.257296  0.128158  1
  S  S11  1  0.740693  0.128309  0.257551  1
  S  S12  1  0.257135  0.740310  0.128052  1
  S  S13  1  0.127987  0.257040  0.740320  1
  S  S14  1  0.344610  0.876775  0.527062  1
  S  S15  1  0.527178  0.344707  0.876863  1
  S  S16  1  0.876324  0.526584  0.343928  1
  S  S17  1  0.876565  0.344312  0.526830  1
  S  S18  1  0.526853  0.876575  0.344273  1
  S  S19  1  0.344792  0.527242  0.876964  1
  S  S20  1  0.248563  0.637803  0.377783  1
  S  S21  1  0.378310  0.249390  0.638391  1
  S  S22  1  0.637184  0.376982  0.247913  1
  S  S23  1  0.637334  0.248030  0.377204  1
  S  S24  1  0.377602  0.637753  0.248669  1
  S  S25  1  0.837481  0.974927  0.975204  1
  S  S26  1  0.978671  0.978822  0.840932  1
  S  S27  1  0.976800  0.839427  0.977369  1
