# generated using pymatgen
data_Dy2YMg3Al2Hg
_symmetry_space_group_name_H-M   'P 1'
_cell_length_a   7.50194800
_cell_length_b   7.50036968
_cell_length_c   4.42075400
_cell_angle_alpha   90.00000000
_cell_angle_beta   90.00000000
_cell_angle_gamma   120.00696127
_symmetry_Int_Tables_number   1
_chemical_formula_structural   Dy2YMg3Al2Hg
_chemical_formula_sum   'Dy2 Y1 Mg3 Al2 Hg1'
_cell_volume   215.40373579
_cell_formula_units_Z   1
loop_
 _symmetry_equiv_pos_site_id
 _symmetry_equiv_pos_as_xyz
  1  'x, y, z'
loop_
 _atom_site_type_symbol
 _atom_site_label
 _atom_site_symmetry_multiplicity
 _atom_site_fract_x
 _atom_site_fract_y
 _atom_site_fract_z
 _atom_site_occupancy
  Dy  Dy0  1  0.000001  0.575171  0.000000  1
  Dy  Dy1  1  0.424830  0.424829  0.000000  1
  Y  Y2  1  0.574923  0.000000  0.000000  1
  Mg  Mg3  1  0.753082  0.752921  0.500000  1
  Mg  Mg4  1  0.246885  0.000000  0.500000  1
  Mg  Mg5  1  0.000161  0.247079  0.500000  1
  Al  Al6  1  0.666707  0.333586  0.500000  1
  Al  Al7  1  0.333119  0.666414  0.500000  1
  Hg  Hg8  1  0.000291  0.000000  0.000000  1
