# generated using pymatgen
data_Tb3TmMg2Ir3
_symmetry_space_group_name_H-M   'P 1'
_cell_length_a   7.41821000
_cell_length_b   7.42986428
_cell_length_c   4.12934200
_cell_angle_alpha   90.00000000
_cell_angle_beta   90.00000000
_cell_angle_gamma   119.94812558
_symmetry_Int_Tables_number   1
_chemical_formula_structural   Tb3TmMg2Ir3
_chemical_formula_sum   'Tb3 Tm1 Mg2 Ir3'
_cell_volume   197.20515667
_cell_formula_units_Z   1
loop_
 _symmetry_equiv_pos_site_id
 _symmetry_equiv_pos_as_xyz
  1  'x, y, z'
loop_
 _atom_site_type_symbol
 _atom_site_label
 _atom_site_symmetry_multiplicity
 _atom_site_fract_x
 _atom_site_fract_y
 _atom_site_fract_z
 _atom_site_occupancy
  Tb  Tb0  1  0.392744  0.000000  0.500000  1
  Tb  Tb1  1  0.013145  0.427205  0.500000  1
  Tb  Tb2  1  0.585941  0.572795  0.500000  1
  Tm  Tm3  1  0.751593  0.000000  0.000000  1
  Mg  Mg4  1  0.247964  0.248207  0.000000  1
  Mg  Mg5  1  0.999757  0.751793  0.000000  1
  Ir  Ir6  1  0.670362  0.331633  0.000000  1
  Ir  Ir7  1  0.338729  0.668367  0.000000  1
  Ir  Ir8  1  0.999762  0.000000  0.500000  1
