# generated using pymatgen
data_DyTm(SnIr)2
_symmetry_space_group_name_H-M   'P 1'
_cell_length_a   7.47593300
_cell_length_b   7.47593334
_cell_length_c   7.88826300
_cell_angle_alpha   90.00000000
_cell_angle_beta   90.00000000
_cell_angle_gamma   120.00000292
_symmetry_Int_Tables_number   1
_chemical_formula_structural   DyTm(SnIr)2
_chemical_formula_sum   'Dy3 Tm3 Sn6 Ir6'
_cell_volume   381.80606392
_cell_formula_units_Z   3
loop_
 _symmetry_equiv_pos_site_id
 _symmetry_equiv_pos_as_xyz
  1  'x, y, z'
loop_
 _atom_site_type_symbol
 _atom_site_label
 _atom_site_symmetry_multiplicity
 _atom_site_fract_x
 _atom_site_fract_y
 _atom_site_fract_z
 _atom_site_occupancy
  Dy  Dy0  1  0.404542  0.999875  0.250000  1
  Dy  Dy1  1  0.595334  0.595458  0.250000  1
  Dy  Dy2  1  0.000125  0.404666  0.250000  1
  Tm  Tm3  1  0.598319  0.598862  0.750000  1
  Tm  Tm4  1  0.000544  0.401681  0.750000  1
  Tm  Tm5  1  0.401138  0.999456  0.750000  1
  Sn  Sn6  1  0.260473  0.260219  0.501993  1
  Sn  Sn7  1  0.260473  0.260219  0.998007  1
  Sn  Sn8  1  0.739781  0.000254  0.998007  1
  Sn  Sn9  1  0.999746  0.739527  0.501993  1
  Sn  Sn10  1  0.739781  0.000254  0.501993  1
  Sn  Sn11  1  0.999746  0.739527  0.998007  1
  Ir  Ir12  1  0.666667  0.333333  0.507088  1
  Ir  Ir13  1  0.666667  0.333333  0.992912  1
  Ir  Ir14  1  0.333333  0.666667  0.993825  1
  Ir  Ir15  1  0.333333  0.666667  0.506175  1
  Ir  Ir16  1  0.000000  0.000000  0.750000  1
  Ir  Ir17  1  0.000000  0.000000  0.250000  1
