# generated using pymatgen
data_La3Pr3IrO12
_symmetry_space_group_name_H-M   'P 1'
_cell_length_a   6.81197671
_cell_length_b   6.81141501
_cell_length_c   6.81081609
_cell_angle_alpha   98.49641370
_cell_angle_beta   98.45430270
_cell_angle_gamma   98.45073561
_symmetry_Int_Tables_number   1
_chemical_formula_structural   La3Pr3IrO12
_chemical_formula_sum   'La3 Pr3 Ir1 O12'
_cell_volume   304.52150176
_cell_formula_units_Z   1
loop_
 _symmetry_equiv_pos_site_id
 _symmetry_equiv_pos_as_xyz
  1  'x, y, z'
loop_
 _atom_site_type_symbol
 _atom_site_label
 _atom_site_symmetry_multiplicity
 _atom_site_fract_x
 _atom_site_fract_y
 _atom_site_fract_z
 _atom_site_occupancy
  La  La0  1  0.306032  0.605108  0.143938  1
  La  La1  1  0.606574  0.143015  0.307989  1
  La  La2  1  0.856587  0.692740  0.396282  1
  Pr  Pr3  1  0.144192  0.306031  0.612476  1
  Pr  Pr4  1  0.389798  0.855986  0.695182  1
  Pr  Pr5  1  0.693070  0.388214  0.856583  1
  Ir  Ir6  1  0.999521  0.000539  0.998118  1
  O  O7  1  0.063913  0.287887  0.963039  1
  O  O8  1  0.036742  0.936881  0.711437  1
  O  O9  1  0.406830  0.558114  0.825090  1
  O  O10  1  0.177815  0.593704  0.442618  1
  O  O11  1  0.713358  0.032515  0.928627  1
  O  O12  1  0.441331  0.176887  0.596435  1
  O  O13  1  0.559505  0.821893  0.408575  1
  O  O14  1  0.285273  0.967743  0.063683  1
  O  O15  1  0.822905  0.405134  0.560442  1
  O  O16  1  0.595316  0.439555  0.179740  1
  O  O17  1  0.973118  0.072193  0.283533  1
  O  O18  1  0.928118  0.715862  0.026213  1
