# generated using pymatgen
data_Rb4NaCd3F12
_symmetry_space_group_name_H-M   'P 1'
_cell_length_a   7.75405612
_cell_length_b   7.75405731
_cell_length_c   7.75405700
_cell_angle_alpha   109.47122243
_cell_angle_beta   109.47122554
_cell_angle_gamma   109.47122001
_symmetry_Int_Tables_number   1
_chemical_formula_structural   Rb4NaCd3F12
_chemical_formula_sum   'Rb4 Na1 Cd3 F12'
_cell_volume   358.89302046
_cell_formula_units_Z   1
loop_
 _symmetry_equiv_pos_site_id
 _symmetry_equiv_pos_as_xyz
  1  'x, y, z'
loop_
 _atom_site_type_symbol
 _atom_site_label
 _atom_site_symmetry_multiplicity
 _atom_site_fract_x
 _atom_site_fract_y
 _atom_site_fract_z
 _atom_site_occupancy
  Rb  Rb0  1  0.500000  0.500000  0.500000  1
  Rb  Rb1  1  0.000000  0.500000  0.000000  1
  Rb  Rb2  1  0.500000  0.000000  0.000000  1
  Rb  Rb3  1  0.000000  0.000000  0.500000  1
  Na  Na4  1  0.000000  0.000000  0.000000  1
  Cd  Cd5  1  0.500000  0.500000  0.000000  1
  Cd  Cd6  1  0.000000  0.500000  0.500000  1
  Cd  Cd7  1  0.500000  0.000000  0.500000  1
  F  F8  1  0.250000  0.500000  0.750000  1
  F  F9  1  0.258663  0.258663  0.000000  1
  F  F10  1  0.000000  0.741337  0.741337  1
  F  F11  1  0.000000  0.258663  0.258663  1
  F  F12  1  0.258663  0.000000  0.258663  1
  F  F13  1  0.741337  0.741337  0.000000  1
  F  F14  1  0.741337  0.000000  0.741337  1
  F  F15  1  0.750000  0.500000  0.250000  1
  F  F16  1  0.500000  0.750000  0.250000  1
  F  F17  1  0.500000  0.250000  0.750000  1
  F  F18  1  0.750000  0.250000  0.500000  1
  F  F19  1  0.250000  0.750000  0.500000  1
