# generated using pymatgen
data_SrPr4(IrO6)2
_symmetry_space_group_name_H-M   'P 1'
_cell_length_a   7.17632626
_cell_length_b   7.17632598
_cell_length_c   7.77202062
_cell_angle_alpha   74.32197640
_cell_angle_beta   74.32197538
_cell_angle_gamma   51.25988255
_symmetry_Int_Tables_number   1
_chemical_formula_structural   SrPr4(IrO6)2
_chemical_formula_sum   'Sr1 Pr4 Ir2 O12'
_cell_volume   297.84421346
_cell_formula_units_Z   1
loop_
 _symmetry_equiv_pos_site_id
 _symmetry_equiv_pos_as_xyz
  1  'x, y, z'
loop_
 _atom_site_type_symbol
 _atom_site_label
 _atom_site_symmetry_multiplicity
 _atom_site_fract_x
 _atom_site_fract_y
 _atom_site_fract_z
 _atom_site_occupancy
  Sr  Sr0  1  0.000000  0.000000  0.500000  1
  Pr  Pr1  1  0.304042  0.304042  0.363301  1
  Pr  Pr2  1  0.695958  0.695958  0.636699  1
  Pr  Pr3  1  0.691346  0.691346  0.174846  1
  Pr  Pr4  1  0.308654  0.308654  0.825154  1
  Ir  Ir5  1  0.755065  0.244935  0.000000  1
  Ir  Ir6  1  0.244935  0.755065  0.000000  1
  O  O7  1  0.095836  0.579630  0.584762  1
  O  O8  1  0.998425  0.998425  0.166603  1
  O  O9  1  0.420370  0.904164  0.415238  1
  O  O10  1  0.499914  0.499914  0.171044  1
  O  O11  1  0.101317  0.585493  0.075245  1
  O  O12  1  0.904164  0.420370  0.415238  1
  O  O13  1  0.001575  0.001575  0.833397  1
  O  O14  1  0.579630  0.095835  0.584762  1
  O  O15  1  0.500086  0.500086  0.828956  1
  O  O16  1  0.585493  0.101317  0.075245  1
  O  O17  1  0.414507  0.898683  0.924755  1
  O  O18  1  0.898683  0.414507  0.924755  1
