# generated using pymatgen
data_Sr2TlPtRh
_symmetry_space_group_name_H-M   'P 1'
_cell_length_a   6.07405011
_cell_length_b   6.07405095
_cell_length_c   8.29190700
_cell_angle_alpha   78.40923978
_cell_angle_beta   78.40923815
_cell_angle_gamma   59.58618301
_symmetry_Int_Tables_number   1
_chemical_formula_structural   Sr2TlPtRh
_chemical_formula_sum   'Sr4 Tl2 Pt2 Rh2'
_cell_volume   256.65672046
_cell_formula_units_Z   2
loop_
 _symmetry_equiv_pos_site_id
 _symmetry_equiv_pos_as_xyz
  1  'x, y, z'
loop_
 _atom_site_type_symbol
 _atom_site_label
 _atom_site_symmetry_multiplicity
 _atom_site_fract_x
 _atom_site_fract_y
 _atom_site_fract_z
 _atom_site_occupancy
  Sr  Sr0  1  0.502717  0.789335  0.353585  1
  Sr  Sr1  1  0.210665  0.497283  0.146415  1
  Sr  Sr2  1  0.496061  0.208267  0.645830  1
  Sr  Sr3  1  0.791733  0.503939  0.854170  1
  Tl  Tl4  1  0.878322  0.121678  0.250000  1
  Tl  Tl5  1  0.131547  0.868453  0.750000  1
  Pt  Pt6  1  0.703799  0.004793  0.004812  1
  Pt  Pt7  1  0.995207  0.296201  0.495188  1
  Rh  Rh8  1  0.284431  0.994482  0.992720  1
  Rh  Rh9  1  0.005518  0.715569  0.507280  1
