# generated using pymatgen
data_Zr6Ti4GaGe5
_symmetry_space_group_name_H-M   'P 1'
_cell_length_a   7.91693922
_cell_length_b   7.91693882
_cell_length_c   5.42745200
_cell_angle_alpha   90.00000000
_cell_angle_beta   90.00000000
_cell_angle_gamma   120.01799315
_symmetry_Int_Tables_number   1
_chemical_formula_structural   Zr6Ti4GaGe5
_chemical_formula_sum   'Zr6 Ti4 Ga1 Ge5'
_cell_volume   294.55232263
_cell_formula_units_Z   1
loop_
 _symmetry_equiv_pos_site_id
 _symmetry_equiv_pos_as_xyz
  1  'x, y, z'
loop_
 _atom_site_type_symbol
 _atom_site_label
 _atom_site_symmetry_multiplicity
 _atom_site_fract_x
 _atom_site_fract_y
 _atom_site_fract_z
 _atom_site_occupancy
  Zr  Zr0  1  0.251014  0.000573  0.250000  1
  Zr  Zr1  1  0.749711  0.000109  0.750000  1
  Zr  Zr2  1  0.000573  0.251014  0.250000  1
  Zr  Zr3  1  0.000109  0.749711  0.750000  1
  Zr  Zr4  1  0.751880  0.751880  0.250000  1
  Zr  Zr5  1  0.249355  0.249355  0.750000  1
  Ti  Ti6  1  0.331976  0.666839  0.000138  1
  Ti  Ti7  1  0.666839  0.331976  0.000138  1
  Ti  Ti8  1  0.666839  0.331976  0.499862  1
  Ti  Ti9  1  0.331976  0.666839  0.499862  1
  Ga  Ga10  1  0.601104  0.601104  0.750000  1
  Ge  Ge11  1  0.603019  0.999097  0.250000  1
  Ge  Ge12  1  0.397011  0.000002  0.750000  1
  Ge  Ge13  1  0.999097  0.603019  0.250000  1
  Ge  Ge14  1  0.000002  0.397011  0.750000  1
  Ge  Ge15  1  0.399493  0.399493  0.250000  1
