# generated using pymatgen
data_Dy3ZrAl17SiIr6
_symmetry_space_group_name_H-M   'P 1'
_cell_length_a   7.53673879
_cell_length_b   7.52798065
_cell_length_c   9.35766500
_cell_angle_alpha   90.00000000
_cell_angle_beta   90.00000000
_cell_angle_gamma   119.69697894
_symmetry_Int_Tables_number   1
_chemical_formula_structural   Dy3ZrAl17SiIr6
_chemical_formula_sum   'Dy3 Zr1 Al17 Si1 Ir6'
_cell_volume   461.18810084
_cell_formula_units_Z   1
loop_
 _symmetry_equiv_pos_site_id
 _symmetry_equiv_pos_as_xyz
  1  'x, y, z'
loop_
 _atom_site_type_symbol
 _atom_site_label
 _atom_site_symmetry_multiplicity
 _atom_site_fract_x
 _atom_site_fract_y
 _atom_site_fract_z
 _atom_site_occupancy
  Dy  Dy0  1  0.007210  0.323008  0.250000  1
  Dy  Dy1  1  0.670658  0.995555  0.750000  1
  Dy  Dy2  1  0.325483  0.007922  0.250000  1
  Zr  Zr3  1  0.994557  0.669727  0.750000  1
  Al  Al4  1  0.124095  0.121227  0.750000  1
  Al  Al5  1  0.000679  0.337268  0.577955  1
  Al  Al6  1  0.000001  0.663614  0.428978  1
  Al  Al7  1  0.000001  0.663614  0.071022  1
  Al  Al8  1  0.331370  0.998202  0.921994  1
  Al  Al9  1  0.000679  0.337268  0.922045  1
  Al  Al10  1  0.662700  0.998730  0.075951  1
  Al  Al11  1  0.662700  0.998730  0.424049  1
  Al  Al12  1  0.331370  0.998202  0.578006  1
  Al  Al13  1  0.336854  0.336958  0.051265  1
  Al  Al14  1  0.669917  0.667586  0.938859  1
  Al  Al15  1  0.669917  0.667586  0.561141  1
  Al  Al16  1  0.336854  0.336958  0.448735  1
  Al  Al17  1  0.334489  0.548711  0.750000  1
  Al  Al18  1  0.665699  0.453163  0.250000  1
  Al  Al19  1  0.552660  0.341707  0.750000  1
  Al  Al20  1  0.450397  0.662935  0.250000  1
  Si  Si21  1  0.867677  0.865510  0.250000  1
  Ir  Ir22  1  0.673368  0.329660  0.500244  1
  Ir  Ir23  1  0.329936  0.673788  0.500830  1
  Ir  Ir24  1  0.329936  0.673788  0.999170  1
  Ir  Ir25  1  0.673368  0.329660  0.999756  1
  Ir  Ir26  1  0.998713  0.999461  0.493672  1
  Ir  Ir27  1  0.998713  0.999461  0.006328  1
