# generated using pymatgen
data_BaAl10CoO17
_symmetry_space_group_name_H-M   'P 1'
_cell_length_a   5.68502400
_cell_length_b   5.68502382
_cell_length_c   22.90749100
_cell_angle_alpha   90.00000000
_cell_angle_beta   90.00000000
_cell_angle_gamma   120.00000103
_symmetry_Int_Tables_number   1
_chemical_formula_structural   BaAl10CoO17
_chemical_formula_sum   'Ba2 Al20 Co2 O34'
_cell_volume   641.16933471
_cell_formula_units_Z   2
loop_
 _symmetry_equiv_pos_site_id
 _symmetry_equiv_pos_as_xyz
  1  'x, y, z'
loop_
 _atom_site_type_symbol
 _atom_site_label
 _atom_site_symmetry_multiplicity
 _atom_site_fract_x
 _atom_site_fract_y
 _atom_site_fract_z
 _atom_site_occupancy
  Ba  Ba0  1  0.000000  0.000000  0.247599  1
  Ba  Ba1  1  0.666667  0.333333  0.747653  1
  Al  Al2  1  0.000000  0.000000  0.672314  1
  Al  Al3  1  0.666667  0.333333  0.324333  1
  Al  Al4  1  0.666667  0.333333  0.172034  1
  Al  Al5  1  0.000000  0.000000  0.824057  1
  Al  Al6  1  0.333333  0.666667  0.502619  1
  Al  Al7  1  0.333333  0.666667  0.001843  1
  Al  Al8  1  0.165331  0.330663  0.394601  1
  Al  Al9  1  0.165331  0.834669  0.394601  1
  Al  Al10  1  0.669337  0.834669  0.394601  1
  Al  Al11  1  0.496884  0.993767  0.605811  1
  Al  Al12  1  0.496884  0.503116  0.605811  1
  Al  Al13  1  0.006233  0.503116  0.605811  1
  Al  Al14  1  0.501292  0.002582  0.893880  1
  Al  Al15  1  0.501292  0.498708  0.893880  1
  Al  Al16  1  0.997418  0.498708  0.893880  1
  Al  Al17  1  0.169759  0.339518  0.105063  1
  Al  Al18  1  0.169759  0.830241  0.105063  1
  Al  Al19  1  0.660482  0.830241  0.105063  1
  Al  Al20  1  0.666667  0.333333  0.477505  1
  Al  Al21  1  0.000000  0.000000  0.976680  1
  Co  Co22  1  0.000000  0.000000  0.524714  1
  Co  Co23  1  0.666667  0.333333  0.023872  1
  O  O24  1  0.185218  0.370435  0.554122  1
  O  O25  1  0.185218  0.814782  0.554122  1
  O  O26  1  0.629565  0.814782  0.554122  1
  O  O27  1  0.491226  0.982453  0.450323  1
  O  O28  1  0.491226  0.508774  0.450323  1
  O  O29  1  0.017547  0.508774  0.450323  1
  O  O30  1  0.481453  0.962908  0.053332  1
  O  O31  1  0.481453  0.518547  0.053332  1
  O  O32  1  0.037092  0.518547  0.053332  1
  O  O33  1  0.175447  0.350895  0.949524  1
  O  O34  1  0.175447  0.824553  0.949524  1
  O  O35  1  0.649105  0.824553  0.949524  1
  O  O36  1  0.000000  0.000000  0.437285  1
  O  O37  1  0.666667  0.333333  0.556746  1
  O  O38  1  0.666667  0.333333  0.936520  1
  O  O39  1  0.000000  0.000000  0.055978  1
  O  O40  1  0.827865  0.655730  0.647703  1
  O  O41  1  0.827865  0.172135  0.647703  1
  O  O42  1  0.344270  0.172135  0.647703  1
  O  O43  1  0.836669  0.673337  0.351177  1
  O  O44  1  0.836669  0.163331  0.351177  1
  O  O45  1  0.326663  0.163331  0.351177  1
  O  O46  1  0.838740  0.677479  0.147125  1
  O  O47  1  0.838740  0.161260  0.147125  1
  O  O48  1  0.322521  0.161260  0.147125  1
  O  O49  1  0.829943  0.659887  0.850593  1
  O  O50  1  0.829943  0.170057  0.850593  1
  O  O51  1  0.340113  0.170057  0.850593  1
  O  O52  1  0.333333  0.666667  0.647366  1
  O  O53  1  0.333333  0.666667  0.359261  1
  O  O54  1  0.333333  0.666667  0.146578  1
  O  O55  1  0.333333  0.666667  0.858452  1
  O  O56  1  0.000000  0.000000  0.748406  1
  O  O57  1  0.666667  0.333333  0.248424  1
