# generated using pymatgen
data_YbEuCuPt3
_symmetry_space_group_name_H-M   'P 1'
_cell_length_a   5.54011962
_cell_length_b   5.54011846
_cell_length_c   5.30919211
_cell_angle_alpha   58.55043615
_cell_angle_beta   58.55043537
_cell_angle_gamma   60.00000414
_symmetry_Int_Tables_number   1
_chemical_formula_structural   YbEuCuPt3
_chemical_formula_sum   'Yb1 Eu1 Cu1 Pt3'
_cell_volume   112.63679309
_cell_formula_units_Z   1
loop_
 _symmetry_equiv_pos_site_id
 _symmetry_equiv_pos_as_xyz
  1  'x, y, z'
loop_
 _atom_site_type_symbol
 _atom_site_label
 _atom_site_symmetry_multiplicity
 _atom_site_fract_x
 _atom_site_fract_y
 _atom_site_fract_z
 _atom_site_occupancy
  Yb  Yb0  1  0.749292  0.749292  0.752124  1
  Eu  Eu1  1  0.999139  0.999139  0.002581  1
  Cu  Cu2  1  0.375481  0.375481  0.873557  1
  Pt  Pt3  1  0.375877  0.874334  0.373913  1
  Pt  Pt4  1  0.375877  0.375877  0.373913  1
  Pt  Pt5  1  0.874334  0.375877  0.373913  1
