# generated using pymatgen
data_Dy4Er7(Lu3Sb4)3
_symmetry_space_group_name_H-M   'P 1'
_cell_length_a   7.97964442
_cell_length_b   9.19683421
_cell_length_c   11.63156700
_cell_angle_alpha   89.99957636
_cell_angle_beta   89.95535325
_cell_angle_gamma   90.01234742
_symmetry_Int_Tables_number   1
_chemical_formula_structural   Dy4Er7(Lu3Sb4)3
_chemical_formula_sum   'Dy4 Er7 Lu9 Sb12'
_cell_volume   853.61095851
_cell_formula_units_Z   1
loop_
 _symmetry_equiv_pos_site_id
 _symmetry_equiv_pos_as_xyz
  1  'x, y, z'
loop_
 _atom_site_type_symbol
 _atom_site_label
 _atom_site_symmetry_multiplicity
 _atom_site_fract_x
 _atom_site_fract_y
 _atom_site_fract_z
 _atom_site_occupancy
  Dy  Dy0  1  0.314501  0.250337  0.219759  1
  Dy  Dy1  1  0.814581  0.250206  0.280694  1
  Dy  Dy2  1  0.685435  0.750163  0.780466  1
  Dy  Dy3  1  0.185791  0.749821  0.719573  1
  Er  Er4  1  0.352401  0.750337  0.215810  1
  Er  Er5  1  0.852657  0.750279  0.284334  1
  Er  Er6  1  0.648283  0.250658  0.784025  1
  Er  Er7  1  0.147146  0.250362  0.715492  1
  Er  Er8  1  0.692761  0.560243  0.060146  1
  Er  Er9  1  0.191836  0.939423  0.440169  1
  Er  Er10  1  0.307597  0.060340  0.939559  1
  Lu  Lu11  1  0.807304  0.437817  0.559981  1
  Lu  Lu12  1  0.308310  0.436679  0.940237  1
  Lu  Lu13  1  0.808341  0.063084  0.559488  1
  Lu  Lu14  1  0.691579  0.936684  0.059797  1
  Lu  Lu15  1  0.191961  0.563328  0.440288  1
  Lu  Lu16  1  0.474497  0.250388  0.489197  1
  Lu  Lu17  1  0.974070  0.249997  0.010801  1
  Lu  Lu18  1  0.525777  0.750042  0.510827  1
  Lu  Lu19  1  0.025773  0.750282  0.988975  1
  Sb  Sb20  1  0.407619  0.747663  0.959713  1
  Sb  Sb21  1  0.906715  0.749792  0.540842  1
  Sb  Sb22  1  0.592361  0.247570  0.040309  1
  Sb  Sb23  1  0.092268  0.252768  0.459709  1
  Sb  Sb24  1  0.566338  0.995175  0.328279  1
  Sb  Sb25  1  0.066106  0.505178  0.171889  1
  Sb  Sb26  1  0.434392  0.495104  0.671762  1
  Sb  Sb27  1  0.933677  0.005190  0.827936  1
  Sb  Sb28  1  0.434696  0.005264  0.671860  1
  Sb  Sb29  1  0.934423  0.495272  0.827873  1
  Sb  Sb30  1  0.565382  0.505198  0.328283  1
  Sb  Sb31  1  0.065423  0.995355  0.171929  1
