# generated using pymatgen
data_Yb12Ce(DyAs4)3
_symmetry_space_group_name_H-M   'P 1'
_cell_length_a   8.94282665
_cell_length_b   8.94282727
_cell_length_c   8.94282700
_cell_angle_alpha   90.09249642
_cell_angle_beta   90.09249643
_cell_angle_gamma   89.90750173
_symmetry_Int_Tables_number   1
_chemical_formula_structural   Yb12Ce(DyAs4)3
_chemical_formula_sum   'Yb12 Ce1 Dy3 As12'
_cell_volume   715.19223132
_cell_formula_units_Z   1
loop_
 _symmetry_equiv_pos_site_id
 _symmetry_equiv_pos_as_xyz
  1  'x, y, z'
loop_
 _atom_site_type_symbol
 _atom_site_label
 _atom_site_symmetry_multiplicity
 _atom_site_fract_x
 _atom_site_fract_y
 _atom_site_fract_z
 _atom_site_occupancy
  Yb  Yb0  1  0.815897  0.315897  0.184103  1
  Yb  Yb1  1  0.934258  0.934788  0.935782  1
  Yb  Yb2  1  0.820496  0.679675  0.321549  1
  Yb  Yb3  1  0.182824  0.817588  0.317586  1
  Yb  Yb4  1  0.179675  0.178451  0.179504  1
  Yb  Yb5  1  0.322403  0.822403  0.677597  1
  Yb  Yb6  1  0.064218  0.434258  0.565212  1
  Yb  Yb7  1  0.317588  0.182414  0.817176  1
  Yb  Yb8  1  0.678451  0.320496  0.820325  1
  Yb  Yb9  1  0.682414  0.682824  0.682412  1
  Yb  Yb10  1  0.564529  0.064529  0.435471  1
  Yb  Yb11  1  0.434788  0.564218  0.065742  1
  Ce  Ce12  1  0.067409  0.567409  0.932591  1
  Dy  Dy13  1  0.935558  0.065089  0.564280  1
  Dy  Dy14  1  0.435720  0.435558  0.434911  1
  Dy  Dy15  1  0.565089  0.935720  0.064442  1
  As  As16  1  0.745000  0.370394  0.500592  1
  As  As17  1  0.870394  0.999408  0.255000  1
  As  As18  1  0.999560  0.756724  0.626999  1
  As  As19  1  0.244651  0.128741  0.499548  1
  As  As20  1  0.131123  0.498937  0.249310  1
  As  As21  1  0.998937  0.250690  0.868877  1
  As  As22  1  0.256724  0.873001  0.000440  1
  As  As23  1  0.373001  0.499560  0.743276  1
  As  As24  1  0.499408  0.245000  0.129606  1
  As  As25  1  0.750690  0.631123  0.001063  1
  As  As26  1  0.628741  0.000452  0.755349  1
  As  As27  1  0.500452  0.744651  0.371259  1
