# generated using pymatgen
data_Ce4Si3Ir4
_symmetry_space_group_name_H-M   'P 1'
_cell_length_a   10.71887768
_cell_length_b   10.71887708
_cell_length_c   7.87503513
_cell_angle_alpha   71.13495696
_cell_angle_beta   71.13495640
_cell_angle_gamma   30.39987989
_symmetry_Int_Tables_number   1
_chemical_formula_structural   Ce4Si3Ir4
_chemical_formula_sum   'Ce8 Si6 Ir8'
_cell_volume   431.39031896
_cell_formula_units_Z   2
loop_
 _symmetry_equiv_pos_site_id
 _symmetry_equiv_pos_as_xyz
  1  'x, y, z'
loop_
 _atom_site_type_symbol
 _atom_site_label
 _atom_site_symmetry_multiplicity
 _atom_site_fract_x
 _atom_site_fract_y
 _atom_site_fract_z
 _atom_site_occupancy
  Ce  Ce0  1  0.787061  0.552323  0.598972  1
  Ce  Ce1  1  0.447677  0.212939  0.901028  1
  Ce  Ce2  1  0.212939  0.447677  0.401028  1
  Ce  Ce3  1  0.552323  0.787061  0.098972  1
  Ce  Ce4  1  0.794829  0.073119  0.172214  1
  Ce  Ce5  1  0.926881  0.205171  0.327786  1
  Ce  Ce6  1  0.205171  0.926881  0.827786  1
  Ce  Ce7  1  0.073119  0.794829  0.672214  1
  Si  Si8  1  0.949718  0.706100  0.060494  1
  Si  Si9  1  0.293900  0.050282  0.439506  1
  Si  Si10  1  0.050282  0.293900  0.939506  1
  Si  Si11  1  0.706100  0.949718  0.560494  1
  Si  Si12  1  0.639349  0.360651  0.750000  1
  Si  Si13  1  0.360651  0.639349  0.250000  1
  Ir  Ir14  1  0.569361  0.302121  0.520650  1
  Ir  Ir15  1  0.697879  0.430639  0.979350  1
  Ir  Ir16  1  0.430639  0.697879  0.479350  1
  Ir  Ir17  1  0.302121  0.569361  0.020650  1
  Ir  Ir18  1  0.633810  0.928119  0.314325  1
  Ir  Ir19  1  0.071881  0.366190  0.185675  1
  Ir  Ir20  1  0.366190  0.071881  0.685675  1
  Ir  Ir21  1  0.928119  0.633810  0.814325  1
