# generated using pymatgen
data_Yb6NbReO12
_symmetry_space_group_name_H-M   'P 1'
_cell_length_a   5.84233595
_cell_length_b   5.50799569
_cell_length_c   9.64644740
_cell_angle_alpha   55.65257009
_cell_angle_beta   89.74382318
_cell_angle_gamma   90.03461672
_symmetry_Int_Tables_number   1
_chemical_formula_structural   Yb6NbReO12
_chemical_formula_sum   'Yb6 Nb1 Re1 O12'
_cell_volume   256.28685268
_cell_formula_units_Z   1
loop_
 _symmetry_equiv_pos_site_id
 _symmetry_equiv_pos_as_xyz
  1  'x, y, z'
loop_
 _atom_site_type_symbol
 _atom_site_label
 _atom_site_symmetry_multiplicity
 _atom_site_fract_x
 _atom_site_fract_y
 _atom_site_fract_z
 _atom_site_occupancy
  Yb  Yb0  1  0.568094  0.229682  0.246426  1
  Yb  Yb1  1  0.061931  0.784035  0.231620  1
  Yb  Yb2  1  0.500000  0.000000  0.000000  1
  Yb  Yb3  1  0.000000  0.000000  0.500000  1
  Yb  Yb4  1  0.938069  0.215965  0.768380  1
  Yb  Yb5  1  0.431906  0.770318  0.753574  1
  Nb  Nb6  1  0.000000  0.500000  0.000000  1
  Re  Re7  1  0.500000  0.500000  0.500000  1
  O  O8  1  0.551094  0.397152  0.721972  1
  O  O9  1  0.060615  0.608540  0.764301  1
  O  O10  1  0.448906  0.602848  0.278028  1
  O  O11  1  0.939385  0.391460  0.235699  1
  O  O12  1  0.772976  0.735381  0.427505  1
  O  O13  1  0.287240  0.249112  0.077029  1
  O  O14  1  0.227024  0.264619  0.572495  1
  O  O15  1  0.712760  0.750888  0.922971  1
  O  O16  1  0.180895  0.853014  0.943709  1
  O  O17  1  0.670104  0.165233  0.551928  1
  O  O18  1  0.819105  0.146986  0.056291  1
  O  O19  1  0.329896  0.834767  0.448072  1
