# generated using pymatgen
data_AcMnN2
_symmetry_space_group_name_H-M   'P 1'
_cell_length_a   5.87465802
_cell_length_b   7.41973200
_cell_length_c   6.02106252
_cell_angle_alpha   90.00000000
_cell_angle_beta   111.41807094
_cell_angle_gamma   90.00000000
_symmetry_Int_Tables_number   1
_chemical_formula_structural   AcMnN2
_chemical_formula_sum   'Ac4 Mn4 N8'
_cell_volume   244.32390334
_cell_formula_units_Z   4
loop_
 _symmetry_equiv_pos_site_id
 _symmetry_equiv_pos_as_xyz
  1  'x, y, z'
loop_
 _atom_site_type_symbol
 _atom_site_label
 _atom_site_symmetry_multiplicity
 _atom_site_fract_x
 _atom_site_fract_y
 _atom_site_fract_z
 _atom_site_occupancy
  Ac  Ac0  1  0.312522  0.936667  0.688708  1
  Ac  Ac1  1  0.687478  0.436667  0.811292  1
  Ac  Ac2  1  0.687478  0.063333  0.311292  1
  Ac  Ac3  1  0.312522  0.563333  0.188708  1
  Mn  Mn4  1  0.102579  0.364821  0.582780  1
  Mn  Mn5  1  0.897421  0.864821  0.917220  1
  Mn  Mn6  1  0.897421  0.635179  0.417220  1
  Mn  Mn7  1  0.102579  0.135179  0.082780  1
  N  N8  1  0.254622  0.910410  0.085705  1
  N  N9  1  0.745378  0.410410  0.414295  1
  N  N10  1  0.745378  0.089590  0.914295  1
  N  N11  1  0.254622  0.589590  0.585705  1
  N  N12  1  0.156115  0.286391  0.875950  1
  N  N13  1  0.843885  0.786391  0.624050  1
  N  N14  1  0.843885  0.713609  0.124050  1
  N  N15  1  0.156115  0.213609  0.375950  1
