# generated using pymatgen
data_Sr2Pt7O18
_symmetry_space_group_name_H-M   'P 1'
_cell_length_a   6.76776635
_cell_length_b   7.15904334
_cell_length_c   7.56039255
_cell_angle_alpha   92.11929565
_cell_angle_beta   96.85348355
_cell_angle_gamma   114.14132295
_symmetry_Int_Tables_number   1
_chemical_formula_structural   Sr2Pt7O18
_chemical_formula_sum   'Sr2 Pt7 O18'
_cell_volume   330.38967381
_cell_formula_units_Z   1
loop_
 _symmetry_equiv_pos_site_id
 _symmetry_equiv_pos_as_xyz
  1  'x, y, z'
loop_
 _atom_site_type_symbol
 _atom_site_label
 _atom_site_symmetry_multiplicity
 _atom_site_fract_x
 _atom_site_fract_y
 _atom_site_fract_z
 _atom_site_occupancy
  Sr  Sr0  1  0.682407  0.308072  0.386543  1
  Sr  Sr1  1  0.317562  0.691920  0.613431  1
  Pt  Pt2  1  0.602181  0.714345  0.114942  1
  Pt  Pt3  1  0.193414  0.874758  0.182890  1
  Pt  Pt4  1  0.176956  0.380348  0.200170  1
  Pt  Pt5  1  0.000087  0.000066  0.499922  1
  Pt  Pt6  1  0.822942  0.619610  0.799866  1
  Pt  Pt7  1  0.806507  0.125251  0.817229  1
  Pt  Pt8  1  0.397885  0.285608  0.885023  1
  O  O9  1  0.693460  0.489614  0.022431  1
  O  O10  1  0.879052  0.224346  0.073245  1
  O  O11  1  0.307517  0.178603  0.125659  1
  O  O12  1  0.505462  0.928527  0.182645  1
  O  O13  1  0.909218  0.899622  0.234082  1
  O  O14  1  0.091128  0.601260  0.283287  1
  O  O15  1  0.484955  0.557997  0.322416  1
  O  O16  1  0.078769  0.284926  0.432717  1
  O  O17  1  0.281912  0.000672  0.437926  1
  O  O18  1  0.718203  0.999449  0.562123  1
  O  O19  1  0.921327  0.715176  0.567258  1
  O  O20  1  0.514990  0.441967  0.677498  1
  O  O21  1  0.908820  0.398695  0.716779  1
  O  O22  1  0.090823  0.100538  0.765812  1
  O  O23  1  0.494442  0.071295  0.817356  1
  O  O24  1  0.692462  0.821395  0.874324  1
  O  O25  1  0.120848  0.775652  0.926869  1
  O  O26  1  0.306670  0.510286  0.977557  1
