# generated using pymatgen
data_Yb15CeSb12
_symmetry_space_group_name_H-M   'P 1'
_cell_length_a   9.43079038
_cell_length_b   9.43079065
_cell_length_c   9.43079022
_cell_angle_alpha   89.73834007
_cell_angle_beta   89.73834017
_cell_angle_gamma   90.26165706
_symmetry_Int_Tables_number   1
_chemical_formula_structural   Yb15CeSb12
_chemical_formula_sum   'Yb15 Ce1 Sb12'
_cell_volume   838.74636739
_cell_formula_units_Z   1
loop_
 _symmetry_equiv_pos_site_id
 _symmetry_equiv_pos_as_xyz
  1  'x, y, z'
loop_
 _atom_site_type_symbol
 _atom_site_label
 _atom_site_symmetry_multiplicity
 _atom_site_fract_x
 _atom_site_fract_y
 _atom_site_fract_z
 _atom_site_occupancy
  Yb  Yb0  1  0.821225  0.321225  0.178775  1
  Yb  Yb1  1  0.923899  0.932410  0.926727  1
  Yb  Yb2  1  0.824156  0.674912  0.325891  1
  Yb  Yb3  1  0.175656  0.825972  0.326285  1
  Yb  Yb4  1  0.174912  0.174109  0.175844  1
  Yb  Yb5  1  0.328837  0.828837  0.671163  1
  Yb  Yb6  1  0.073273  0.423899  0.567590  1
  Yb  Yb7  1  0.325972  0.173715  0.824344  1
  Yb  Yb8  1  0.674109  0.324156  0.825088  1
  Yb  Yb9  1  0.673715  0.675656  0.674028  1
  Yb  Yb10  1  0.574328  0.074328  0.425672  1
  Yb  Yb11  1  0.432410  0.573273  0.076101  1
  Yb  Yb12  1  0.923893  0.073788  0.573498  1
  Yb  Yb13  1  0.426502  0.423893  0.426212  1
  Yb  Yb14  1  0.573788  0.926502  0.076107  1
  Ce  Ce15  1  0.075191  0.575191  0.924809  1
  Sb  Sb16  1  0.748796  0.375166  0.501033  1
  Sb  Sb17  1  0.875166  0.998967  0.251204  1
  Sb  Sb18  1  0.001438  0.747844  0.630624  1
  Sb  Sb19  1  0.248194  0.126250  0.500753  1
  Sb  Sb20  1  0.125621  0.501765  0.244527  1
  Sb  Sb21  1  0.001765  0.255473  0.874379  1
  Sb  Sb22  1  0.247844  0.869376  0.998562  1
  Sb  Sb23  1  0.369376  0.501438  0.752156  1
  Sb  Sb24  1  0.498967  0.248796  0.124834  1
  Sb  Sb25  1  0.755473  0.625621  0.998235  1
  Sb  Sb26  1  0.626250  0.999247  0.751806  1
  Sb  Sb27  1  0.499247  0.748194  0.373750  1
