# generated using pymatgen
data_Ca2Mn4Ni6As7Ru2
_symmetry_space_group_name_H-M   'P 1'
_cell_length_a   9.71280055
_cell_length_b   9.59512987
_cell_length_c   3.83732300
_cell_angle_alpha   90.00000000
_cell_angle_beta   90.00000000
_cell_angle_gamma   120.13956581
_symmetry_Int_Tables_number   1
_chemical_formula_structural   Ca2Mn4Ni6As7Ru2
_chemical_formula_sum   'Ca2 Mn4 Ni6 As7 Ru2'
_cell_volume   309.27286922
_cell_formula_units_Z   1
loop_
 _symmetry_equiv_pos_site_id
 _symmetry_equiv_pos_as_xyz
  1  'x, y, z'
loop_
 _atom_site_type_symbol
 _atom_site_label
 _atom_site_symmetry_multiplicity
 _atom_site_fract_x
 _atom_site_fract_y
 _atom_site_fract_z
 _atom_site_occupancy
  Ca  Ca0  1  0.996267  0.998632  0.000000  1
  Ca  Ca1  1  0.668478  0.331764  0.500000  1
  Mn  Mn2  1  0.290296  0.047291  0.500000  1
  Mn  Mn3  1  0.424457  0.548381  0.500000  1
  Mn  Mn4  1  0.124441  0.577525  0.500000  1
  Mn  Mn5  1  0.454560  0.886499  0.500000  1
  Ni  Ni6  1  0.386757  0.286457  0.000000  1
  Ni  Ni7  1  0.904195  0.611677  0.000000  1
  Ni  Ni8  1  0.708551  0.096802  0.000000  1
  Ni  Ni9  1  0.606263  0.786099  0.000000  1
  Ni  Ni10  1  0.180629  0.391308  0.000000  1
  Ni  Ni11  1  0.213645  0.825702  0.000000  1
  As  As12  1  0.622072  0.542279  0.000000  1
  As  As13  1  0.922492  0.376378  0.000000  1
  As  As14  1  0.456635  0.078722  0.000000  1
  As  As15  1  0.740576  0.957508  0.500000  1
  As  As16  1  0.217111  0.254016  0.500000  1
  As  As17  1  0.040324  0.786267  0.500000  1
  As  As18  1  0.333386  0.669255  0.000000  1
  Ru  Ru19  1  0.756345  0.706227  0.500000  1
  Ru  Ru20  1  0.952521  0.241210  0.500000  1
