# generated using pymatgen
data_Dy4ErBi3
_symmetry_space_group_name_H-M   'P 1'
_cell_length_a   8.26194900
_cell_length_b   9.51708800
_cell_length_c   12.04576400
_cell_angle_alpha   90.00000000
_cell_angle_beta   90.00000000
_cell_angle_gamma   90.00000000
_symmetry_Int_Tables_number   1
_chemical_formula_structural   Dy4ErBi3
_chemical_formula_sum   'Dy16 Er4 Bi12'
_cell_volume   947.15475761
_cell_formula_units_Z   4
loop_
 _symmetry_equiv_pos_site_id
 _symmetry_equiv_pos_as_xyz
  1  'x, y, z'
loop_
 _atom_site_type_symbol
 _atom_site_label
 _atom_site_symmetry_multiplicity
 _atom_site_fract_x
 _atom_site_fract_y
 _atom_site_fract_z
 _atom_site_occupancy
  Dy  Dy0  1  0.352535  0.749930  0.215167  1
  Dy  Dy1  1  0.852535  0.750070  0.284833  1
  Dy  Dy2  1  0.647465  0.249930  0.784833  1
  Dy  Dy3  1  0.147465  0.250070  0.715167  1
  Dy  Dy4  1  0.307196  0.436075  0.941579  1
  Dy  Dy5  1  0.807196  0.063925  0.558421  1
  Dy  Dy6  1  0.692804  0.936075  0.058421  1
  Dy  Dy7  1  0.192804  0.563925  0.441579  1
  Dy  Dy8  1  0.475536  0.250015  0.488248  1
  Dy  Dy9  1  0.975536  0.249985  0.011752  1
  Dy  Dy10  1  0.524464  0.750015  0.511752  1
  Dy  Dy11  1  0.024464  0.749985  0.988248  1
  Dy  Dy12  1  0.312591  0.249957  0.218639  1
  Dy  Dy13  1  0.812591  0.250043  0.281361  1
  Dy  Dy14  1  0.687409  0.749957  0.781361  1
  Dy  Dy15  1  0.187409  0.750043  0.718639  1
  Er  Er16  1  0.692732  0.564173  0.058422  1
  Er  Er17  1  0.192732  0.935827  0.441578  1
  Er  Er18  1  0.307268  0.064173  0.941578  1
  Er  Er19  1  0.807268  0.435827  0.558422  1
  Bi  Bi20  1  0.407412  0.750342  0.956772  1
  Bi  Bi21  1  0.907412  0.749658  0.543228  1
  Bi  Bi22  1  0.592588  0.250342  0.043228  1
  Bi  Bi23  1  0.092588  0.249658  0.456772  1
  Bi  Bi24  1  0.564672  0.995545  0.325226  1
  Bi  Bi25  1  0.064672  0.504455  0.174774  1
  Bi  Bi26  1  0.435328  0.495545  0.674774  1
  Bi  Bi27  1  0.935328  0.004455  0.825226  1
  Bi  Bi28  1  0.435209  0.004481  0.674777  1
  Bi  Bi29  1  0.935209  0.495519  0.825223  1
  Bi  Bi30  1  0.564791  0.504481  0.325223  1
  Bi  Bi31  1  0.064791  0.995519  0.174777  1
