# generated using pymatgen
data_CeDy(WF7)2
_symmetry_space_group_name_H-M   'P 1'
_cell_length_a   5.85586900
_cell_length_b   9.29426851
_cell_length_c   12.45514400
_cell_angle_alpha   62.40769159
_cell_angle_beta   90.00000000
_cell_angle_gamma   90.00000000
_symmetry_Int_Tables_number   1
_chemical_formula_structural   CeDy(WF7)2
_chemical_formula_sum   'Ce2 Dy2 W4 F28'
_cell_volume   600.78529569
_cell_formula_units_Z   2
loop_
 _symmetry_equiv_pos_site_id
 _symmetry_equiv_pos_as_xyz
  1  'x, y, z'
loop_
 _atom_site_type_symbol
 _atom_site_label
 _atom_site_symmetry_multiplicity
 _atom_site_fract_x
 _atom_site_fract_y
 _atom_site_fract_z
 _atom_site_occupancy
  Ce  Ce0  1  0.755798  0.810769  0.766975  1
  Ce  Ce1  1  0.255798  0.189231  0.733025  1
  Dy  Dy2  1  0.243716  0.184161  0.233995  1
  Dy  Dy3  1  0.743716  0.815839  0.266005  1
  W  W4  1  0.754318  0.268390  0.964380  1
  W  W5  1  0.254318  0.731610  0.535620  1
  W  W6  1  0.242235  0.722209  0.052066  1
  W  W7  1  0.742235  0.277791  0.447934  1
  F  F8  1  0.448457  0.707762  0.929396  1
  F  F9  1  0.948457  0.292238  0.570604  1
  F  F10  1  0.529536  0.287009  0.085852  1
  F  F11  1  0.029536  0.712991  0.414148  1
  F  F12  1  0.461037  0.283975  0.546479  1
  F  F13  1  0.961037  0.716025  0.953521  1
  F  F14  1  0.535638  0.721289  0.445373  1
  F  F15  1  0.035638  0.278711  0.054627  1
  F  F16  1  0.768319  0.509861  0.866605  1
  F  F17  1  0.268319  0.490139  0.633395  1
  F  F18  1  0.236938  0.479647  0.145317  1
  F  F19  1  0.736938  0.520353  0.354683  1
  F  F20  1  0.758296  0.026676  0.060124  1
  F  F21  1  0.258296  0.973324  0.439876  1
  F  F22  1  0.245671  0.963212  0.952155  1
  F  F23  1  0.745671  0.036788  0.547845  1
  F  F24  1  0.984913  0.734976  0.632862  1
  F  F25  1  0.484913  0.265024  0.867138  1
  F  F26  1  0.014006  0.264259  0.345475  1
  F  F27  1  0.514006  0.735741  0.154525  1
  F  F28  1  0.032356  0.747640  0.170473  1
  F  F29  1  0.532356  0.252360  0.329527  1
  F  F30  1  0.963801  0.250705  0.836843  1
  F  F31  1  0.463801  0.749295  0.663157  1
  F  F32  1  0.443304  0.978690  0.239337  1
  F  F33  1  0.943304  0.021310  0.260663  1
  F  F34  1  0.581662  0.026885  0.770554  1
  F  F35  1  0.081662  0.973115  0.729446  1
