# generated using pymatgen
data_CsOs2Cl11
_symmetry_space_group_name_H-M   'P 1'
_cell_length_a   7.44238041
_cell_length_b   7.51991005
_cell_length_c   17.86746228
_cell_angle_alpha   79.02634452
_cell_angle_beta   78.99440603
_cell_angle_gamma   89.72734618
_symmetry_Int_Tables_number   1
_chemical_formula_structural   CsOs2Cl11
_chemical_formula_sum   'Cs2 Os4 Cl22'
_cell_volume   963.11403553
_cell_formula_units_Z   2
loop_
 _symmetry_equiv_pos_site_id
 _symmetry_equiv_pos_as_xyz
  1  'x, y, z'
loop_
 _atom_site_type_symbol
 _atom_site_label
 _atom_site_symmetry_multiplicity
 _atom_site_fract_x
 _atom_site_fract_y
 _atom_site_fract_z
 _atom_site_occupancy
  Cs  Cs0  1  0.750346  0.750597  0.501828  1
  Cs  Cs1  1  0.249654  0.249403  0.498172  1
  Os  Os2  1  0.321886  0.817380  0.345596  1
  Os  Os3  1  0.678114  0.182620  0.654404  1
  Os  Os4  1  0.847088  0.343123  0.080436  1
  Os  Os5  1  0.152912  0.656877  0.919564  1
  Cl  Cl6  1  0.255961  0.765734  0.484789  1
  Cl  Cl7  1  0.744039  0.234266  0.515211  1
  Cl  Cl8  1  0.552594  0.023685  0.346522  1
  Cl  Cl9  1  0.447406  0.976315  0.653478  1
  Cl  Cl10  1  0.529183  0.584618  0.353807  1
  Cl  Cl11  1  0.470817  0.415382  0.646193  1
  Cl  Cl12  1  0.383164  0.862149  0.214513  1
  Cl  Cl13  1  0.616836  0.137851  0.785487  1
  Cl  Cl14  1  0.087282  0.607179  0.352549  1
  Cl  Cl15  1  0.912718  0.392821  0.647451  1
  Cl  Cl16  1  0.112772  0.047713  0.344581  1
  Cl  Cl17  1  0.887228  0.952287  0.655419  1
  Cl  Cl18  1  0.892005  0.062697  0.143033  1
  Cl  Cl19  1  0.107995  0.937303  0.856967  1
  Cl  Cl20  1  0.561914  0.376729  0.144377  1
  Cl  Cl21  1  0.438086  0.623271  0.855623  1
  Cl  Cl22  1  0.735000  0.229000  0.987694  1
  Cl  Cl23  1  0.265000  0.771000  0.012306  1
  Cl  Cl24  1  0.972817  0.471964  0.165578  1
  Cl  Cl25  1  0.027183  0.528036  0.834422  1
  Cl  Cl26  1  0.155117  0.352198  0.999429  1
  Cl  Cl27  1  0.844883  0.647802  0.000571  1
