# generated using pymatgen
data_Sr21Ga8Si6Bi
_symmetry_space_group_name_H-M   'P 1'
_cell_length_a   11.83225303
_cell_length_b   11.83225288
_cell_length_c   11.83225200
_cell_angle_alpha   60.00000245
_cell_angle_beta   60.00000287
_cell_angle_gamma   59.99999826
_symmetry_Int_Tables_number   1
_chemical_formula_structural   Sr21Ga8Si6Bi
_chemical_formula_sum   'Sr21 Ga8 Si6 Bi1'
_cell_volume   1171.35170869
_cell_formula_units_Z   1
loop_
 _symmetry_equiv_pos_site_id
 _symmetry_equiv_pos_as_xyz
  1  'x, y, z'
loop_
 _atom_site_type_symbol
 _atom_site_label
 _atom_site_symmetry_multiplicity
 _atom_site_fract_x
 _atom_site_fract_y
 _atom_site_fract_z
 _atom_site_occupancy
  Sr  Sr0  1  0.873052  0.873052  0.380841  1
  Sr  Sr1  1  0.619159  0.126948  0.126948  1
  Sr  Sr2  1  0.873052  0.380841  0.873052  1
  Sr  Sr3  1  0.126948  0.126948  0.126948  1
  Sr  Sr4  1  0.380841  0.873052  0.873052  1
  Sr  Sr5  1  0.873052  0.873052  0.873052  1
  Sr  Sr6  1  0.178037  0.821963  0.500000  1
  Sr  Sr7  1  0.821963  0.500000  0.500000  1
  Sr  Sr8  1  0.126948  0.126948  0.619159  1
  Sr  Sr9  1  0.821963  0.178037  0.500000  1
  Sr  Sr10  1  0.178037  0.500000  0.500000  1
  Sr  Sr11  1  0.126948  0.619159  0.126948  1
  Sr  Sr12  1  0.500000  0.500000  0.178037  1
  Sr  Sr13  1  0.500000  0.178037  0.821963  1
  Sr  Sr14  1  0.500000  0.821963  0.178037  1
  Sr  Sr15  1  0.500000  0.500000  0.821963  1
  Sr  Sr16  1  0.500000  0.178037  0.500000  1
  Sr  Sr17  1  0.178037  0.500000  0.821963  1
  Sr  Sr18  1  0.000000  0.000000  0.000000  1
  Sr  Sr19  1  0.500000  0.821963  0.500000  1
  Sr  Sr20  1  0.821963  0.500000  0.178037  1
  Ga  Ga21  1  0.692656  0.922034  0.692656  1
  Ga  Ga22  1  0.692656  0.692656  0.922034  1
  Ga  Ga23  1  0.692656  0.692656  0.692656  1
  Ga  Ga24  1  0.307344  0.077966  0.307344  1
  Ga  Ga25  1  0.922034  0.692656  0.692656  1
  Ga  Ga26  1  0.307344  0.307344  0.077966  1
  Ga  Ga27  1  0.077966  0.307344  0.307344  1
  Ga  Ga28  1  0.307344  0.307344  0.307344  1
  Si  Si29  1  0.786889  0.213111  0.786889  1
  Si  Si30  1  0.786889  0.213111  0.213111  1
  Si  Si31  1  0.213111  0.786889  0.213111  1
  Si  Si32  1  0.213111  0.786889  0.786889  1
  Si  Si33  1  0.786889  0.786889  0.213111  1
  Si  Si34  1  0.213111  0.213111  0.786889  1
  Bi  Bi35  1  0.500000  0.500000  0.500000  1
