# generated using pymatgen
data_Zr(TaSe2)5
_symmetry_space_group_name_H-M   'P 1'
_cell_length_a   6.09885719
_cell_length_b   7.66987994
_cell_length_c   8.47553800
_cell_angle_alpha   109.92127486
_cell_angle_beta   97.14378030
_cell_angle_gamma   105.08513894
_symmetry_Int_Tables_number   1
_chemical_formula_structural   Zr(TaSe2)5
_chemical_formula_sum   'Zr1 Ta5 Se10'
_cell_volume   349.84504721
_cell_formula_units_Z   1
loop_
 _symmetry_equiv_pos_site_id
 _symmetry_equiv_pos_as_xyz
  1  'x, y, z'
loop_
 _atom_site_type_symbol
 _atom_site_label
 _atom_site_symmetry_multiplicity
 _atom_site_fract_x
 _atom_site_fract_y
 _atom_site_fract_z
 _atom_site_occupancy
  Zr  Zr0  1  0.669080  0.517300  0.988418  1
  Ta  Ta1  1  0.001523  0.993433  0.000864  1
  Ta  Ta2  1  0.599316  0.208702  0.202257  1
  Ta  Ta3  1  0.197962  0.399718  0.397767  1
  Ta  Ta4  1  0.794257  0.598041  0.605921  1
  Ta  Ta5  1  0.405370  0.791863  0.799709  1
  Se  Se6  1  0.235515  0.049199  0.301484  1
  Se  Se7  1  0.053916  0.642898  0.903398  1
  Se  Se8  1  0.832016  0.247505  0.499083  1
  Se  Se9  1  0.633701  0.864300  0.117554  1
  Se  Se10  1  0.413832  0.424187  0.685669  1
  Se  Se11  1  0.904199  0.563737  0.307150  1
  Se  Se12  1  0.701167  0.145461  0.893766  1
  Se  Se13  1  0.500745  0.752840  0.501303  1
  Se  Se14  1  0.289661  0.352029  0.095373  1
  Se  Se15  1  0.100542  0.946388  0.701885  1
