# generated using pymatgen
data_Cs2P4SeO13
_symmetry_space_group_name_H-M   'P 1'
_cell_length_a   5.21970759
_cell_length_b   8.12170301
_cell_length_c   16.05204600
_cell_angle_alpha   84.22910926
_cell_angle_beta   83.93934690
_cell_angle_gamma   80.49840076
_symmetry_Int_Tables_number   1
_chemical_formula_structural   Cs2P4SeO13
_chemical_formula_sum   'Cs4 P8 Se2 O26'
_cell_volume   665.00475094
_cell_formula_units_Z   2
loop_
 _symmetry_equiv_pos_site_id
 _symmetry_equiv_pos_as_xyz
  1  'x, y, z'
loop_
 _atom_site_type_symbol
 _atom_site_label
 _atom_site_symmetry_multiplicity
 _atom_site_fract_x
 _atom_site_fract_y
 _atom_site_fract_z
 _atom_site_occupancy
  Cs  Cs0  1  0.699630  0.741926  0.990194  1
  Cs  Cs1  1  0.300370  0.258074  0.009806  1
  Cs  Cs2  1  0.268635  0.297586  0.526750  1
  Cs  Cs3  1  0.731365  0.702414  0.473250  1
  P  P4  1  0.871491  0.215595  0.351083  1
  P  P5  1  0.128509  0.784405  0.648917  1
  P  P6  1  0.654347  0.407107  0.195717  1
  P  P7  1  0.345653  0.592893  0.804283  1
  P  P8  1  0.308050  0.673970  0.289160  1
  P  P9  1  0.691950  0.326030  0.710840  1
  P  P10  1  0.028356  0.897539  0.160014  1
  P  P11  1  0.971644  0.102461  0.839986  1
  Se  Se12  1  0.426188  0.057229  0.259636  1
  Se  Se13  1  0.573812  0.942771  0.740364  1
  O  O14  1  0.724703  0.070485  0.340592  1
  O  O15  1  0.275297  0.929515  0.659408  1
  O  O16  1  0.795226  0.304071  0.429085  1
  O  O17  1  0.204774  0.695929  0.570915  1
  O  O18  1  0.844113  0.348830  0.268647  1
  O  O19  1  0.155887  0.651170  0.731353  1
  O  O20  1  0.176775  0.147149  0.347708  1
  O  O21  1  0.823225  0.852851  0.652292  1
  O  O22  1  0.519577  0.593638  0.218285  1
  O  O23  1  0.480423  0.406362  0.781715  1
  O  O24  1  0.800763  0.425274  0.111995  1
  O  O25  1  0.199237  0.574726  0.888005  1
  O  O26  1  0.434543  0.299415  0.204616  1
  O  O27  1  0.565457  0.700585  0.795384  1
  O  O28  1  0.423555  0.823971  0.315391  1
  O  O29  1  0.576445  0.176029  0.684609  1
  O  O30  1  0.061751  0.751064  0.238861  1
  O  O31  1  0.938249  0.248936  0.761139  1
  O  O32  1  0.240757  0.554483  0.360450  1
  O  O33  1  0.759243  0.445517  0.639550  1
  O  O34  1  0.164180  0.833476  0.080603  1
  O  O35  1  0.835820  0.166524  0.919397  1
  O  O36  1  0.735048  0.954824  0.159409  1
  O  O37  1  0.264952  0.045176  0.840591  1
  O  O38  1  0.157595  0.046420  0.188593  1
  O  O39  1  0.842405  0.953580  0.811407  1
