# generated using pymatgen
data_Li4CaEr3Si8
_symmetry_space_group_name_H-M   'P 1'
_cell_length_a   3.76920500
_cell_length_b   7.68398217
_cell_length_c   10.19036306
_cell_angle_alpha   89.56988970
_cell_angle_beta   90.00000000
_cell_angle_gamma   90.00000000
_symmetry_Int_Tables_number   1
_chemical_formula_structural   Li4CaEr3Si8
_chemical_formula_sum   'Li4 Ca1 Er3 Si8'
_cell_volume   295.13011520
_cell_formula_units_Z   1
loop_
 _symmetry_equiv_pos_site_id
 _symmetry_equiv_pos_as_xyz
  1  'x, y, z'
loop_
 _atom_site_type_symbol
 _atom_site_label
 _atom_site_symmetry_multiplicity
 _atom_site_fract_x
 _atom_site_fract_y
 _atom_site_fract_z
 _atom_site_occupancy
  Li  Li0  1  0.250000  0.997041  0.391543  1
  Li  Li1  1  0.750000  0.008708  0.610217  1
  Li  Li2  1  0.250000  0.490379  0.110453  1
  Li  Li3  1  0.750000  0.508058  0.891534  1
  Ca  Ca4  1  0.750000  0.362877  0.364051  1
  Er  Er5  1  0.250000  0.130689  0.863126  1
  Er  Er6  1  0.750000  0.866861  0.133907  1
  Er  Er7  1  0.250000  0.633401  0.635751  1
  Si  Si8  1  0.750000  0.261872  0.061082  1
  Si  Si9  1  0.250000  0.732927  0.934600  1
  Si  Si10  1  0.750000  0.773878  0.434276  1
  Si  Si11  1  0.250000  0.233835  0.571784  1
  Si  Si12  1  0.750000  0.839929  0.818722  1
  Si  Si13  1  0.250000  0.153274  0.173220  1
  Si  Si14  1  0.750000  0.340983  0.684237  1
  Si  Si15  1  0.250000  0.665285  0.321499  1
