# generated using pymatgen
data_Tb3HoMnTc7
_symmetry_space_group_name_H-M   'P 1'
_cell_length_a   5.35014664
_cell_length_b   5.35039098
_cell_length_c   8.98992301
_cell_angle_alpha   89.99652201
_cell_angle_beta   90.00210253
_cell_angle_gamma   120.04831397
_symmetry_Int_Tables_number   1
_chemical_formula_structural   Tb3HoMnTc7
_chemical_formula_sum   'Tb3 Ho1 Mn1 Tc7'
_cell_volume   222.75433705
_cell_formula_units_Z   1
loop_
 _symmetry_equiv_pos_site_id
 _symmetry_equiv_pos_as_xyz
  1  'x, y, z'
loop_
 _atom_site_type_symbol
 _atom_site_label
 _atom_site_symmetry_multiplicity
 _atom_site_fract_x
 _atom_site_fract_y
 _atom_site_fract_z
 _atom_site_occupancy
  Tb  Tb0  1  0.666616  0.333369  0.564660  1
  Tb  Tb1  1  0.333377  0.666627  0.435376  1
  Tb  Tb2  1  0.333338  0.666663  0.063525  1
  Ho  Ho3  1  0.666623  0.333308  0.935970  1
  Mn  Mn4  1  0.000034  0.000016  0.999932  1
  Tc  Tc5  1  0.999998  0.000006  0.500203  1
  Tc  Tc6  1  0.170057  0.340019  0.752797  1
  Tc  Tc7  1  0.169863  0.830127  0.752829  1
  Tc  Tc8  1  0.659998  0.829943  0.752802  1
  Tc  Tc9  1  0.829760  0.659639  0.247313  1
  Tc  Tc10  1  0.829971  0.170037  0.247286  1
  Tc  Tc11  1  0.340365  0.170247  0.247306  1
