# generated using pymatgen
data_Ta16Ti2C15
_symmetry_space_group_name_H-M   'P 1'
_cell_length_a   5.45924185
_cell_length_b   5.45892277
_cell_length_c   15.44460110
_cell_angle_alpha   90.02033740
_cell_angle_beta   89.96510796
_cell_angle_gamma   120.04126286
_symmetry_Int_Tables_number   1
_chemical_formula_structural   Ta16Ti2C15
_chemical_formula_sum   'Ta16 Ti2 C15'
_cell_volume   398.44263552
_cell_formula_units_Z   1
loop_
 _symmetry_equiv_pos_site_id
 _symmetry_equiv_pos_as_xyz
  1  'x, y, z'
loop_
 _atom_site_type_symbol
 _atom_site_label
 _atom_site_symmetry_multiplicity
 _atom_site_fract_x
 _atom_site_fract_y
 _atom_site_fract_z
 _atom_site_occupancy
  Ta  Ta0  1  0.458392  0.236702  0.749394  1
  Ta  Ta1  1  0.761929  0.537101  0.917358  1
  Ta  Ta2  1  0.778461  0.236859  0.583085  1
  Ta  Ta3  1  0.462220  0.223758  0.250042  1
  Ta  Ta4  1  0.109578  0.539728  0.749857  1
  Ta  Ta5  1  0.465906  0.575389  0.083404  1
  Ta  Ta6  1  0.423946  0.890654  0.416344  1
  Ta  Ta7  1  0.463481  0.890643  0.917024  1
  Ta  Ta8  1  0.429468  0.536951  0.583373  1
  Ta  Ta9  1  0.106105  0.573399  0.250314  1
  Ta  Ta10  1  0.127697  0.887035  0.587196  1
  Ta  Ta11  1  0.110728  0.238352  0.922072  1
  Ta  Ta12  1  0.758695  0.871478  0.255390  1
  Ta  Ta13  1  0.112335  0.870083  0.078620  1
  Ta  Ta14  1  0.762724  0.889359  0.745548  1
  Ta  Ta15  1  0.128926  0.242149  0.411732  1
  Ti  Ti16  1  0.777551  0.534237  0.415812  1
  Ti  Ti17  1  0.756993  0.221545  0.082169  1
  C  C18  1  0.448718  0.223135  0.000717  1
  C  C19  1  0.776803  0.552449  0.666328  1
  C  C20  1  0.775856  0.225365  0.333905  1
  C  C21  1  0.110968  0.553006  0.001260  1
  C  C22  1  0.443217  0.885905  0.666476  1
  C  C23  1  0.446250  0.558338  0.334147  1
  C  C24  1  0.779609  0.892137  0.001169  1
  C  C25  1  0.111686  0.222161  0.666382  1
  C  C26  1  0.106810  0.887088  0.334011  1
  C  C27  1  0.442468  0.223323  0.499058  1
  C  C28  1  0.781024  0.557551  0.165906  1
  C  C29  1  0.780244  0.218861  0.833312  1
  C  C30  1  0.105413  0.555568  0.498957  1
  C  C31  1  0.449337  0.895203  0.166136  1
  C  C32  1  0.446466  0.554488  0.833500  1
