# generated using pymatgen
data_Ho2Er8CoNiSb4
_symmetry_space_group_name_H-M   'P 1'
_cell_length_a   7.82933400
_cell_length_b   8.73212400
_cell_length_c   12.07699900
_cell_angle_alpha   90.00000000
_cell_angle_beta   90.00000000
_cell_angle_gamma   90.00000000
_symmetry_Int_Tables_number   1
_chemical_formula_structural   Ho2Er8CoNiSb4
_chemical_formula_sum   'Ho4 Er16 Co2 Ni2 Sb8'
_cell_volume   825.66475262
_cell_formula_units_Z   2
loop_
 _symmetry_equiv_pos_site_id
 _symmetry_equiv_pos_as_xyz
  1  'x, y, z'
loop_
 _atom_site_type_symbol
 _atom_site_label
 _atom_site_symmetry_multiplicity
 _atom_site_fract_x
 _atom_site_fract_y
 _atom_site_fract_z
 _atom_site_occupancy
  Ho  Ho0  1  0.626069  0.750000  0.304387  1
  Ho  Ho1  1  0.126069  0.250000  0.195613  1
  Ho  Ho2  1  0.376477  0.250000  0.693415  1
  Ho  Ho3  1  0.876477  0.750000  0.806585  1
  Er  Er4  1  0.155577  0.750000  0.203776  1
  Er  Er5  1  0.655577  0.250000  0.296224  1
  Er  Er6  1  0.841742  0.250000  0.792903  1
  Er  Er7  1  0.341742  0.750000  0.707097  1
  Er  Er8  1  0.451856  0.750000  0.999401  1
  Er  Er9  1  0.951856  0.250000  0.500599  1
  Er  Er10  1  0.546267  0.250000  0.001562  1
  Er  Er11  1  0.046267  0.750000  0.498438  1
  Er  Er12  1  0.822737  0.957552  0.065246  1
  Er  Er13  1  0.322737  0.042448  0.434754  1
  Er  Er14  1  0.178186  0.465211  0.933631  1
  Er  Er15  1  0.678186  0.534789  0.566369  1
  Er  Er16  1  0.178186  0.034789  0.933631  1
  Er  Er17  1  0.678186  0.965211  0.566369  1
  Er  Er18  1  0.822737  0.542448  0.065246  1
  Er  Er19  1  0.322737  0.457552  0.434754  1
  Co  Co20  1  0.568660  0.250000  0.509779  1
  Co  Co21  1  0.068660  0.750000  0.990221  1
  Ni  Ni22  1  0.431394  0.750000  0.489159  1
  Ni  Ni23  1  0.931394  0.250000  0.010841  1
  Sb  Sb24  1  0.930435  0.991872  0.327395  1
  Sb  Sb25  1  0.430435  0.008128  0.172605  1
  Sb  Sb26  1  0.069622  0.491597  0.672017  1
  Sb  Sb27  1  0.569622  0.508403  0.827983  1
  Sb  Sb28  1  0.069622  0.008403  0.672017  1
  Sb  Sb29  1  0.569622  0.991597  0.827983  1
  Sb  Sb30  1  0.930435  0.508128  0.327395  1
  Sb  Sb31  1  0.430435  0.491872  0.172605  1
