# generated using pymatgen
data_Tb5P12Ru17Rh2
_symmetry_space_group_name_H-M   'P 1'
_cell_length_a   3.98167600
_cell_length_b   12.53628319
_cell_length_c   12.53813537
_cell_angle_alpha   119.71678869
_cell_angle_beta   90.00000000
_cell_angle_gamma   90.00000000
_symmetry_Int_Tables_number   1
_chemical_formula_structural   Tb5P12Ru17Rh2
_chemical_formula_sum   'Tb5 P12 Ru17 Rh2'
_cell_volume   543.53890801
_cell_formula_units_Z   1
loop_
 _symmetry_equiv_pos_site_id
 _symmetry_equiv_pos_as_xyz
  1  'x, y, z'
loop_
 _atom_site_type_symbol
 _atom_site_label
 _atom_site_symmetry_multiplicity
 _atom_site_fract_x
 _atom_site_fract_y
 _atom_site_fract_z
 _atom_site_occupancy
  Tb  Tb0  1  0.500000  0.999873  0.183000  1
  Tb  Tb1  1  0.500000  0.182999  0.999875  1
  Tb  Tb2  1  0.500000  0.816201  0.816202  1
  Tb  Tb3  1  0.000000  0.334025  0.665640  1
  Tb  Tb4  1  0.000000  0.665625  0.334023  1
  P  P5  1  0.000000  0.000545  0.814347  1
  P  P6  1  0.000000  0.814351  0.000551  1
  P  P7  1  0.000000  0.184383  0.184386  1
  P  P8  1  0.500000  0.306181  0.477390  1
  P  P9  1  0.500000  0.176048  0.696634  1
  P  P10  1  0.500000  0.522757  0.825524  1
  P  P11  1  0.500000  0.825515  0.522755  1
  P  P12  1  0.500000  0.477389  0.306186  1
  P  P13  1  0.500000  0.696629  0.176055  1
  P  P14  1  0.000000  0.999734  0.370156  1
  P  P15  1  0.000000  0.370152  0.999735  1
  P  P16  1  0.000000  0.626603  0.626606  1
  Ru  Ru17  1  0.000000  0.445315  0.445316  1
  Ru  Ru18  1  0.500000  0.000870  0.714912  1
  Ru  Ru19  1  0.500000  0.714911  0.000873  1
  Ru  Ru20  1  0.500000  0.283114  0.283111  1
  Ru  Ru21  1  0.000000  0.191949  0.377180  1
  Ru  Ru22  1  0.000000  0.185794  0.807196  1
  Ru  Ru23  1  0.000000  0.623633  0.815333  1
  Ru  Ru24  1  0.000000  0.815326  0.623629  1
  Ru  Ru25  1  0.000000  0.377173  0.191938  1
  Ru  Ru26  1  0.000000  0.807198  0.185804  1
  Ru  Ru27  1  0.500000  0.126330  0.492681  1
  Ru  Ru28  1  0.500000  0.368002  0.875470  1
  Ru  Ru29  1  0.500000  0.507866  0.633093  1
  Ru  Ru30  1  0.500000  0.633092  0.507868  1
  Ru  Ru31  1  0.500000  0.492687  0.126345  1
  Ru  Ru32  1  0.500000  0.875465  0.368006  1
  Ru  Ru33  1  0.000000  0.999257  0.999261  1
  Rh  Rh34  1  0.000000  0.000068  0.552845  1
  Rh  Rh35  1  0.000000  0.552839  0.000078  1
