# generated using pymatgen
data_K5AgAs2
_symmetry_space_group_name_H-M   'P 1'
_cell_length_a   5.83034200
_cell_length_b   5.83038815
_cell_length_c   19.68287100
_cell_angle_alpha   90.00000000
_cell_angle_beta   90.00000000
_cell_angle_gamma   119.99974949
_symmetry_Int_Tables_number   1
_chemical_formula_structural   K5AgAs2
_chemical_formula_sum   'K10 Ag2 As4'
_cell_volume   579.44427089
_cell_formula_units_Z   2
loop_
 _symmetry_equiv_pos_site_id
 _symmetry_equiv_pos_as_xyz
  1  'x, y, z'
loop_
 _atom_site_type_symbol
 _atom_site_label
 _atom_site_symmetry_multiplicity
 _atom_site_fract_x
 _atom_site_fract_y
 _atom_site_fract_z
 _atom_site_occupancy
  K  K0  1  0.666673  0.333346  0.049791  1
  K  K1  1  0.999983  0.999966  0.143799  1
  K  K2  1  0.666612  0.333223  0.250000  1
  K  K3  1  0.999983  0.999966  0.356201  1
  K  K4  1  0.666673  0.333346  0.450208  1
  K  K5  1  0.333327  0.666653  0.549792  1
  K  K6  1  0.000017  0.000033  0.643799  1
  K  K7  1  0.333387  0.666776  0.750000  1
  K  K8  1  0.000017  0.000033  0.856201  1
  K  K9  1  0.333327  0.666653  0.950208  1
  Ag  Ag10  1  0.333339  0.666678  0.250000  1
  Ag  Ag11  1  0.666661  0.333321  0.750000  1
  As  As12  1  0.333331  0.666662  0.121117  1
  As  As13  1  0.333331  0.666662  0.378883  1
  As  As14  1  0.666669  0.333337  0.621117  1
  As  As15  1  0.666669  0.333337  0.878883  1
