# generated using pymatgen
data_CaYb9(SnSb2)2
_symmetry_space_group_name_H-M   'P 1'
_cell_length_a   9.17470503
_cell_length_b   9.19733302
_cell_length_c   6.90235000
_cell_angle_alpha   90.00000000
_cell_angle_beta   90.00000000
_cell_angle_gamma   120.05233640
_symmetry_Int_Tables_number   1
_chemical_formula_structural   CaYb9(SnSb2)2
_chemical_formula_sum   'Ca1 Yb9 Sn2 Sb4'
_cell_volume   504.14138831
_cell_formula_units_Z   1
loop_
 _symmetry_equiv_pos_site_id
 _symmetry_equiv_pos_as_xyz
  1  'x, y, z'
loop_
 _atom_site_type_symbol
 _atom_site_label
 _atom_site_symmetry_multiplicity
 _atom_site_fract_x
 _atom_site_fract_y
 _atom_site_fract_z
 _atom_site_occupancy
  Ca  Ca0  1  0.004402  0.726179  0.750000  1
  Yb  Yb1  1  0.004818  0.278708  0.250000  1
  Yb  Yb2  1  0.721587  0.721392  0.250000  1
  Yb  Yb3  1  0.721576  0.000260  0.750000  1
  Yb  Yb4  1  0.275746  0.271675  0.750000  1
  Yb  Yb5  1  0.275667  0.004113  0.250000  1
  Yb  Yb6  1  0.332611  0.666243  0.499852  1
  Yb  Yb7  1  0.661931  0.330907  0.000107  1
  Yb  Yb8  1  0.661931  0.330907  0.499893  1
  Yb  Yb9  1  0.332611  0.666243  0.000148  1
  Sn  Sn10  1  0.378012  0.998357  0.750000  1
  Sn  Sn11  1  0.377641  0.379637  0.250000  1
  Sb  Sb12  1  0.998425  0.622556  0.250000  1
  Sb  Sb13  1  0.998433  0.375521  0.750000  1
  Sb  Sb14  1  0.627360  0.626492  0.750000  1
  Sb  Sb15  1  0.627247  0.000809  0.250000  1
