# generated using pymatgen
data_Gd3Er9Os4
_symmetry_space_group_name_H-M   'P 1'
_cell_length_a   7.38946603
_cell_length_b   8.96300300
_cell_length_c   6.26236900
_cell_angle_alpha   90.00000000
_cell_angle_beta   90.00541984
_cell_angle_gamma   90.00000000
_symmetry_Int_Tables_number   1
_chemical_formula_structural   Gd3Er9Os4
_chemical_formula_sum   'Gd3 Er9 Os4'
_cell_volume   414.76800825
_cell_formula_units_Z   1
loop_
 _symmetry_equiv_pos_site_id
 _symmetry_equiv_pos_as_xyz
  1  'x, y, z'
loop_
 _atom_site_type_symbol
 _atom_site_label
 _atom_site_symmetry_multiplicity
 _atom_site_fract_x
 _atom_site_fract_y
 _atom_site_fract_z
 _atom_site_occupancy
  Gd  Gd0  1  0.460976  0.750000  0.127291  1
  Gd  Gd1  1  0.960942  0.750000  0.372378  1
  Gd  Gd2  1  0.039150  0.250000  0.628705  1
  Er  Er3  1  0.175081  0.063052  0.165328  1
  Er  Er4  1  0.175081  0.436948  0.165328  1
  Er  Er5  1  0.674572  0.063547  0.333581  1
  Er  Er6  1  0.674572  0.436453  0.333581  1
  Er  Er7  1  0.325834  0.562307  0.665846  1
  Er  Er8  1  0.325834  0.937693  0.665846  1
  Er  Er9  1  0.824640  0.562470  0.834785  1
  Er  Er10  1  0.824640  0.937530  0.834785  1
  Er  Er11  1  0.538338  0.250000  0.871562  1
  Os  Os12  1  0.881275  0.250000  0.040891  1
  Os  Os13  1  0.382498  0.250000  0.459982  1
  Os  Os14  1  0.618229  0.750000  0.540915  1
  Os  Os15  1  0.118339  0.750000  0.959194  1
