# generated using pymatgen
data_La3Sn3Ir2Au
_symmetry_space_group_name_H-M   'P 1'
_cell_length_a   7.70573600
_cell_length_b   7.70573725
_cell_length_c   4.23431100
_cell_angle_alpha   90.00000000
_cell_angle_beta   90.00000000
_cell_angle_gamma   120.00000321
_symmetry_Int_Tables_number   1
_chemical_formula_structural   La3Sn3Ir2Au
_chemical_formula_sum   'La3 Sn3 Ir2 Au1'
_cell_volume   217.74174188
_cell_formula_units_Z   1
loop_
 _symmetry_equiv_pos_site_id
 _symmetry_equiv_pos_as_xyz
  1  'x, y, z'
loop_
 _atom_site_type_symbol
 _atom_site_label
 _atom_site_symmetry_multiplicity
 _atom_site_fract_x
 _atom_site_fract_y
 _atom_site_fract_z
 _atom_site_occupancy
  La  La0  1  0.595414  0.014110  0.000000  1
  La  La1  1  0.985890  0.581304  0.000000  1
  La  La2  1  0.418696  0.404586  0.000000  1
  Sn  Sn3  1  0.247999  0.006775  0.500000  1
  Sn  Sn4  1  0.993225  0.241224  0.500000  1
  Sn  Sn5  1  0.758776  0.752001  0.500000  1
  Ir  Ir6  1  0.666667  0.333333  0.500000  1
  Ir  Ir7  1  0.000000  0.000000  0.000000  1
  Au  Au8  1  0.333333  0.666667  0.500000  1
