# generated using pymatgen
data_Dy10Y6Cd4Ir3Pt
_symmetry_space_group_name_H-M   'P 1'
_cell_length_a   9.64417549
_cell_length_b   9.64417585
_cell_length_c   9.64417578
_cell_angle_alpha   60.19415477
_cell_angle_beta   60.19415724
_cell_angle_gamma   60.19415667
_symmetry_Int_Tables_number   1
_chemical_formula_structural   Dy10Y6Cd4Ir3Pt
_chemical_formula_sum   'Dy10 Y6 Cd4 Ir3 Pt1'
_cell_volume   637.06767984
_cell_formula_units_Z   1
loop_
 _symmetry_equiv_pos_site_id
 _symmetry_equiv_pos_as_xyz
  1  'x, y, z'
loop_
 _atom_site_type_symbol
 _atom_site_label
 _atom_site_symmetry_multiplicity
 _atom_site_fract_x
 _atom_site_fract_y
 _atom_site_fract_z
 _atom_site_occupancy
  Dy  Dy0  1  0.347631  0.347631  0.347631  1
  Dy  Dy1  1  0.352043  0.352043  0.949875  1
  Dy  Dy2  1  0.352043  0.949875  0.352043  1
  Dy  Dy3  1  0.949875  0.352043  0.352043  1
  Dy  Dy4  1  0.805451  0.190933  0.190933  1
  Dy  Dy5  1  0.187875  0.810024  0.810024  1
  Dy  Dy6  1  0.190933  0.805451  0.190933  1
  Dy  Dy7  1  0.810024  0.187875  0.810024  1
  Dy  Dy8  1  0.190933  0.190933  0.805451  1
  Dy  Dy9  1  0.810024  0.810024  0.187875  1
  Y  Y10  1  0.939402  0.562281  0.562281  1
  Y  Y11  1  0.563006  0.937987  0.937987  1
  Y  Y12  1  0.562281  0.939402  0.562281  1
  Y  Y13  1  0.937987  0.563006  0.937987  1
  Y  Y14  1  0.562281  0.562281  0.939402  1
  Y  Y15  1  0.937987  0.937987  0.563006  1
  Cd  Cd16  1  0.580526  0.580526  0.580526  1
  Cd  Cd17  1  0.580967  0.580967  0.256380  1
  Cd  Cd18  1  0.580967  0.256380  0.580967  1
  Cd  Cd19  1  0.256380  0.580967  0.580967  1
  Ir  Ir20  1  0.142083  0.142083  0.574504  1
  Ir  Ir21  1  0.142083  0.574504  0.142083  1
  Ir  Ir22  1  0.574504  0.142083  0.142083  1
  Pt  Pt23  1  0.142716  0.142716  0.142716  1
