# generated using pymatgen
data_Ti4Mn2Pt3Rh7
_symmetry_space_group_name_H-M   'P 1'
_cell_length_a   4.00070500
_cell_length_b   5.43911644
_cell_length_c   10.78816056
_cell_angle_alpha   90.44231812
_cell_angle_beta   90.00000000
_cell_angle_gamma   90.00000000
_symmetry_Int_Tables_number   1
_chemical_formula_structural   Ti4Mn2Pt3Rh7
_chemical_formula_sum   'Ti4 Mn2 Pt3 Rh7'
_cell_volume   234.74661865
_cell_formula_units_Z   1
loop_
 _symmetry_equiv_pos_site_id
 _symmetry_equiv_pos_as_xyz
  1  'x, y, z'
loop_
 _atom_site_type_symbol
 _atom_site_label
 _atom_site_symmetry_multiplicity
 _atom_site_fract_x
 _atom_site_fract_y
 _atom_site_fract_z
 _atom_site_occupancy
  Ti  Ti0  1  0.500000  0.302151  0.138006  1
  Ti  Ti1  1  0.500000  0.708178  0.858374  1
  Ti  Ti2  1  0.500000  0.785976  0.362591  1
  Ti  Ti3  1  0.500000  0.205417  0.641589  1
  Mn  Mn4  1  0.000000  0.002750  0.998335  1
  Mn  Mn5  1  0.000000  0.496381  0.501098  1
  Pt  Pt6  1  0.000000  0.998156  0.501045  1
  Pt  Pt7  1  0.000000  0.504220  0.999169  1
  Pt  Pt8  1  0.000000  0.043694  0.243982  1
  Rh  Rh9  1  0.000000  0.954594  0.755938  1
  Rh  Rh10  1  0.000000  0.543562  0.255742  1
  Rh  Rh11  1  0.000000  0.454440  0.743945  1
  Rh  Rh12  1  0.500000  0.282855  0.386600  1
  Rh  Rh13  1  0.500000  0.714200  0.613726  1
  Rh  Rh14  1  0.500000  0.785037  0.113701  1
  Rh  Rh15  1  0.500000  0.218389  0.886157  1
