# generated using pymatgen
data_Er10GaSn4Bi
_symmetry_space_group_name_H-M   'P 1'
_cell_length_a   8.86991873
_cell_length_b   8.85135467
_cell_length_c   6.46833500
_cell_angle_alpha   90.00000000
_cell_angle_beta   90.00000000
_cell_angle_gamma   119.97939081
_symmetry_Int_Tables_number   1
_chemical_formula_structural   Er10GaSn4Bi
_chemical_formula_sum   'Er10 Ga1 Sn4 Bi1'
_cell_volume   439.88856542
_cell_formula_units_Z   1
loop_
 _symmetry_equiv_pos_site_id
 _symmetry_equiv_pos_as_xyz
  1  'x, y, z'
loop_
 _atom_site_type_symbol
 _atom_site_label
 _atom_site_symmetry_multiplicity
 _atom_site_fract_x
 _atom_site_fract_y
 _atom_site_fract_z
 _atom_site_occupancy
  Er  Er0  1  0.993425  0.752104  0.750000  1
  Er  Er1  1  0.000876  0.239369  0.250000  1
  Er  Er2  1  0.761489  0.760576  0.250000  1
  Er  Er3  1  0.770999  0.010469  0.750000  1
  Er  Er4  1  0.229298  0.246625  0.750000  1
  Er  Er5  1  0.237696  0.999908  0.250000  1
  Er  Er6  1  0.325307  0.655832  0.500551  1
  Er  Er7  1  0.678196  0.338684  0.999425  1
  Er  Er8  1  0.678196  0.338684  0.500575  1
  Er  Er9  1  0.325307  0.655832  0.999449  1
  Ga  Ga10  1  0.999320  0.396912  0.750000  1
  Sn  Sn11  1  0.398125  0.392925  0.250000  1
  Sn  Sn12  1  0.002189  0.606709  0.250000  1
  Sn  Sn13  1  0.604455  0.606407  0.750000  1
  Sn  Sn14  1  0.603473  0.997361  0.250000  1
  Bi  Bi15  1  0.391646  0.001604  0.750000  1
