# generated using pymatgen
data_BaPrHoTm(AsPt)4
_symmetry_space_group_name_H-M   'P 1'
_cell_length_a   4.32622400
_cell_length_b   4.32622410
_cell_length_c   16.56389400
_cell_angle_alpha   90.00000000
_cell_angle_beta   90.00000000
_cell_angle_gamma   119.99999925
_symmetry_Int_Tables_number   1
_chemical_formula_structural   BaPrHoTm(AsPt)4
_chemical_formula_sum   'Ba1 Pr1 Ho1 Tm1 As4 Pt4'
_cell_volume   268.47947627
_cell_formula_units_Z   1
loop_
 _symmetry_equiv_pos_site_id
 _symmetry_equiv_pos_as_xyz
  1  'x, y, z'
loop_
 _atom_site_type_symbol
 _atom_site_label
 _atom_site_symmetry_multiplicity
 _atom_site_fract_x
 _atom_site_fract_y
 _atom_site_fract_z
 _atom_site_occupancy
  Ba  Ba0  1  0.000000  0.000000  0.499574  1
  Pr  Pr1  1  0.000000  0.000000  0.000783  1
  Ho  Ho2  1  0.000000  0.000000  0.760251  1
  Tm  Tm3  1  0.000000  0.000000  0.239689  1
  As  As4  1  0.333333  0.666667  0.885476  1
  As  As5  1  0.666667  0.333333  0.115176  1
  As  As6  1  0.666667  0.333333  0.359327  1
  As  As7  1  0.333333  0.666667  0.639758  1
  Pt  Pt8  1  0.333333  0.666667  0.338473  1
  Pt  Pt9  1  0.666667  0.333333  0.659000  1
  Pt  Pt10  1  0.666667  0.333333  0.866709  1
  Pt  Pt11  1  0.333333  0.666667  0.135784  1
