# generated using pymatgen
data_Sr6AlB6MoO18
_symmetry_space_group_name_H-M   'P 1'
_cell_length_a   7.65522750
_cell_length_b   7.65522658
_cell_length_c   7.65522700
_cell_angle_alpha   105.43428349
_cell_angle_beta   105.43428158
_cell_angle_gamma   105.43428050
_symmetry_Int_Tables_number   1
_chemical_formula_structural   Sr6AlB6MoO18
_chemical_formula_sum   'Sr6 Al1 B6 Mo1 O18'
_cell_volume   388.46605092
_cell_formula_units_Z   1
loop_
 _symmetry_equiv_pos_site_id
 _symmetry_equiv_pos_as_xyz
  1  'x, y, z'
loop_
 _atom_site_type_symbol
 _atom_site_label
 _atom_site_symmetry_multiplicity
 _atom_site_fract_x
 _atom_site_fract_y
 _atom_site_fract_z
 _atom_site_occupancy
  Sr  Sr0  1  0.656793  0.263599  0.167641  1
  Sr  Sr1  1  0.167641  0.656793  0.263599  1
  Sr  Sr2  1  0.736400  0.832360  0.343207  1
  Sr  Sr3  1  0.263600  0.167640  0.656793  1
  Sr  Sr4  1  0.832360  0.343207  0.736401  1
  Sr  Sr5  1  0.343207  0.736401  0.832359  1
  Al  Al6  1  0.500000  0.500000  0.500000  1
  B  B7  1  0.294082  0.372463  0.054189  1
  B  B8  1  0.372462  0.054189  0.294082  1
  B  B9  1  0.054189  0.294082  0.372462  1
  B  B10  1  0.945811  0.705919  0.627538  1
  B  B11  1  0.627538  0.945812  0.705918  1
  B  B12  1  0.705919  0.627538  0.945812  1
  Mo  Mo13  1  0.000000  0.000000  0.000000  1
  O  O14  1  0.728087  0.824466  0.008131  1
  O  O15  1  0.800244  0.553628  0.070650  1
  O  O16  1  0.991869  0.271913  0.175532  1
  O  O17  1  0.446371  0.929350  0.199755  1
  O  O18  1  0.428373  0.496387  0.237592  1
  O  O19  1  0.175533  0.991869  0.271912  1
  O  O20  1  0.496386  0.237592  0.428373  1
  O  O21  1  0.929350  0.199755  0.446372  1
  O  O22  1  0.237592  0.428373  0.496387  1
  O  O23  1  0.762408  0.571627  0.503614  1
  O  O24  1  0.070650  0.800244  0.553628  1
  O  O25  1  0.503614  0.762408  0.571627  1
  O  O26  1  0.824466  0.008130  0.728087  1
  O  O27  1  0.571627  0.503614  0.762409  1
  O  O28  1  0.553628  0.070650  0.800245  1
  O  O29  1  0.008130  0.728086  0.824467  1
  O  O30  1  0.199755  0.446371  0.929350  1
  O  O31  1  0.271913  0.175533  0.991869  1
