# generated using pymatgen
data_CaLuHf2(Al3Rh)6
_symmetry_space_group_name_H-M   'P 1'
_cell_length_a   7.50619987
_cell_length_b   7.48623915
_cell_length_c   9.33779400
_cell_angle_alpha   90.00000000
_cell_angle_beta   90.00000000
_cell_angle_gamma   119.56974100
_symmetry_Int_Tables_number   1
_chemical_formula_structural   CaLuHf2(Al3Rh)6
_chemical_formula_sum   'Ca1 Lu1 Hf2 Al18 Rh6'
_cell_volume   456.37871127
_cell_formula_units_Z   1
loop_
 _symmetry_equiv_pos_site_id
 _symmetry_equiv_pos_as_xyz
  1  'x, y, z'
loop_
 _atom_site_type_symbol
 _atom_site_label
 _atom_site_symmetry_multiplicity
 _atom_site_fract_x
 _atom_site_fract_y
 _atom_site_fract_z
 _atom_site_occupancy
  Ca  Ca0  1  0.671367  0.993272  0.250000  1
  Lu  Lu1  1  0.329152  0.006081  0.750000  1
  Hf  Hf2  1  0.994371  0.671987  0.250000  1
  Hf  Hf3  1  0.003943  0.326186  0.750000  1
  Al  Al4  1  0.127115  0.123076  0.250000  1
  Al  Al5  1  0.874857  0.876548  0.750000  1
  Al  Al6  1  0.999312  0.337864  0.075807  1
  Al  Al7  1  0.001117  0.662590  0.922380  1
  Al  Al8  1  0.001117  0.662590  0.577620  1
  Al  Al9  1  0.332798  0.997933  0.421838  1
  Al  Al10  1  0.999312  0.337864  0.424193  1
  Al  Al11  1  0.666671  0.001514  0.579591  1
  Al  Al12  1  0.666671  0.001514  0.920409  1
  Al  Al13  1  0.332798  0.997933  0.078162  1
  Al  Al14  1  0.330701  0.333000  0.556367  1
  Al  Al15  1  0.669704  0.667237  0.445710  1
  Al  Al16  1  0.669704  0.667237  0.054290  1
  Al  Al17  1  0.330701  0.333000  0.943633  1
  Al  Al18  1  0.332405  0.549036  0.250000  1
  Al  Al19  1  0.664516  0.449901  0.750000  1
  Al  Al20  1  0.557680  0.346893  0.250000  1
  Al  Al21  1  0.442373  0.655849  0.750000  1
  Rh  Rh22  1  0.673165  0.328311  0.997572  1
  Rh  Rh23  1  0.325421  0.671179  0.999386  1
  Rh  Rh24  1  0.325421  0.671179  0.500614  1
  Rh  Rh25  1  0.673165  0.328311  0.502428  1
  Rh  Rh26  1  0.002221  0.000959  0.998483  1
  Rh  Rh27  1  0.002221  0.000959  0.501517  1
