# generated using pymatgen
data_Tb3TmSb6Ru2Rh5
_symmetry_space_group_name_H-M   'P 1'
_cell_length_a   7.60783278
_cell_length_b   7.58674477
_cell_length_c   7.58674377
_cell_angle_alpha   109.20928718
_cell_angle_beta   109.62767891
_cell_angle_gamma   109.62768036
_symmetry_Int_Tables_number   1
_chemical_formula_structural   Tb3TmSb6Ru2Rh5
_chemical_formula_sum   'Tb3 Tm1 Sb6 Ru2 Rh5'
_cell_volume   336.87641703
_cell_formula_units_Z   1
loop_
 _symmetry_equiv_pos_site_id
 _symmetry_equiv_pos_as_xyz
  1  'x, y, z'
loop_
 _atom_site_type_symbol
 _atom_site_label
 _atom_site_symmetry_multiplicity
 _atom_site_fract_x
 _atom_site_fract_y
 _atom_site_fract_z
 _atom_site_occupancy
  Tb  Tb0  1  0.001925  0.500932  0.000970  1
  Tb  Tb1  1  0.998075  0.999030  0.499068  1
  Tb  Tb2  1  0.500000  0.500964  0.499036  1
  Tm  Tm3  1  0.500000  0.998902  0.001098  1
  Sb  Sb4  1  0.998800  0.314024  0.314031  1
  Sb  Sb5  1  0.684176  0.999048  0.684294  1
  Sb  Sb6  1  0.684155  0.686400  0.001080  1
  Sb  Sb7  1  0.001200  0.685969  0.685976  1
  Sb  Sb8  1  0.315845  0.998920  0.313600  1
  Sb  Sb9  1  0.315824  0.315706  0.000952  1
  Ru  Ru10  1  0.000000  0.000021  0.999979  1
  Ru  Ru11  1  0.500000  0.750883  0.249117  1
  Rh  Rh12  1  0.750012  0.498308  0.249838  1
  Rh  Rh13  1  0.249988  0.750162  0.501692  1
  Rh  Rh14  1  0.249988  0.501415  0.749862  1
  Rh  Rh15  1  0.500000  0.249179  0.750821  1
  Rh  Rh16  1  0.750012  0.250138  0.498585  1
