# generated using pymatgen
data_RbLiVF6
_symmetry_space_group_name_H-M   'P 1'
_cell_length_a   10.84831500
_cell_length_b   5.76184183
_cell_length_c   8.91051333
_cell_angle_alpha   88.81184450
_cell_angle_beta   90.00000000
_cell_angle_gamma   90.00000000
_symmetry_Int_Tables_number   1
_chemical_formula_structural   RbLiVF6
_chemical_formula_sum   'Rb4 Li4 V4 F24'
_cell_volume   556.84324680
_cell_formula_units_Z   4
loop_
 _symmetry_equiv_pos_site_id
 _symmetry_equiv_pos_as_xyz
  1  'x, y, z'
loop_
 _atom_site_type_symbol
 _atom_site_label
 _atom_site_symmetry_multiplicity
 _atom_site_fract_x
 _atom_site_fract_y
 _atom_site_fract_z
 _atom_site_occupancy
  Rb  Rb0  1  0.690860  0.302932  0.002014  1
  Rb  Rb1  1  0.190860  0.697068  0.497986  1
  Rb  Rb2  1  0.309140  0.697068  0.997986  1
  Rb  Rb3  1  0.809140  0.302932  0.502014  1
  Li  Li4  1  0.592351  0.753009  0.685296  1
  Li  Li5  1  0.092351  0.246991  0.814704  1
  Li  Li6  1  0.407649  0.246991  0.314704  1
  Li  Li7  1  0.907649  0.753009  0.185296  1
  V  V8  1  0.911959  0.774517  0.770370  1
  V  V9  1  0.411959  0.225483  0.729630  1
  V  V10  1  0.088041  0.225483  0.229630  1
  V  V11  1  0.588041  0.774517  0.270370  1
  F  F12  1  0.751618  0.636747  0.746043  1
  F  F13  1  0.251618  0.363253  0.753957  1
  F  F14  1  0.248382  0.363253  0.253957  1
  F  F15  1  0.748382  0.636747  0.246043  1
  F  F16  1  0.903094  0.696229  0.973563  1
  F  F17  1  0.403094  0.303771  0.526437  1
  F  F18  1  0.096906  0.303771  0.026437  1
  F  F19  1  0.596906  0.696229  0.473563  1
  F  F20  1  0.069151  0.918429  0.794208  1
  F  F21  1  0.569151  0.081571  0.705792  1
  F  F22  1  0.930849  0.081571  0.205792  1
  F  F23  1  0.430849  0.918429  0.294208  1
  F  F24  1  0.916297  0.827218  0.566794  1
  F  F25  1  0.416297  0.172782  0.933206  1
  F  F26  1  0.083703  0.172782  0.433206  1
  F  F27  1  0.583703  0.827218  0.066794  1
  F  F28  1  0.839195  0.061825  0.803714  1
  F  F29  1  0.339195  0.938175  0.696286  1
  F  F30  1  0.160805  0.938175  0.196286  1
  F  F31  1  0.660805  0.061825  0.303714  1
  F  F32  1  0.991580  0.483468  0.729877  1
  F  F33  1  0.491580  0.516532  0.770123  1
  F  F34  1  0.008420  0.516532  0.270123  1
  F  F35  1  0.508420  0.483468  0.229877  1
