# generated using pymatgen
data_Nd5ZnOsO12
_symmetry_space_group_name_H-M   'P 1'
_cell_length_a   7.04315840
_cell_length_b   7.04315888
_cell_length_c   7.57303800
_cell_angle_alpha   74.41796423
_cell_angle_beta   74.41796314
_cell_angle_gamma   51.68456179
_symmetry_Int_Tables_number   1
_chemical_formula_structural   Nd5ZnOsO12
_chemical_formula_sum   'Nd5 Zn1 Os1 O12'
_cell_volume   281.31852318
_cell_formula_units_Z   1
loop_
 _symmetry_equiv_pos_site_id
 _symmetry_equiv_pos_as_xyz
  1  'x, y, z'
loop_
 _atom_site_type_symbol
 _atom_site_label
 _atom_site_symmetry_multiplicity
 _atom_site_fract_x
 _atom_site_fract_y
 _atom_site_fract_z
 _atom_site_occupancy
  Nd  Nd0  1  0.315304  0.293943  0.357433  1
  Nd  Nd1  1  0.706057  0.684696  0.642567  1
  Nd  Nd2  1  0.693702  0.694574  0.164891  1
  Nd  Nd3  1  0.305426  0.306298  0.835109  1
  Nd  Nd4  1  0.007921  0.992079  0.500000  1
  Zn  Zn5  1  0.751488  0.248512  0.000000  1
  Os  Os6  1  0.237843  0.762157  0.000000  1
  O  O7  1  0.100792  0.593421  0.574127  1
  O  O8  1  0.024509  0.973475  0.178284  1
  O  O9  1  0.406579  0.899208  0.425873  1
  O  O10  1  0.465160  0.536747  0.178207  1
  O  O11  1  0.099533  0.583017  0.080561  1
  O  O12  1  0.908774  0.398908  0.421670  1
  O  O13  1  0.026525  0.975491  0.821716  1
  O  O14  1  0.601092  0.091225  0.578330  1
  O  O15  1  0.463253  0.534840  0.821793  1
  O  O16  1  0.572501  0.103441  0.078885  1
  O  O17  1  0.416983  0.900467  0.919439  1
  O  O18  1  0.896559  0.427499  0.921115  1
