# generated using pymatgen
data_Li2Nd3DyPt3
_symmetry_space_group_name_H-M   'P 1'
_cell_length_a   7.65536100
_cell_length_b   7.58754272
_cell_length_c   4.15197500
_cell_angle_alpha   90.00000000
_cell_angle_beta   90.00000000
_cell_angle_gamma   120.29611771
_symmetry_Int_Tables_number   1
_chemical_formula_structural   Li2Nd3DyPt3
_chemical_formula_sum   'Li2 Nd3 Dy1 Pt3'
_cell_volume   208.23252022
_cell_formula_units_Z   1
loop_
 _symmetry_equiv_pos_site_id
 _symmetry_equiv_pos_as_xyz
  1  'x, y, z'
loop_
 _atom_site_type_symbol
 _atom_site_label
 _atom_site_symmetry_multiplicity
 _atom_site_fract_x
 _atom_site_fract_y
 _atom_site_fract_z
 _atom_site_occupancy
  Li  Li0  1  0.004405  0.243187  0.500000  1
  Li  Li1  1  0.761218  0.756813  0.500000  1
  Nd  Nd2  1  0.417188  0.441125  0.000000  1
  Nd  Nd3  1  0.614957  0.000000  0.000000  1
  Nd  Nd4  1  0.976062  0.558875  0.000000  1
  Dy  Dy5  1  0.241781  0.000000  0.500000  1
  Pt  Pt6  1  0.654134  0.323861  0.500000  1
  Pt  Pt7  1  0.999982  0.000000  0.000000  1
  Pt  Pt8  1  0.330273  0.676139  0.500000  1
