# generated using pymatgen
data_Tb8Tm12Si15S
_symmetry_space_group_name_H-M   'P 1'
_cell_length_a   7.41195752
_cell_length_b   7.57653891
_cell_length_c   14.44250900
_cell_angle_alpha   89.68368406
_cell_angle_beta   86.44962125
_cell_angle_gamma   89.85082440
_symmetry_Int_Tables_number   1
_chemical_formula_structural   Tb8Tm12Si15S
_chemical_formula_sum   'Tb8 Tm12 Si15 S1'
_cell_volume   809.47672415
_cell_formula_units_Z   1
loop_
 _symmetry_equiv_pos_site_id
 _symmetry_equiv_pos_as_xyz
  1  'x, y, z'
loop_
 _atom_site_type_symbol
 _atom_site_label
 _atom_site_symmetry_multiplicity
 _atom_site_fract_x
 _atom_site_fract_y
 _atom_site_fract_z
 _atom_site_occupancy
  Tb  Tb0  1  0.017258  0.180999  0.099865  1
  Tb  Tb1  1  0.983207  0.821204  0.899360  1
  Tb  Tb2  1  0.483722  0.681730  0.900173  1
  Tb  Tb3  1  0.006754  0.825730  0.600613  1
  Tb  Tb4  1  0.516664  0.319481  0.099392  1
  Tb  Tb5  1  0.984153  0.168071  0.395772  1
  Tb  Tb6  1  0.493478  0.314033  0.398842  1
  Tb  Tb7  1  0.510822  0.683672  0.600224  1
  Tm  Tm8  1  0.175272  0.507864  0.750577  1
  Tm  Tm9  1  0.824961  0.494025  0.253884  1
  Tm  Tm10  1  0.322769  0.002597  0.253244  1
  Tm  Tm11  1  0.676143  0.996666  0.746260  1
  Tm  Tm12  1  0.360826  0.169215  0.620066  1
  Tm  Tm13  1  0.639370  0.832544  0.379482  1
  Tm  Tm14  1  0.141876  0.657694  0.385545  1
  Tm  Tm15  1  0.667716  0.820814  0.123402  1
  Tm  Tm16  1  0.863693  0.336058  0.616780  1
  Tm  Tm17  1  0.331495  0.179164  0.875466  1
  Tm  Tm18  1  0.831146  0.323814  0.875601  1
  Tm  Tm19  1  0.168992  0.676363  0.123092  1
  Si  Si20  1  0.049197  0.114941  0.748433  1
  Si  Si21  1  0.950767  0.883818  0.249509  1
  Si  Si22  1  0.449222  0.609936  0.250969  1
  Si  Si23  1  0.550079  0.389587  0.747877  1
  Si  Si24  1  0.294226  0.873209  0.750384  1
  Si  Si25  1  0.705461  0.126793  0.247555  1
  Si  Si26  1  0.206982  0.370755  0.249210  1
  Si  Si27  1  0.794755  0.629508  0.750028  1
  Si  Si28  1  0.790455  0.531254  0.456186  1
  Si  Si29  1  0.291715  0.964156  0.459012  1
  Si  Si30  1  0.848906  0.530932  0.039796  1
  Si  Si31  1  0.701819  0.036807  0.542713  1
  Si  Si32  1  0.150224  0.471062  0.958525  1
  Si  Si33  1  0.650203  0.032099  0.959271  1
  Si  Si34  1  0.348683  0.969392  0.040120  1
  S  S35  1  0.216988  0.474016  0.552771  1
