# generated using pymatgen
data_Ho2ErMg3Si2Au
_symmetry_space_group_name_H-M   'P 1'
_cell_length_a   7.20658687
_cell_length_b   7.20658658
_cell_length_c   4.27834400
_cell_angle_alpha   90.00000000
_cell_angle_beta   90.00000000
_cell_angle_gamma   119.86677120
_symmetry_Int_Tables_number   1
_chemical_formula_structural   Ho2ErMg3Si2Au
_chemical_formula_sum   'Ho2 Er1 Mg3 Si2 Au1'
_cell_volume   192.68461710
_cell_formula_units_Z   1
loop_
 _symmetry_equiv_pos_site_id
 _symmetry_equiv_pos_as_xyz
  1  'x, y, z'
loop_
 _atom_site_type_symbol
 _atom_site_label
 _atom_site_symmetry_multiplicity
 _atom_site_fract_x
 _atom_site_fract_y
 _atom_site_fract_z
 _atom_site_occupancy
  Ho  Ho0  1  0.582749  0.999620  0.000000  1
  Ho  Ho1  1  0.999620  0.582749  0.000000  1
  Er  Er2  1  0.416706  0.416706  0.000000  1
  Mg  Mg3  1  0.247927  0.000266  0.500000  1
  Mg  Mg4  1  0.000266  0.247927  0.500000  1
  Mg  Mg5  1  0.751938  0.751938  0.500000  1
  Si  Si6  1  0.333625  0.666459  0.500000  1
  Si  Si7  1  0.666459  0.333625  0.500000  1
  Au  Au8  1  0.000709  0.000709  0.000000  1
