# generated using pymatgen
data_LaYb11(RuAu)2
_symmetry_space_group_name_H-M   'P 1'
_cell_length_a   6.44342500
_cell_length_b   7.84128360
_cell_length_c   9.49502600
_cell_angle_alpha   90.00000000
_cell_angle_beta   90.00000000
_cell_angle_gamma   89.14325873
_symmetry_Int_Tables_number   1
_chemical_formula_structural   LaYb11(RuAu)2
_chemical_formula_sum   'La1 Yb11 Ru2 Au2'
_cell_volume   479.67992563
_cell_formula_units_Z   1
loop_
 _symmetry_equiv_pos_site_id
 _symmetry_equiv_pos_as_xyz
  1  'x, y, z'
loop_
 _atom_site_type_symbol
 _atom_site_label
 _atom_site_symmetry_multiplicity
 _atom_site_fract_x
 _atom_site_fract_y
 _atom_site_fract_z
 _atom_site_occupancy
  La  La0  1  0.354811  0.948464  0.750000  1
  Yb  Yb1  1  0.350641  0.667440  0.055614  1
  Yb  Yb2  1  0.150030  0.171009  0.444758  1
  Yb  Yb3  1  0.661900  0.331137  0.574275  1
  Yb  Yb4  1  0.836147  0.834180  0.926120  1
  Yb  Yb5  1  0.661900  0.331137  0.925725  1
  Yb  Yb6  1  0.836147  0.834180  0.573880  1
  Yb  Yb7  1  0.350641  0.667440  0.444386  1
  Yb  Yb8  1  0.150030  0.171009  0.055242  1
  Yb  Yb9  1  0.870882  0.536303  0.250000  1
  Yb  Yb10  1  0.628599  0.031698  0.250000  1
  Yb  Yb11  1  0.137233  0.459524  0.750000  1
  Ru  Ru12  1  0.990206  0.117045  0.750000  1
  Ru  Ru13  1  0.515283  0.648751  0.750000  1
  Au  Au14  1  0.057300  0.876302  0.250000  1
  Au  Au15  1  0.448249  0.374380  0.250000  1
