# generated using pymatgen
data_Ce12Ga8Sn3Sb
_symmetry_space_group_name_H-M   'P 1'
_cell_length_a   6.28193600
_cell_length_b   9.65741452
_cell_length_c   10.27774800
_cell_angle_alpha   89.95111349
_cell_angle_beta   90.00000000
_cell_angle_gamma   90.00000000
_symmetry_Int_Tables_number   1
_chemical_formula_structural   Ce12Ga8Sn3Sb
_chemical_formula_sum   'Ce12 Ga8 Sn3 Sb1'
_cell_volume   623.52258225
_cell_formula_units_Z   1
loop_
 _symmetry_equiv_pos_site_id
 _symmetry_equiv_pos_as_xyz
  1  'x, y, z'
loop_
 _atom_site_type_symbol
 _atom_site_label
 _atom_site_symmetry_multiplicity
 _atom_site_fract_x
 _atom_site_fract_y
 _atom_site_fract_z
 _atom_site_occupancy
  Ce  Ce0  1  0.995655  0.750726  0.119335  1
  Ce  Ce1  1  0.501330  0.249164  0.879780  1
  Ce  Ce2  1  0.998670  0.249164  0.879780  1
  Ce  Ce3  1  0.504345  0.750726  0.119335  1
  Ce  Ce4  1  0.750000  0.466034  0.606431  1
  Ce  Ce5  1  0.250000  0.532379  0.395726  1
  Ce  Ce6  1  0.750000  0.968513  0.394858  1
  Ce  Ce7  1  0.250000  0.034066  0.606124  1
  Ce  Ce8  1  0.750000  0.373606  0.201404  1
  Ce  Ce9  1  0.250000  0.622879  0.797323  1
  Ce  Ce10  1  0.750000  0.876834  0.798583  1
  Ce  Ce11  1  0.250000  0.125747  0.199526  1
  Ga  Ga12  1  0.998702  0.750376  0.560497  1
  Ga  Ga13  1  0.499353  0.250401  0.439237  1
  Ga  Ga14  1  0.000647  0.250401  0.439237  1
  Ga  Ga15  1  0.501298  0.750376  0.560497  1
  Ga  Ga16  1  0.750000  0.137215  0.637255  1
  Ga  Ga17  1  0.250000  0.862787  0.361639  1
  Ga  Ga18  1  0.750000  0.635837  0.362387  1
  Ga  Ga19  1  0.250000  0.362156  0.638167  1
  Sn  Sn20  1  0.250000  0.942691  0.903842  1
  Sn  Sn21  1  0.750000  0.555203  0.904919  1
  Sn  Sn22  1  0.250000  0.445745  0.096645  1
  Sb  Sb23  1  0.750000  0.056973  0.097477  1
