# generated using pymatgen
data_Ho4Er4Ga3Ir
_symmetry_space_group_name_H-M   'P 1'
_cell_length_a   10.00288900
_cell_length_b   10.00288876
_cell_length_c   6.99019600
_cell_angle_alpha   90.00000000
_cell_angle_beta   90.00000000
_cell_angle_gamma   119.99999748
_symmetry_Int_Tables_number   1
_chemical_formula_structural   Ho4Er4Ga3Ir
_chemical_formula_sum   'Ho8 Er8 Ga6 Ir2'
_cell_volume   605.71856495
_cell_formula_units_Z   2
loop_
 _symmetry_equiv_pos_site_id
 _symmetry_equiv_pos_as_xyz
  1  'x, y, z'
loop_
 _atom_site_type_symbol
 _atom_site_label
 _atom_site_symmetry_multiplicity
 _atom_site_fract_x
 _atom_site_fract_y
 _atom_site_fract_z
 _atom_site_occupancy
  Ho  Ho0  1  0.465493  0.534507  0.205486  1
  Ho  Ho1  1  0.069014  0.534507  0.205486  1
  Ho  Ho2  1  0.465493  0.930986  0.205486  1
  Ho  Ho3  1  0.534507  0.465493  0.705486  1
  Ho  Ho4  1  0.930986  0.465493  0.705486  1
  Ho  Ho5  1  0.534507  0.069014  0.705486  1
  Ho  Ho6  1  0.000000  0.000000  0.232029  1
  Ho  Ho7  1  0.000000  0.000000  0.732029  1
  Er  Er8  1  0.171271  0.828729  0.510418  1
  Er  Er9  1  0.657459  0.828729  0.510418  1
  Er  Er10  1  0.171271  0.342541  0.510418  1
  Er  Er11  1  0.828729  0.171271  0.010418  1
  Er  Er12  1  0.342541  0.171271  0.010418  1
  Er  Er13  1  0.828729  0.657459  0.010418  1
  Er  Er14  1  0.333333  0.666667  0.836218  1
  Er  Er15  1  0.666667  0.333333  0.336218  1
  Ga  Ga16  1  0.163487  0.836513  0.958911  1
  Ga  Ga17  1  0.673025  0.836513  0.958911  1
  Ga  Ga18  1  0.163487  0.326975  0.958911  1
  Ga  Ga19  1  0.836513  0.163487  0.458911  1
  Ga  Ga20  1  0.326975  0.163487  0.458911  1
  Ga  Ga21  1  0.836513  0.673025  0.458911  1
  Ir  Ir22  1  0.333333  0.666667  0.444331  1
  Ir  Ir23  1  0.666667  0.333333  0.944331  1
