# generated using pymatgen
data_Y3Tm(TcB2)4
_symmetry_space_group_name_H-M   'P 1'
_cell_length_a   5.27448400
_cell_length_b   5.93595202
_cell_length_c   6.42984900
_cell_angle_alpha   89.95272287
_cell_angle_beta   90.00000000
_cell_angle_gamma   90.00000000
_symmetry_Int_Tables_number   1
_chemical_formula_structural   Y3Tm(TcB2)4
_chemical_formula_sum   'Y3 Tm1 Tc4 B8'
_cell_volume   201.31261365
_cell_formula_units_Z   1
loop_
 _symmetry_equiv_pos_site_id
 _symmetry_equiv_pos_as_xyz
  1  'x, y, z'
loop_
 _atom_site_type_symbol
 _atom_site_label
 _atom_site_symmetry_multiplicity
 _atom_site_fract_x
 _atom_site_fract_y
 _atom_site_fract_z
 _atom_site_occupancy
  Y  Y0  1  0.250000  0.014262  0.338676  1
  Y  Y1  1  0.250000  0.514520  0.160907  1
  Y  Y2  1  0.750000  0.985557  0.660897  1
  Tm  Tm3  1  0.750000  0.485466  0.838668  1
  Tc  Tc4  1  0.250000  0.182285  0.815299  1
  Tc  Tc5  1  0.250000  0.680336  0.686020  1
  Tc  Tc6  1  0.750000  0.817618  0.183524  1
  Tc  Tc7  1  0.750000  0.318947  0.314286  1
  B  B8  1  0.077473  0.370145  0.537037  1
  B  B9  1  0.422215  0.870310  0.963650  1
  B  B10  1  0.578842  0.629307  0.465429  1
  B  B11  1  0.921463  0.130742  0.034745  1
  B  B12  1  0.921158  0.629307  0.465429  1
  B  B13  1  0.578537  0.130742  0.034745  1
  B  B14  1  0.422527  0.370145  0.537037  1
  B  B15  1  0.077785  0.870310  0.963650  1
