# generated using pymatgen
data_Dy9LuSi5Ge
_symmetry_space_group_name_H-M   'P 1'
_cell_length_a   8.43935100
_cell_length_b   8.44111214
_cell_length_c   6.34387400
_cell_angle_alpha   89.99760156
_cell_angle_beta   90.00188298
_cell_angle_gamma   119.99351776
_symmetry_Int_Tables_number   1
_chemical_formula_structural   Dy9LuSi5Ge
_chemical_formula_sum   'Dy9 Lu1 Si5 Ge1'
_cell_volume   391.40130015
_cell_formula_units_Z   1
loop_
 _symmetry_equiv_pos_site_id
 _symmetry_equiv_pos_as_xyz
  1  'x, y, z'
loop_
 _atom_site_type_symbol
 _atom_site_label
 _atom_site_symmetry_multiplicity
 _atom_site_fract_x
 _atom_site_fract_y
 _atom_site_fract_z
 _atom_site_occupancy
  Dy  Dy0  1  0.667347  0.334153  0.000644  1
  Dy  Dy1  1  0.333207  0.665866  0.499377  1
  Dy  Dy2  1  0.333187  0.665867  0.000631  1
  Dy  Dy3  1  0.757099  0.000163  0.748864  1
  Dy  Dy4  1  0.756261  0.756149  0.251145  1
  Dy  Dy5  1  0.999775  0.243689  0.251134  1
  Dy  Dy6  1  0.998798  0.755360  0.748855  1
  Dy  Dy7  1  0.243599  0.244477  0.748866  1
  Dy  Dy8  1  0.243532  0.000169  0.251092  1
  Lu  Lu9  1  0.667351  0.334119  0.499336  1
  Si  Si10  1  0.395151  0.393271  0.253209  1
  Si  Si11  1  0.998194  0.604880  0.253225  1
  Si  Si12  1  0.998127  0.393303  0.746780  1
  Si  Si13  1  0.606669  0.604845  0.746792  1
  Si  Si14  1  0.606832  0.001855  0.253167  1
  Ge  Ge15  1  0.394871  0.001834  0.746881  1
