# generated using pymatgen
data_Ho3Fe2Co6P6Ru
_symmetry_space_group_name_H-M   'P 1'
_cell_length_a   3.72328500
_cell_length_b   10.55244000
_cell_length_c   12.19662800
_cell_angle_alpha   90.00000000
_cell_angle_beta   90.00000000
_cell_angle_gamma   90.00000000
_symmetry_Int_Tables_number   1
_chemical_formula_structural   Ho3Fe2Co6P6Ru
_chemical_formula_sum   'Ho6 Fe4 Co12 P12 Ru2'
_cell_volume   479.20236209
_cell_formula_units_Z   2
loop_
 _symmetry_equiv_pos_site_id
 _symmetry_equiv_pos_as_xyz
  1  'x, y, z'
loop_
 _atom_site_type_symbol
 _atom_site_label
 _atom_site_symmetry_multiplicity
 _atom_site_fract_x
 _atom_site_fract_y
 _atom_site_fract_z
 _atom_site_occupancy
  Ho  Ho0  1  0.000000  0.500000  0.524837  1
  Ho  Ho1  1  0.500000  0.000000  0.474311  1
  Ho  Ho2  1  0.500000  0.818479  0.205101  1
  Ho  Ho3  1  0.500000  0.181521  0.205101  1
  Ho  Ho4  1  0.000000  0.681252  0.795042  1
  Ho  Ho5  1  0.000000  0.318748  0.795042  1
  Fe  Fe6  1  0.000000  0.500000  0.987165  1
  Fe  Fe7  1  0.500000  0.000000  0.012641  1
  Fe  Fe8  1  0.500000  0.296521  0.430595  1
  Fe  Fe9  1  0.500000  0.703479  0.430595  1
  Co  Co10  1  0.000000  0.202499  0.570610  1
  Co  Co11  1  0.000000  0.797501  0.570610  1
  Co  Co12  1  0.500000  0.879134  0.708612  1
  Co  Co13  1  0.500000  0.120866  0.708612  1
  Co  Co14  1  0.000000  0.620844  0.290756  1
  Co  Co15  1  0.000000  0.379156  0.290756  1
  Co  Co16  1  0.500000  0.331640  0.990988  1
  Co  Co17  1  0.500000  0.668360  0.990988  1
  Co  Co18  1  0.000000  0.168356  0.008861  1
  Co  Co19  1  0.000000  0.831644  0.008861  1
  Co  Co20  1  0.500000  0.500000  0.701380  1
  Co  Co21  1  0.000000  0.000000  0.299316  1
  P  P22  1  0.500000  0.310940  0.615116  1
  P  P23  1  0.500000  0.689060  0.615116  1
  P  P24  1  0.000000  0.191060  0.384169  1
  P  P25  1  0.000000  0.808940  0.384169  1
  P  P26  1  0.500000  0.500000  0.882225  1
  P  P27  1  0.000000  0.000000  0.117898  1
  P  P28  1  0.500000  0.846361  0.894855  1
  P  P29  1  0.500000  0.153639  0.894855  1
  P  P30  1  0.000000  0.653045  0.105309  1
  P  P31  1  0.000000  0.346955  0.105309  1
  P  P32  1  0.500000  0.500000  0.349911  1
  P  P33  1  0.000000  0.000000  0.650543  1
  Ru  Ru34  1  0.500000  0.500000  0.157418  1
  Ru  Ru35  1  0.000000  0.000000  0.842327  1
