# generated using pymatgen
data_LaHo7(Sc3Sn4)4
_symmetry_space_group_name_H-M   'P 1'
_cell_length_a   7.70760616
_cell_length_b   7.97382560
_cell_length_c   14.86697500
_cell_angle_alpha   90.02792278
_cell_angle_beta   89.96854072
_cell_angle_gamma   90.03695589
_symmetry_Int_Tables_number   1
_chemical_formula_structural   LaHo7(Sc3Sn4)4
_chemical_formula_sum   'La1 Ho7 Sc12 Sn16'
_cell_volume   913.71057650
_cell_formula_units_Z   1
loop_
 _symmetry_equiv_pos_site_id
 _symmetry_equiv_pos_as_xyz
  1  'x, y, z'
loop_
 _atom_site_type_symbol
 _atom_site_label
 _atom_site_symmetry_multiplicity
 _atom_site_fract_x
 _atom_site_fract_y
 _atom_site_fract_z
 _atom_site_occupancy
  La  La0  1  0.995824  0.174686  0.092741  1
  Ho  Ho1  1  0.006331  0.821659  0.904051  1
  Ho  Ho2  1  0.509257  0.676835  0.903627  1
  Ho  Ho3  1  0.007417  0.822690  0.594185  1
  Ho  Ho4  1  0.492906  0.324215  0.093883  1
  Ho  Ho5  1  0.991712  0.177537  0.405345  1
  Ho  Ho6  1  0.493206  0.323137  0.408819  1
  Ho  Ho7  1  0.506727  0.677772  0.594083  1
  Sc  Sc8  1  0.167647  0.496321  0.749555  1
  Sc  Sc9  1  0.831905  0.503933  0.250874  1
  Sc  Sc10  1  0.331909  0.994815  0.251060  1
  Sc  Sc11  1  0.666908  0.003919  0.749185  1
  Sc  Sc12  1  0.338483  0.160290  0.627682  1
  Sc  Sc13  1  0.660540  0.839225  0.373588  1
  Sc  Sc14  1  0.161712  0.661104  0.374673  1
  Sc  Sc15  1  0.661216  0.838038  0.128547  1
  Sc  Sc16  1  0.838971  0.338329  0.627350  1
  Sc  Sc17  1  0.338111  0.161708  0.871218  1
  Sc  Sc18  1  0.836940  0.341127  0.872077  1
  Sc  Sc19  1  0.161903  0.660574  0.127314  1
  Sn  Sn20  1  0.029158  0.124312  0.750286  1
  Sn  Sn21  1  0.969580  0.872019  0.251438  1
  Sn  Sn22  1  0.469880  0.624312  0.250859  1
  Sn  Sn23  1  0.529935  0.376289  0.748986  1
  Sn  Sn24  1  0.309571  0.849015  0.749326  1
  Sn  Sn25  1  0.685761  0.151278  0.252480  1
  Sn  Sn26  1  0.194222  0.352464  0.253339  1
  Sn  Sn27  1  0.810441  0.650956  0.749083  1
  Sn  Sn28  1  0.182535  0.456855  0.543136  1
  Sn  Sn29  1  0.817481  0.542580  0.457937  1
  Sn  Sn30  1  0.316058  0.958460  0.457960  1
  Sn  Sn31  1  0.815422  0.546988  0.041244  1
  Sn  Sn32  1  0.682837  0.042214  0.542778  1
  Sn  Sn33  1  0.185468  0.461393  0.955864  1
  Sn  Sn34  1  0.676326  0.040345  0.954934  1
  Sn  Sn35  1  0.325697  0.952607  0.040493  1
