# generated using pymatgen
data_Li3Tb3HgAs2
_symmetry_space_group_name_H-M   'P 1'
_cell_length_a   7.13755500
_cell_length_b   7.13755479
_cell_length_c   4.27208500
_cell_angle_alpha   90.00000000
_cell_angle_beta   90.00000000
_cell_angle_gamma   119.99999633
_symmetry_Int_Tables_number   1
_chemical_formula_structural   Li3Tb3HgAs2
_chemical_formula_sum   'Li3 Tb3 Hg1 As2'
_cell_volume   188.48181529
_cell_formula_units_Z   1
loop_
 _symmetry_equiv_pos_site_id
 _symmetry_equiv_pos_as_xyz
  1  'x, y, z'
loop_
 _atom_site_type_symbol
 _atom_site_label
 _atom_site_symmetry_multiplicity
 _atom_site_fract_x
 _atom_site_fract_y
 _atom_site_fract_z
 _atom_site_occupancy
  Li  Li0  1  0.752840  0.752840  0.500000  1
  Li  Li1  1  0.247160  0.000000  0.500000  1
  Li  Li2  1  0.000000  0.247160  0.500000  1
  Tb  Tb3  1  0.427266  0.427266  0.000000  1
  Tb  Tb4  1  0.572734  0.000000  0.000000  1
  Tb  Tb5  1  0.000000  0.572734  0.000000  1
  Hg  Hg6  1  0.000000  0.000000  0.000000  1
  As  As7  1  0.666667  0.333333  0.500000  1
  As  As8  1  0.333333  0.666667  0.500000  1
