# generated using pymatgen
data_Pr12DyThPt6
_symmetry_space_group_name_H-M   'P 1'
_cell_length_a   6.52433200
_cell_length_b   10.24861600
_cell_length_c   10.24861201
_cell_angle_alpha   119.99630744
_cell_angle_beta   90.00110115
_cell_angle_gamma   89.99884336
_symmetry_Int_Tables_number   1
_chemical_formula_structural   Pr12DyThPt6
_chemical_formula_sum   'Pr12 Dy1 Th1 Pt6'
_cell_volume   593.48960352
_cell_formula_units_Z   1
loop_
 _symmetry_equiv_pos_site_id
 _symmetry_equiv_pos_as_xyz
  1  'x, y, z'
loop_
 _atom_site_type_symbol
 _atom_site_label
 _atom_site_symmetry_multiplicity
 _atom_site_fract_x
 _atom_site_fract_y
 _atom_site_fract_z
 _atom_site_occupancy
  Pr  Pr0  1  0.248375  0.128628  0.871371  1
  Pr  Pr1  1  0.248356  0.742983  0.871496  1
  Pr  Pr2  1  0.248356  0.128504  0.257017  1
  Pr  Pr3  1  0.746531  0.871865  0.128135  1
  Pr  Pr4  1  0.746503  0.256028  0.128008  1
  Pr  Pr5  1  0.746504  0.871992  0.743971  1
  Pr  Pr6  1  0.446264  0.537724  0.462275  1
  Pr  Pr7  1  0.446198  0.924546  0.462329  1
  Pr  Pr8  1  0.446198  0.537671  0.075455  1
  Pr  Pr9  1  0.945477  0.461515  0.538485  1
  Pr  Pr10  1  0.945411  0.076980  0.538442  1
  Pr  Pr11  1  0.945411  0.461558  0.923020  1
  Dy  Dy12  1  0.467727  0.333371  0.666631  1
  Th  Th13  1  0.966125  0.666628  0.333372  1
  Pt  Pt14  1  0.182032  0.808523  0.191477  1
  Pt  Pt15  1  0.181898  0.382859  0.191457  1
  Pt  Pt16  1  0.181898  0.808544  0.617141  1
  Pt  Pt17  1  0.682329  0.191448  0.808553  1
  Pt  Pt18  1  0.682201  0.617194  0.808560  1
  Pt  Pt19  1  0.682201  0.191440  0.382806  1
