# generated using pymatgen
data_Sc10Sn6C
_symmetry_space_group_name_H-M   'P 1'
_cell_length_a   8.45058200
_cell_length_b   8.45058177
_cell_length_c   6.10812400
_cell_angle_alpha   90.00000000
_cell_angle_beta   90.00000000
_cell_angle_gamma   119.99999307
_symmetry_Int_Tables_number   1
_chemical_formula_structural   Sc10Sn6C
_chemical_formula_sum   'Sc10 Sn6 C1'
_cell_volume   377.75631717
_cell_formula_units_Z   1
loop_
 _symmetry_equiv_pos_site_id
 _symmetry_equiv_pos_as_xyz
  1  'x, y, z'
loop_
 _atom_site_type_symbol
 _atom_site_label
 _atom_site_symmetry_multiplicity
 _atom_site_fract_x
 _atom_site_fract_y
 _atom_site_fract_z
 _atom_site_occupancy
  Sc  Sc0  1  0.000000  0.776341  0.276604  1
  Sc  Sc1  1  0.223659  0.223659  0.276604  1
  Sc  Sc2  1  0.776341  0.000000  0.276604  1
  Sc  Sc3  1  0.000000  0.223659  0.723396  1
  Sc  Sc4  1  0.776341  0.776341  0.723396  1
  Sc  Sc5  1  0.223659  0.000000  0.723396  1
  Sc  Sc6  1  0.333333  0.666667  0.000000  1
  Sc  Sc7  1  0.666667  0.333333  0.000000  1
  Sc  Sc8  1  0.666667  0.333333  0.500000  1
  Sc  Sc9  1  0.333333  0.666667  0.500000  1
  Sn  Sn10  1  0.000000  0.399716  0.249490  1
  Sn  Sn11  1  0.600284  0.600284  0.249490  1
  Sn  Sn12  1  0.399716  0.000000  0.249490  1
  Sn  Sn13  1  0.000000  0.600284  0.750510  1
  Sn  Sn14  1  0.399716  0.399716  0.750510  1
  Sn  Sn15  1  0.600284  0.000000  0.750510  1
  C  C16  1  0.000000  0.000000  0.500000  1
