# generated using pymatgen
data_Ho5Er5(Bi3C)2
_symmetry_space_group_name_H-M   'P 1'
_cell_length_a   6.45300001
_cell_length_b   9.10341638
_cell_length_c   9.10189801
_cell_angle_alpha   120.00559358
_cell_angle_beta   89.99667786
_cell_angle_gamma   89.99861547
_symmetry_Int_Tables_number   1
_chemical_formula_structural   Ho5Er5(Bi3C)2
_chemical_formula_sum   'Ho5 Er5 Bi6 C2'
_cell_volume   463.02472903
_cell_formula_units_Z   1
loop_
 _symmetry_equiv_pos_site_id
 _symmetry_equiv_pos_as_xyz
  1  'x, y, z'
loop_
 _atom_site_type_symbol
 _atom_site_label
 _atom_site_symmetry_multiplicity
 _atom_site_fract_x
 _atom_site_fract_y
 _atom_site_fract_z
 _atom_site_occupancy
  Ho  Ho0  1  0.499935  0.333296  0.666654  1
  Ho  Ho1  1  0.499932  0.666719  0.333344  1
  Ho  Ho2  1  0.000068  0.666734  0.333362  1
  Ho  Ho3  1  0.000057  0.333285  0.666646  1
  Ho  Ho4  1  0.249995  0.000070  0.792596  1
  Er  Er5  1  0.750000  0.206259  0.000130  1
  Er  Er6  1  0.749992  0.793579  0.793770  1
  Er  Er7  1  0.750000  0.999925  0.206365  1
  Er  Er8  1  0.249995  0.793701  0.000081  1
  Er  Er9  1  0.250028  0.206415  0.206426  1
  Bi  Bi10  1  0.750006  0.599004  0.999981  1
  Bi  Bi11  1  0.750001  0.401044  0.401078  1
  Bi  Bi12  1  0.749998  0.999950  0.598884  1
  Bi  Bi13  1  0.250003  0.401285  0.000180  1
  Bi  Bi14  1  0.249997  0.598701  0.598831  1
  Bi  Bi15  1  0.249998  0.000048  0.400988  1
  C  C16  1  0.500346  0.999993  0.000338  1
  C  C17  1  0.999648  0.999994  0.000342  1
