# generated using pymatgen
data_CsAg(ClO4)2
_symmetry_space_group_name_H-M   'P 1'
_cell_length_a   7.87827047
_cell_length_b   7.87826987
_cell_length_c   7.87826991
_cell_angle_alpha   42.79100179
_cell_angle_beta   42.79100743
_cell_angle_gamma   42.79099569
_symmetry_Int_Tables_number   1
_chemical_formula_structural   CsAg(ClO4)2
_chemical_formula_sum   'Cs1 Ag1 Cl2 O8'
_cell_volume   204.44891384
_cell_formula_units_Z   1
loop_
 _symmetry_equiv_pos_site_id
 _symmetry_equiv_pos_as_xyz
  1  'x, y, z'
loop_
 _atom_site_type_symbol
 _atom_site_label
 _atom_site_symmetry_multiplicity
 _atom_site_fract_x
 _atom_site_fract_y
 _atom_site_fract_z
 _atom_site_occupancy
  Cs  Cs0  1  0.500000  0.500000  0.500000  1
  Ag  Ag1  1  0.000000  0.000000  0.000000  1
  Cl  Cl2  1  0.275372  0.275372  0.275372  1
  Cl  Cl3  1  0.724628  0.724628  0.724628  1
  O  O4  1  0.887453  0.470131  0.887453  1
  O  O5  1  0.657043  0.657043  0.657043  1
  O  O6  1  0.112547  0.529869  0.112548  1
  O  O7  1  0.887453  0.887452  0.470131  1
  O  O8  1  0.112547  0.112547  0.529869  1
  O  O9  1  0.529869  0.112547  0.112548  1
  O  O10  1  0.342957  0.342957  0.342957  1
  O  O11  1  0.470131  0.887452  0.887453  1
