# generated using pymatgen
data_Lu12AlNi4Sn
_symmetry_space_group_name_H-M   'P 1'
_cell_length_a   8.19058261
_cell_length_b   8.19058206
_cell_length_c   8.19058247
_cell_angle_alpha   112.19579774
_cell_angle_beta   110.26281096
_cell_angle_gamma   106.01566876
_symmetry_Int_Tables_number   1
_chemical_formula_structural   Lu12AlNi4Sn
_chemical_formula_sum   'Lu12 Al1 Ni4 Sn1'
_cell_volume   421.70946959
_cell_formula_units_Z   1
loop_
 _symmetry_equiv_pos_site_id
 _symmetry_equiv_pos_as_xyz
  1  'x, y, z'
loop_
 _atom_site_type_symbol
 _atom_site_label
 _atom_site_symmetry_multiplicity
 _atom_site_fract_x
 _atom_site_fract_y
 _atom_site_fract_z
 _atom_site_occupancy
  Lu  Lu0  1  0.675573  0.869337  0.193764  1
  Lu  Lu1  1  0.324427  0.518191  0.193764  1
  Lu  Lu2  1  0.819458  0.787442  0.606900  1
  Lu  Lu3  1  0.180542  0.787442  0.967984  1
  Lu  Lu4  1  0.819458  0.212558  0.032016  1
  Lu  Lu5  1  0.180542  0.212558  0.393100  1
  Lu  Lu6  1  0.675573  0.481809  0.806236  1
  Lu  Lu7  1  0.324427  0.130663  0.806236  1
  Lu  Lu8  1  0.566401  0.268601  0.297799  1
  Lu  Lu9  1  0.433599  0.731399  0.702201  1
  Lu  Lu10  1  0.029198  0.731399  0.297799  1
  Lu  Lu11  1  0.970802  0.268601  0.702201  1
  Al  Al12  1  0.000000  0.500000  0.500000  1
  Ni  Ni13  1  0.347969  0.500000  0.847969  1
  Ni  Ni14  1  0.652031  0.500000  0.152031  1
  Ni  Ni15  1  0.875717  0.875717  0.000000  1
  Ni  Ni16  1  0.124283  0.124283  0.000000  1
  Sn  Sn17  1  0.500000  0.000000  0.500000  1
