# generated using pymatgen
data_Hf8Ta12Si15B
_symmetry_space_group_name_H-M   'P 1'
_cell_length_a   6.62409416
_cell_length_b   6.78762756
_cell_length_c   13.03782700
_cell_angle_alpha   90.00000000
_cell_angle_beta   90.00000000
_cell_angle_gamma   89.57620934
_symmetry_Int_Tables_number   1
_chemical_formula_structural   Hf8Ta12Si15B
_chemical_formula_sum   'Hf8 Ta12 Si15 B1'
_cell_volume   586.18923109
_cell_formula_units_Z   1
loop_
 _symmetry_equiv_pos_site_id
 _symmetry_equiv_pos_as_xyz
  1  'x, y, z'
loop_
 _atom_site_type_symbol
 _atom_site_label
 _atom_site_symmetry_multiplicity
 _atom_site_fract_x
 _atom_site_fract_y
 _atom_site_fract_z
 _atom_site_occupancy
  Hf  Hf0  1  0.496771  0.667138  0.595745  1
  Hf  Hf1  1  0.998188  0.824964  0.903469  1
  Hf  Hf2  1  0.505704  0.327840  0.091938  1
  Hf  Hf3  1  0.004476  0.173034  0.408141  1
  Hf  Hf4  1  0.505704  0.327840  0.408062  1
  Hf  Hf5  1  0.004476  0.173034  0.091859  1
  Hf  Hf6  1  0.496771  0.667138  0.904255  1
  Hf  Hf7  1  0.998188  0.824964  0.596531  1
  Ta  Ta8  1  0.650137  0.184194  0.627638  1
  Ta  Ta9  1  0.170224  0.330590  0.873362  1
  Ta  Ta10  1  0.338910  0.828290  0.122741  1
  Ta  Ta11  1  0.837105  0.671481  0.377234  1
  Ta  Ta12  1  0.338910  0.828290  0.377259  1
  Ta  Ta13  1  0.837105  0.671481  0.122766  1
  Ta  Ta14  1  0.650137  0.184194  0.872362  1
  Ta  Ta15  1  0.170224  0.330590  0.626638  1
  Ta  Ta16  1  0.829139  0.495836  0.750000  1
  Ta  Ta17  1  0.335185  0.005211  0.750000  1
  Ta  Ta18  1  0.163044  0.504016  0.250000  1
  Ta  Ta19  1  0.663586  0.996113  0.250000  1
  Si  Si20  1  0.672341  0.965098  0.465487  1
  Si  Si21  1  0.173388  0.535913  0.037374  1
  Si  Si22  1  0.326543  0.035095  0.960977  1
  Si  Si23  1  0.830686  0.463385  0.539843  1
  Si  Si24  1  0.326543  0.035095  0.539023  1
  Si  Si25  1  0.830686  0.463385  0.960157  1
  Si  Si26  1  0.672341  0.965098  0.034513  1
  Si  Si27  1  0.173388  0.535913  0.462626  1
  Si  Si28  1  0.957423  0.114161  0.750000  1
  Si  Si29  1  0.539905  0.611380  0.250000  1
  Si  Si30  1  0.039635  0.888520  0.250000  1
  Si  Si31  1  0.701582  0.863338  0.750000  1
  Si  Si32  1  0.215396  0.628973  0.750000  1
  Si  Si33  1  0.296518  0.139993  0.250000  1
  Si  Si34  1  0.798337  0.359452  0.250000  1
  B  B35  1  0.451302  0.378966  0.750000  1
