# generated using pymatgen
data_AcHo4(FeB3)2
_symmetry_space_group_name_H-M   'P 1'
_cell_length_a   8.38749353
_cell_length_b   8.38749331
_cell_length_c   8.38749207
_cell_angle_alpha   37.76480921
_cell_angle_beta   37.76480973
_cell_angle_gamma   37.76480319
_symmetry_Int_Tables_number   1
_chemical_formula_structural   AcHo4(FeB3)2
_chemical_formula_sum   'Ac1 Ho4 Fe2 B6'
_cell_volume   198.57056030
_cell_formula_units_Z   1
loop_
 _symmetry_equiv_pos_site_id
 _symmetry_equiv_pos_as_xyz
  1  'x, y, z'
loop_
 _atom_site_type_symbol
 _atom_site_label
 _atom_site_symmetry_multiplicity
 _atom_site_fract_x
 _atom_site_fract_y
 _atom_site_fract_z
 _atom_site_occupancy
  Ac  Ac0  1  0.000000  0.000000  0.000000  1
  Ho  Ho1  1  0.580939  0.580939  0.580939  1
  Ho  Ho2  1  0.419061  0.419061  0.419061  1
  Ho  Ho3  1  0.751876  0.751876  0.751876  1
  Ho  Ho4  1  0.248124  0.248124  0.248124  1
  Fe  Fe5  1  0.883446  0.883446  0.883446  1
  Fe  Fe6  1  0.116554  0.116554  0.116554  1
  B  B7  1  0.500000  0.832242  0.167758  1
  B  B8  1  0.167758  0.500000  0.832242  1
  B  B9  1  0.832242  0.167758  0.500000  1
  B  B10  1  0.500000  0.167758  0.832242  1
  B  B11  1  0.832242  0.500000  0.167758  1
  B  B12  1  0.167758  0.832242  0.500000  1
