# generated using pymatgen
data_Yb(MoCl5)2
_symmetry_space_group_name_H-M   'P 1'
_cell_length_a   9.48079893
_cell_length_b   9.48079843
_cell_length_c   13.09328900
_cell_angle_alpha   86.89051991
_cell_angle_beta   86.89052406
_cell_angle_gamma   139.14994268
_symmetry_Int_Tables_number   1
_chemical_formula_structural   Yb(MoCl5)2
_chemical_formula_sum   'Yb2 Mo4 Cl20'
_cell_volume   760.43114990
_cell_formula_units_Z   2
loop_
 _symmetry_equiv_pos_site_id
 _symmetry_equiv_pos_as_xyz
  1  'x, y, z'
loop_
 _atom_site_type_symbol
 _atom_site_label
 _atom_site_symmetry_multiplicity
 _atom_site_fract_x
 _atom_site_fract_y
 _atom_site_fract_z
 _atom_site_occupancy
  Yb  Yb0  1  0.050268  0.949732  0.750000  1
  Yb  Yb1  1  0.949732  0.050268  0.250000  1
  Mo  Mo2  1  0.431803  0.568197  0.750000  1
  Mo  Mo3  1  0.568197  0.431803  0.250000  1
  Mo  Mo4  1  0.269261  0.730739  0.750000  1
  Mo  Mo5  1  0.730739  0.269261  0.250000  1
  Cl  Cl6  1  0.772433  0.473402  0.371707  1
  Cl  Cl7  1  0.526598  0.227567  0.128293  1
  Cl  Cl8  1  0.227567  0.526598  0.628293  1
  Cl  Cl9  1  0.473402  0.772433  0.871707  1
  Cl  Cl10  1  0.884051  0.768736  0.140460  1
  Cl  Cl11  1  0.231264  0.115949  0.359540  1
  Cl  Cl12  1  0.115949  0.231264  0.859540  1
  Cl  Cl13  1  0.768736  0.884051  0.640460  1
  Cl  Cl14  1  0.058014  0.576959  0.152991  1
  Cl  Cl15  1  0.423041  0.941986  0.347009  1
  Cl  Cl16  1  0.941986  0.423041  0.847009  1
  Cl  Cl17  1  0.576959  0.058014  0.652991  1
  Cl  Cl18  1  0.583362  0.648800  0.354459  1
  Cl  Cl19  1  0.351200  0.416638  0.145541  1
  Cl  Cl20  1  0.416638  0.351200  0.645541  1
  Cl  Cl21  1  0.648800  0.583362  0.854460  1
  Cl  Cl22  1  0.935438  0.273055  0.360816  1
  Cl  Cl23  1  0.726945  0.064562  0.139184  1
  Cl  Cl24  1  0.064562  0.726945  0.639184  1
  Cl  Cl25  1  0.273055  0.935438  0.860816  1
