# generated using pymatgen
data_Tb3Y7(Si3O)2
_symmetry_space_group_name_H-M   'P 1'
_cell_length_a   8.42608932
_cell_length_b   8.43004759
_cell_length_c   6.24896000
_cell_angle_alpha   90.00000000
_cell_angle_beta   90.00000000
_cell_angle_gamma   119.95288902
_symmetry_Int_Tables_number   1
_chemical_formula_structural   Tb3Y7(Si3O)2
_chemical_formula_sum   'Tb3 Y7 Si6 O2'
_cell_volume   384.59216683
_cell_formula_units_Z   1
loop_
 _symmetry_equiv_pos_site_id
 _symmetry_equiv_pos_as_xyz
  1  'x, y, z'
loop_
 _atom_site_type_symbol
 _atom_site_label
 _atom_site_symmetry_multiplicity
 _atom_site_fract_x
 _atom_site_fract_y
 _atom_site_fract_z
 _atom_site_occupancy
  Tb  Tb0  1  0.231783  0.999972  0.750000  1
  Tb  Tb1  1  0.768149  0.999970  0.250000  1
  Tb  Tb2  1  0.000001  0.231837  0.750000  1
  Y  Y3  1  0.000006  0.767855  0.250000  1
  Y  Y4  1  0.767848  0.767814  0.750000  1
  Y  Y5  1  0.232214  0.232175  0.250000  1
  Y  Y6  1  0.333331  0.666670  0.499977  1
  Y  Y7  1  0.666667  0.333426  0.499977  1
  Y  Y8  1  0.666667  0.333426  0.000023  1
  Y  Y9  1  0.333331  0.666670  0.000023  1
  Si  Si10  1  0.601076  0.999834  0.750000  1
  Si  Si11  1  0.398586  0.000000  0.250000  1
  Si  Si12  1  0.999835  0.601020  0.750000  1
  Si  Si13  1  0.000165  0.398997  0.250000  1
  Si  Si14  1  0.399232  0.399227  0.750000  1
  Si  Si15  1  0.601113  0.600944  0.250000  1
  O  O16  1  0.999998  0.000082  0.500003  1
  O  O17  1  0.999998  0.000082  0.999997  1
