# generated using pymatgen
data_Dy8Ho8Cd4Ir3Ru
_symmetry_space_group_name_H-M   'P 1'
_cell_length_a   9.63328503
_cell_length_b   9.63328603
_cell_length_c   9.63416546
_cell_angle_alpha   59.78176384
_cell_angle_beta   59.78175984
_cell_angle_gamma   59.80619974
_symmetry_Int_Tables_number   1
_chemical_formula_structural   Dy8Ho8Cd4Ir3Ru
_chemical_formula_sum   'Dy8 Ho8 Cd4 Ir3 Ru1'
_cell_volume   629.17515025
_cell_formula_units_Z   1
loop_
 _symmetry_equiv_pos_site_id
 _symmetry_equiv_pos_as_xyz
  1  'x, y, z'
loop_
 _atom_site_type_symbol
 _atom_site_label
 _atom_site_symmetry_multiplicity
 _atom_site_fract_x
 _atom_site_fract_y
 _atom_site_fract_z
 _atom_site_occupancy
  Dy  Dy0  1  0.438639  0.438639  0.062068  1
  Dy  Dy1  1  0.060426  0.060426  0.438273  1
  Dy  Dy2  1  0.188614  0.811745  0.811749  1
  Dy  Dy3  1  0.810067  0.188390  0.188391  1
  Dy  Dy4  1  0.811745  0.188614  0.811749  1
  Dy  Dy5  1  0.188390  0.810067  0.188391  1
  Dy  Dy6  1  0.811737  0.811737  0.188609  1
  Dy  Dy7  1  0.188443  0.188443  0.810030  1
  Ho  Ho8  1  0.598706  0.598706  0.598480  1
  Ho  Ho9  1  0.598473  0.598473  0.205782  1
  Ho  Ho10  1  0.598182  0.205765  0.598474  1
  Ho  Ho11  1  0.205765  0.598182  0.598474  1
  Ho  Ho12  1  0.061831  0.438721  0.438761  1
  Ho  Ho13  1  0.438335  0.060386  0.060371  1
  Ho  Ho14  1  0.438721  0.061831  0.438761  1
  Ho  Ho15  1  0.060386  0.438335  0.060371  1
  Cd  Cd16  1  0.830091  0.830091  0.830205  1
  Cd  Cd17  1  0.830650  0.830650  0.506982  1
  Cd  Cd18  1  0.830761  0.506991  0.830641  1
  Cd  Cd19  1  0.506991  0.830761  0.830641  1
  Ir  Ir20  1  0.392895  0.392895  0.825809  1
  Ir  Ir21  1  0.393374  0.825743  0.392925  1
  Ir  Ir22  1  0.825743  0.393374  0.392925  1
  Ru  Ru23  1  0.391035  0.391035  0.391138  1
