# generated using pymatgen
data_Li(IrSe4)2
_symmetry_space_group_name_H-M   'P 1'
_cell_length_a   6.07957662
_cell_length_b   6.19374118
_cell_length_c   6.08337023
_cell_angle_alpha   90.23308382
_cell_angle_beta   90.29698013
_cell_angle_gamma   92.18437908
_symmetry_Int_Tables_number   1
_chemical_formula_structural   Li(IrSe4)2
_chemical_formula_sum   'Li1 Ir2 Se8'
_cell_volume   228.89966125
_cell_formula_units_Z   1
loop_
 _symmetry_equiv_pos_site_id
 _symmetry_equiv_pos_as_xyz
  1  'x, y, z'
loop_
 _atom_site_type_symbol
 _atom_site_label
 _atom_site_symmetry_multiplicity
 _atom_site_fract_x
 _atom_site_fract_y
 _atom_site_fract_z
 _atom_site_occupancy
  Li  Li0  1  0.500000  0.000000  0.500000  1
  Ir  Ir1  1  0.000000  0.500000  0.500000  1
  Ir  Ir2  1  0.500000  0.500000  0.000000  1
  Se  Se3  1  0.615227  0.883218  0.102557  1
  Se  Se4  1  0.908664  0.119646  0.621060  1
  Se  Se5  1  0.123808  0.613536  0.882623  1
  Se  Se6  1  0.626005  0.606566  0.622911  1
  Se  Se7  1  0.373995  0.393434  0.377089  1
  Se  Se8  1  0.876192  0.386464  0.117377  1
  Se  Se9  1  0.091336  0.880354  0.378940  1
  Se  Se10  1  0.384773  0.116782  0.897443  1
