# generated using pymatgen
data_Sm2Cl5
_symmetry_space_group_name_H-M   'P 1'
_cell_length_a   3.95500800
_cell_length_b   7.55340050
_cell_length_c   12.70653074
_cell_angle_alpha   90.61372567
_cell_angle_beta   90.00000000
_cell_angle_gamma   90.00000000
_symmetry_Int_Tables_number   1
_chemical_formula_structural   Sm2Cl5
_chemical_formula_sum   'Sm4 Cl10'
_cell_volume   379.57006565
_cell_formula_units_Z   2
loop_
 _symmetry_equiv_pos_site_id
 _symmetry_equiv_pos_as_xyz
  1  'x, y, z'
loop_
 _atom_site_type_symbol
 _atom_site_label
 _atom_site_symmetry_multiplicity
 _atom_site_fract_x
 _atom_site_fract_y
 _atom_site_fract_z
 _atom_site_occupancy
  Sm  Sm0  1  0.250000  0.575077  0.658539  1
  Sm  Sm1  1  0.750000  0.424923  0.341461  1
  Sm  Sm2  1  0.250000  0.077826  0.159246  1
  Sm  Sm3  1  0.750000  0.922174  0.840754  1
  Cl  Cl4  1  0.250000  0.318056  0.484883  1
  Cl  Cl5  1  0.750000  0.681944  0.515117  1
  Cl  Cl6  1  0.250000  0.949376  0.683271  1
  Cl  Cl7  1  0.750000  0.050624  0.316729  1
  Cl  Cl8  1  0.250000  0.662177  0.876198  1
  Cl  Cl9  1  0.750000  0.337823  0.123802  1
  Cl  Cl10  1  0.250000  0.139864  0.930425  1
  Cl  Cl11  1  0.750000  0.860136  0.069575  1
  Cl  Cl12  1  0.250000  0.654679  0.275151  1
  Cl  Cl13  1  0.750000  0.345321  0.724849  1
