# generated using pymatgen
data_Nd8Lu12Si15Ir
_symmetry_space_group_name_H-M   'P 1'
_cell_length_a   7.33498000
_cell_length_b   7.72636444
_cell_length_c   14.43550200
_cell_angle_alpha   90.00000000
_cell_angle_beta   90.00000000
_cell_angle_gamma   90.07399307
_symmetry_Int_Tables_number   1
_chemical_formula_structural   Nd8Lu12Si15Ir
_chemical_formula_sum   'Nd8 Lu12 Si15 Ir1'
_cell_volume   818.09860574
_cell_formula_units_Z   1
loop_
 _symmetry_equiv_pos_site_id
 _symmetry_equiv_pos_as_xyz
  1  'x, y, z'
loop_
 _atom_site_type_symbol
 _atom_site_label
 _atom_site_symmetry_multiplicity
 _atom_site_fract_x
 _atom_site_fract_y
 _atom_site_fract_z
 _atom_site_occupancy
  Nd  Nd0  1  0.016910  0.180834  0.097398  1
  Nd  Nd1  1  0.986439  0.824978  0.904082  1
  Nd  Nd2  1  0.484268  0.675391  0.904368  1
  Nd  Nd3  1  0.986439  0.824978  0.595918  1
  Nd  Nd4  1  0.515777  0.324167  0.096235  1
  Nd  Nd5  1  0.016910  0.180834  0.402602  1
  Nd  Nd6  1  0.515777  0.324167  0.403765  1
  Nd  Nd7  1  0.484268  0.675391  0.595632  1
  Lu  Lu8  1  0.151536  0.503055  0.750000  1
  Lu  Lu9  1  0.842579  0.491772  0.250000  1
  Lu  Lu10  1  0.343521  0.010659  0.250000  1
  Lu  Lu11  1  0.664504  0.993361  0.750000  1
  Lu  Lu12  1  0.313179  0.171946  0.626475  1
  Lu  Lu13  1  0.677772  0.826563  0.374297  1
  Lu  Lu14  1  0.177426  0.678404  0.374944  1
  Lu  Lu15  1  0.677772  0.826563  0.125703  1
  Lu  Lu16  1  0.830569  0.316468  0.625939  1
  Lu  Lu17  1  0.313179  0.171946  0.873525  1
  Lu  Lu18  1  0.830569  0.316468  0.874061  1
  Lu  Lu19  1  0.177426  0.678404  0.125056  1
  Si  Si20  1  0.974595  0.885603  0.250000  1
  Si  Si21  1  0.473335  0.615089  0.250000  1
  Si  Si22  1  0.525782  0.389188  0.750000  1
  Si  Si23  1  0.278952  0.870341  0.750000  1
  Si  Si24  1  0.718790  0.127322  0.250000  1
  Si  Si25  1  0.220015  0.375824  0.250000  1
  Si  Si26  1  0.771609  0.619720  0.750000  1
  Si  Si27  1  0.153407  0.470930  0.537671  1
  Si  Si28  1  0.849919  0.535095  0.461520  1
  Si  Si29  1  0.350838  0.967127  0.460408  1
  Si  Si30  1  0.849919  0.535095  0.038480  1
  Si  Si31  1  0.648385  0.032495  0.538025  1
  Si  Si32  1  0.153407  0.470930  0.962329  1
  Si  Si33  1  0.648385  0.032495  0.961975  1
  Si  Si34  1  0.350838  0.967127  0.039592  1
  Ir  Ir35  1  0.025002  0.109269  0.750000  1
