# generated using pymatgen
data_YbHo9(RuPb3)2
_symmetry_space_group_name_H-M   'P 1'
_cell_length_a   9.29366100
_cell_length_b   9.29366080
_cell_length_c   6.55594700
_cell_angle_alpha   90.00000000
_cell_angle_beta   90.00000000
_cell_angle_gamma   120.00000427
_symmetry_Int_Tables_number   1
_chemical_formula_structural   YbHo9(RuPb3)2
_chemical_formula_sum   'Yb1 Ho9 Ru2 Pb6'
_cell_volume   490.38783866
_cell_formula_units_Z   1
loop_
 _symmetry_equiv_pos_site_id
 _symmetry_equiv_pos_as_xyz
  1  'x, y, z'
loop_
 _atom_site_type_symbol
 _atom_site_label
 _atom_site_symmetry_multiplicity
 _atom_site_fract_x
 _atom_site_fract_y
 _atom_site_fract_z
 _atom_site_occupancy
  Yb  Yb0  1  0.333333  0.666667  0.500000  1
  Ho  Ho1  1  0.000011  0.763691  0.750898  1
  Ho  Ho2  1  0.763680  0.763691  0.249102  1
  Ho  Ho3  1  0.763680  0.999989  0.750898  1
  Ho  Ho4  1  0.236309  0.999989  0.249102  1
  Ho  Ho5  1  0.666667  0.333333  0.500000  1
  Ho  Ho6  1  0.236309  0.236320  0.750898  1
  Ho  Ho7  1  0.333333  0.666667  0.000000  1
  Ho  Ho8  1  0.000011  0.236320  0.249102  1
  Ho  Ho9  1  0.666667  0.333333  0.000000  1
  Ru  Ru10  1  0.000000  0.000000  0.000000  1
  Ru  Ru11  1  0.000000  0.000000  0.500000  1
  Pb  Pb12  1  0.402717  0.401944  0.247921  1
  Pb  Pb13  1  0.598056  0.597283  0.752079  1
  Pb  Pb14  1  0.598056  0.000773  0.247921  1
  Pb  Pb15  1  0.402717  0.000773  0.752079  1
  Pb  Pb16  1  0.999227  0.597283  0.247921  1
  Pb  Pb17  1  0.999227  0.401944  0.752079  1
