# generated using pymatgen
data_Lu2Pa2(Al8Pt3)3
_symmetry_space_group_name_H-M   'P 1'
_cell_length_a   7.55272854
_cell_length_b   7.56442016
_cell_length_c   13.08677768
_cell_angle_alpha   84.51055730
_cell_angle_beta   78.92108598
_cell_angle_gamma   59.92856681
_symmetry_Int_Tables_number   1
_chemical_formula_structural   Lu2Pa2(Al8Pt3)3
_chemical_formula_sum   'Lu2 Pa2 Al24 Pt9'
_cell_volume   634.97931431
_cell_formula_units_Z   1
loop_
 _symmetry_equiv_pos_site_id
 _symmetry_equiv_pos_as_xyz
  1  'x, y, z'
loop_
 _atom_site_type_symbol
 _atom_site_label
 _atom_site_symmetry_multiplicity
 _atom_site_fract_x
 _atom_site_fract_y
 _atom_site_fract_z
 _atom_site_occupancy
  Lu  Lu0  1  0.734486  0.498354  0.806987  1
  Lu  Lu1  1  0.265514  0.501646  0.193013  1
  Pa  Pa2  1  0.394607  0.168636  0.805977  1
  Pa  Pa3  1  0.605393  0.831364  0.194023  1
  Al  Al4  1  0.684688  0.832700  0.943766  1
  Al  Al5  1  0.315312  0.167300  0.056234  1
  Al  Al6  1  0.145727  0.832631  0.561458  1
  Al  Al7  1  0.854273  0.167369  0.438542  1
  Al  Al8  1  0.479850  0.167198  0.558368  1
  Al  Al9  1  0.520150  0.832802  0.441632  1
  Al  Al10  1  0.215720  0.167680  0.329193  1
  Al  Al11  1  0.784280  0.832320  0.670807  1
  Al  Al12  1  0.437495  0.508489  0.671399  1
  Al  Al13  1  0.562505  0.491511  0.328601  1
  Al  Al14  1  0.107120  0.160284  0.669745  1
  Al  Al15  1  0.892880  0.839716  0.330255  1
  Al  Al16  1  0.354119  0.499763  0.943544  1
  Al  Al17  1  0.645881  0.500237  0.056456  1
  Al  Al18  1  0.015237  0.168454  0.951322  1
  Al  Al19  1  0.984763  0.831546  0.048678  1
  Al  Al20  1  0.186033  0.500154  0.441167  1
  Al  Al21  1  0.813967  0.499846  0.558833  1
  Al  Al22  1  0.734611  0.163639  0.182733  1
  Al  Al23  1  0.265389  0.836361  0.817267  1
  Al  Al24  1  0.062116  0.631106  0.816062  1
  Al  Al25  1  0.937884  0.368894  0.183938  1
  Al  Al26  1  0.855101  0.041545  0.816735  1
  Al  Al27  1  0.144899  0.958455  0.183265  1
  Pt  Pt28  1  0.118721  0.491444  0.640220  1
  Pt  Pt29  1  0.881279  0.508556  0.359780  1
  Pt  Pt30  1  0.656792  0.172657  0.999757  1
  Pt  Pt31  1  0.343208  0.827343  0.000243  1
  Pt  Pt32  1  0.536938  0.167264  0.360290  1
  Pt  Pt33  1  0.463062  0.832736  0.639710  1
  Pt  Pt34  1  0.778147  0.175791  0.638565  1
  Pt  Pt35  1  0.221853  0.824209  0.361435  1
  Pt  Pt36  1  0.000000  0.500000  0.000000  1
