# generated using pymatgen
data_La2Tm3Ru2
_symmetry_space_group_name_H-M   'P 1'
_cell_length_a   6.46863575
_cell_length_b   7.21296777
_cell_length_c   8.69247727
_cell_angle_alpha   96.41396083
_cell_angle_beta   111.84410429
_cell_angle_gamma   90.00000211
_symmetry_Int_Tables_number   1
_chemical_formula_structural   La2Tm3Ru2
_chemical_formula_sum   'La4 Tm6 Ru4'
_cell_volume   373.71742947
_cell_formula_units_Z   2
loop_
 _symmetry_equiv_pos_site_id
 _symmetry_equiv_pos_as_xyz
  1  'x, y, z'
loop_
 _atom_site_type_symbol
 _atom_site_label
 _atom_site_symmetry_multiplicity
 _atom_site_fract_x
 _atom_site_fract_y
 _atom_site_fract_z
 _atom_site_occupancy
  La  La0  1  0.782172  0.088110  0.804277  1
  La  La1  1  0.977896  0.411890  0.195723  1
  La  La2  1  0.217828  0.911890  0.195723  1
  La  La3  1  0.022104  0.588110  0.804277  1
  Tm  Tm4  1  0.204333  0.184327  0.569522  1
  Tm  Tm5  1  0.634811  0.315673  0.430478  1
  Tm  Tm6  1  0.795667  0.815673  0.430478  1
  Tm  Tm7  1  0.365189  0.684327  0.569522  1
  Tm  Tm8  1  0.425603  0.250000  0.000000  1
  Tm  Tm9  1  0.574397  0.750000  0.000000  1
  Ru  Ru10  1  0.597934  0.418758  0.774749  1
  Ru  Ru11  1  0.823184  0.081242  0.225251  1
  Ru  Ru12  1  0.402066  0.581242  0.225251  1
  Ru  Ru13  1  0.176816  0.918758  0.774749  1
