# generated using pymatgen
data_Lu4GaPt11
_symmetry_space_group_name_H-M   'P 1'
_cell_length_a   4.11299800
_cell_length_b   5.77165402
_cell_length_c   11.49696500
_cell_angle_alpha   87.94187330
_cell_angle_beta   90.00000000
_cell_angle_gamma   90.00000000
_symmetry_Int_Tables_number   1
_chemical_formula_structural   Lu4GaPt11
_chemical_formula_sum   'Lu4 Ga1 Pt11'
_cell_volume   272.74810779
_cell_formula_units_Z   1
loop_
 _symmetry_equiv_pos_site_id
 _symmetry_equiv_pos_as_xyz
  1  'x, y, z'
loop_
 _atom_site_type_symbol
 _atom_site_label
 _atom_site_symmetry_multiplicity
 _atom_site_fract_x
 _atom_site_fract_y
 _atom_site_fract_z
 _atom_site_occupancy
  Lu  Lu0  1  0.500000  0.759407  0.375032  1
  Lu  Lu1  1  0.500000  0.717936  0.865186  1
  Lu  Lu2  1  0.500000  0.282064  0.134814  1
  Lu  Lu3  1  0.500000  0.240593  0.624968  1
  Ga  Ga4  1  0.000000  0.000000  0.000000  1
  Pt  Pt5  1  0.000000  0.018498  0.245336  1
  Pt  Pt6  1  0.000000  0.981502  0.754664  1
  Pt  Pt7  1  0.000000  0.500000  0.000000  1
  Pt  Pt8  1  0.000000  0.500000  0.500000  1
  Pt  Pt9  1  0.000000  0.521960  0.248939  1
  Pt  Pt10  1  0.000000  0.478040  0.751061  1
  Pt  Pt11  1  0.500000  0.258399  0.376986  1
  Pt  Pt12  1  0.500000  0.217578  0.885726  1
  Pt  Pt13  1  0.500000  0.782422  0.114274  1
  Pt  Pt14  1  0.500000  0.741601  0.623014  1
  Pt  Pt15  1  0.000000  0.000000  0.500000  1
