# generated using pymatgen
data_Nd8Si15Rh
_symmetry_space_group_name_H-M   'P 1'
_cell_length_a   8.22099600
_cell_length_b   8.22099654
_cell_length_c   8.44670200
_cell_angle_alpha   90.00000000
_cell_angle_beta   90.00000000
_cell_angle_gamma   119.99999784
_symmetry_Int_Tables_number   1
_chemical_formula_structural   Nd8Si15Rh
_chemical_formula_sum   'Nd8 Si15 Rh1'
_cell_volume   494.38662825
_cell_formula_units_Z   1
loop_
 _symmetry_equiv_pos_site_id
 _symmetry_equiv_pos_as_xyz
  1  'x, y, z'
loop_
 _atom_site_type_symbol
 _atom_site_label
 _atom_site_symmetry_multiplicity
 _atom_site_fract_x
 _atom_site_fract_y
 _atom_site_fract_z
 _atom_site_occupancy
  Nd  Nd0  1  0.000000  0.000000  0.748813  1
  Nd  Nd1  1  0.000000  0.000000  0.251332  1
  Nd  Nd2  1  0.500138  0.499862  0.745033  1
  Nd  Nd3  1  0.500138  0.000279  0.745033  1
  Nd  Nd4  1  0.999721  0.499862  0.745033  1
  Nd  Nd5  1  0.500465  0.499535  0.254853  1
  Nd  Nd6  1  0.999072  0.499535  0.254853  1
  Nd  Nd7  1  0.500465  0.000928  0.254853  1
  Si  Si8  1  0.666667  0.333333  0.999545  1
  Si  Si9  1  0.666667  0.333333  0.500593  1
  Si  Si10  1  0.333333  0.666667  0.499414  1
  Si  Si11  1  0.837417  0.162583  0.999931  1
  Si  Si12  1  0.837417  0.674835  0.999931  1
  Si  Si13  1  0.325165  0.162583  0.999931  1
  Si  Si14  1  0.832312  0.167688  0.500007  1
  Si  Si15  1  0.832312  0.664624  0.500007  1
  Si  Si16  1  0.335376  0.167688  0.500007  1
  Si  Si17  1  0.165896  0.834104  0.499969  1
  Si  Si18  1  0.668208  0.834104  0.499969  1
  Si  Si19  1  0.165896  0.331792  0.499969  1
  Si  Si20  1  0.171037  0.828963  0.000177  1
  Si  Si21  1  0.657927  0.828963  0.000177  1
  Si  Si22  1  0.171037  0.342073  0.000177  1
  Rh  Rh23  1  0.333333  0.666667  0.000388  1
