# generated using pymatgen
data_In7IrCl12
_symmetry_space_group_name_H-M   'P 1'
_cell_length_a   8.85537391
_cell_length_b   8.85537328
_cell_length_c   8.85537383
_cell_angle_alpha   105.30753903
_cell_angle_beta   105.30754002
_cell_angle_gamma   105.30754692
_symmetry_Int_Tables_number   1
_chemical_formula_structural   In7IrCl12
_chemical_formula_sum   'In7 Ir1 Cl12'
_cell_volume   603.02975347
_cell_formula_units_Z   1
loop_
 _symmetry_equiv_pos_site_id
 _symmetry_equiv_pos_as_xyz
  1  'x, y, z'
loop_
 _atom_site_type_symbol
 _atom_site_label
 _atom_site_symmetry_multiplicity
 _atom_site_fract_x
 _atom_site_fract_y
 _atom_site_fract_z
 _atom_site_occupancy
  In  In0  1  0.058054  0.064251  0.321031  1
  In  In1  1  0.321031  0.058054  0.064251  1
  In  In2  1  0.064251  0.321031  0.058054  1
  In  In3  1  0.941946  0.935749  0.678969  1
  In  In4  1  0.678969  0.941946  0.935749  1
  In  In5  1  0.935749  0.678969  0.941946  1
  In  In6  1  0.500000  0.500000  0.500000  1
  Ir  Ir7  1  0.000000  0.000000  0.000000  1
  Cl  Cl8  1  0.985919  0.566392  0.191660  1
  Cl  Cl9  1  0.191660  0.985919  0.566392  1
  Cl  Cl10  1  0.566392  0.191660  0.985919  1
  Cl  Cl11  1  0.014081  0.433608  0.808340  1
  Cl  Cl12  1  0.808340  0.014081  0.433608  1
  Cl  Cl13  1  0.433608  0.808340  0.014081  1
  Cl  Cl14  1  0.493621  0.198476  0.392132  1
  Cl  Cl15  1  0.392132  0.493621  0.198476  1
  Cl  Cl16  1  0.198476  0.392132  0.493621  1
  Cl  Cl17  1  0.506379  0.801524  0.607868  1
  Cl  Cl18  1  0.607868  0.506379  0.801524  1
  Cl  Cl19  1  0.801524  0.607868  0.506379  1
