# generated using pymatgen
data_Th2Zn2OsAu
_symmetry_space_group_name_H-M   'P 1'
_cell_length_a   4.45314400
_cell_length_b   7.07945603
_cell_length_c   8.14034305
_cell_angle_alpha   89.98848641
_cell_angle_beta   90.00002694
_cell_angle_gamma   89.99994190
_symmetry_Int_Tables_number   1
_chemical_formula_structural   Th2Zn2OsAu
_chemical_formula_sum   'Th4 Zn4 Os2 Au2'
_cell_volume   256.63112404
_cell_formula_units_Z   2
loop_
 _symmetry_equiv_pos_site_id
 _symmetry_equiv_pos_as_xyz
  1  'x, y, z'
loop_
 _atom_site_type_symbol
 _atom_site_label
 _atom_site_symmetry_multiplicity
 _atom_site_fract_x
 _atom_site_fract_y
 _atom_site_fract_z
 _atom_site_occupancy
  Th  Th0  1  0.249999  0.037247  0.321292  1
  Th  Th1  1  0.250000  0.537326  0.178615  1
  Th  Th2  1  0.749999  0.983645  0.708955  1
  Th  Th3  1  0.750001  0.483663  0.791149  1
  Zn  Zn4  1  0.250000  0.653421  0.569628  1
  Zn  Zn5  1  0.250000  0.153382  0.930407  1
  Zn  Zn6  1  0.750000  0.337718  0.431990  1
  Zn  Zn7  1  0.750001  0.837676  0.068023  1
  Os  Os8  1  0.249998  0.255563  0.608936  1
  Os  Os9  1  0.250003  0.755578  0.891000  1
  Au  Au10  1  0.750000  0.732386  0.396273  1
  Au  Au11  1  0.750000  0.232392  0.103735  1
