# generated using pymatgen
data_Y11ThTc4
_symmetry_space_group_name_H-M   'P 1'
_cell_length_a   6.32132270
_cell_length_b   7.46672832
_cell_length_c   9.30190000
_cell_angle_alpha   90.00000000
_cell_angle_beta   90.00000000
_cell_angle_gamma   89.30117140
_symmetry_Int_Tables_number   1
_chemical_formula_structural   Y11ThTc4
_chemical_formula_sum   'Y11 Th1 Tc4'
_cell_volume   439.01329546
_cell_formula_units_Z   1
loop_
 _symmetry_equiv_pos_site_id
 _symmetry_equiv_pos_as_xyz
  1  'x, y, z'
loop_
 _atom_site_type_symbol
 _atom_site_label
 _atom_site_symmetry_multiplicity
 _atom_site_fract_x
 _atom_site_fract_y
 _atom_site_fract_z
 _atom_site_occupancy
  Y  Y0  1  0.371214  0.958394  0.750000  1
  Y  Y1  1  0.130017  0.456923  0.750000  1
  Y  Y2  1  0.872841  0.543068  0.250000  1
  Y  Y3  1  0.162667  0.174681  0.062291  1
  Y  Y4  1  0.836120  0.824250  0.934096  1
  Y  Y5  1  0.663509  0.326308  0.933472  1
  Y  Y6  1  0.836120  0.824250  0.565904  1
  Y  Y7  1  0.337252  0.676374  0.062350  1
  Y  Y8  1  0.162667  0.174681  0.437709  1
  Y  Y9  1  0.337252  0.676374  0.437650  1
  Y  Y10  1  0.663509  0.326308  0.566528  1
  Th  Th11  1  0.640159  0.052023  0.250000  1
  Tc  Tc12  1  0.475611  0.368089  0.250000  1
  Tc  Tc13  1  0.537280  0.616542  0.750000  1
  Tc  Tc14  1  0.962248  0.115270  0.750000  1
  Tc  Tc15  1  0.011532  0.886468  0.250000  1
