# generated using pymatgen
data_TbZr3Co8(PRu)12
_symmetry_space_group_name_H-M   'P 1'
_cell_length_a   3.76897000
_cell_length_b   10.54757012
_cell_length_c   11.99600899
_cell_angle_alpha   89.87644479
_cell_angle_beta   90.00000000
_cell_angle_gamma   90.00000000
_symmetry_Int_Tables_number   1
_chemical_formula_structural   TbZr3Co8(PRu)12
_chemical_formula_sum   'Tb1 Zr3 Co8 P12 Ru12'
_cell_volume   476.88193876
_cell_formula_units_Z   1
loop_
 _symmetry_equiv_pos_site_id
 _symmetry_equiv_pos_as_xyz
  1  'x, y, z'
loop_
 _atom_site_type_symbol
 _atom_site_label
 _atom_site_symmetry_multiplicity
 _atom_site_fract_x
 _atom_site_fract_y
 _atom_site_fract_z
 _atom_site_occupancy
  Tb  Tb0  1  0.750000  0.084368  0.792943  1
  Zr  Zr1  1  0.250000  0.584252  0.705232  1
  Zr  Zr2  1  0.250000  0.915220  0.206118  1
  Zr  Zr3  1  0.750000  0.416035  0.294060  1
  Co  Co4  1  0.250000  0.884718  0.696133  1
  Co  Co5  1  0.250000  0.610896  0.199466  1
  Co  Co6  1  0.750000  0.110346  0.299594  1
  Co  Co7  1  0.750000  0.391303  0.801843  1
  Co  Co8  1  0.250000  0.463936  0.932605  1
  Co  Co9  1  0.250000  0.036645  0.429803  1
  Co  Co10  1  0.750000  0.537405  0.068956  1
  Co  Co11  1  0.750000  0.961404  0.564488  1
  P  P12  1  0.250000  0.427795  0.113769  1
  P  P13  1  0.250000  0.073434  0.610329  1
  P  P14  1  0.750000  0.573123  0.887276  1
  P  P15  1  0.750000  0.926817  0.384938  1
  P  P16  1  0.250000  0.270928  0.872702  1
  P  P17  1  0.250000  0.230741  0.371358  1
  P  P18  1  0.750000  0.729616  0.129936  1
  P  P19  1  0.750000  0.769894  0.629412  1
  P  P20  1  0.250000  0.599053  0.384817  1
  P  P21  1  0.250000  0.899235  0.886401  1
  P  P22  1  0.750000  0.400513  0.615479  1
  P  P23  1  0.750000  0.098858  0.113885  1
  Ru  Ru24  1  0.250000  0.709309  0.990149  1
  Ru  Ru25  1  0.250000  0.788831  0.487728  1
  Ru  Ru26  1  0.750000  0.291733  0.012421  1
  Ru  Ru27  1  0.750000  0.210678  0.509889  1
  Ru  Ru28  1  0.250000  0.407499  0.481564  1
  Ru  Ru29  1  0.250000  0.092743  0.989163  1
  Ru  Ru30  1  0.750000  0.593130  0.517678  1
  Ru  Ru31  1  0.750000  0.904322  0.018649  1
  Ru  Ru32  1  0.250000  0.228677  0.182571  1
  Ru  Ru33  1  0.250000  0.278135  0.679703  1
  Ru  Ru34  1  0.750000  0.772298  0.819750  1
  Ru  Ru35  1  0.750000  0.726109  0.319191  1
