# generated using pymatgen
data_PrNd15(CoHg)4
_symmetry_space_group_name_H-M   'P 1'
_cell_length_a   9.81373323
_cell_length_b   9.81373287
_cell_length_c   9.81290600
_cell_angle_alpha   60.00278715
_cell_angle_beta   60.00278835
_cell_angle_gamma   60.01377590
_symmetry_Int_Tables_number   1
_chemical_formula_structural   PrNd15(CoHg)4
_chemical_formula_sum   'Pr1 Nd15 Co4 Hg4'
_cell_volume   668.36641441
_cell_formula_units_Z   1
loop_
 _symmetry_equiv_pos_site_id
 _symmetry_equiv_pos_as_xyz
  1  'x, y, z'
loop_
 _atom_site_type_symbol
 _atom_site_label
 _atom_site_symmetry_multiplicity
 _atom_site_fract_x
 _atom_site_fract_y
 _atom_site_fract_z
 _atom_site_occupancy
  Pr  Pr0  1  0.939342  0.939342  0.560658  1
  Nd  Nd1  1  0.560444  0.939280  0.560736  1
  Nd  Nd2  1  0.560444  0.939280  0.939540  1
  Nd  Nd3  1  0.689708  0.689708  0.310292  1
  Nd  Nd4  1  0.152731  0.152731  0.542125  1
  Nd  Nd5  1  0.310645  0.689538  0.689799  1
  Nd  Nd6  1  0.152731  0.152731  0.152411  1
  Nd  Nd7  1  0.542423  0.152633  0.152471  1
  Nd  Nd8  1  0.310645  0.689538  0.310017  1
  Nd  Nd9  1  0.310136  0.310136  0.689864  1
  Nd  Nd10  1  0.689538  0.310645  0.689799  1
  Nd  Nd11  1  0.939280  0.560444  0.560736  1
  Nd  Nd12  1  0.560503  0.560503  0.939497  1
  Nd  Nd13  1  0.152633  0.542423  0.152471  1
  Nd  Nd14  1  0.689538  0.310645  0.310017  1
  Nd  Nd15  1  0.939280  0.560444  0.939540  1
  Co  Co16  1  0.922261  0.359140  0.359300  1
  Co  Co17  1  0.359228  0.359228  0.922260  1
  Co  Co18  1  0.359140  0.922261  0.359300  1
  Co  Co19  1  0.359228  0.359228  0.359284  1
  Hg  Hg20  1  0.249500  0.916876  0.916812  1
  Hg  Hg21  1  0.916872  0.916872  0.917098  1
  Hg  Hg22  1  0.916872  0.916872  0.249157  1
  Hg  Hg23  1  0.916876  0.249500  0.916812  1
