# generated using pymatgen
data_Tb3YSb5Rh7Au
_symmetry_space_group_name_H-M   'P 1'
_cell_length_a   7.59263017
_cell_length_b   7.59549226
_cell_length_c   7.59549073
_cell_angle_alpha   107.94584574
_cell_angle_beta   110.22789136
_cell_angle_gamma   110.22789241
_symmetry_Int_Tables_number   1
_chemical_formula_structural   Tb3YSb5Rh7Au
_chemical_formula_sum   'Tb3 Y1 Sb5 Rh7 Au1'
_cell_volume   337.11291283
_cell_formula_units_Z   1
loop_
 _symmetry_equiv_pos_site_id
 _symmetry_equiv_pos_as_xyz
  1  'x, y, z'
loop_
 _atom_site_type_symbol
 _atom_site_label
 _atom_site_symmetry_multiplicity
 _atom_site_fract_x
 _atom_site_fract_y
 _atom_site_fract_z
 _atom_site_occupancy
  Tb  Tb0  1  0.999952  0.499089  0.017200  1
  Tb  Tb1  1  0.999952  0.017200  0.499089  1
  Tb  Tb2  1  0.481921  0.499098  0.499098  1
  Y  Y3  1  0.517854  0.016914  0.016914  1
  Sb  Sb4  1  0.685214  0.001738  0.687190  1
  Sb  Sb5  1  0.685214  0.687190  0.001738  1
  Sb  Sb6  1  0.000125  0.671656  0.671656  1
  Sb  Sb7  1  0.314846  0.001687  0.316242  1
  Sb  Sb8  1  0.314846  0.316242  0.001687  1
  Rh  Rh9  1  0.000078  0.971006  0.971006  1
  Rh  Rh10  1  0.499925  0.752782  0.252675  1
  Rh  Rh11  1  0.748830  0.504059  0.252890  1
  Rh  Rh12  1  0.251226  0.755220  0.504171  1
  Rh  Rh13  1  0.251226  0.504171  0.755220  1
  Rh  Rh14  1  0.499925  0.252675  0.752782  1
  Rh  Rh15  1  0.748830  0.252890  0.504059  1
  Au  Au16  1  0.000037  0.296385  0.296385  1
