# generated using pymatgen
data_Eu4In4AgPd3
_symmetry_space_group_name_H-M   'P 1'
_cell_length_a   4.51245600
_cell_length_b   7.56288319
_cell_length_c   8.68230403
_cell_angle_alpha   89.79411948
_cell_angle_beta   90.00000000
_cell_angle_gamma   90.00000000
_symmetry_Int_Tables_number   1
_chemical_formula_structural   Eu4In4AgPd3
_chemical_formula_sum   'Eu4 In4 Ag1 Pd3'
_cell_volume   296.30061902
_cell_formula_units_Z   1
loop_
 _symmetry_equiv_pos_site_id
 _symmetry_equiv_pos_as_xyz
  1  'x, y, z'
loop_
 _atom_site_type_symbol
 _atom_site_label
 _atom_site_symmetry_multiplicity
 _atom_site_fract_x
 _atom_site_fract_y
 _atom_site_fract_z
 _atom_site_occupancy
  Eu  Eu0  1  0.250000  0.542819  0.181802  1
  Eu  Eu1  1  0.750000  0.470231  0.814255  1
  Eu  Eu2  1  0.250000  0.028761  0.327368  1
  Eu  Eu3  1  0.750000  0.964740  0.679527  1
  In  In4  1  0.250000  0.141181  0.932775  1
  In  In5  1  0.750000  0.357312  0.441037  1
  In  In6  1  0.250000  0.645835  0.562980  1
  In  In7  1  0.750000  0.847771  0.061457  1
  Ag  Ag8  1  0.750000  0.232360  0.126377  1
  Pd  Pd9  1  0.250000  0.268179  0.624346  1
  Pd  Pd10  1  0.750000  0.733036  0.374547  1
  Pd  Pd11  1  0.250000  0.767773  0.873529  1
