# generated using pymatgen
data_Ce3TiAl11Tc4
_symmetry_space_group_name_H-M   'P 1'
_cell_length_a   8.95770700
_cell_length_b   8.95770604
_cell_length_c   9.69207100
_cell_angle_alpha   90.00000000
_cell_angle_beta   90.00000000
_cell_angle_gamma   119.99999986
_symmetry_Int_Tables_number   1
_chemical_formula_structural   Ce3TiAl11Tc4
_chemical_formula_sum   'Ce6 Ti2 Al22 Tc8'
_cell_volume   673.50508405
_cell_formula_units_Z   2
loop_
 _symmetry_equiv_pos_site_id
 _symmetry_equiv_pos_as_xyz
  1  'x, y, z'
loop_
 _atom_site_type_symbol
 _atom_site_label
 _atom_site_symmetry_multiplicity
 _atom_site_fract_x
 _atom_site_fract_y
 _atom_site_fract_z
 _atom_site_occupancy
  Ce  Ce0  1  0.806319  0.612637  0.752382  1
  Ce  Ce1  1  0.193681  0.806319  0.252382  1
  Ce  Ce2  1  0.612637  0.806319  0.252382  1
  Ce  Ce3  1  0.387363  0.193681  0.752382  1
  Ce  Ce4  1  0.806319  0.193681  0.752382  1
  Ce  Ce5  1  0.193681  0.387363  0.252382  1
  Ti  Ti6  1  0.333333  0.666667  0.512740  1
  Ti  Ti7  1  0.666667  0.333333  0.012740  1
  Al  Al8  1  0.666667  0.333333  0.503688  1
  Al  Al9  1  0.333333  0.666667  0.003688  1
  Al  Al10  1  0.158836  0.317672  0.577070  1
  Al  Al11  1  0.682328  0.841164  0.577070  1
  Al  Al12  1  0.158836  0.841164  0.577070  1
  Al  Al13  1  0.841164  0.158836  0.077070  1
  Al  Al14  1  0.839424  0.160576  0.421709  1
  Al  Al15  1  0.841164  0.682328  0.077070  1
  Al  Al16  1  0.317672  0.158836  0.077070  1
  Al  Al17  1  0.678849  0.839424  0.921709  1
  Al  Al18  1  0.160576  0.321151  0.921709  1
  Al  Al19  1  0.839424  0.678849  0.421709  1
  Al  Al20  1  0.000000  0.000000  0.249624  1
  Al  Al21  1  0.000000  0.000000  0.749624  1
  Al  Al22  1  0.561520  0.123040  0.248339  1
  Al  Al23  1  0.438480  0.561520  0.748339  1
  Al  Al24  1  0.123040  0.561520  0.748339  1
  Al  Al25  1  0.876960  0.438480  0.248339  1
  Al  Al26  1  0.561520  0.438480  0.248339  1
  Al  Al27  1  0.438480  0.876960  0.748339  1
  Al  Al28  1  0.160576  0.839424  0.921709  1
  Al  Al29  1  0.321151  0.160576  0.421709  1
  Tc  Tc30  1  0.000000  0.000000  0.499499  1
  Tc  Tc31  1  0.000000  0.000000  0.999499  1
  Tc  Tc32  1  0.498378  0.996757  0.495316  1
  Tc  Tc33  1  0.501622  0.498378  0.995316  1
  Tc  Tc34  1  0.996757  0.498378  0.995316  1
  Tc  Tc35  1  0.003243  0.501622  0.495316  1
  Tc  Tc36  1  0.498378  0.501622  0.495316  1
  Tc  Tc37  1  0.501622  0.003243  0.995316  1
