# generated using pymatgen
data_Ba3Na(MoN3)2
_symmetry_space_group_name_H-M   'P 1'
_cell_length_a   6.60907698
_cell_length_b   6.60907595
_cell_length_c   13.29201379
_cell_angle_alpha   89.26684779
_cell_angle_beta   90.73315226
_cell_angle_gamma   125.07100926
_symmetry_Int_Tables_number   1
_chemical_formula_structural   Ba3Na(MoN3)2
_chemical_formula_sum   'Ba6 Na2 Mo4 N12'
_cell_volume   475.13203708
_cell_formula_units_Z   2
loop_
 _symmetry_equiv_pos_site_id
 _symmetry_equiv_pos_as_xyz
  1  'x, y, z'
loop_
 _atom_site_type_symbol
 _atom_site_label
 _atom_site_symmetry_multiplicity
 _atom_site_fract_x
 _atom_site_fract_y
 _atom_site_fract_z
 _atom_site_occupancy
  Ba  Ba0  1  0.946174  0.053826  0.146100  1
  Ba  Ba1  1  0.053826  0.946174  0.853900  1
  Ba  Ba2  1  0.858261  0.141739  0.583276  1
  Ba  Ba3  1  0.141739  0.858261  0.416724  1
  Ba  Ba4  1  0.640514  0.359486  0.083481  1
  Ba  Ba5  1  0.359486  0.640514  0.916519  1
  Na  Na6  1  0.554065  0.445935  0.611597  1
  Na  Na7  1  0.445935  0.554065  0.388403  1
  Mo  Mo8  1  0.738545  0.261455  0.836499  1
  Mo  Mo9  1  0.261455  0.738545  0.163501  1
  Mo  Mo10  1  0.757681  0.242319  0.335982  1
  Mo  Mo11  1  0.242319  0.757681  0.664018  1
  N  N12  1  0.838638  0.161362  0.949193  1
  N  N13  1  0.161362  0.838638  0.050807  1
  N  N14  1  0.662419  0.337581  0.445717  1
  N  N15  1  0.337581  0.662419  0.554283  1
  N  N16  1  0.588501  0.411499  0.876599  1
  N  N17  1  0.411499  0.588501  0.123401  1
  N  N18  1  0.908571  0.091429  0.374518  1
  N  N19  1  0.091429  0.908571  0.625482  1
  N  N20  1  0.521649  0.978259  0.753399  1
  N  N21  1  0.978259  0.521649  0.246601  1
  N  N22  1  0.478351  0.021741  0.246601  1
  N  N23  1  0.021741  0.478351  0.753399  1
