# generated using pymatgen
data_CaNdNbIr3
_symmetry_space_group_name_H-M   'P 1'
_cell_length_a   5.73217547
_cell_length_b   5.28330083
_cell_length_c   5.73217600
_cell_angle_alpha   57.14735134
_cell_angle_beta   60.00000848
_cell_angle_gamma   57.14734445
_symmetry_Int_Tables_number   1
_chemical_formula_structural   CaNdNbIr3
_chemical_formula_sum   'Ca1 Nd1 Nb1 Ir3'
_cell_volume   117.19012458
_cell_formula_units_Z   1
loop_
 _symmetry_equiv_pos_site_id
 _symmetry_equiv_pos_as_xyz
  1  'x, y, z'
loop_
 _atom_site_type_symbol
 _atom_site_label
 _atom_site_symmetry_multiplicity
 _atom_site_fract_x
 _atom_site_fract_y
 _atom_site_fract_z
 _atom_site_occupancy
  Ca  Ca0  1  0.750553  0.748343  0.750553  1
  Nd  Nd1  1  0.501276  0.496172  0.501276  1
  Nb  Nb2  1  0.124973  0.625081  0.124973  1
  Ir  Ir3  1  0.123820  0.126801  0.625558  1
  Ir  Ir4  1  0.625558  0.126801  0.123820  1
  Ir  Ir5  1  0.123820  0.126801  0.123820  1
