# generated using pymatgen
data_Tb16Tm(LuIr4)3
_symmetry_space_group_name_H-M   'P 1'
_cell_length_a   10.90264400
_cell_length_b   10.90264400
_cell_length_c   6.36009900
_cell_angle_alpha   90.00000000
_cell_angle_beta   90.00000000
_cell_angle_gamma   90.00000000
_symmetry_Int_Tables_number   1
_chemical_formula_structural   Tb16Tm(LuIr4)3
_chemical_formula_sum   'Tb16 Tm1 Lu3 Ir12'
_cell_volume   756.00999767
_cell_formula_units_Z   1
loop_
 _symmetry_equiv_pos_site_id
 _symmetry_equiv_pos_as_xyz
  1  'x, y, z'
loop_
 _atom_site_type_symbol
 _atom_site_label
 _atom_site_symmetry_multiplicity
 _atom_site_fract_x
 _atom_site_fract_y
 _atom_site_fract_z
 _atom_site_occupancy
  Tb  Tb0  1  0.290074  0.087639  0.378417  1
  Tb  Tb1  1  0.289977  0.912376  0.878476  1
  Tb  Tb2  1  0.710023  0.087624  0.878476  1
  Tb  Tb3  1  0.709926  0.912361  0.378417  1
  Tb  Tb4  1  0.587621  0.789942  0.878427  1
  Tb  Tb5  1  0.587594  0.210061  0.378454  1
  Tb  Tb6  1  0.412406  0.789939  0.378454  1
  Tb  Tb7  1  0.412379  0.210058  0.878427  1
  Tb  Tb8  1  0.210061  0.412406  0.621546  1
  Tb  Tb9  1  0.210058  0.587621  0.121573  1
  Tb  Tb10  1  0.789942  0.412379  0.121573  1
  Tb  Tb11  1  0.789939  0.587594  0.621546  1
  Tb  Tb12  1  0.912376  0.710023  0.121524  1
  Tb  Tb13  1  0.912361  0.290074  0.621583  1
  Tb  Tb14  1  0.087639  0.709926  0.621583  1
  Tb  Tb15  1  0.087624  0.289977  0.121524  1
  Tm  Tm16  1  0.000000  0.000000  0.500000  1
  Lu  Lu17  1  0.000000  0.000000  0.000000  1
  Lu  Lu18  1  0.500000  0.500000  0.000000  1
  Lu  Lu19  1  0.500000  0.500000  0.500000  1
  Ir  Ir20  1  0.849116  0.150867  0.249698  1
  Ir  Ir21  1  0.849133  0.849116  0.750302  1
  Ir  Ir22  1  0.150867  0.150884  0.750302  1
  Ir  Ir23  1  0.150884  0.849133  0.249698  1
  Ir  Ir24  1  0.650676  0.349318  0.750001  1
  Ir  Ir25  1  0.650682  0.650676  0.249999  1
  Ir  Ir26  1  0.349318  0.349324  0.249999  1
  Ir  Ir27  1  0.349324  0.650682  0.750001  1
  Ir  Ir28  1  0.500000  0.000000  0.122319  1
  Ir  Ir29  1  0.500000  0.000000  0.622305  1
  Ir  Ir30  1  0.000000  0.500000  0.877681  1
  Ir  Ir31  1  0.000000  0.500000  0.377695  1
