# generated using pymatgen
data_Ac2Te4O11
_symmetry_space_group_name_H-M   'P 1'
_cell_length_a   7.17445445
_cell_length_b   7.17445399
_cell_length_c   17.02388486
_cell_angle_alpha   77.00000778
_cell_angle_beta   77.00000829
_cell_angle_gamma   45.03011849
_symmetry_Int_Tables_number   1
_chemical_formula_structural   Ac2Te4O11
_chemical_formula_sum   'Ac4 Te8 O22'
_cell_volume   601.27845116
_cell_formula_units_Z   2
loop_
 _symmetry_equiv_pos_site_id
 _symmetry_equiv_pos_as_xyz
  1  'x, y, z'
loop_
 _atom_site_type_symbol
 _atom_site_label
 _atom_site_symmetry_multiplicity
 _atom_site_fract_x
 _atom_site_fract_y
 _atom_site_fract_z
 _atom_site_occupancy
  Ac  Ac0  1  0.134711  0.628269  0.539700  1
  Ac  Ac1  1  0.371731  0.865289  0.960300  1
  Ac  Ac2  1  0.865289  0.371731  0.460300  1
  Ac  Ac3  1  0.628269  0.134711  0.039700  1
  Te  Te4  1  0.613063  0.157910  0.701397  1
  Te  Te5  1  0.842090  0.386937  0.798603  1
  Te  Te6  1  0.386937  0.842090  0.298603  1
  Te  Te7  1  0.157910  0.613063  0.201397  1
  Te  Te8  1  0.142026  0.584317  0.873624  1
  Te  Te9  1  0.415683  0.857974  0.626376  1
  Te  Te10  1  0.857974  0.415683  0.126376  1
  Te  Te11  1  0.584317  0.142026  0.373624  1
  O  O12  1  0.849254  0.150746  0.750000  1
  O  O13  1  0.150746  0.849254  0.250000  1
  O  O14  1  0.184799  0.102315  0.827458  1
  O  O15  1  0.897685  0.815201  0.672542  1
  O  O16  1  0.815201  0.897685  0.172542  1
  O  O17  1  0.102315  0.184799  0.327458  1
  O  O18  1  0.625263  0.428100  0.895189  1
  O  O19  1  0.571900  0.374737  0.604811  1
  O  O20  1  0.374737  0.571900  0.104811  1
  O  O21  1  0.428100  0.625263  0.395189  1
  O  O22  1  0.051670  0.797190  0.951124  1
  O  O23  1  0.202810  0.948330  0.548876  1
  O  O24  1  0.677254  0.819525  0.372595  1
  O  O25  1  0.180475  0.322746  0.127405  1
  O  O26  1  0.322746  0.180475  0.627405  1
  O  O27  1  0.819525  0.677254  0.872595  1
  O  O28  1  0.259045  0.327326  0.440880  1
  O  O29  1  0.672674  0.740955  0.059120  1
  O  O30  1  0.740955  0.672674  0.559120  1
  O  O31  1  0.327326  0.259045  0.940880  1
  O  O32  1  0.797190  0.051670  0.451124  1
  O  O33  1  0.948330  0.202810  0.048876  1
