# generated using pymatgen
data_TbDyCo6(P3Rh2)2
_symmetry_space_group_name_H-M   'P 1'
_cell_length_a   3.74761800
_cell_length_b   10.51152700
_cell_length_c   12.10673300
_cell_angle_alpha   90.00000000
_cell_angle_beta   90.00000000
_cell_angle_gamma   90.00000000
_symmetry_Int_Tables_number   1
_chemical_formula_structural   TbDyCo6(P3Rh2)2
_chemical_formula_sum   'Tb2 Dy2 Co12 P12 Rh8'
_cell_volume   476.92280662
_cell_formula_units_Z   2
loop_
 _symmetry_equiv_pos_site_id
 _symmetry_equiv_pos_as_xyz
  1  'x, y, z'
loop_
 _atom_site_type_symbol
 _atom_site_label
 _atom_site_symmetry_multiplicity
 _atom_site_fract_x
 _atom_site_fract_y
 _atom_site_fract_z
 _atom_site_occupancy
  Tb  Tb0  1  0.750000  0.415817  0.289479  1
  Tb  Tb1  1  0.750000  0.084183  0.789479  1
  Dy  Dy2  1  0.250000  0.584474  0.710479  1
  Dy  Dy3  1  0.250000  0.915526  0.210479  1
  Co  Co4  1  0.250000  0.221114  0.178332  1
  Co  Co5  1  0.250000  0.278886  0.678332  1
  Co  Co6  1  0.750000  0.778658  0.821675  1
  Co  Co7  1  0.750000  0.721342  0.321675  1
  Co  Co8  1  0.250000  0.882288  0.697069  1
  Co  Co9  1  0.250000  0.617712  0.197069  1
  Co  Co10  1  0.750000  0.117179  0.302878  1
  Co  Co11  1  0.750000  0.382821  0.802878  1
  Co  Co12  1  0.250000  0.463395  0.931126  1
  Co  Co13  1  0.250000  0.036605  0.431126  1
  Co  Co14  1  0.750000  0.537308  0.068232  1
  Co  Co15  1  0.750000  0.962692  0.568232  1
  P  P16  1  0.250000  0.422388  0.110112  1
  P  P17  1  0.250000  0.077612  0.610112  1
  P  P18  1  0.750000  0.578061  0.889265  1
  P  P19  1  0.750000  0.921939  0.389265  1
  P  P20  1  0.250000  0.275080  0.862340  1
  P  P21  1  0.250000  0.224920  0.362340  1
  P  P22  1  0.750000  0.725225  0.138081  1
  P  P23  1  0.750000  0.774775  0.638081  1
  P  P24  1  0.250000  0.604789  0.379661  1
  P  P25  1  0.250000  0.895211  0.879661  1
  P  P26  1  0.750000  0.395402  0.620457  1
  P  P27  1  0.750000  0.104598  0.120457  1
  Rh  Rh28  1  0.250000  0.712104  0.986964  1
  Rh  Rh29  1  0.250000  0.787896  0.486964  1
  Rh  Rh30  1  0.750000  0.288077  0.013138  1
  Rh  Rh31  1  0.750000  0.211923  0.513138  1
  Rh  Rh32  1  0.250000  0.406309  0.480719  1
  Rh  Rh33  1  0.250000  0.093691  0.980719  1
  Rh  Rh34  1  0.750000  0.593414  0.519992  1
  Rh  Rh35  1  0.750000  0.906586  0.019992  1
