# generated using pymatgen
data_Ti5Mn(Fe5B2)2
_symmetry_space_group_name_H-M   'P 1'
_cell_length_a   8.60244800
_cell_length_b   8.60244800
_cell_length_c   2.87089300
_cell_angle_alpha   90.00000000
_cell_angle_beta   90.00000000
_cell_angle_gamma   90.00000000
_symmetry_Int_Tables_number   1
_chemical_formula_structural   Ti5Mn(Fe5B2)2
_chemical_formula_sum   'Ti5 Mn1 Fe10 B4'
_cell_volume   212.45214416
_cell_formula_units_Z   1
loop_
 _symmetry_equiv_pos_site_id
 _symmetry_equiv_pos_as_xyz
  1  'x, y, z'
loop_
 _atom_site_type_symbol
 _atom_site_label
 _atom_site_symmetry_multiplicity
 _atom_site_fract_x
 _atom_site_fract_y
 _atom_site_fract_z
 _atom_site_occupancy
  Ti  Ti0  1  0.500000  0.500000  0.000000  1
  Ti  Ti1  1  0.825026  0.324664  0.000000  1
  Ti  Ti2  1  0.324664  0.174974  0.000000  1
  Ti  Ti3  1  0.675336  0.825026  0.000000  1
  Ti  Ti4  1  0.174974  0.675336  0.000000  1
  Mn  Mn5  1  0.000000  0.000000  0.000000  1
  Fe  Fe6  1  0.500000  0.000000  0.500000  1
  Fe  Fe7  1  0.000000  0.500000  0.500000  1
  Fe  Fe8  1  0.066595  0.213500  0.500000  1
  Fe  Fe9  1  0.213500  0.933405  0.500000  1
  Fe  Fe10  1  0.786500  0.066595  0.500000  1
  Fe  Fe11  1  0.933405  0.786500  0.500000  1
  Fe  Fe12  1  0.427830  0.719784  0.500000  1
  Fe  Fe13  1  0.572170  0.280216  0.500000  1
  Fe  Fe14  1  0.719784  0.572170  0.500000  1
  Fe  Fe15  1  0.280216  0.427830  0.500000  1
  B  B16  1  0.622218  0.122296  0.000000  1
  B  B17  1  0.122296  0.377782  0.000000  1
  B  B18  1  0.877704  0.622218  0.000000  1
  B  B19  1  0.377782  0.877704  0.000000  1
