# generated using pymatgen
data_Dy8HfSi16W11
_symmetry_space_group_name_H-M   'P 1'
_cell_length_a   6.90401810
_cell_length_b   6.90400664
_cell_length_c   12.84853525
_cell_angle_alpha   89.99130186
_cell_angle_beta   90.00831691
_cell_angle_gamma   90.18027922
_symmetry_Int_Tables_number   1
_chemical_formula_structural   Dy8HfSi16W11
_chemical_formula_sum   'Dy8 Hf1 Si16 W11'
_cell_volume   612.42735711
_cell_formula_units_Z   1
loop_
 _symmetry_equiv_pos_site_id
 _symmetry_equiv_pos_as_xyz
  1  'x, y, z'
loop_
 _atom_site_type_symbol
 _atom_site_label
 _atom_site_symmetry_multiplicity
 _atom_site_fract_x
 _atom_site_fract_y
 _atom_site_fract_z
 _atom_site_occupancy
  Dy  Dy0  1  0.999145  0.664968  0.030988  1
  Dy  Dy1  1  0.998267  0.336995  0.530806  1
  Dy  Dy2  1  0.664957  0.999125  0.969032  1
  Dy  Dy3  1  0.161028  0.500821  0.779688  1
  Dy  Dy4  1  0.836869  0.503003  0.282177  1
  Dy  Dy5  1  0.500799  0.161010  0.220315  1
  Dy  Dy6  1  0.502985  0.836856  0.717821  1
  Dy  Dy7  1  0.336985  0.998243  0.469173  1
  Hf  Hf8  1  0.331640  0.331641  0.000009  1
  Si  Si9  1  0.034644  0.712900  0.437160  1
  Si  Si10  1  0.956550  0.290545  0.932926  1
  Si  Si11  1  0.712889  0.034625  0.562817  1
  Si  Si12  1  0.209301  0.468256  0.190062  1
  Si  Si13  1  0.787971  0.535659  0.686289  1
  Si  Si14  1  0.468216  0.209279  0.809956  1
  Si  Si15  1  0.535620  0.787947  0.313696  1
  Si  Si16  1  0.290526  0.956534  0.067098  1
  Si  Si17  1  0.800468  0.874565  0.184205  1
  Si  Si18  1  0.299539  0.625149  0.565973  1
  Si  Si19  1  0.707227  0.372390  0.067222  1
  Si  Si20  1  0.625143  0.299545  0.434011  1
  Si  Si21  1  0.372392  0.707233  0.932789  1
  Si  Si22  1  0.125384  0.201369  0.315965  1
  Si  Si23  1  0.201394  0.125397  0.684022  1
  Si  Si24  1  0.874549  0.800437  0.815808  1
  W  W25  1  0.333592  0.500822  0.377295  1
  W  W26  1  0.834211  0.001886  0.373231  1
  W  W27  1  0.002651  0.165614  0.125158  1
  W  W28  1  0.001885  0.834234  0.626766  1
  W  W29  1  0.500853  0.333594  0.622708  1
  W  W30  1  0.165583  0.002648  0.874844  1
  W  W31  1  0.667800  0.667805  0.499985  1
  W  W32  1  0.833679  0.164806  0.746993  1
  W  W33  1  0.164813  0.833682  0.253012  1
  W  W34  1  0.500664  0.659771  0.123865  1
  W  W35  1  0.659776  0.500641  0.876133  1
