# generated using pymatgen
data_Ce3Sc2Co3
_symmetry_space_group_name_H-M   'P 1'
_cell_length_a   7.57658900
_cell_length_b   7.57658828
_cell_length_c   6.38288800
_cell_angle_alpha   90.00000000
_cell_angle_beta   90.00000000
_cell_angle_gamma   119.99999880
_symmetry_Int_Tables_number   1
_chemical_formula_structural   Ce3Sc2Co3
_chemical_formula_sum   'Ce6 Sc4 Co6'
_cell_volume   317.31841597
_cell_formula_units_Z   2
loop_
 _symmetry_equiv_pos_site_id
 _symmetry_equiv_pos_as_xyz
  1  'x, y, z'
loop_
 _atom_site_type_symbol
 _atom_site_label
 _atom_site_symmetry_multiplicity
 _atom_site_fract_x
 _atom_site_fract_y
 _atom_site_fract_z
 _atom_site_occupancy
  Ce  Ce0  1  0.251431  0.000000  0.250001  1
  Ce  Ce1  1  0.000000  0.251431  0.250001  1
  Ce  Ce2  1  0.748570  0.748569  0.250001  1
  Ce  Ce3  1  0.748570  0.000000  0.750001  1
  Ce  Ce4  1  0.251430  0.251431  0.750001  1
  Ce  Ce5  1  0.000000  0.748569  0.750001  1
  Sc  Sc6  1  0.666667  0.333334  0.000000  1
  Sc  Sc7  1  0.333333  0.666666  0.000000  1
  Sc  Sc8  1  0.666667  0.333334  0.500000  1
  Sc  Sc9  1  0.333333  0.666666  0.500000  1
  Co  Co10  1  0.628925  0.000000  0.250001  1
  Co  Co11  1  0.371075  0.371075  0.250001  1
  Co  Co12  1  0.000000  0.628925  0.250001  1
  Co  Co13  1  0.371075  0.000000  0.750001  1
  Co  Co14  1  0.000000  0.371075  0.750001  1
  Co  Co15  1  0.628925  0.628925  0.750001  1
