# generated using pymatgen
data_CaHoBO4
_symmetry_space_group_name_H-M   'P 1'
_cell_length_a   3.60041900
_cell_length_b   9.63819600
_cell_length_c   10.49131700
_cell_angle_alpha   90.00000000
_cell_angle_beta   90.00000000
_cell_angle_gamma   90.00000000
_symmetry_Int_Tables_number   1
_chemical_formula_structural   CaHoBO4
_chemical_formula_sum   'Ca4 Ho4 B4 O16'
_cell_volume   364.06489854
_cell_formula_units_Z   4
loop_
 _symmetry_equiv_pos_site_id
 _symmetry_equiv_pos_as_xyz
  1  'x, y, z'
loop_
 _atom_site_type_symbol
 _atom_site_label
 _atom_site_symmetry_multiplicity
 _atom_site_fract_x
 _atom_site_fract_y
 _atom_site_fract_z
 _atom_site_occupancy
  Ca  Ca0  1  0.250000  0.669349  0.083161  1
  Ca  Ca1  1  0.750000  0.330651  0.916839  1
  Ca  Ca2  1  0.750000  0.169349  0.416839  1
  Ca  Ca3  1  0.250000  0.830651  0.583161  1
  Ho  Ho4  1  0.250000  0.088120  0.111361  1
  Ho  Ho5  1  0.750000  0.911880  0.888639  1
  Ho  Ho6  1  0.750000  0.588120  0.388639  1
  Ho  Ho7  1  0.250000  0.411880  0.611361  1
  B  B8  1  0.250000  0.368140  0.200898  1
  B  B9  1  0.750000  0.631860  0.799102  1
  B  B10  1  0.750000  0.868140  0.299102  1
  B  B11  1  0.250000  0.131860  0.700898  1
  O  O12  1  0.250000  0.500678  0.252433  1
  O  O13  1  0.750000  0.499322  0.747567  1
  O  O14  1  0.750000  0.000678  0.247567  1
  O  O15  1  0.250000  0.999322  0.752433  1
  O  O16  1  0.250000  0.248891  0.276488  1
  O  O17  1  0.750000  0.751109  0.723512  1
  O  O18  1  0.750000  0.748891  0.223512  1
  O  O19  1  0.250000  0.251109  0.776488  1
  O  O20  1  0.250000  0.350740  0.068187  1
  O  O21  1  0.750000  0.649260  0.931813  1
  O  O22  1  0.750000  0.850740  0.431813  1
  O  O23  1  0.250000  0.149260  0.568187  1
  O  O24  1  0.250000  0.613780  0.506458  1
  O  O25  1  0.750000  0.386220  0.493542  1
  O  O26  1  0.750000  0.113780  0.993542  1
  O  O27  1  0.250000  0.886220  0.006458  1
