# generated using pymatgen
data_CsMnSeS
_symmetry_space_group_name_H-M   'P 1'
_cell_length_a   7.44929743
_cell_length_b   7.44929753
_cell_length_c   5.39695827
_cell_angle_alpha   79.66269064
_cell_angle_beta   79.66268831
_cell_angle_gamma   116.47275644
_symmetry_Int_Tables_number   1
_chemical_formula_structural   CsMnSeS
_chemical_formula_sum   'Cs2 Mn2 Se2 S2'
_cell_volume   252.02960718
_cell_formula_units_Z   2
loop_
 _symmetry_equiv_pos_site_id
 _symmetry_equiv_pos_as_xyz
  1  'x, y, z'
loop_
 _atom_site_type_symbol
 _atom_site_label
 _atom_site_symmetry_multiplicity
 _atom_site_fract_x
 _atom_site_fract_y
 _atom_site_fract_z
 _atom_site_occupancy
  Cs  Cs0  1  0.352870  0.647130  0.500000  1
  Cs  Cs1  1  0.642576  0.357424  0.000000  1
  Mn  Mn2  1  0.004579  0.995421  0.500000  1
  Mn  Mn3  1  0.005578  0.994422  0.000000  1
  Se  Se4  1  0.077924  0.281835  0.159995  1
  Se  Se5  1  0.718165  0.922076  0.840005  1
  S  S6  1  0.931567  0.733257  0.334339  1
  S  S7  1  0.266743  0.068433  0.665661  1
