# generated using pymatgen
data_Ba6MgNb2O12
_symmetry_space_group_name_H-M   'P 1'
_cell_length_a   9.25841760
_cell_length_b   9.25841683
_cell_length_c   7.38767108
_cell_angle_alpha   68.00121533
_cell_angle_beta   68.00120885
_cell_angle_gamma   36.97244422
_symmetry_Int_Tables_number   1
_chemical_formula_structural   Ba6MgNb2O12
_chemical_formula_sum   'Ba6 Mg1 Nb2 O12'
_cell_volume   349.89536319
_cell_formula_units_Z   1
loop_
 _symmetry_equiv_pos_site_id
 _symmetry_equiv_pos_as_xyz
  1  'x, y, z'
loop_
 _atom_site_type_symbol
 _atom_site_label
 _atom_site_symmetry_multiplicity
 _atom_site_fract_x
 _atom_site_fract_y
 _atom_site_fract_z
 _atom_site_occupancy
  Ba  Ba0  1  0.208309  0.208309  0.709088  1
  Ba  Ba1  1  0.887771  0.887771  0.705160  1
  Ba  Ba2  1  0.548649  0.548649  0.710997  1
  Ba  Ba3  1  0.791691  0.791691  0.290912  1
  Ba  Ba4  1  0.451351  0.451351  0.289003  1
  Ba  Ba5  1  0.112229  0.112229  0.294840  1
  Mg  Mg6  1  0.000000  0.000000  0.000000  1
  Nb  Nb7  1  0.664313  0.664313  0.001180  1
  Nb  Nb8  1  0.335687  0.335687  0.998820  1
  O  O9  1  0.281226  0.281226  0.301129  1
  O  O10  1  0.945795  0.945795  0.320332  1
  O  O11  1  0.618761  0.618761  0.301087  1
  O  O12  1  0.718774  0.718774  0.698871  1
  O  O13  1  0.381239  0.381239  0.698913  1
  O  O14  1  0.054205  0.054205  0.679668  1
  O  O15  1  0.000000  0.500000  0.000000  1
  O  O16  1  0.653778  0.172716  0.000737  1
  O  O17  1  0.346222  0.827284  0.999263  1
  O  O18  1  0.500000  0.000000  0.000000  1
  O  O19  1  0.172716  0.653778  0.000737  1
  O  O20  1  0.827284  0.346222  0.999263  1
