# generated using pymatgen
data_TbTm5Co16(TcP6)2
_symmetry_space_group_name_H-M   'P 1'
_cell_length_a   3.69411000
_cell_length_b   10.50224000
_cell_length_c   12.17972000
_cell_angle_alpha   90.00000000
_cell_angle_beta   90.00000000
_cell_angle_gamma   90.00000000
_symmetry_Int_Tables_number   1
_chemical_formula_structural   TbTm5Co16(TcP6)2
_chemical_formula_sum   'Tb1 Tm5 Co16 Tc2 P12'
_cell_volume   472.52965204
_cell_formula_units_Z   1
loop_
 _symmetry_equiv_pos_site_id
 _symmetry_equiv_pos_as_xyz
  1  'x, y, z'
loop_
 _atom_site_type_symbol
 _atom_site_label
 _atom_site_symmetry_multiplicity
 _atom_site_fract_x
 _atom_site_fract_y
 _atom_site_fract_z
 _atom_site_occupancy
  Tb  Tb0  1  0.500000  0.000000  0.474844  1
  Tm  Tm1  1  0.000000  0.500000  0.525020  1
  Tm  Tm2  1  0.500000  0.818013  0.205554  1
  Tm  Tm3  1  0.500000  0.181987  0.205554  1
  Tm  Tm4  1  0.000000  0.681574  0.794087  1
  Tm  Tm5  1  0.000000  0.318426  0.794087  1
  Co  Co6  1  0.500000  0.500000  0.702361  1
  Co  Co7  1  0.000000  0.000000  0.296438  1
  Co  Co8  1  0.000000  0.500000  0.986956  1
  Co  Co9  1  0.500000  0.000000  0.012921  1
  Co  Co10  1  0.500000  0.332404  0.989589  1
  Co  Co11  1  0.500000  0.667596  0.989589  1
  Co  Co12  1  0.000000  0.167821  0.010407  1
  Co  Co13  1  0.000000  0.832179  0.010407  1
  Co  Co14  1  0.500000  0.297456  0.431151  1
  Co  Co15  1  0.500000  0.702544  0.431151  1
  Co  Co16  1  0.000000  0.204658  0.569069  1
  Co  Co17  1  0.000000  0.795342  0.569069  1
  Co  Co18  1  0.500000  0.877971  0.708316  1
  Co  Co19  1  0.500000  0.122029  0.708316  1
  Co  Co20  1  0.000000  0.621498  0.292116  1
  Co  Co21  1  0.000000  0.378502  0.292116  1
  Tc  Tc22  1  0.500000  0.500000  0.157045  1
  Tc  Tc23  1  0.000000  0.000000  0.843748  1
  P  P24  1  0.500000  0.500000  0.880261  1
  P  P25  1  0.000000  0.000000  0.119293  1
  P  P26  1  0.500000  0.500000  0.350043  1
  P  P27  1  0.000000  0.000000  0.651453  1
  P  P28  1  0.500000  0.312836  0.616758  1
  P  P29  1  0.500000  0.687164  0.616758  1
  P  P30  1  0.000000  0.188585  0.382662  1
  P  P31  1  0.000000  0.811415  0.382662  1
  P  P32  1  0.500000  0.845365  0.892329  1
  P  P33  1  0.500000  0.154635  0.892329  1
  P  P34  1  0.000000  0.654324  0.107769  1
  P  P35  1  0.000000  0.345676  0.107769  1
