# generated using pymatgen
data_Nd4Er6Sn5Bi3
_symmetry_space_group_name_H-M   'P 1'
_cell_length_a   8.25561000
_cell_length_b   8.25237090
_cell_length_c   15.57778400
_cell_angle_alpha   90.09730546
_cell_angle_beta   90.00000000
_cell_angle_gamma   90.00000000
_symmetry_Int_Tables_number   1
_chemical_formula_structural   Nd4Er6Sn5Bi3
_chemical_formula_sum   'Nd8 Er12 Sn10 Bi6'
_cell_volume   1061.28727938
_cell_formula_units_Z   2
loop_
 _symmetry_equiv_pos_site_id
 _symmetry_equiv_pos_as_xyz
  1  'x, y, z'
loop_
 _atom_site_type_symbol
 _atom_site_label
 _atom_site_symmetry_multiplicity
 _atom_site_fract_x
 _atom_site_fract_y
 _atom_site_fract_z
 _atom_site_occupancy
  Nd  Nd0  1  0.527182  0.324997  0.899286  1
  Nd  Nd1  1  0.027182  0.175003  0.600714  1
  Nd  Nd2  1  0.475362  0.680543  0.397756  1
  Nd  Nd3  1  0.975362  0.819457  0.102244  1
  Nd  Nd4  1  0.481536  0.674384  0.101136  1
  Nd  Nd5  1  0.981536  0.825616  0.398864  1
  Nd  Nd6  1  0.521548  0.320338  0.601089  1
  Nd  Nd7  1  0.021548  0.179662  0.898911  1
  Er  Er8  1  0.363889  0.839827  0.873276  1
  Er  Er9  1  0.863889  0.660173  0.626724  1
  Er  Er10  1  0.630758  0.159801  0.373417  1
  Er  Er11  1  0.130758  0.340199  0.126583  1
  Er  Er12  1  0.638634  0.165234  0.125744  1
  Er  Er13  1  0.138634  0.334766  0.374256  1
  Er  Er14  1  0.362400  0.842238  0.625370  1
  Er  Er15  1  0.862400  0.657762  0.874630  1
  Er  Er16  1  0.195224  0.500383  0.749749  1
  Er  Er17  1  0.695224  0.999617  0.750251  1
  Er  Er18  1  0.805211  0.498979  0.247295  1
  Er  Er19  1  0.305211  0.001021  0.252705  1
  Sn  Sn20  1  0.293958  0.038535  0.457442  1
  Sn  Sn21  1  0.793958  0.461465  0.042558  1
  Sn  Sn22  1  0.559696  0.627141  0.749338  1
  Sn  Sn23  1  0.059696  0.872859  0.750662  1
  Sn  Sn24  1  0.438607  0.373894  0.249518  1
  Sn  Sn25  1  0.938607  0.126106  0.250482  1
  Sn  Sn26  1  0.330930  0.144768  0.750747  1
  Sn  Sn27  1  0.830930  0.355232  0.749253  1
  Sn  Sn28  1  0.670317  0.856766  0.249744  1
  Sn  Sn29  1  0.170317  0.643234  0.250256  1
  Bi  Bi30  1  0.292677  0.039215  0.042896  1
  Bi  Bi31  1  0.792677  0.460785  0.457104  1
  Bi  Bi32  1  0.705273  0.960480  0.542071  1
  Bi  Bi33  1  0.205273  0.539520  0.957929  1
  Bi  Bi34  1  0.706797  0.960966  0.957332  1
  Bi  Bi35  1  0.206797  0.539034  0.542668  1
