# generated using pymatgen
data_YbYAlIr3
_symmetry_space_group_name_H-M   'P 1'
_cell_length_a   5.14315718
_cell_length_b   5.14315740
_cell_length_c   5.14315772
_cell_angle_alpha   65.55197843
_cell_angle_beta   65.55197906
_cell_angle_gamma   65.55197968
_symmetry_Int_Tables_number   1
_chemical_formula_structural   YbYAlIr3
_chemical_formula_sum   'Yb1 Y1 Al1 Ir3'
_cell_volume   107.80573063
_cell_formula_units_Z   1
loop_
 _symmetry_equiv_pos_site_id
 _symmetry_equiv_pos_as_xyz
  1  'x, y, z'
loop_
 _atom_site_type_symbol
 _atom_site_label
 _atom_site_symmetry_multiplicity
 _atom_site_fract_x
 _atom_site_fract_y
 _atom_site_fract_z
 _atom_site_occupancy
  Yb  Yb0  1  0.999255  0.999255  0.999255  1
  Y  Y1  1  0.250534  0.250534  0.250534  1
  Al  Al2  1  0.624243  0.624243  0.624243  1
  Ir  Ir3  1  0.626830  0.626830  0.122308  1
  Ir  Ir4  1  0.626830  0.122308  0.626830  1
  Ir  Ir5  1  0.122308  0.626830  0.626830  1
