# generated using pymatgen
data_Li3Ho3ZnSb2
_symmetry_space_group_name_H-M   'P 1'
_cell_length_a   7.25631900
_cell_length_b   7.25631910
_cell_length_c   4.44281800
_cell_angle_alpha   90.00000000
_cell_angle_beta   90.00000000
_cell_angle_gamma   119.99999497
_symmetry_Int_Tables_number   1
_chemical_formula_structural   Li3Ho3ZnSb2
_chemical_formula_sum   'Li3 Ho3 Zn1 Sb2'
_cell_volume   202.59182477
_cell_formula_units_Z   1
loop_
 _symmetry_equiv_pos_site_id
 _symmetry_equiv_pos_as_xyz
  1  'x, y, z'
loop_
 _atom_site_type_symbol
 _atom_site_label
 _atom_site_symmetry_multiplicity
 _atom_site_fract_x
 _atom_site_fract_y
 _atom_site_fract_z
 _atom_site_occupancy
  Li  Li0  1  0.238165  0.000000  0.500000  1
  Li  Li1  1  0.000000  0.238165  0.500000  1
  Li  Li2  1  0.761835  0.761835  0.500000  1
  Ho  Ho3  1  0.591245  0.000000  0.000000  1
  Ho  Ho4  1  0.000000  0.591245  0.000000  1
  Ho  Ho5  1  0.408755  0.408755  0.000000  1
  Zn  Zn6  1  0.000000  0.000000  0.000000  1
  Sb  Sb7  1  0.333333  0.666667  0.500000  1
  Sb  Sb8  1  0.666667  0.333333  0.500000  1
