# generated using pymatgen
data_Nd9Dy(SnTe)4
_symmetry_space_group_name_H-M   'P 1'
_cell_length_a   8.98298471
_cell_length_b   8.98298568
_cell_length_c   8.43260300
_cell_angle_alpha   89.85017460
_cell_angle_beta   89.85017459
_cell_angle_gamma   124.85298515
_symmetry_Int_Tables_number   1
_chemical_formula_structural   Nd9Dy(SnTe)4
_chemical_formula_sum   'Nd9 Dy1 Sn4 Te4'
_cell_volume   558.39145311
_cell_formula_units_Z   1
loop_
 _symmetry_equiv_pos_site_id
 _symmetry_equiv_pos_as_xyz
  1  'x, y, z'
loop_
 _atom_site_type_symbol
 _atom_site_label
 _atom_site_symmetry_multiplicity
 _atom_site_fract_x
 _atom_site_fract_y
 _atom_site_fract_z
 _atom_site_occupancy
  Nd  Nd0  1  0.030907  0.302743  0.335803  1
  Nd  Nd1  1  0.969093  0.697257  0.664197  1
  Nd  Nd2  1  0.466461  0.197600  0.836027  1
  Nd  Nd3  1  0.802400  0.533539  0.163973  1
  Nd  Nd4  1  0.533539  0.802400  0.163973  1
  Nd  Nd5  1  0.197600  0.466461  0.836027  1
  Nd  Nd6  1  0.697257  0.969093  0.664197  1
  Nd  Nd7  1  0.302743  0.030907  0.335803  1
  Nd  Nd8  1  0.000000  0.000000  0.000000  1
  Dy  Dy9  1  0.500000  0.500000  0.500000  1
  Sn  Sn10  1  0.368393  0.368393  0.135407  1
  Sn  Sn11  1  0.631607  0.631607  0.864593  1
  Sn  Sn12  1  0.134061  0.134061  0.630075  1
  Sn  Sn13  1  0.865939  0.865939  0.369925  1
  Te  Te14  1  0.798894  0.201106  0.000000  1
  Te  Te15  1  0.201106  0.798894  0.000000  1
  Te  Te16  1  0.697735  0.302265  0.500000  1
  Te  Te17  1  0.302265  0.697735  0.500000  1
