# generated using pymatgen
data_Yb2Bi2O7
_symmetry_space_group_name_H-M   'P 1'
_cell_length_a   7.62491108
_cell_length_b   7.61925767
_cell_length_c   7.72865100
_cell_angle_alpha   59.52431862
_cell_angle_beta   59.54920720
_cell_angle_gamma   60.27180863
_symmetry_Int_Tables_number   1
_chemical_formula_structural   Yb2Bi2O7
_chemical_formula_sum   'Yb4 Bi4 O14'
_cell_volume   315.88636756
_cell_formula_units_Z   2
loop_
 _symmetry_equiv_pos_site_id
 _symmetry_equiv_pos_as_xyz
  1  'x, y, z'
loop_
 _atom_site_type_symbol
 _atom_site_label
 _atom_site_symmetry_multiplicity
 _atom_site_fract_x
 _atom_site_fract_y
 _atom_site_fract_z
 _atom_site_occupancy
  Yb  Yb0  1  0.000000  0.000000  0.000000  1
  Yb  Yb1  1  0.500000  0.000000  0.000000  1
  Yb  Yb2  1  0.500001  0.000000  0.499999  1
  Yb  Yb3  1  0.499999  0.500000  0.500001  1
  Bi  Bi4  1  0.000000  0.500001  0.999999  1
  Bi  Bi5  1  0.500001  0.500001  0.000000  1
  Bi  Bi6  1  0.000000  0.000000  0.499999  1
  Bi  Bi7  1  0.000000  0.499999  0.500001  1
  O  O8  1  0.664755  0.573665  0.099786  1
  O  O9  1  0.071167  0.163669  0.154257  1
  O  O10  1  0.359283  0.839693  0.900512  1
  O  O11  1  0.335243  0.426337  0.338205  1
  O  O12  1  0.338313  0.863035  0.399325  1
  O  O13  1  0.928833  0.836333  0.389091  1
  O  O14  1  0.874502  0.581110  0.272194  1
  O  O15  1  0.125499  0.418892  0.727804  1
  O  O16  1  0.661687  0.136967  0.600673  1
  O  O17  1  0.071166  0.163668  0.610909  1
  O  O18  1  0.664755  0.573664  0.661795  1
  O  O19  1  0.928835  0.836334  0.845741  1
  O  O20  1  0.335243  0.426337  0.900214  1
  O  O21  1  0.640715  0.160308  0.099488  1
