# generated using pymatgen
data_TbZr(Sn2Rh5)2
_symmetry_space_group_name_H-M   'P 1'
_cell_length_a   5.64004613
_cell_length_b   5.64004545
_cell_length_c   8.55094504
_cell_angle_alpha   90.00215874
_cell_angle_beta   90.00217362
_cell_angle_gamma   99.33504394
_symmetry_Int_Tables_number   1
_chemical_formula_structural   TbZr(Sn2Rh5)2
_chemical_formula_sum   'Tb1 Zr1 Sn4 Rh10'
_cell_volume   268.40429070
_cell_formula_units_Z   1
loop_
 _symmetry_equiv_pos_site_id
 _symmetry_equiv_pos_as_xyz
  1  'x, y, z'
loop_
 _atom_site_type_symbol
 _atom_site_label
 _atom_site_symmetry_multiplicity
 _atom_site_fract_x
 _atom_site_fract_y
 _atom_site_fract_z
 _atom_site_occupancy
  Tb  Tb0  1  0.781854  0.218146  0.500000  1
  Zr  Zr1  1  0.784792  0.215208  0.000000  1
  Sn  Sn2  1  0.514011  0.485110  0.750910  1
  Sn  Sn3  1  0.514890  0.485989  0.249090  1
  Sn  Sn4  1  0.208799  0.791201  0.000000  1
  Sn  Sn5  1  0.206484  0.793516  0.500000  1
  Rh  Rh6  1  0.718650  0.721096  0.999820  1
  Rh  Rh7  1  0.718523  0.721204  0.500236  1
  Rh  Rh8  1  0.278904  0.281350  0.000180  1
  Rh  Rh9  1  0.278796  0.281477  0.499764  1
  Rh  Rh10  1  0.487145  0.975972  0.755485  1
  Rh  Rh11  1  0.487126  0.976349  0.244487  1
  Rh  Rh12  1  0.986152  0.013806  0.242633  1
  Rh  Rh13  1  0.986194  0.013848  0.757367  1
  Rh  Rh14  1  0.023651  0.512874  0.755513  1
  Rh  Rh15  1  0.024028  0.512855  0.244515  1
