# generated using pymatgen
data_Ho4Er16HgBi11
_symmetry_space_group_name_H-M   'P 1'
_cell_length_a   8.19222645
_cell_length_b   9.45714600
_cell_length_c   11.97727104
_cell_angle_alpha   90.00000000
_cell_angle_beta   90.34142846
_cell_angle_gamma   90.00000000
_symmetry_Int_Tables_number   1
_chemical_formula_structural   Ho4Er16HgBi11
_chemical_formula_sum   'Ho4 Er16 Hg1 Bi11'
_cell_volume   927.92357540
_cell_formula_units_Z   1
loop_
 _symmetry_equiv_pos_site_id
 _symmetry_equiv_pos_as_xyz
  1  'x, y, z'
loop_
 _atom_site_type_symbol
 _atom_site_label
 _atom_site_symmetry_multiplicity
 _atom_site_fract_x
 _atom_site_fract_y
 _atom_site_fract_z
 _atom_site_occupancy
  Ho  Ho0  1  0.314053  0.250000  0.218550  1
  Ho  Ho1  1  0.812916  0.250000  0.282226  1
  Ho  Ho2  1  0.681211  0.750000  0.784480  1
  Ho  Ho3  1  0.187870  0.750000  0.719454  1
  Er  Er4  1  0.354641  0.750000  0.211939  1
  Er  Er5  1  0.853735  0.750000  0.284302  1
  Er  Er6  1  0.647270  0.250000  0.783330  1
  Er  Er7  1  0.147981  0.250000  0.715872  1
  Er  Er8  1  0.688076  0.568212  0.057524  1
  Er  Er9  1  0.192289  0.935421  0.440330  1
  Er  Er10  1  0.307822  0.056241  0.940504  1
  Er  Er11  1  0.807437  0.435037  0.559230  1
  Er  Er12  1  0.307822  0.443759  0.940504  1
  Er  Er13  1  0.807437  0.064963  0.559230  1
  Er  Er14  1  0.688076  0.931788  0.057524  1
  Er  Er15  1  0.192289  0.564579  0.440330  1
  Er  Er16  1  0.476474  0.250000  0.489237  1
  Er  Er17  1  0.977708  0.250000  0.011033  1
  Er  Er18  1  0.523516  0.750000  0.510544  1
  Er  Er19  1  0.030628  0.750000  0.989859  1
  Hg  Hg20  1  0.405116  0.750000  0.958959  1
  Bi  Bi21  1  0.904769  0.750000  0.543121  1
  Bi  Bi22  1  0.594838  0.250000  0.042681  1
  Bi  Bi23  1  0.095071  0.250000  0.457610  1
  Bi  Bi24  1  0.565554  0.996239  0.326280  1
  Bi  Bi25  1  0.064637  0.503788  0.175245  1
  Bi  Bi26  1  0.435101  0.496442  0.674355  1
  Bi  Bi27  1  0.935184  0.004284  0.824934  1
  Bi  Bi28  1  0.435101  0.003558  0.674355  1
  Bi  Bi29  1  0.935184  0.495716  0.824934  1
  Bi  Bi30  1  0.565554  0.503761  0.326280  1
  Bi  Bi31  1  0.064637  0.996212  0.175245  1
