# generated using pymatgen
data_Ti5MnGaCo9B4
_symmetry_space_group_name_H-M   'P 1'
_cell_length_a   8.50988044
_cell_length_b   8.47823562
_cell_length_c   2.99024600
_cell_angle_alpha   90.00000000
_cell_angle_beta   90.00000000
_cell_angle_gamma   89.25496033
_symmetry_Int_Tables_number   1
_chemical_formula_structural   Ti5MnGaCo9B4
_chemical_formula_sum   'Ti5 Mn1 Ga1 Co9 B4'
_cell_volume   215.72433579
_cell_formula_units_Z   1
loop_
 _symmetry_equiv_pos_site_id
 _symmetry_equiv_pos_as_xyz
  1  'x, y, z'
loop_
 _atom_site_type_symbol
 _atom_site_label
 _atom_site_symmetry_multiplicity
 _atom_site_fract_x
 _atom_site_fract_y
 _atom_site_fract_z
 _atom_site_occupancy
  Ti  Ti0  1  0.500000  0.500000  0.000000  1
  Ti  Ti1  1  0.827125  0.322091  0.000000  1
  Ti  Ti2  1  0.327162  0.169478  0.000000  1
  Ti  Ti3  1  0.672838  0.830522  0.000000  1
  Ti  Ti4  1  0.172875  0.677909  0.000000  1
  Mn  Mn5  1  0.500000  0.000000  0.500000  1
  Ga  Ga6  1  0.000000  0.000000  0.000000  1
  Co  Co7  1  0.000000  0.500000  0.500000  1
  Co  Co8  1  0.071835  0.221043  0.500000  1
  Co  Co9  1  0.216786  0.925375  0.500000  1
  Co  Co10  1  0.783214  0.074625  0.500000  1
  Co  Co11  1  0.928165  0.778957  0.500000  1
  Co  Co12  1  0.426361  0.716718  0.500000  1
  Co  Co13  1  0.573639  0.283282  0.500000  1
  Co  Co14  1  0.721082  0.570505  0.500000  1
  Co  Co15  1  0.278918  0.429495  0.500000  1
  B  B16  1  0.623983  0.122660  0.000000  1
  B  B17  1  0.121621  0.377188  0.000000  1
  B  B18  1  0.878379  0.622812  0.000000  1
  B  B19  1  0.376017  0.877340  0.000000  1
