# generated using pymatgen
data_LaTbNd5Rh3
_symmetry_space_group_name_H-M   'P 1'
_cell_length_a   6.44787201
_cell_length_b   10.14632175
_cell_length_c   10.09991887
_cell_angle_alpha   120.54488642
_cell_angle_beta   90.00569825
_cell_angle_gamma   89.99389885
_symmetry_Int_Tables_number   1
_chemical_formula_structural   LaTbNd5Rh3
_chemical_formula_sum   'La2 Tb2 Nd10 Rh6'
_cell_volume   569.06610239
_cell_formula_units_Z   2
loop_
 _symmetry_equiv_pos_site_id
 _symmetry_equiv_pos_as_xyz
  1  'x, y, z'
loop_
 _atom_site_type_symbol
 _atom_site_label
 _atom_site_symmetry_multiplicity
 _atom_site_fract_x
 _atom_site_fract_y
 _atom_site_fract_z
 _atom_site_occupancy
  La  La0  1  0.259283  0.126685  0.875443  1
  La  La1  1  0.258442  0.749240  0.875885  1
  Tb  Tb2  1  0.465220  0.332004  0.666167  1
  Tb  Tb3  1  0.966540  0.667610  0.333204  1
  Nd  Nd4  1  0.257341  0.125731  0.251825  1
  Nd  Nd5  1  0.758305  0.875846  0.126443  1
  Nd  Nd6  1  0.757023  0.249903  0.126022  1
  Nd  Nd7  1  0.756677  0.874400  0.748749  1
  Nd  Nd8  1  0.440406  0.540151  0.458101  1
  Nd  Nd9  1  0.438400  0.918039  0.458221  1
  Nd  Nd10  1  0.439861  0.540933  0.081901  1
  Nd  Nd11  1  0.939436  0.458358  0.540008  1
  Nd  Nd12  1  0.937272  0.081397  0.540115  1
  Nd  Nd13  1  0.935934  0.459522  0.918963  1
  Rh  Rh14  1  0.180703  0.808517  0.188198  1
  Rh  Rh15  1  0.180613  0.380571  0.188985  1
  Rh  Rh16  1  0.181089  0.810334  0.621162  1
  Rh  Rh17  1  0.677120  0.190636  0.809281  1
  Rh  Rh18  1  0.676391  0.618514  0.808887  1
  Rh  Rh19  1  0.679944  0.191609  0.382438  1
