# generated using pymatgen
data_V3GaOsS8
_symmetry_space_group_name_H-M   'P 1'
_cell_length_a   6.82505534
_cell_length_b   6.82505545
_cell_length_c   6.82505690
_cell_angle_alpha   60.24109794
_cell_angle_beta   60.24109897
_cell_angle_gamma   60.24110495
_symmetry_Int_Tables_number   1
_chemical_formula_structural   V3GaOsS8
_chemical_formula_sum   'V3 Ga1 Os1 S8'
_cell_volume   226.03077103
_cell_formula_units_Z   1
loop_
 _symmetry_equiv_pos_site_id
 _symmetry_equiv_pos_as_xyz
  1  'x, y, z'
loop_
 _atom_site_type_symbol
 _atom_site_label
 _atom_site_symmetry_multiplicity
 _atom_site_fract_x
 _atom_site_fract_y
 _atom_site_fract_z
 _atom_site_occupancy
  V  V0  1  0.604616  0.193067  0.604616  1
  V  V1  1  0.193067  0.604616  0.604616  1
  V  V2  1  0.604616  0.604616  0.193067  1
  Ga  Ga3  1  0.997452  0.997452  0.997452  1
  Os  Os4  1  0.607242  0.607242  0.607242  1
  S  S5  1  0.370106  0.370106  0.370106  1
  S  S6  1  0.366794  0.892210  0.366794  1
  S  S7  1  0.892210  0.366794  0.366794  1
  S  S8  1  0.366794  0.366794  0.892210  1
  S  S9  1  0.862548  0.862548  0.862548  1
  S  S10  1  0.860824  0.412908  0.860824  1
  S  S11  1  0.412908  0.860824  0.860824  1
  S  S12  1  0.860824  0.860824  0.412908  1
