# generated using pymatgen
data_Sb8IrPt2Rh
_symmetry_space_group_name_H-M   'P 1'
_cell_length_a   6.58485723
_cell_length_b   6.73311774
_cell_length_c   6.72335177
_cell_angle_alpha   72.64743263
_cell_angle_beta   89.96919248
_cell_angle_gamma   89.98987673
_symmetry_Int_Tables_number   1
_chemical_formula_structural   Sb8IrPt2Rh
_chemical_formula_sum   'Sb8 Ir1 Pt2 Rh1'
_cell_volume   284.52381159
_cell_formula_units_Z   1
loop_
 _symmetry_equiv_pos_site_id
 _symmetry_equiv_pos_as_xyz
  1  'x, y, z'
loop_
 _atom_site_type_symbol
 _atom_site_label
 _atom_site_symmetry_multiplicity
 _atom_site_fract_x
 _atom_site_fract_y
 _atom_site_fract_z
 _atom_site_occupancy
  Sb  Sb0  1  0.138910  0.152451  0.140156  1
  Sb  Sb1  1  0.633200  0.860950  0.350668  1
  Sb  Sb2  1  0.867090  0.859898  0.851428  1
  Sb  Sb3  1  0.362408  0.152498  0.639818  1
  Sb  Sb4  1  0.637058  0.347671  0.857983  1
  Sb  Sb5  1  0.132497  0.639699  0.650566  1
  Sb  Sb6  1  0.367438  0.638961  0.151427  1
  Sb  Sb7  1  0.861792  0.347874  0.357625  1
  Ir  Ir8  1  0.999669  0.249838  0.748731  1
  Pt  Pt9  1  0.000477  0.750334  0.251265  1
  Pt  Pt10  1  0.499387  0.750075  0.751387  1
  Rh  Rh11  1  0.500073  0.249750  0.248946  1
