# generated using pymatgen
data_Rb4Y3Lu9S20
_symmetry_space_group_name_H-M   'P 1'
_cell_length_a   3.91348500
_cell_length_b   11.72706701
_cell_length_c   20.88677400
_cell_angle_alpha   90.00191522
_cell_angle_beta   90.00000000
_cell_angle_gamma   90.00000000
_symmetry_Int_Tables_number   1
_chemical_formula_structural   Rb4Y3Lu9S20
_chemical_formula_sum   'Rb4 Y3 Lu9 S20'
_cell_volume   958.57135660
_cell_formula_units_Z   1
loop_
 _symmetry_equiv_pos_site_id
 _symmetry_equiv_pos_as_xyz
  1  'x, y, z'
loop_
 _atom_site_type_symbol
 _atom_site_label
 _atom_site_symmetry_multiplicity
 _atom_site_fract_x
 _atom_site_fract_y
 _atom_site_fract_z
 _atom_site_occupancy
  Rb  Rb0  1  0.250000  0.853376  0.093700  1
  Rb  Rb1  1  0.750000  0.146610  0.906414  1
  Rb  Rb2  1  0.750000  0.353848  0.406366  1
  Rb  Rb3  1  0.250000  0.646528  0.593533  1
  Y  Y4  1  0.750000  0.797996  0.825922  1
  Y  Y5  1  0.250000  0.202024  0.174187  1
  Y  Y6  1  0.250000  0.297938  0.674056  1
  Lu  Lu7  1  0.750000  0.701904  0.325596  1
  Lu  Lu8  1  0.250000  0.956917  0.696986  1
  Lu  Lu9  1  0.750000  0.041803  0.303016  1
  Lu  Lu10  1  0.750000  0.456900  0.802973  1
  Lu  Lu11  1  0.250000  0.543820  0.197640  1
  Lu  Lu12  1  0.750000  0.391367  0.052224  1
  Lu  Lu13  1  0.250000  0.608700  0.947843  1
  Lu  Lu14  1  0.250000  0.890353  0.447173  1
  Lu  Lu15  1  0.750000  0.108494  0.552077  1
  S  S16  1  0.250000  0.950778  0.568625  1
  S  S17  1  0.750000  0.048753  0.431082  1
  S  S18  1  0.750000  0.451056  0.931230  1
  S  S19  1  0.250000  0.549241  0.069005  1
  S  S20  1  0.750000  0.762582  0.954947  1
  S  S21  1  0.250000  0.237490  0.045050  1
  S  S22  1  0.250000  0.262581  0.545070  1
  S  S23  1  0.750000  0.736420  0.452494  1
  S  S24  1  0.250000  0.953988  0.824607  1
  S  S25  1  0.750000  0.045960  0.175381  1
  S  S26  1  0.750000  0.454012  0.675398  1
  S  S27  1  0.250000  0.551393  0.325269  1
  S  S28  1  0.750000  0.123620  0.682841  1
  S  S29  1  0.250000  0.873269  0.317113  1
  S  S30  1  0.250000  0.623598  0.817166  1
  S  S31  1  0.750000  0.376648  0.182940  1
  S  S32  1  0.750000  0.691688  0.198132  1
  S  S33  1  0.250000  0.308975  0.803925  1
  S  S34  1  0.250000  0.190424  0.303928  1
  S  S35  1  0.750000  0.808945  0.696091  1
