# generated using pymatgen
data_Tm6NbCo16MoP12
_symmetry_space_group_name_H-M   'P 1'
_cell_length_a   3.69293200
_cell_length_b   10.55937800
_cell_length_c   12.23303100
_cell_angle_alpha   90.00000000
_cell_angle_beta   90.00000000
_cell_angle_gamma   90.00000000
_symmetry_Int_Tables_number   1
_chemical_formula_structural   Tm6NbCo16MoP12
_chemical_formula_sum   'Tm6 Nb1 Co16 Mo1 P12'
_cell_volume   477.02783797
_cell_formula_units_Z   1
loop_
 _symmetry_equiv_pos_site_id
 _symmetry_equiv_pos_as_xyz
  1  'x, y, z'
loop_
 _atom_site_type_symbol
 _atom_site_label
 _atom_site_symmetry_multiplicity
 _atom_site_fract_x
 _atom_site_fract_y
 _atom_site_fract_z
 _atom_site_occupancy
  Tm  Tm0  1  0.000000  0.500000  0.525894  1
  Tm  Tm1  1  0.500000  0.000000  0.472842  1
  Tm  Tm2  1  0.500000  0.819781  0.205074  1
  Tm  Tm3  1  0.500000  0.180219  0.205074  1
  Tm  Tm4  1  0.000000  0.679222  0.794320  1
  Tm  Tm5  1  0.000000  0.320778  0.794320  1
  Nb  Nb6  1  0.000000  0.000000  0.842928  1
  Co  Co7  1  0.500000  0.500000  0.701504  1
  Co  Co8  1  0.000000  0.000000  0.298404  1
  Co  Co9  1  0.000000  0.500000  0.987615  1
  Co  Co10  1  0.500000  0.000000  0.014792  1
  Co  Co11  1  0.500000  0.334137  0.991814  1
  Co  Co12  1  0.500000  0.665863  0.991814  1
  Co  Co13  1  0.000000  0.169202  0.010210  1
  Co  Co14  1  0.000000  0.830798  0.010210  1
  Co  Co15  1  0.500000  0.296288  0.431565  1
  Co  Co16  1  0.500000  0.703712  0.431565  1
  Co  Co17  1  0.000000  0.204988  0.567132  1
  Co  Co18  1  0.000000  0.795012  0.567132  1
  Co  Co19  1  0.500000  0.876262  0.704512  1
  Co  Co20  1  0.500000  0.123738  0.704512  1
  Co  Co21  1  0.000000  0.622458  0.294402  1
  Co  Co22  1  0.000000  0.377542  0.294402  1
  Mo  Mo23  1  0.500000  0.500000  0.158599  1
  P  P24  1  0.500000  0.500000  0.880583  1
  P  P25  1  0.000000  0.000000  0.119526  1
  P  P26  1  0.500000  0.500000  0.352321  1
  P  P27  1  0.000000  0.000000  0.642543  1
  P  P28  1  0.500000  0.312754  0.615652  1
  P  P29  1  0.500000  0.687246  0.615652  1
  P  P30  1  0.000000  0.188099  0.383218  1
  P  P31  1  0.000000  0.811901  0.383218  1
  P  P32  1  0.500000  0.839904  0.893669  1
  P  P33  1  0.500000  0.160096  0.893669  1
  P  P34  1  0.000000  0.655664  0.109656  1
  P  P35  1  0.000000  0.344336  0.109656  1
