# generated using pymatgen
data_Ho4Sc6Sn7Sb
_symmetry_space_group_name_H-M   'P 1'
_cell_length_a   7.73527220
_cell_length_b   7.88666536
_cell_length_c   14.79563255
_cell_angle_alpha   90.06349430
_cell_angle_beta   89.09533297
_cell_angle_gamma   90.10084529
_symmetry_Int_Tables_number   1
_chemical_formula_structural   Ho4Sc6Sn7Sb
_chemical_formula_sum   'Ho8 Sc12 Sn14 Sb2'
_cell_volume   902.50057483
_cell_formula_units_Z   2
loop_
 _symmetry_equiv_pos_site_id
 _symmetry_equiv_pos_as_xyz
  1  'x, y, z'
loop_
 _atom_site_type_symbol
 _atom_site_label
 _atom_site_symmetry_multiplicity
 _atom_site_fract_x
 _atom_site_fract_y
 _atom_site_fract_z
 _atom_site_occupancy
  Ho  Ho0  1  0.989727  0.176441  0.093667  1
  Ho  Ho1  1  0.010273  0.823559  0.906333  1
  Ho  Ho2  1  0.509765  0.676604  0.906139  1
  Ho  Ho3  1  0.013351  0.821623  0.593931  1
  Ho  Ho4  1  0.490235  0.323396  0.093861  1
  Ho  Ho5  1  0.986649  0.178377  0.406069  1
  Ho  Ho6  1  0.483949  0.319850  0.403509  1
  Ho  Ho7  1  0.516051  0.680150  0.596491  1
  Sc  Sc8  1  0.173865  0.494620  0.749210  1
  Sc  Sc9  1  0.826135  0.505380  0.250790  1
  Sc  Sc10  1  0.326538  0.995100  0.250206  1
  Sc  Sc11  1  0.673462  0.004900  0.749794  1
  Sc  Sc12  1  0.350425  0.158653  0.627106  1
  Sc  Sc13  1  0.649575  0.841347  0.372894  1
  Sc  Sc14  1  0.149863  0.657833  0.375669  1
  Sc  Sc15  1  0.656484  0.838833  0.127926  1
  Sc  Sc16  1  0.850137  0.342167  0.624331  1
  Sc  Sc17  1  0.343516  0.161167  0.872074  1
  Sc  Sc18  1  0.844140  0.338540  0.872539  1
  Sc  Sc19  1  0.155860  0.661460  0.127461  1
  Sn  Sn20  1  0.037526  0.125024  0.748238  1
  Sn  Sn21  1  0.962474  0.874976  0.251762  1
  Sn  Sn22  1  0.460314  0.623578  0.250730  1
  Sn  Sn23  1  0.539686  0.376422  0.749270  1
  Sn  Sn24  1  0.314842  0.848824  0.750985  1
  Sn  Sn25  1  0.685158  0.151176  0.249015  1
  Sn  Sn26  1  0.182509  0.348727  0.249133  1
  Sn  Sn27  1  0.817491  0.651273  0.750867  1
  Sn  Sn28  1  0.308481  0.956388  0.457622  1
  Sn  Sn29  1  0.815449  0.543068  0.042447  1
  Sn  Sn30  1  0.691519  0.043612  0.542378  1
  Sn  Sn31  1  0.184551  0.456932  0.957553  1
  Sn  Sn32  1  0.684304  0.042500  0.957352  1
  Sn  Sn33  1  0.315696  0.957500  0.042648  1
  Sb  Sb34  1  0.202096  0.456225  0.543408  1
  Sb  Sb35  1  0.797904  0.543775  0.456592  1
