# generated using pymatgen
data_Y5Fe17(NiP6)2
_symmetry_space_group_name_H-M   'P 1'
_cell_length_a   12.00708500
_cell_length_b   11.94513032
_cell_length_c   3.69942900
_cell_angle_alpha   90.00000000
_cell_angle_beta   90.00000000
_cell_angle_gamma   119.78852220
_symmetry_Int_Tables_number   1
_chemical_formula_structural   Y5Fe17(NiP6)2
_chemical_formula_sum   'Y5 Fe17 Ni2 P12'
_cell_volume   460.48484772
_cell_formula_units_Z   1
loop_
 _symmetry_equiv_pos_site_id
 _symmetry_equiv_pos_as_xyz
  1  'x, y, z'
loop_
 _atom_site_type_symbol
 _atom_site_label
 _atom_site_symmetry_multiplicity
 _atom_site_fract_x
 _atom_site_fract_y
 _atom_site_fract_z
 _atom_site_occupancy
  Y  Y0  1  0.999879  0.812953  0.500000  1
  Y  Y1  1  0.188116  0.188061  0.500000  1
  Y  Y2  1  0.814566  0.003355  0.500000  1
  Y  Y3  1  0.664821  0.333105  0.000000  1
  Y  Y4  1  0.336473  0.666715  0.000000  1
  Fe  Fe5  1  0.999861  0.286305  0.500000  1
  Fe  Fe6  1  0.378350  0.178677  0.000000  1
  Fe  Fe7  1  0.798739  0.621501  0.000000  1
  Fe  Fe8  1  0.819712  0.198612  0.000000  1
  Fe  Fe9  1  0.180979  0.379612  0.000000  1
  Fe  Fe10  1  0.197435  0.813864  0.000000  1
  Fe  Fe11  1  0.877279  0.516751  0.500000  1
  Fe  Fe12  1  0.637293  0.121112  0.500000  1
  Fe  Fe13  1  0.482875  0.361593  0.500000  1
  Fe  Fe14  1  0.359495  0.480247  0.500000  1
  Fe  Fe15  1  0.122874  0.643221  0.500000  1
  Fe  Fe16  1  0.520133  0.875269  0.500000  1
  Fe  Fe17  1  0.283919  0.997572  0.500000  1
  Fe  Fe18  1  0.999883  0.442301  0.000000  1
  Fe  Fe19  1  0.554797  0.558468  0.000000  1
  Fe  Fe20  1  0.440623  0.995273  0.000000  1
  Fe  Fe21  1  0.715157  0.718643  0.500000  1
  Ni  Ni22  1  0.001178  0.001686  0.000000  1
  Ni  Ni23  1  0.624353  0.805118  0.000000  1
  P  P24  1  0.686500  0.522664  0.500000  1
  P  P25  1  0.476696  0.165245  0.500000  1
  P  P26  1  0.831645  0.310483  0.500000  1
  P  P27  1  0.320817  0.838440  0.500000  1
  P  P28  1  0.167367  0.477985  0.500000  1
  P  P29  1  0.819187  0.816175  0.000000  1
  P  P30  1  0.185621  0.999927  0.000000  1
  P  P31  1  0.992082  0.625452  0.000000  1
  P  P32  1  0.372046  0.370702  0.000000  1
  P  P33  1  0.629116  0.005690  0.000000  1
  P  P34  1  0.519230  0.679790  0.500000  1
  P  P35  1  0.000898  0.187433  0.000000  1
