# generated using pymatgen
data_Ho3Cd3Ag2Ir
_symmetry_space_group_name_H-M   'P 1'
_cell_length_a   7.97777200
_cell_length_b   7.97777181
_cell_length_c   3.70075200
_cell_angle_alpha   90.00000000
_cell_angle_beta   90.00000000
_cell_angle_gamma   120.00000078
_symmetry_Int_Tables_number   1
_chemical_formula_structural   Ho3Cd3Ag2Ir
_chemical_formula_sum   'Ho3 Cd3 Ag2 Ir1'
_cell_volume   203.97824041
_cell_formula_units_Z   1
loop_
 _symmetry_equiv_pos_site_id
 _symmetry_equiv_pos_as_xyz
  1  'x, y, z'
loop_
 _atom_site_type_symbol
 _atom_site_label
 _atom_site_symmetry_multiplicity
 _atom_site_fract_x
 _atom_site_fract_y
 _atom_site_fract_z
 _atom_site_occupancy
  Ho  Ho0  1  0.578635  0.965717  0.000000  1
  Ho  Ho1  1  0.034283  0.612918  0.000000  1
  Ho  Ho2  1  0.387082  0.421365  0.000000  1
  Cd  Cd3  1  0.274662  0.008763  0.500000  1
  Cd  Cd4  1  0.991237  0.265899  0.500000  1
  Cd  Cd5  1  0.734101  0.725338  0.500000  1
  Ag  Ag6  1  0.666667  0.333333  0.500000  1
  Ag  Ag7  1  0.000000  0.000000  0.000000  1
  Ir  Ir8  1  0.333333  0.666667  0.500000  1
