# generated using pymatgen
data_LiTb8Sc10Si16Os
_symmetry_space_group_name_H-M   'P 1'
_cell_length_a   6.97880139
_cell_length_b   7.35406340
_cell_length_c   13.92449600
_cell_angle_alpha   90.00000000
_cell_angle_beta   90.00000000
_cell_angle_gamma   89.99984193
_symmetry_Int_Tables_number   1
_chemical_formula_structural   LiTb8Sc10Si16Os
_chemical_formula_sum   'Li1 Tb8 Sc10 Si16 Os1'
_cell_volume   714.64061283
_cell_formula_units_Z   1
loop_
 _symmetry_equiv_pos_site_id
 _symmetry_equiv_pos_as_xyz
  1  'x, y, z'
loop_
 _atom_site_type_symbol
 _atom_site_label
 _atom_site_symmetry_multiplicity
 _atom_site_fract_x
 _atom_site_fract_y
 _atom_site_fract_z
 _atom_site_occupancy
  Li  Li0  1  0.842889  0.495489  0.250000  1
  Tb  Tb1  1  0.010814  0.184080  0.095426  1
  Tb  Tb2  1  0.993485  0.820442  0.900541  1
  Tb  Tb3  1  0.489084  0.672303  0.902002  1
  Tb  Tb4  1  0.993485  0.820442  0.599459  1
  Tb  Tb5  1  0.516168  0.326065  0.096399  1
  Tb  Tb6  1  0.010814  0.184080  0.404574  1
  Tb  Tb7  1  0.516168  0.326065  0.403601  1
  Tb  Tb8  1  0.489084  0.672303  0.597998  1
  Sc  Sc9  1  0.343906  0.001615  0.250000  1
  Sc  Sc10  1  0.658128  0.997289  0.750000  1
  Sc  Sc11  1  0.325863  0.176954  0.626759  1
  Sc  Sc12  1  0.675112  0.819247  0.374325  1
  Sc  Sc13  1  0.167913  0.670852  0.376178  1
  Sc  Sc14  1  0.675112  0.819247  0.125675  1
  Sc  Sc15  1  0.823637  0.330513  0.628222  1
  Sc  Sc16  1  0.325863  0.176954  0.873241  1
  Sc  Sc17  1  0.823637  0.330513  0.871778  1
  Sc  Sc18  1  0.167913  0.670852  0.123822  1
  Si  Si19  1  0.029331  0.123893  0.750000  1
  Si  Si20  1  0.973348  0.893171  0.250000  1
  Si  Si21  1  0.466107  0.615259  0.250000  1
  Si  Si22  1  0.514391  0.392337  0.750000  1
  Si  Si23  1  0.287158  0.865689  0.750000  1
  Si  Si24  1  0.715801  0.118143  0.250000  1
  Si  Si25  1  0.220136  0.374923  0.250000  1
  Si  Si26  1  0.796578  0.627915  0.750000  1
  Si  Si27  1  0.153981  0.464649  0.548981  1
  Si  Si28  1  0.842991  0.539322  0.468158  1
  Si  Si29  1  0.345036  0.965147  0.462333  1
  Si  Si30  1  0.842991  0.539322  0.031842  1
  Si  Si31  1  0.657344  0.033726  0.539170  1
  Si  Si32  1  0.153981  0.464649  0.951019  1
  Si  Si33  1  0.657344  0.033726  0.960830  1
  Si  Si34  1  0.345036  0.965147  0.037667  1
  Os  Os35  1  0.149375  0.487681  0.750000  1
