# generated using pymatgen
data_Pr2Nd2Mn4Fe3AuO20
_symmetry_space_group_name_H-M   'P 1'
_cell_length_a   5.83526500
_cell_length_b   7.59701299
_cell_length_c   8.80099900
_cell_angle_alpha   89.90253621
_cell_angle_beta   90.00000000
_cell_angle_gamma   90.00000000
_symmetry_Int_Tables_number   1
_chemical_formula_structural   Pr2Nd2Mn4Fe3AuO20
_chemical_formula_sum   'Pr2 Nd2 Mn4 Fe3 Au1 O20'
_cell_volume   390.15286109
_cell_formula_units_Z   1
loop_
 _symmetry_equiv_pos_site_id
 _symmetry_equiv_pos_as_xyz
  1  'x, y, z'
loop_
 _atom_site_type_symbol
 _atom_site_label
 _atom_site_symmetry_multiplicity
 _atom_site_fract_x
 _atom_site_fract_y
 _atom_site_fract_z
 _atom_site_occupancy
  Pr  Pr0  1  0.000000  0.369232  0.673996  1
  Pr  Pr1  1  0.000000  0.635996  0.327231  1
  Nd  Nd2  1  0.000000  0.854392  0.829109  1
  Nd  Nd3  1  0.000000  0.146658  0.170197  1
  Mn  Mn4  1  0.255642  0.503570  0.002085  1
  Mn  Mn5  1  0.749175  0.998488  0.495774  1
  Mn  Mn6  1  0.744358  0.503570  0.002085  1
  Mn  Mn7  1  0.250825  0.998488  0.495774  1
  Fe  Fe8  1  0.500000  0.889851  0.150175  1
  Fe  Fe9  1  0.500000  0.611542  0.643780  1
  Fe  Fe10  1  0.500000  0.390070  0.357897  1
  Au  Au11  1  0.500000  0.058959  0.842909  1
  O  O12  1  0.245708  0.904269  0.293814  1
  O  O13  1  0.236590  0.096336  0.698413  1
  O  O14  1  0.751615  0.402952  0.207194  1
  O  O15  1  0.750784  0.603520  0.795449  1
  O  O16  1  0.763410  0.096336  0.698413  1
  O  O17  1  0.754292  0.904269  0.293814  1
  O  O18  1  0.249216  0.603520  0.795449  1
  O  O19  1  0.248385  0.402952  0.207194  1
  O  O20  1  0.500000  0.362371  0.944440  1
  O  O21  1  0.500000  0.658275  0.069094  1
  O  O22  1  0.500000  0.847034  0.558038  1
  O  O23  1  0.500000  0.151888  0.434578  1
  O  O24  1  0.267804  0.998470  0.005498  1
  O  O25  1  0.725415  0.500096  0.501473  1
  O  O26  1  0.732196  0.998470  0.005498  1
  O  O27  1  0.274585  0.500096  0.501473  1
  O  O28  1  0.000000  0.156262  0.446126  1
  O  O29  1  0.000000  0.842153  0.550150  1
  O  O30  1  0.000000  0.662212  0.053840  1
  O  O31  1  0.000000  0.347707  0.949043  1
