# generated using pymatgen
data_Tb3DyNi2(B8Rh)2
_symmetry_space_group_name_H-M   'P 1'
_cell_length_a   6.91911053
_cell_length_b   6.91911115
_cell_length_c   6.91911100
_cell_angle_alpha   111.19895555
_cell_angle_beta   113.37111949
_cell_angle_gamma   103.98732516
_symmetry_Int_Tables_number   1
_chemical_formula_structural   Tb3DyNi2(B8Rh)2
_chemical_formula_sum   'Tb3 Dy1 Ni2 B16 Rh2'
_cell_volume   253.16295944
_cell_formula_units_Z   1
loop_
 _symmetry_equiv_pos_site_id
 _symmetry_equiv_pos_as_xyz
  1  'x, y, z'
loop_
 _atom_site_type_symbol
 _atom_site_label
 _atom_site_symmetry_multiplicity
 _atom_site_fract_x
 _atom_site_fract_y
 _atom_site_fract_z
 _atom_site_occupancy
  Tb  Tb0  1  0.791124  0.791124  0.000000  1
  Tb  Tb1  1  0.208876  0.208876  0.000000  1
  Tb  Tb2  1  0.751183  0.251183  0.500000  1
  Dy  Dy3  1  0.248817  0.748817  0.500000  1
  Ni  Ni4  1  0.500000  0.744643  0.244643  1
  Ni  Ni5  1  0.500000  0.255357  0.755357  1
  B  B6  1  0.273337  0.108695  0.382032  1
  B  B7  1  0.726663  0.891305  0.617968  1
  B  B8  1  0.273337  0.891305  0.164642  1
  B  B9  1  0.726663  0.108695  0.835358  1
  B  B10  1  0.111011  0.730297  0.841309  1
  B  B11  1  0.888989  0.269703  0.158691  1
  B  B12  1  0.111011  0.269703  0.380714  1
  B  B13  1  0.888989  0.730297  0.619286  1
  B  B14  1  0.114516  0.109015  0.527602  1
  B  B15  1  0.581412  0.586912  0.472398  1
  B  B16  1  0.114516  0.586912  0.005501  1
  B  B17  1  0.581412  0.109015  0.994499  1
  B  B18  1  0.885484  0.890985  0.472398  1
  B  B19  1  0.418588  0.413088  0.527602  1
  B  B20  1  0.885484  0.413088  0.994499  1
  B  B21  1  0.418588  0.890985  0.005501  1
  Rh  Rh22  1  0.276314  0.500000  0.776314  1
  Rh  Rh23  1  0.723686  0.500000  0.223686  1
