# generated using pymatgen
data_Sm3Dy(Tc3Os)2
_symmetry_space_group_name_H-M   'P 1'
_cell_length_a   5.32462100
_cell_length_b   5.32462121
_cell_length_c   9.19533100
_cell_angle_alpha   90.00000000
_cell_angle_beta   90.00000000
_cell_angle_gamma   120.00000494
_symmetry_Int_Tables_number   1
_chemical_formula_structural   Sm3Dy(Tc3Os)2
_chemical_formula_sum   'Sm3 Dy1 Tc6 Os2'
_cell_volume   225.77476303
_cell_formula_units_Z   1
loop_
 _symmetry_equiv_pos_site_id
 _symmetry_equiv_pos_as_xyz
  1  'x, y, z'
loop_
 _atom_site_type_symbol
 _atom_site_label
 _atom_site_symmetry_multiplicity
 _atom_site_fract_x
 _atom_site_fract_y
 _atom_site_fract_z
 _atom_site_occupancy
  Sm  Sm0  1  0.333333  0.666667  0.436450  1
  Sm  Sm1  1  0.666667  0.333333  0.563082  1
  Sm  Sm2  1  0.666667  0.333333  0.937025  1
  Dy  Dy3  1  0.333333  0.666667  0.063904  1
  Tc  Tc4  1  0.829709  0.170291  0.248986  1
  Tc  Tc5  1  0.829709  0.659417  0.248986  1
  Tc  Tc6  1  0.340583  0.170291  0.248986  1
  Tc  Tc7  1  0.170607  0.829393  0.750821  1
  Tc  Tc8  1  0.170607  0.341214  0.750821  1
  Tc  Tc9  1  0.658786  0.829393  0.750821  1
  Os  Os10  1  0.000000  0.000000  0.499844  1
  Os  Os11  1  0.000000  0.000000  0.000273  1
