# generated using pymatgen
data_Mg4Ga2B4PtRh9
_symmetry_space_group_name_H-M   'P 1'
_cell_length_a   9.45063317
_cell_length_b   9.45150117
_cell_length_c   2.94845000
_cell_angle_alpha   90.00000000
_cell_angle_beta   90.00000000
_cell_angle_gamma   90.09391204
_symmetry_Int_Tables_number   1
_chemical_formula_structural   Mg4Ga2B4PtRh9
_chemical_formula_sum   'Mg4 Ga2 B4 Pt1 Rh9'
_cell_volume   263.36307417
_cell_formula_units_Z   1
loop_
 _symmetry_equiv_pos_site_id
 _symmetry_equiv_pos_as_xyz
  1  'x, y, z'
loop_
 _atom_site_type_symbol
 _atom_site_label
 _atom_site_symmetry_multiplicity
 _atom_site_fract_x
 _atom_site_fract_y
 _atom_site_fract_z
 _atom_site_occupancy
  Mg  Mg0  1  0.323664  0.175829  0.000000  1
  Mg  Mg1  1  0.825356  0.328838  0.000000  1
  Mg  Mg2  1  0.175831  0.675838  0.000000  1
  Mg  Mg3  1  0.673929  0.819865  0.000000  1
  Ga  Ga4  1  0.006283  0.998064  0.000000  1
  Ga  Ga5  1  0.499827  0.500821  0.000000  1
  B  B6  1  0.617044  0.127957  0.000000  1
  B  B7  1  0.125398  0.374698  0.000000  1
  B  B8  1  0.874139  0.625471  0.000000  1
  B  B9  1  0.373449  0.871635  0.000000  1
  Pt  Pt10  1  0.785480  0.071895  0.499998  1
  Rh  Rh11  1  0.501369  0.999341  0.499998  1
  Rh  Rh12  1  0.070105  0.215688  0.499998  1
  Rh  Rh13  1  0.572956  0.285525  0.499998  1
  Rh  Rh14  1  0.284386  0.428080  0.499998  1
  Rh  Rh15  1  0.000688  0.500961  0.499998  1
  Rh  Rh16  1  0.715938  0.570699  0.499998  1
  Rh  Rh17  1  0.428940  0.715249  0.499998  1
  Rh  Rh18  1  0.927645  0.785297  0.499998  1
  Rh  Rh19  1  0.217576  0.928249  0.499998  1
