# generated using pymatgen
data_Zn3AgRh2
_symmetry_space_group_name_H-M   'P 1'
_cell_length_a   4.28833551
_cell_length_b   3.16994700
_cell_length_c   6.80279172
_cell_angle_alpha   90.00000000
_cell_angle_beta   108.83109833
_cell_angle_gamma   90.00000000
_symmetry_Int_Tables_number   1
_chemical_formula_structural   Zn3AgRh2
_chemical_formula_sum   'Zn3 Ag1 Rh2'
_cell_volume   87.52592592
_cell_formula_units_Z   1
loop_
 _symmetry_equiv_pos_site_id
 _symmetry_equiv_pos_as_xyz
  1  'x, y, z'
loop_
 _atom_site_type_symbol
 _atom_site_label
 _atom_site_symmetry_multiplicity
 _atom_site_fract_x
 _atom_site_fract_y
 _atom_site_fract_z
 _atom_site_occupancy
  Zn  Zn0  1  0.000000  0.000000  0.000000  1
  Zn  Zn1  1  0.681970  0.000000  0.354427  1
  Zn  Zn2  1  0.318030  0.000000  0.645573  1
  Ag  Ag3  1  0.500000  0.500000  0.000000  1
  Rh  Rh4  1  0.163419  0.500000  0.320234  1
  Rh  Rh5  1  0.836583  0.500000  0.679767  1
