# generated using pymatgen
data_Hf2ZrSc5Nb12Si15As
_symmetry_space_group_name_H-M   'P 1'
_cell_length_a   6.70865344
_cell_length_b   6.90170184
_cell_length_c   13.16031500
_cell_angle_alpha   89.88713017
_cell_angle_beta   90.16974424
_cell_angle_gamma   90.03741787
_symmetry_Int_Tables_number   1
_chemical_formula_structural   Hf2ZrSc5Nb12Si15As
_chemical_formula_sum   'Hf2 Zr1 Sc5 Nb12 Si15 As1'
_cell_volume   609.33341608
_cell_formula_units_Z   1
loop_
 _symmetry_equiv_pos_site_id
 _symmetry_equiv_pos_as_xyz
  1  'x, y, z'
loop_
 _atom_site_type_symbol
 _atom_site_label
 _atom_site_symmetry_multiplicity
 _atom_site_fract_x
 _atom_site_fract_y
 _atom_site_fract_z
 _atom_site_occupancy
  Hf  Hf0  1  0.496677  0.674967  0.595660  1
  Hf  Hf1  1  0.999551  0.825707  0.904904  1
  Zr  Zr2  1  0.499113  0.326003  0.094184  1
  Sc  Sc3  1  0.005588  0.177525  0.404629  1
  Sc  Sc4  1  0.500025  0.326857  0.406198  1
  Sc  Sc5  1  0.001629  0.172820  0.093376  1
  Sc  Sc6  1  0.498144  0.673611  0.906687  1
  Sc  Sc7  1  0.997528  0.823206  0.595312  1
  Nb  Nb8  1  0.660388  0.172259  0.624731  1
  Nb  Nb9  1  0.163655  0.327973  0.876124  1
  Nb  Nb10  1  0.336104  0.828046  0.123581  1
  Nb  Nb11  1  0.837997  0.668028  0.374905  1
  Nb  Nb12  1  0.338091  0.827305  0.376952  1
  Nb  Nb13  1  0.835703  0.671996  0.123426  1
  Nb  Nb14  1  0.665195  0.170813  0.875713  1
  Nb  Nb15  1  0.164910  0.331310  0.624843  1
  Nb  Nb16  1  0.836951  0.496067  0.750552  1
  Nb  Nb17  1  0.337537  0.004042  0.749162  1
  Nb  Nb18  1  0.163528  0.505256  0.249999  1
  Nb  Nb19  1  0.662512  0.994703  0.247996  1
  Si  Si20  1  0.167789  0.535255  0.038522  1
  Si  Si21  1  0.330682  0.033772  0.960299  1
  Si  Si22  1  0.829723  0.465729  0.539881  1
  Si  Si23  1  0.319156  0.036189  0.540681  1
  Si  Si24  1  0.830078  0.465801  0.960447  1
  Si  Si25  1  0.670541  0.964584  0.038678  1
  Si  Si26  1  0.170884  0.535063  0.461415  1
  Si  Si27  1  0.460193  0.387113  0.751066  1
  Si  Si28  1  0.959886  0.113912  0.749158  1
  Si  Si29  1  0.539961  0.613406  0.249846  1
  Si  Si30  1  0.040842  0.885365  0.249839  1
  Si  Si31  1  0.704127  0.861225  0.750571  1
  Si  Si32  1  0.204626  0.638776  0.750948  1
  Si  Si33  1  0.294959  0.137969  0.250251  1
  Si  Si34  1  0.796749  0.360668  0.249728  1
  As  As35  1  0.678979  0.966680  0.459737  1
