# generated using pymatgen
data_Er3Lu(CuSi3)2
_symmetry_space_group_name_H-M   'P 1'
_cell_length_a   7.94548165
_cell_length_b   7.93880122
_cell_length_c   5.61994146
_cell_angle_alpha   69.34347020
_cell_angle_beta   69.21607601
_cell_angle_gamma   41.44044224
_symmetry_Int_Tables_number   1
_chemical_formula_structural   Er3Lu(CuSi3)2
_chemical_formula_sum   'Er3 Lu1 Cu2 Si6'
_cell_volume   217.18321830
_cell_formula_units_Z   1
loop_
 _symmetry_equiv_pos_site_id
 _symmetry_equiv_pos_as_xyz
  1  'x, y, z'
loop_
 _atom_site_type_symbol
 _atom_site_label
 _atom_site_symmetry_multiplicity
 _atom_site_fract_x
 _atom_site_fract_y
 _atom_site_fract_z
 _atom_site_occupancy
  Er  Er0  1  0.249963  0.250038  0.250037  1
  Er  Er1  1  0.749962  0.750038  0.750037  1
  Er  Er2  1  0.243778  0.756222  0.756222  1
  Lu  Lu3  1  0.756200  0.243800  0.243799  1
  Cu  Cu4  1  0.666790  0.666527  0.333210  1
  Cu  Cu5  1  0.333473  0.333210  0.666526  1
  Si  Si6  1  0.831416  0.831595  0.168583  1
  Si  Si7  1  0.339979  0.828852  0.171145  1
  Si  Si8  1  0.171148  0.660021  0.339976  1
  Si  Si9  1  0.828855  0.339977  0.660020  1
  Si  Si10  1  0.660023  0.171145  0.828851  1
  Si  Si11  1  0.168405  0.168584  0.831595  1
