# generated using pymatgen
data_SnPd3(SeO3)8
_symmetry_space_group_name_H-M   'P 1'
_cell_length_a   8.13383867
_cell_length_b   8.13383867
_cell_length_c   8.13383867
_cell_angle_alpha   90.30553591
_cell_angle_beta   89.69446409
_cell_angle_gamma   90.30553591
_symmetry_Int_Tables_number   1
_chemical_formula_structural   SnPd3(SeO3)8
_chemical_formula_sum   'Sn1 Pd3 Se8 O24'
_cell_volume   538.10645675
_cell_formula_units_Z   1
loop_
 _symmetry_equiv_pos_site_id
 _symmetry_equiv_pos_as_xyz
  1  'x, y, z'
loop_
 _atom_site_type_symbol
 _atom_site_label
 _atom_site_symmetry_multiplicity
 _atom_site_fract_x
 _atom_site_fract_y
 _atom_site_fract_z
 _atom_site_occupancy
  Sn  Sn0  1  0.000000  0.500000  0.500000  1
  Pd  Pd1  1  0.500000  0.500000  0.000000  1
  Pd  Pd2  1  0.500000  0.000000  0.500000  1
  Pd  Pd3  1  0.000000  0.000000  0.000000  1
  Se  Se4  1  0.827396  0.151751  0.675245  1
  Se  Se5  1  0.172604  0.848249  0.324755  1
  Se  Se6  1  0.651751  0.675245  0.672604  1
  Se  Se7  1  0.175245  0.672604  0.848249  1
  Se  Se8  1  0.330949  0.169051  0.830949  1
  Se  Se9  1  0.824755  0.327396  0.151751  1
  Se  Se10  1  0.669051  0.830949  0.169051  1
  Se  Se11  1  0.348249  0.324755  0.327396  1
  O  O12  1  0.249307  0.458860  0.460962  1
  O  O13  1  0.968093  0.246302  0.010921  1
  O  O14  1  0.039038  0.749307  0.458860  1
  O  O15  1  0.469571  0.254007  0.972918  1
  O  O16  1  0.253698  0.989079  0.468093  1
  O  O17  1  0.510921  0.531907  0.753698  1
  O  O18  1  0.971903  0.013704  0.753736  1
  O  O19  1  0.530429  0.745993  0.027082  1
  O  O20  1  0.527082  0.969571  0.254007  1
  O  O21  1  0.472918  0.030429  0.745993  1
  O  O22  1  0.754007  0.972918  0.030429  1
  O  O23  1  0.253736  0.528097  0.986296  1
  O  O24  1  0.041140  0.539038  0.749307  1
  O  O25  1  0.028097  0.986296  0.246264  1
  O  O26  1  0.245993  0.027082  0.969571  1
  O  O27  1  0.489079  0.468093  0.246302  1
  O  O28  1  0.750693  0.541140  0.539038  1
  O  O29  1  0.958860  0.460962  0.250693  1
  O  O30  1  0.031907  0.753698  0.989079  1
  O  O31  1  0.486296  0.246264  0.471903  1
  O  O32  1  0.513704  0.753736  0.528097  1
  O  O33  1  0.960962  0.250693  0.541140  1
  O  O34  1  0.746302  0.010921  0.531907  1
  O  O35  1  0.746264  0.471903  0.013704  1
