# generated using pymatgen
data_Zr4VFe2Os5
_symmetry_space_group_name_H-M   'P 1'
_cell_length_a   5.09538764
_cell_length_b   5.09538770
_cell_length_c   8.60548600
_cell_angle_alpha   90.00000000
_cell_angle_beta   90.00000000
_cell_angle_gamma   118.77763246
_symmetry_Int_Tables_number   1
_chemical_formula_structural   Zr4VFe2Os5
_chemical_formula_sum   'Zr4 V1 Fe2 Os5'
_cell_volume   195.82996789
_cell_formula_units_Z   1
loop_
 _symmetry_equiv_pos_site_id
 _symmetry_equiv_pos_as_xyz
  1  'x, y, z'
loop_
 _atom_site_type_symbol
 _atom_site_label
 _atom_site_symmetry_multiplicity
 _atom_site_fract_x
 _atom_site_fract_y
 _atom_site_fract_z
 _atom_site_occupancy
  Zr  Zr0  1  0.669697  0.330303  0.682736  1
  Zr  Zr1  1  0.332574  0.667426  0.810654  1
  Zr  Zr2  1  0.332574  0.667426  0.189346  1
  Zr  Zr3  1  0.669697  0.330303  0.317264  1
  V  V4  1  0.832889  0.167111  0.000000  1
  Fe  Fe5  1  0.657826  0.826980  0.500000  1
  Fe  Fe6  1  0.173020  0.342174  0.500000  1
  Os  Os7  1  0.173075  0.826925  0.500000  1
  Os  Os8  1  0.345519  0.170167  0.000000  1
  Os  Os9  1  0.829833  0.654481  0.000000  1
  Os  Os10  1  0.991622  0.008378  0.255994  1
  Os  Os11  1  0.991622  0.008378  0.744006  1
