# generated using pymatgen
data_Ho2Ga5CoIr2
_symmetry_space_group_name_H-M   'P 1'
_cell_length_a   5.56617316
_cell_length_b   8.51158176
_cell_length_c   8.51158195
_cell_angle_alpha   96.57947678
_cell_angle_beta   108.96674261
_cell_angle_gamma   108.96674866
_symmetry_Int_Tables_number   1
_chemical_formula_structural   Ho2Ga5CoIr2
_chemical_formula_sum   'Ho4 Ga10 Co2 Ir4'
_cell_volume   349.55003361
_cell_formula_units_Z   2
loop_
 _symmetry_equiv_pos_site_id
 _symmetry_equiv_pos_as_xyz
  1  'x, y, z'
loop_
 _atom_site_type_symbol
 _atom_site_label
 _atom_site_symmetry_multiplicity
 _atom_site_fract_x
 _atom_site_fract_y
 _atom_site_fract_z
 _atom_site_occupancy
  Ho  Ho0  1  0.775761  0.422460  0.128563  1
  Ho  Ho1  1  0.724239  0.871437  0.577540  1
  Ho  Ho2  1  0.224239  0.577540  0.871437  1
  Ho  Ho3  1  0.275761  0.128563  0.422460  1
  Ga  Ga4  1  0.824918  0.748741  0.901836  1
  Ga  Ga5  1  0.675082  0.098164  0.251259  1
  Ga  Ga6  1  0.175082  0.251259  0.098164  1
  Ga  Ga7  1  0.324918  0.901836  0.748741  1
  Ga  Ga8  1  0.750000  0.195280  0.804720  1
  Ga  Ga9  1  0.250000  0.804720  0.195280  1
  Ga  Ga10  1  0.750000  0.500030  0.499970  1
  Ga  Ga11  1  0.250000  0.499970  0.500030  1
  Ga  Ga12  1  0.750000  0.804627  0.195373  1
  Ga  Ga13  1  0.250000  0.195373  0.804627  1
  Co  Co14  1  0.750000  0.000270  0.999730  1
  Co  Co15  1  0.250000  0.999730  0.000270  1
  Ir  Ir16  1  0.593846  0.439807  0.747947  1
  Ir  Ir17  1  0.906154  0.252053  0.560193  1
  Ir  Ir18  1  0.406154  0.560193  0.252053  1
  Ir  Ir19  1  0.093846  0.747947  0.439807  1
