# generated using pymatgen
data_Li8Pr8Sn6BiPb
_symmetry_space_group_name_H-M   'P 1'
_cell_length_a   9.63611879
_cell_length_b   9.63492705
_cell_length_c   7.72731682
_cell_angle_alpha   89.93024694
_cell_angle_beta   90.10490203
_cell_angle_gamma   119.97948436
_symmetry_Int_Tables_number   1
_chemical_formula_structural   Li8Pr8Sn6BiPb
_chemical_formula_sum   'Li8 Pr8 Sn6 Bi1 Pb1'
_cell_volume   621.43958813
_cell_formula_units_Z   1
loop_
 _symmetry_equiv_pos_site_id
 _symmetry_equiv_pos_as_xyz
  1  'x, y, z'
loop_
 _atom_site_type_symbol
 _atom_site_label
 _atom_site_symmetry_multiplicity
 _atom_site_fract_x
 _atom_site_fract_y
 _atom_site_fract_z
 _atom_site_occupancy
  Li  Li0  1  0.832863  0.166691  0.716432  1
  Li  Li1  1  0.832117  0.665648  0.713779  1
  Li  Li2  1  0.334601  0.167800  0.712829  1
  Li  Li3  1  0.168459  0.833902  0.213580  1
  Li  Li4  1  0.170494  0.335521  0.210490  1
  Li  Li5  1  0.663667  0.830302  0.209908  1
  Li  Li6  1  0.664239  0.333246  0.333492  1
  Li  Li7  1  0.333868  0.666552  0.830862  1
  Pr  Pr8  1  0.486252  0.511385  0.505517  1
  Pr  Pr9  1  0.483379  0.974238  0.507751  1
  Pr  Pr10  1  0.026697  0.515744  0.508355  1
  Pr  Pr11  1  0.510439  0.486887  0.003157  1
  Pr  Pr12  1  0.507091  0.021078  0.002568  1
  Pr  Pr13  1  0.979858  0.492044  0.001831  1
  Pr  Pr14  1  0.003195  0.999602  0.503888  1
  Pr  Pr15  1  0.002728  0.999567  0.998121  1
  Sn  Sn16  1  0.333372  0.166445  0.269925  1
  Sn  Sn17  1  0.166585  0.833267  0.769528  1
  Sn  Sn18  1  0.166159  0.333323  0.770165  1
  Sn  Sn19  1  0.666717  0.833767  0.770129  1
  Sn  Sn20  1  0.667285  0.332869  0.733620  1
  Sn  Sn21  1  0.333025  0.666818  0.233106  1
  Bi  Bi22  1  0.833303  0.166784  0.268220  1
  Pb  Pb23  1  0.833608  0.666518  0.270754  1
