# generated using pymatgen
data_YU3(SnRh2)4
_symmetry_space_group_name_H-M   'P 1'
_cell_length_a   4.49118300
_cell_length_b   6.94961881
_cell_length_c   9.80009648
_cell_angle_alpha   91.44636293
_cell_angle_beta   90.00000000
_cell_angle_gamma   90.00000000
_symmetry_Int_Tables_number   1
_chemical_formula_structural   YU3(SnRh2)4
_chemical_formula_sum   'Y1 U3 Sn4 Rh8'
_cell_volume   305.78325194
_cell_formula_units_Z   1
loop_
 _symmetry_equiv_pos_site_id
 _symmetry_equiv_pos_as_xyz
  1  'x, y, z'
loop_
 _atom_site_type_symbol
 _atom_site_label
 _atom_site_symmetry_multiplicity
 _atom_site_fract_x
 _atom_site_fract_y
 _atom_site_fract_z
 _atom_site_occupancy
  Y  Y0  1  0.250000  0.308215  0.101433  1
  U  U1  1  0.750000  0.696064  0.898519  1
  U  U2  1  0.750000  0.807033  0.402250  1
  U  U3  1  0.250000  0.196236  0.597138  1
  Sn  Sn4  1  0.250000  0.789315  0.137572  1
  Sn  Sn5  1  0.750000  0.216252  0.868917  1
  Sn  Sn6  1  0.750000  0.286134  0.351399  1
  Sn  Sn7  1  0.250000  0.716798  0.638975  1
  Rh  Rh8  1  0.250000  0.525875  0.390262  1
  Rh  Rh9  1  0.750000  0.472593  0.608106  1
  Rh  Rh10  1  0.750000  0.015741  0.111752  1
  Rh  Rh11  1  0.250000  0.968094  0.887291  1
  Rh  Rh12  1  0.250000  0.066771  0.339257  1
  Rh  Rh13  1  0.750000  0.926556  0.675701  1
  Rh  Rh14  1  0.750000  0.588403  0.182356  1
  Rh  Rh15  1  0.250000  0.419920  0.809072  1
