# generated using pymatgen
data_K3Pr(VSe4)2
_symmetry_space_group_name_H-M   'P 1'
_cell_length_a   9.40743656
_cell_length_b   10.58887003
_cell_length_c   11.30783553
_cell_angle_alpha   107.20471646
_cell_angle_beta   102.81171377
_cell_angle_gamma   114.47719280
_symmetry_Int_Tables_number   1
_chemical_formula_structural   K3Pr(VSe4)2
_chemical_formula_sum   'K6 Pr2 V4 Se16'
_cell_volume   899.24451607
_cell_formula_units_Z   2
loop_
 _symmetry_equiv_pos_site_id
 _symmetry_equiv_pos_as_xyz
  1  'x, y, z'
loop_
 _atom_site_type_symbol
 _atom_site_label
 _atom_site_symmetry_multiplicity
 _atom_site_fract_x
 _atom_site_fract_y
 _atom_site_fract_z
 _atom_site_occupancy
  K  K0  1  0.000000  0.500000  0.000000  1
  K  K1  1  0.500000  0.500000  0.000000  1
  K  K2  1  0.255573  0.005700  0.011359  1
  K  K3  1  0.491559  0.741418  0.482931  1
  K  K4  1  0.508440  0.258580  0.517069  1
  K  K5  1  0.744427  0.994300  0.988640  1
  Pr  Pr6  1  0.991435  0.241383  0.482415  1
  Pr  Pr7  1  0.008566  0.758617  0.517585  1
  V  V8  1  0.742218  0.344346  0.249969  1
  V  V9  1  0.007781  0.905589  0.249979  1
  V  V10  1  0.992219  0.094412  0.750022  1
  V  V11  1  0.257781  0.655654  0.750031  1
  Se  Se12  1  0.642154  0.268851  0.024503  1
  Se  Se13  1  0.882275  0.755693  0.024657  1
  Se  Se14  1  0.140546  0.160260  0.285407  1
  Se  Se15  1  0.645125  0.125125  0.285795  1
  Se  Se16  1  0.033785  0.476551  0.341651  1
  Se  Se17  1  0.808344  0.865457  0.341974  1
  Se  Se18  1  0.206775  0.856245  0.349799  1
  Se  Se19  1  0.642790  0.493542  0.349922  1
  Se  Se20  1  0.357209  0.506457  0.650077  1
  Se  Se21  1  0.793224  0.143755  0.650200  1
  Se  Se22  1  0.191656  0.134542  0.658026  1
  Se  Se23  1  0.966214  0.523448  0.658349  1
  Se  Se24  1  0.354874  0.874874  0.714204  1
  Se  Se25  1  0.859454  0.839739  0.714592  1
  Se  Se26  1  0.117726  0.244307  0.975344  1
  Se  Se27  1  0.357845  0.731149  0.975498  1
