# generated using pymatgen
data_Na6Zr6BeBr18
_symmetry_space_group_name_H-M   'P 1'
_cell_length_a   10.92787595
_cell_length_b   10.92797159
_cell_length_c   10.92792800
_cell_angle_alpha   111.27085203
_cell_angle_beta   111.27011888
_cell_angle_gamma   111.26950583
_symmetry_Int_Tables_number   1
_chemical_formula_structural   Na6Zr6BeBr18
_chemical_formula_sum   'Na6 Zr6 Be1 Br18'
_cell_volume   931.70917442
_cell_formula_units_Z   1
loop_
 _symmetry_equiv_pos_site_id
 _symmetry_equiv_pos_as_xyz
  1  'x, y, z'
loop_
 _atom_site_type_symbol
 _atom_site_label
 _atom_site_symmetry_multiplicity
 _atom_site_fract_x
 _atom_site_fract_y
 _atom_site_fract_z
 _atom_site_occupancy
  Na  Na0  1  0.332500  0.395964  0.770033  1
  Na  Na1  1  0.770077  0.332511  0.395993  1
  Na  Na2  1  0.395928  0.770225  0.332627  1
  Na  Na3  1  0.667500  0.604036  0.229967  1
  Na  Na4  1  0.229923  0.667489  0.604007  1
  Na  Na5  1  0.604072  0.229775  0.667373  1
  Zr  Zr6  1  0.977795  0.845958  0.762114  1
  Zr  Zr7  1  0.762040  0.977640  0.845656  1
  Zr  Zr8  1  0.845483  0.762071  0.977660  1
  Zr  Zr9  1  0.022205  0.154042  0.237886  1
  Zr  Zr10  1  0.237960  0.022360  0.154344  1
  Zr  Zr11  1  0.154517  0.237929  0.022340  1
  Be  Be12  1  0.000000  0.000000  0.000000  1
  Br  Br13  1  0.297586  0.202973  0.447380  1
  Br  Br14  1  0.447541  0.297811  0.202924  1
  Br  Br15  1  0.202598  0.446870  0.297242  1
  Br  Br16  1  0.702414  0.797027  0.552620  1
  Br  Br17  1  0.552459  0.702189  0.797076  1
  Br  Br18  1  0.797402  0.553130  0.702758  1
  Br  Br19  1  0.243963  0.851492  0.905947  1
  Br  Br20  1  0.905966  0.244029  0.851550  1
  Br  Br21  1  0.851410  0.905721  0.244084  1
  Br  Br22  1  0.756037  0.148508  0.094053  1
  Br  Br23  1  0.094034  0.755971  0.148450  1
  Br  Br24  1  0.148590  0.094279  0.755916  1
  Br  Br25  1  0.060001  0.349673  0.534936  1
  Br  Br26  1  0.534989  0.059965  0.349534  1
  Br  Br27  1  0.349545  0.534879  0.059914  1
  Br  Br28  1  0.939999  0.650327  0.465064  1
  Br  Br29  1  0.465011  0.940035  0.650466  1
  Br  Br30  1  0.650455  0.465121  0.940086  1
