# generated using pymatgen
data_Rb2ZnSiO4
_symmetry_space_group_name_H-M   'P 1'
_cell_length_a   6.79128717
_cell_length_b   10.61089247
_cell_length_c   7.88563500
_cell_angle_alpha   90.00013267
_cell_angle_beta   90.00012156
_cell_angle_gamma   79.76986157
_symmetry_Int_Tables_number   1
_chemical_formula_structural   Rb2ZnSiO4
_chemical_formula_sum   'Rb8 Zn4 Si4 O16'
_cell_volume   559.21773497
_cell_formula_units_Z   4
loop_
 _symmetry_equiv_pos_site_id
 _symmetry_equiv_pos_as_xyz
  1  'x, y, z'
loop_
 _atom_site_type_symbol
 _atom_site_label
 _atom_site_symmetry_multiplicity
 _atom_site_fract_x
 _atom_site_fract_y
 _atom_site_fract_z
 _atom_site_occupancy
  Rb  Rb0  1  0.893240  0.964487  0.271377  1
  Rb  Rb1  1  0.393238  0.464485  0.271380  1
  Rb  Rb2  1  0.106766  0.035515  0.771380  1
  Rb  Rb3  1  0.606763  0.535512  0.771381  1
  Rb  Rb4  1  0.620398  0.206743  0.916156  1
  Rb  Rb5  1  0.120397  0.706741  0.916153  1
  Rb  Rb6  1  0.379601  0.793259  0.416155  1
  Rb  Rb7  1  0.879600  0.293258  0.416154  1
  Zn  Zn8  1  0.807222  0.602511  0.190400  1
  Zn  Zn9  1  0.692778  0.897490  0.690401  1
  Zn  Zn10  1  0.307222  0.102511  0.190400  1
  Zn  Zn11  1  0.192778  0.397489  0.690399  1
  Si  Si12  1  0.465047  0.154974  0.480124  1
  Si  Si13  1  0.965047  0.654975  0.480124  1
  Si  Si14  1  0.534954  0.845025  0.980124  1
  Si  Si15  1  0.034953  0.345026  0.980124  1
  O  O16  1  0.538654  0.179658  0.281480  1
  O  O17  1  0.038654  0.679659  0.281480  1
  O  O18  1  0.461345  0.820343  0.781481  1
  O  O19  1  0.961346  0.320340  0.781480  1
  O  O20  1  0.263906  0.087882  0.451113  1
  O  O21  1  0.763908  0.587881  0.451111  1
  O  O22  1  0.736094  0.912118  0.951112  1
  O  O23  1  0.236093  0.412119  0.951113  1
  O  O24  1  0.650642  0.063659  0.581295  1
  O  O25  1  0.150641  0.563659  0.581295  1
  O  O26  1  0.349361  0.936342  0.081295  1
  O  O27  1  0.849359  0.436340  0.081295  1
  O  O28  1  0.421014  0.293391  0.581554  1
  O  O29  1  0.921013  0.793393  0.581553  1
  O  O30  1  0.578984  0.706609  0.081553  1
  O  O31  1  0.078987  0.206610  0.081553  1
