# generated using pymatgen
data_Y7Ho(Sc3Ge4)4
_symmetry_space_group_name_H-M   'P 1'
_cell_length_a   7.49045102
_cell_length_b   7.49021014
_cell_length_c   13.64500705
_cell_angle_alpha   90.01502399
_cell_angle_beta   90.00513771
_cell_angle_gamma   89.99780427
_symmetry_Int_Tables_number   1
_chemical_formula_structural   Y7Ho(Sc3Ge4)4
_chemical_formula_sum   'Y7 Ho1 Sc12 Ge16'
_cell_volume   765.55380216
_cell_formula_units_Z   1
loop_
 _symmetry_equiv_pos_site_id
 _symmetry_equiv_pos_as_xyz
  1  'x, y, z'
loop_
 _atom_site_type_symbol
 _atom_site_label
 _atom_site_symmetry_multiplicity
 _atom_site_fract_x
 _atom_site_fract_y
 _atom_site_fract_z
 _atom_site_occupancy
  Y  Y0  1  0.346601  0.999315  0.465495  1
  Y  Y1  1  0.500716  0.846661  0.715582  1
  Y  Y2  1  0.499352  0.153241  0.215347  1
  Y  Y3  1  0.846656  0.500700  0.284340  1
  Y  Y4  1  0.153225  0.499426  0.784556  1
  Y  Y5  1  0.653549  0.000523  0.965695  1
  Y  Y6  1  0.999329  0.346670  0.534465  1
  Ho  Ho7  1  0.001079  0.653030  0.034629  1
  Sc  Sc8  1  0.326459  0.326806  0.000020  1
  Sc  Sc9  1  0.173293  0.826433  0.249814  1
  Sc  Sc10  1  0.826588  0.173464  0.750108  1
  Sc  Sc11  1  0.673329  0.673392  0.499994  1
  Sc  Sc12  1  0.154914  0.999020  0.874071  1
  Sc  Sc13  1  0.501153  0.655271  0.123888  1
  Sc  Sc14  1  0.498924  0.344746  0.623945  1
  Sc  Sc15  1  0.655264  0.501350  0.876277  1
  Sc  Sc16  1  0.344742  0.498888  0.375962  1
  Sc  Sc17  1  0.844847  0.000884  0.373769  1
  Sc  Sc18  1  0.999069  0.155095  0.126069  1
  Sc  Sc19  1  0.000988  0.844743  0.626179  1
  Ge  Ge20  1  0.201293  0.134728  0.677256  1
  Ge  Ge21  1  0.364679  0.701264  0.927293  1
  Ge  Ge22  1  0.634694  0.298555  0.427028  1
  Ge  Ge23  1  0.701959  0.365872  0.072985  1
  Ge  Ge24  1  0.298516  0.634611  0.572927  1
  Ge  Ge25  1  0.799314  0.864565  0.176590  1
  Ge  Ge26  1  0.134716  0.201316  0.322750  1
  Ge  Ge27  1  0.865356  0.798628  0.823142  1
  Ge  Ge28  1  0.291951  0.958853  0.067858  1
  Ge  Ge29  1  0.540722  0.792219  0.317906  1
  Ge  Ge30  1  0.459339  0.207705  0.818075  1
  Ge  Ge31  1  0.792240  0.540604  0.682094  1
  Ge  Ge32  1  0.207262  0.459837  0.181645  1
  Ge  Ge33  1  0.707745  0.040804  0.567940  1
  Ge  Ge34  1  0.959348  0.293043  0.932259  1
  Ge  Ge35  1  0.040789  0.707735  0.432051  1
