# generated using pymatgen
data_Ho4CdPt4Pb
_symmetry_space_group_name_H-M   'P 1'
_cell_length_a   7.86228800
_cell_length_b   7.86228800
_cell_length_c   3.61453200
_cell_angle_alpha   90.00000000
_cell_angle_beta   90.00000000
_cell_angle_gamma   90.00000000
_symmetry_Int_Tables_number   1
_chemical_formula_structural   Ho4CdPt4Pb
_chemical_formula_sum   'Ho4 Cd1 Pt4 Pb1'
_cell_volume   223.43436524
_cell_formula_units_Z   1
loop_
 _symmetry_equiv_pos_site_id
 _symmetry_equiv_pos_as_xyz
  1  'x, y, z'
loop_
 _atom_site_type_symbol
 _atom_site_label
 _atom_site_symmetry_multiplicity
 _atom_site_fract_x
 _atom_site_fract_y
 _atom_site_fract_z
 _atom_site_occupancy
  Ho  Ho0  1  0.664238  0.171971  0.500000  1
  Ho  Ho1  1  0.171971  0.335762  0.500000  1
  Ho  Ho2  1  0.828029  0.664238  0.500000  1
  Ho  Ho3  1  0.335762  0.828029  0.500000  1
  Cd  Cd4  1  0.000000  0.000000  0.000000  1
  Pt  Pt5  1  0.361794  0.119045  0.000000  1
  Pt  Pt6  1  0.119045  0.638206  0.000000  1
  Pt  Pt7  1  0.638206  0.880955  0.000000  1
  Pt  Pt8  1  0.880955  0.361794  0.000000  1
  Pb  Pb9  1  0.500000  0.500000  0.000000  1
