# generated using pymatgen
data_NbCoTcB2
_symmetry_space_group_name_H-M   'P 1'
_cell_length_a   4.56402222
_cell_length_b   4.56402171
_cell_length_c   4.56402300
_cell_angle_alpha   139.34654161
_cell_angle_beta   119.43519941
_cell_angle_gamma   75.51641606
_symmetry_Int_Tables_number   1
_chemical_formula_structural   NbCoTcB2
_chemical_formula_sum   'Nb1 Co1 Tc1 B2'
_cell_volume   52.66400987
_cell_formula_units_Z   1
loop_
 _symmetry_equiv_pos_site_id
 _symmetry_equiv_pos_as_xyz
  1  'x, y, z'
loop_
 _atom_site_type_symbol
 _atom_site_label
 _atom_site_symmetry_multiplicity
 _atom_site_fract_x
 _atom_site_fract_y
 _atom_site_fract_z
 _atom_site_occupancy
  Nb  Nb0  1  0.295100  0.795100  0.500000  1
  Co  Co1  1  0.000195  0.000195  0.000000  1
  Tc  Tc2  1  0.697185  0.197185  0.500000  1
  B  B3  1  0.705929  0.503759  0.202169  1
  B  B4  1  0.301590  0.503759  0.797831  1
