# generated using pymatgen
data_CaHoErGa8Ag3
_symmetry_space_group_name_H-M   'P 1'
_cell_length_a   4.35786761
_cell_length_b   8.38323087
_cell_length_c   8.38323191
_cell_angle_alpha   70.06657557
_cell_angle_beta   74.93493576
_cell_angle_gamma   74.93492854
_symmetry_Int_Tables_number   1
_chemical_formula_structural   CaHoErGa8Ag3
_chemical_formula_sum   'Ca1 Ho1 Er1 Ga8 Ag3'
_cell_volume   273.02587122
_cell_formula_units_Z   1
loop_
 _symmetry_equiv_pos_site_id
 _symmetry_equiv_pos_as_xyz
  1  'x, y, z'
loop_
 _atom_site_type_symbol
 _atom_site_label
 _atom_site_symmetry_multiplicity
 _atom_site_fract_x
 _atom_site_fract_y
 _atom_site_fract_z
 _atom_site_occupancy
  Ca  Ca0  1  0.500060  0.499940  0.499940  1
  Ho  Ho1  1  0.202256  0.797744  0.797744  1
  Er  Er2  1  0.797814  0.202186  0.202186  1
  Ga  Ga3  1  0.355411  0.361874  0.927301  1
  Ga  Ga4  1  0.644579  0.637932  0.072913  1
  Ga  Ga5  1  0.355411  0.927301  0.361874  1
  Ga  Ga6  1  0.644579  0.072913  0.637932  1
  Ga  Ga7  1  0.160232  0.471516  0.208021  1
  Ga  Ga8  1  0.839856  0.528309  0.791977  1
  Ga  Ga9  1  0.160232  0.208021  0.471516  1
  Ga  Ga10  1  0.839856  0.791977  0.528309  1
  Ag  Ag11  1  0.499910  0.000090  0.000090  1
  Ag  Ag12  1  0.999902  0.810185  0.190012  1
  Ag  Ag13  1  0.999902  0.190012  0.810185  1
