# generated using pymatgen
data_Dy6Cr2Co(Ni5P4)3
_symmetry_space_group_name_H-M   'P 1'
_cell_length_a   3.74976500
_cell_length_b   10.55263100
_cell_length_c   12.32902000
_cell_angle_alpha   90.00000000
_cell_angle_beta   90.00000000
_cell_angle_gamma   90.00000000
_symmetry_Int_Tables_number   1
_chemical_formula_structural   Dy6Cr2Co(Ni5P4)3
_chemical_formula_sum   'Dy6 Cr2 Co1 Ni15 P12'
_cell_volume   487.85792060
_cell_formula_units_Z   1
loop_
 _symmetry_equiv_pos_site_id
 _symmetry_equiv_pos_as_xyz
  1  'x, y, z'
loop_
 _atom_site_type_symbol
 _atom_site_label
 _atom_site_symmetry_multiplicity
 _atom_site_fract_x
 _atom_site_fract_y
 _atom_site_fract_z
 _atom_site_occupancy
  Dy  Dy0  1  0.000000  0.500000  0.521986  1
  Dy  Dy1  1  0.500000  0.000000  0.478359  1
  Dy  Dy2  1  0.500000  0.816692  0.205399  1
  Dy  Dy3  1  0.500000  0.183308  0.205399  1
  Dy  Dy4  1  0.000000  0.683630  0.793988  1
  Dy  Dy5  1  0.000000  0.316370  0.793988  1
  Cr  Cr6  1  0.500000  0.500000  0.154152  1
  Cr  Cr7  1  0.000000  0.000000  0.847864  1
  Co  Co8  1  0.500000  0.000000  0.016207  1
  Ni  Ni9  1  0.500000  0.500000  0.700314  1
  Ni  Ni10  1  0.000000  0.000000  0.298327  1
  Ni  Ni11  1  0.000000  0.500000  0.983146  1
  Ni  Ni12  1  0.500000  0.331476  0.989989  1
  Ni  Ni13  1  0.500000  0.668524  0.989989  1
  Ni  Ni14  1  0.000000  0.166692  0.009153  1
  Ni  Ni15  1  0.000000  0.833308  0.009153  1
  Ni  Ni16  1  0.500000  0.301978  0.427479  1
  Ni  Ni17  1  0.500000  0.698022  0.427479  1
  Ni  Ni18  1  0.000000  0.197330  0.572629  1
  Ni  Ni19  1  0.000000  0.802670  0.572629  1
  Ni  Ni20  1  0.500000  0.880341  0.711615  1
  Ni  Ni21  1  0.500000  0.119659  0.711615  1
  Ni  Ni22  1  0.000000  0.620150  0.289170  1
  Ni  Ni23  1  0.000000  0.379850  0.289170  1
  P  P24  1  0.500000  0.500000  0.877678  1
  P  P25  1  0.000000  0.000000  0.120293  1
  P  P26  1  0.500000  0.500000  0.345725  1
  P  P27  1  0.000000  0.000000  0.655750  1
  P  P28  1  0.500000  0.313433  0.613969  1
  P  P29  1  0.500000  0.686567  0.613969  1
  P  P30  1  0.000000  0.186155  0.386164  1
  P  P31  1  0.000000  0.813845  0.386164  1
  P  P32  1  0.500000  0.849165  0.893450  1
  P  P33  1  0.500000  0.150835  0.893450  1
  P  P34  1  0.000000  0.651399  0.107094  1
  P  P35  1  0.000000  0.348601  0.107094  1
