# generated using pymatgen
data_HoTmCo2(PRu)4
_symmetry_space_group_name_H-M   'P 1'
_cell_length_a   3.87038500
_cell_length_b   10.76237609
_cell_length_c   12.54341411
_cell_angle_alpha   89.98505259
_cell_angle_beta   90.00000000
_cell_angle_gamma   90.00000000
_symmetry_Int_Tables_number   1
_chemical_formula_structural   HoTmCo2(PRu)4
_chemical_formula_sum   'Ho3 Tm3 Co6 P12 Ru12'
_cell_volume   522.49011418
_cell_formula_units_Z   3
loop_
 _symmetry_equiv_pos_site_id
 _symmetry_equiv_pos_as_xyz
  1  'x, y, z'
loop_
 _atom_site_type_symbol
 _atom_site_label
 _atom_site_symmetry_multiplicity
 _atom_site_fract_x
 _atom_site_fract_y
 _atom_site_fract_z
 _atom_site_occupancy
  Ho  Ho0  1  0.000000  0.500044  0.527682  1
  Ho  Ho1  1  0.500000  0.999891  0.470596  1
  Ho  Ho2  1  0.000000  0.319831  0.797583  1
  Tm  Tm3  1  0.500000  0.823272  0.203924  1
  Tm  Tm4  1  0.500000  0.176665  0.203721  1
  Tm  Tm5  1  0.000000  0.680456  0.797789  1
  Co  Co6  1  0.000000  0.500303  0.985240  1
  Co  Co7  1  0.500000  0.999786  0.016408  1
  Co  Co8  1  0.000000  0.161071  0.013975  1
  Co  Co9  1  0.000000  0.838758  0.013920  1
  Co  Co10  1  0.500000  0.500385  0.700062  1
  Co  Co11  1  0.000000  0.999924  0.298931  1
  P  P12  1  0.500000  0.314223  0.617585  1
  P  P13  1  0.500000  0.685646  0.618129  1
  P  P14  1  0.000000  0.186349  0.381588  1
  P  P15  1  0.000000  0.813605  0.381895  1
  P  P16  1  0.500000  0.500557  0.878180  1
  P  P17  1  0.000000  0.999901  0.121548  1
  P  P18  1  0.500000  0.852305  0.896120  1
  P  P19  1  0.500000  0.147313  0.896297  1
  P  P20  1  0.000000  0.656463  0.101175  1
  P  P21  1  0.000000  0.343607  0.100939  1
  P  P22  1  0.500000  0.500023  0.338739  1
  P  P23  1  0.000000  0.000012  0.660944  1
  Ru  Ru24  1  0.500000  0.297732  0.427804  1
  Ru  Ru25  1  0.500000  0.702350  0.428043  1
  Ru  Ru26  1  0.000000  0.202033  0.571208  1
  Ru  Ru27  1  0.000000  0.797887  0.571657  1
  Ru  Ru28  1  0.500000  0.875700  0.715215  1
  Ru  Ru29  1  0.500000  0.123387  0.714729  1
  Ru  Ru30  1  0.000000  0.625621  0.282454  1
  Ru  Ru31  1  0.000000  0.374387  0.282262  1
  Ru  Ru32  1  0.500000  0.327970  0.990080  1
  Ru  Ru33  1  0.500000  0.672354  0.989697  1
  Ru  Ru34  1  0.500000  0.500174  0.152468  1
  Ru  Ru35  1  0.000000  0.000016  0.851414  1
