# generated using pymatgen
data_Cs8Ti6BeBr20
_symmetry_space_group_name_H-M   'P 1'
_cell_length_a   12.37503776
_cell_length_b   12.37503789
_cell_length_c   12.37503600
_cell_angle_alpha   59.99999971
_cell_angle_beta   59.99999935
_cell_angle_gamma   59.99999839
_symmetry_Int_Tables_number   1
_chemical_formula_structural   Cs8Ti6BeBr20
_chemical_formula_sum   'Cs8 Ti6 Be1 Br20'
_cell_volume   1340.06089777
_cell_formula_units_Z   1
loop_
 _symmetry_equiv_pos_site_id
 _symmetry_equiv_pos_as_xyz
  1  'x, y, z'
loop_
 _atom_site_type_symbol
 _atom_site_label
 _atom_site_symmetry_multiplicity
 _atom_site_fract_x
 _atom_site_fract_y
 _atom_site_fract_z
 _atom_site_occupancy
  Cs  Cs0  1  0.361940  0.361940  0.361940  1
  Cs  Cs1  1  0.638060  0.638060  0.638060  1
  Cs  Cs2  1  0.361940  0.361940  0.914181  1
  Cs  Cs3  1  0.361940  0.914181  0.361940  1
  Cs  Cs4  1  0.638060  0.638060  0.085819  1
  Cs  Cs5  1  0.638060  0.085819  0.638060  1
  Cs  Cs6  1  0.914181  0.361940  0.361940  1
  Cs  Cs7  1  0.085819  0.638060  0.638060  1
  Ti  Ti8  1  0.870433  0.129567  0.129567  1
  Ti  Ti9  1  0.129567  0.870433  0.870433  1
  Ti  Ti10  1  0.129567  0.870433  0.129567  1
  Ti  Ti11  1  0.870433  0.129567  0.870433  1
  Ti  Ti12  1  0.129567  0.129567  0.870433  1
  Ti  Ti13  1  0.870433  0.870433  0.129567  1
  Be  Be14  1  0.000000  0.000000  0.000000  1
  Br  Br15  1  0.294669  0.000000  0.000000  1
  Br  Br16  1  0.705331  0.000000  0.000000  1
  Br  Br17  1  0.000000  0.294669  0.705331  1
  Br  Br18  1  0.000000  0.705331  0.294669  1
  Br  Br19  1  0.000000  0.294669  0.000000  1
  Br  Br20  1  0.705331  0.000000  0.294669  1
  Br  Br21  1  0.000000  0.705331  0.000000  1
  Br  Br22  1  0.294669  0.000000  0.705331  1
  Br  Br23  1  0.000000  0.000000  0.294669  1
  Br  Br24  1  0.000000  0.000000  0.705331  1
  Br  Br25  1  0.705331  0.294669  0.000000  1
  Br  Br26  1  0.294669  0.705331  0.000000  1
  Br  Br27  1  0.705455  0.294545  0.294545  1
  Br  Br28  1  0.294545  0.705455  0.705455  1
  Br  Br29  1  0.294545  0.705455  0.294545  1
  Br  Br30  1  0.705455  0.294545  0.705455  1
  Br  Br31  1  0.294545  0.294545  0.705455  1
  Br  Br32  1  0.705455  0.705455  0.294545  1
  Br  Br33  1  0.250000  0.250000  0.250000  1
  Br  Br34  1  0.750000  0.750000  0.750000  1
