# generated using pymatgen
data_Y6Er10Cd4Ir2PdRh
_symmetry_space_group_name_H-M   'P 1'
_cell_length_a   9.62665520
_cell_length_b   9.62665465
_cell_length_c   9.59856200
_cell_angle_alpha   60.09648693
_cell_angle_beta   60.09648880
_cell_angle_gamma   60.31111535
_symmetry_Int_Tables_number   1
_chemical_formula_structural   Y6Er10Cd4Ir2PdRh
_chemical_formula_sum   'Y6 Er10 Cd4 Ir2 Pd1 Rh1'
_cell_volume   631.37525533
_cell_formula_units_Z   1
loop_
 _symmetry_equiv_pos_site_id
 _symmetry_equiv_pos_as_xyz
  1  'x, y, z'
loop_
 _atom_site_type_symbol
 _atom_site_label
 _atom_site_symmetry_multiplicity
 _atom_site_fract_x
 _atom_site_fract_y
 _atom_site_fract_z
 _atom_site_occupancy
  Y  Y0  1  0.937768  0.565537  0.560690  1
  Y  Y1  1  0.563369  0.938356  0.936910  1
  Y  Y2  1  0.565537  0.937768  0.560690  1
  Y  Y3  1  0.938356  0.563369  0.936910  1
  Y  Y4  1  0.563127  0.563127  0.936875  1
  Y  Y5  1  0.937870  0.937870  0.560390  1
  Er  Er6  1  0.351275  0.351275  0.344441  1
  Er  Er7  1  0.348522  0.348522  0.956043  1
  Er  Er8  1  0.355649  0.944971  0.347560  1
  Er  Er9  1  0.944971  0.355649  0.347560  1
  Er  Er10  1  0.811559  0.188474  0.187753  1
  Er  Er11  1  0.189409  0.806598  0.815587  1
  Er  Er12  1  0.188474  0.811559  0.187753  1
  Er  Er13  1  0.806598  0.189409  0.815587  1
  Er  Er14  1  0.188943  0.188943  0.815245  1
  Er  Er15  1  0.812257  0.812257  0.187914  1
  Cd  Cd16  1  0.580517  0.580517  0.581488  1
  Cd  Cd17  1  0.580547  0.580547  0.256897  1
  Cd  Cd18  1  0.579756  0.257569  0.581268  1
  Cd  Cd19  1  0.257569  0.579756  0.581268  1
  Ir  Ir20  1  0.140515  0.573279  0.143199  1
  Ir  Ir21  1  0.573279  0.140515  0.143199  1
  Pd  Pd22  1  0.142342  0.142342  0.569503  1
  Rh  Rh23  1  0.141790  0.141790  0.145271  1
