# generated using pymatgen
data_MgSe27
_symmetry_space_group_name_H-M   'P 1'
_cell_length_a   16.43787156
_cell_length_b   16.43787220
_cell_length_c   16.43787232
_cell_angle_alpha   119.25281714
_cell_angle_beta   119.25281199
_cell_angle_gamma   119.25281164
_symmetry_Int_Tables_number   1
_chemical_formula_structural   MgSe27
_chemical_formula_sum   'Mg1 Se27'
_cell_volume   995.58137769
_cell_formula_units_Z   1
loop_
 _symmetry_equiv_pos_site_id
 _symmetry_equiv_pos_as_xyz
  1  'x, y, z'
loop_
 _atom_site_type_symbol
 _atom_site_label
 _atom_site_symmetry_multiplicity
 _atom_site_fract_x
 _atom_site_fract_y
 _atom_site_fract_z
 _atom_site_occupancy
  Mg  Mg0  1  0.450595  0.450595  0.450595  1
  Se  Se1  1  0.987504  0.592812  0.592812  1
  Se  Se2  1  0.592812  0.592812  0.987504  1
  Se  Se3  1  0.592812  0.987504  0.592812  1
  Se  Se4  1  0.277215  0.895196  0.760815  1
  Se  Se5  1  0.895196  0.760815  0.277215  1
  Se  Se6  1  0.760815  0.277215  0.895196  1
  Se  Se7  1  0.895196  0.277215  0.760815  1
  Se  Se8  1  0.277215  0.760815  0.895196  1
  Se  Se9  1  0.760815  0.895196  0.277215  1
  Se  Se10  1  0.060354  0.592981  0.402613  1
  Se  Se11  1  0.592981  0.402613  0.060354  1
  Se  Se12  1  0.402613  0.060354  0.592981  1
  Se  Se13  1  0.592981  0.060354  0.402613  1
  Se  Se14  1  0.060354  0.402613  0.592981  1
  Se  Se15  1  0.402613  0.592981  0.060354  1
  Se  Se16  1  0.387877  0.772784  0.635560  1
  Se  Se17  1  0.772784  0.635560  0.387877  1
  Se  Se18  1  0.635560  0.387877  0.772784  1
  Se  Se19  1  0.772784  0.387877  0.635560  1
  Se  Se20  1  0.387877  0.635560  0.772784  1
  Se  Se21  1  0.635560  0.772784  0.387877  1
  Se  Se22  1  0.153294  0.423214  0.423214  1
  Se  Se23  1  0.423214  0.423214  0.153294  1
  Se  Se24  1  0.423214  0.153294  0.423214  1
  Se  Se25  1  0.016930  0.917969  0.917969  1
  Se  Se26  1  0.917969  0.917969  0.016930  1
  Se  Se27  1  0.917969  0.016930  0.917969  1
