# generated using pymatgen
data_Ce2LuGa5
_symmetry_space_group_name_H-M   'P 1'
_cell_length_a   6.20317000
_cell_length_b   9.67810400
_cell_length_c   11.63065800
_cell_angle_alpha   90.00000000
_cell_angle_beta   90.00000000
_cell_angle_gamma   90.00000000
_symmetry_Int_Tables_number   1
_chemical_formula_structural   Ce2LuGa5
_chemical_formula_sum   'Ce8 Lu4 Ga20'
_cell_volume   698.24567363
_cell_formula_units_Z   4
loop_
 _symmetry_equiv_pos_site_id
 _symmetry_equiv_pos_as_xyz
  1  'x, y, z'
loop_
 _atom_site_type_symbol
 _atom_site_label
 _atom_site_symmetry_multiplicity
 _atom_site_fract_x
 _atom_site_fract_y
 _atom_site_fract_z
 _atom_site_occupancy
  Ce  Ce0  1  0.886221  0.508781  0.352875  1
  Ce  Ce1  1  0.613779  0.991219  0.852875  1
  Ce  Ce2  1  0.113779  0.008781  0.647125  1
  Ce  Ce3  1  0.386221  0.491219  0.147125  1
  Ce  Ce4  1  0.113779  0.491219  0.647125  1
  Ce  Ce5  1  0.386221  0.008781  0.147125  1
  Ce  Ce6  1  0.886221  0.991219  0.352875  1
  Ce  Ce7  1  0.613779  0.508781  0.852875  1
  Lu  Lu8  1  0.853506  0.750000  0.075242  1
  Lu  Lu9  1  0.646494  0.750000  0.575242  1
  Lu  Lu10  1  0.146494  0.250000  0.924758  1
  Lu  Lu11  1  0.353506  0.250000  0.424758  1
  Ga  Ga12  1  0.874221  0.052865  0.089889  1
  Ga  Ga13  1  0.625779  0.447135  0.589889  1
  Ga  Ga14  1  0.125779  0.552865  0.910111  1
  Ga  Ga15  1  0.374221  0.947135  0.410111  1
  Ga  Ga16  1  0.125779  0.947135  0.910111  1
  Ga  Ga17  1  0.374221  0.552865  0.410111  1
  Ga  Ga18  1  0.874221  0.447135  0.089889  1
  Ga  Ga19  1  0.625779  0.052865  0.589889  1
  Ga  Ga20  1  0.168789  0.750000  0.255657  1
  Ga  Ga21  1  0.331211  0.750000  0.755657  1
  Ga  Ga22  1  0.831211  0.250000  0.744343  1
  Ga  Ga23  1  0.668789  0.250000  0.244343  1
  Ga  Ga24  1  0.375111  0.750000  0.999644  1
  Ga  Ga25  1  0.124889  0.750000  0.499644  1
  Ga  Ga26  1  0.624889  0.250000  0.000356  1
  Ga  Ga27  1  0.875111  0.250000  0.500356  1
  Ga  Ga28  1  0.594310  0.750000  0.298055  1
  Ga  Ga29  1  0.905690  0.750000  0.798055  1
  Ga  Ga30  1  0.405690  0.250000  0.701945  1
  Ga  Ga31  1  0.094310  0.250000  0.201945  1
