# generated using pymatgen
data_Nd3Pd5
_symmetry_space_group_name_H-M   'P 1'
_cell_length_a   5.98888505
_cell_length_b   5.98888514
_cell_length_c   9.97481000
_cell_angle_alpha   90.00000000
_cell_angle_beta   90.00000000
_cell_angle_gamma   104.37678779
_symmetry_Int_Tables_number   1
_chemical_formula_structural   Nd3Pd5
_chemical_formula_sum   'Nd6 Pd10'
_cell_volume   346.56016767
_cell_formula_units_Z   2
loop_
 _symmetry_equiv_pos_site_id
 _symmetry_equiv_pos_as_xyz
  1  'x, y, z'
loop_
 _atom_site_type_symbol
 _atom_site_label
 _atom_site_symmetry_multiplicity
 _atom_site_fract_x
 _atom_site_fract_y
 _atom_site_fract_z
 _atom_site_occupancy
  Nd  Nd0  1  0.798300  0.201700  0.000000  1
  Nd  Nd1  1  0.201700  0.798300  0.500000  1
  Nd  Nd2  1  0.201700  0.798300  0.000000  1
  Nd  Nd3  1  0.625863  0.625863  0.250000  1
  Nd  Nd4  1  0.374137  0.374137  0.750000  1
  Nd  Nd5  1  0.798300  0.201700  0.500000  1
  Pd  Pd6  1  0.933313  0.493414  0.750000  1
  Pd  Pd7  1  0.066687  0.506586  0.250000  1
  Pd  Pd8  1  0.682927  0.682927  0.550225  1
  Pd  Pd9  1  0.969024  0.969024  0.750000  1
  Pd  Pd10  1  0.317073  0.317073  0.050225  1
  Pd  Pd11  1  0.493414  0.933313  0.750000  1
  Pd  Pd12  1  0.506586  0.066687  0.250000  1
  Pd  Pd13  1  0.030976  0.030976  0.250000  1
  Pd  Pd14  1  0.682927  0.682927  0.949775  1
  Pd  Pd15  1  0.317073  0.317073  0.449775  1
