# generated using pymatgen
data_MgPdCl6
_symmetry_space_group_name_H-M   'P 1'
_cell_length_a   6.25398202
_cell_length_b   6.25398050
_cell_length_c   6.70630453
_cell_angle_alpha   81.27528280
_cell_angle_beta   81.27527632
_cell_angle_gamma   119.89251344
_symmetry_Int_Tables_number   1
_chemical_formula_structural   MgPdCl6
_chemical_formula_sum   'Mg1 Pd1 Cl6'
_cell_volume   216.72151073
_cell_formula_units_Z   1
loop_
 _symmetry_equiv_pos_site_id
 _symmetry_equiv_pos_as_xyz
  1  'x, y, z'
loop_
 _atom_site_type_symbol
 _atom_site_label
 _atom_site_symmetry_multiplicity
 _atom_site_fract_x
 _atom_site_fract_y
 _atom_site_fract_z
 _atom_site_occupancy
  Mg  Mg0  1  0.166869  0.833131  0.000000  1
  Pd  Pd1  1  0.833320  0.166680  0.000000  1
  Cl  Cl2  1  0.449470  0.082249  0.214051  1
  Cl  Cl3  1  0.917751  0.550530  0.785949  1
  Cl  Cl4  1  0.201409  0.220009  0.785611  1
  Cl  Cl5  1  0.779991  0.798591  0.214389  1
  Cl  Cl6  1  0.063357  0.412166  0.213203  1
  Cl  Cl7  1  0.587834  0.936643  0.786797  1
