# generated using pymatgen
data_Pr5BiWO12
_symmetry_space_group_name_H-M   'P 1'
_cell_length_a   6.72220999
_cell_length_b   6.79204689
_cell_length_c   6.87224643
_cell_angle_alpha   99.38630762
_cell_angle_beta   99.14239784
_cell_angle_gamma   97.64185363
_symmetry_Int_Tables_number   1
_chemical_formula_structural   Pr5BiWO12
_chemical_formula_sum   'Pr5 Bi1 W1 O12'
_cell_volume   301.54268827
_cell_formula_units_Z   1
loop_
 _symmetry_equiv_pos_site_id
 _symmetry_equiv_pos_as_xyz
  1  'x, y, z'
loop_
 _atom_site_type_symbol
 _atom_site_label
 _atom_site_symmetry_multiplicity
 _atom_site_fract_x
 _atom_site_fract_y
 _atom_site_fract_z
 _atom_site_occupancy
  Pr  Pr0  1  0.147424  0.305537  0.611148  1
  Pr  Pr1  1  0.387486  0.852184  0.692018  1
  Pr  Pr2  1  0.695409  0.389297  0.862274  1
  Pr  Pr3  1  0.297980  0.610861  0.141976  1
  Pr  Pr4  1  0.610630  0.136390  0.307751  1
  Bi  Bi5  1  0.845895  0.672466  0.400434  1
  W  W6  1  0.999480  0.002748  0.998838  1
  O  O7  1  0.065529  0.290847  0.960683  1
  O  O8  1  0.037468  0.937360  0.712921  1
  O  O9  1  0.405805  0.560193  0.828119  1
  O  O10  1  0.179085  0.581712  0.439041  1
  O  O11  1  0.710503  0.032512  0.929035  1
  O  O12  1  0.445577  0.174684  0.594624  1
  O  O13  1  0.559572  0.816104  0.410739  1
  O  O14  1  0.291345  0.971838  0.073826  1
  O  O15  1  0.816269  0.420266  0.563873  1
  O  O16  1  0.596333  0.436435  0.180172  1
  O  O17  1  0.974580  0.089776  0.278302  1
  O  O18  1  0.933628  0.718789  0.014229  1
