# generated using pymatgen
data_Er9Th3Ru4
_symmetry_space_group_name_H-M   'P 1'
_cell_length_a   6.29736237
_cell_length_b   7.20426070
_cell_length_c   9.44474600
_cell_angle_alpha   90.00000000
_cell_angle_beta   90.00000000
_cell_angle_gamma   90.51970627
_symmetry_Int_Tables_number   1
_chemical_formula_structural   Er9Th3Ru4
_chemical_formula_sum   'Er9 Th3 Ru4'
_cell_volume   428.47010096
_cell_formula_units_Z   1
loop_
 _symmetry_equiv_pos_site_id
 _symmetry_equiv_pos_as_xyz
  1  'x, y, z'
loop_
 _atom_site_type_symbol
 _atom_site_label
 _atom_site_symmetry_multiplicity
 _atom_site_fract_x
 _atom_site_fract_y
 _atom_site_fract_z
 _atom_site_occupancy
  Er  Er0  1  0.335194  0.678171  0.062767  1
  Er  Er1  1  0.164613  0.175861  0.436328  1
  Er  Er2  1  0.667138  0.323300  0.566278  1
  Er  Er3  1  0.829439  0.823258  0.931674  1
  Er  Er4  1  0.667138  0.323300  0.933722  1
  Er  Er5  1  0.829439  0.823258  0.568326  1
  Er  Er6  1  0.335194  0.678171  0.437233  1
  Er  Er7  1  0.164613  0.175861  0.063672  1
  Er  Er8  1  0.362639  0.962600  0.750000  1
  Th  Th9  1  0.853538  0.546752  0.250000  1
  Th  Th10  1  0.645460  0.045998  0.250000  1
  Th  Th11  1  0.148294  0.454350  0.750000  1
  Ru  Ru12  1  0.037662  0.871180  0.250000  1
  Ru  Ru13  1  0.464012  0.370109  0.250000  1
  Ru  Ru14  1  0.960815  0.131476  0.750000  1
  Ru  Ru15  1  0.534812  0.616355  0.750000  1
