# generated using pymatgen
data_Sr4Ga8Ir7Pd
_symmetry_space_group_name_H-M   'P 1'
_cell_length_a   5.89659589
_cell_length_b   8.60491986
_cell_length_c   8.60452091
_cell_angle_alpha   75.36102975
_cell_angle_beta   89.85376261
_cell_angle_gamma   90.14808810
_symmetry_Int_Tables_number   1
_chemical_formula_structural   Sr4Ga8Ir7Pd
_chemical_formula_sum   'Sr4 Ga8 Ir7 Pd1'
_cell_volume   422.41454298
_cell_formula_units_Z   1
loop_
 _symmetry_equiv_pos_site_id
 _symmetry_equiv_pos_as_xyz
  1  'x, y, z'
loop_
 _atom_site_type_symbol
 _atom_site_label
 _atom_site_symmetry_multiplicity
 _atom_site_fract_x
 _atom_site_fract_y
 _atom_site_fract_z
 _atom_site_occupancy
  Sr  Sr0  1  0.873814  0.499624  0.753394  1
  Sr  Sr1  1  0.376029  0.003355  0.249527  1
  Sr  Sr2  1  0.624959  0.999688  0.749719  1
  Sr  Sr3  1  0.125196  0.495692  0.245674  1
  Ga  Ga4  1  0.883219  0.821236  0.431047  1
  Ga  Ga5  1  0.127887  0.815520  0.936084  1
  Ga  Ga6  1  0.612516  0.311754  0.432387  1
  Ga  Ga7  1  0.121711  0.185886  0.565227  1
  Ga  Ga8  1  0.637959  0.682571  0.062049  1
  Ga  Ga9  1  0.877428  0.184583  0.065030  1
  Ga  Ga10  1  0.366551  0.680627  0.571570  1
  Ga  Ga11  1  0.372669  0.315366  0.934178  1
  Ir  Ir12  1  0.874686  0.119575  0.364400  1
  Ir  Ir13  1  0.125009  0.885690  0.635926  1
  Ir  Ir14  1  0.124981  0.115195  0.864872  1
  Ir  Ir15  1  0.373244  0.384602  0.633981  1
  Ir  Ir16  1  0.375301  0.614788  0.869968  1
  Ir  Ir17  1  0.876760  0.884357  0.134951  1
  Ir  Ir18  1  0.625028  0.383360  0.133100  1
  Pd  Pd19  1  0.625054  0.616530  0.366914  1
