# generated using pymatgen
data_Zr3Pa5(CdPd2)4
_symmetry_space_group_name_H-M   'P 1'
_cell_length_a   7.57978839
_cell_length_b   7.57978851
_cell_length_c   7.31679800
_cell_angle_alpha   90.00000000
_cell_angle_beta   90.00000000
_cell_angle_gamma   89.82400987
_symmetry_Int_Tables_number   1
_chemical_formula_structural   Zr3Pa5(CdPd2)4
_chemical_formula_sum   'Zr3 Pa5 Cd4 Pd8'
_cell_volume   420.37142399
_cell_formula_units_Z   1
loop_
 _symmetry_equiv_pos_site_id
 _symmetry_equiv_pos_as_xyz
  1  'x, y, z'
loop_
 _atom_site_type_symbol
 _atom_site_label
 _atom_site_symmetry_multiplicity
 _atom_site_fract_x
 _atom_site_fract_y
 _atom_site_fract_z
 _atom_site_occupancy
  Zr  Zr0  1  0.685277  0.684085  0.000000  1
  Zr  Zr1  1  0.186586  0.813414  0.500000  1
  Zr  Zr2  1  0.315915  0.314723  0.000000  1
  Pa  Pa3  1  0.634824  0.641879  0.500000  1
  Pa  Pa4  1  0.815150  0.184850  0.500000  1
  Pa  Pa5  1  0.862872  0.137128  0.000000  1
  Pa  Pa6  1  0.140584  0.859416  0.000000  1
  Pa  Pa7  1  0.358121  0.365176  0.500000  1
  Cd  Cd8  1  0.001652  0.502905  0.240376  1
  Cd  Cd9  1  0.497095  0.998348  0.759624  1
  Cd  Cd10  1  0.497095  0.998348  0.240376  1
  Cd  Cd11  1  0.001652  0.502905  0.759624  1
  Pd  Pd12  1  0.636484  0.363516  0.205791  1
  Pd  Pd13  1  0.364202  0.635798  0.796315  1
  Pd  Pd14  1  0.863619  0.862717  0.705454  1
  Pd  Pd15  1  0.636484  0.363516  0.794209  1
  Pd  Pd16  1  0.364202  0.635798  0.203685  1
  Pd  Pd17  1  0.137283  0.136381  0.294546  1
  Pd  Pd18  1  0.863619  0.862717  0.294546  1
  Pd  Pd19  1  0.137283  0.136381  0.705454  1
