# generated using pymatgen
data_GaSnPd4
_symmetry_space_group_name_H-M   'P 1'
_cell_length_a   4.21027800
_cell_length_b   5.74067900
_cell_length_c   8.08428000
_cell_angle_alpha   90.00000000
_cell_angle_beta   90.00000000
_cell_angle_gamma   90.00000000
_symmetry_Int_Tables_number   1
_chemical_formula_structural   GaSnPd4
_chemical_formula_sum   'Ga2 Sn2 Pd8'
_cell_volume   195.39587133
_cell_formula_units_Z   2
loop_
 _symmetry_equiv_pos_site_id
 _symmetry_equiv_pos_as_xyz
  1  'x, y, z'
loop_
 _atom_site_type_symbol
 _atom_site_label
 _atom_site_symmetry_multiplicity
 _atom_site_fract_x
 _atom_site_fract_y
 _atom_site_fract_z
 _atom_site_occupancy
  Ga  Ga0  1  0.750000  0.796266  0.892029  1
  Ga  Ga1  1  0.750000  0.296266  0.607971  1
  Sn  Sn2  1  0.250000  0.206424  0.107347  1
  Sn  Sn3  1  0.250000  0.706424  0.392653  1
  Pd  Pd4  1  0.750000  0.438177  0.291815  1
  Pd  Pd5  1  0.750000  0.938177  0.208185  1
  Pd  Pd6  1  0.250000  0.537804  0.707158  1
  Pd  Pd7  1  0.250000  0.037804  0.792842  1
  Pd  Pd8  1  0.750000  0.348962  0.920720  1
  Pd  Pd9  1  0.750000  0.848962  0.579280  1
  Pd  Pd10  1  0.250000  0.672366  0.054539  1
  Pd  Pd11  1  0.250000  0.172366  0.445461  1
