# generated using pymatgen
data_Ca10GeBi4P
_symmetry_space_group_name_H-M   'P 1'
_cell_length_a   12.84622500
_cell_length_b   9.45484700
_cell_length_c   8.25965100
_cell_angle_alpha   90.00000000
_cell_angle_beta   90.00000000
_cell_angle_gamma   90.00000000
_symmetry_Int_Tables_number   1
_chemical_formula_structural   Ca10GeBi4P
_chemical_formula_sum   'Ca20 Ge2 Bi8 P2'
_cell_volume   1003.20970989
_cell_formula_units_Z   2
loop_
 _symmetry_equiv_pos_site_id
 _symmetry_equiv_pos_as_xyz
  1  'x, y, z'
loop_
 _atom_site_type_symbol
 _atom_site_label
 _atom_site_symmetry_multiplicity
 _atom_site_fract_x
 _atom_site_fract_y
 _atom_site_fract_z
 _atom_site_occupancy
  Ca  Ca0  1  0.074123  0.535498  0.821801  1
  Ca  Ca1  1  0.574123  0.964502  0.678199  1
  Ca  Ca2  1  0.926791  0.028441  0.176560  1
  Ca  Ca3  1  0.426791  0.471559  0.323440  1
  Ca  Ca4  1  0.926791  0.471559  0.176560  1
  Ca  Ca5  1  0.426791  0.028441  0.323440  1
  Ca  Ca6  1  0.074123  0.964502  0.821801  1
  Ca  Ca7  1  0.574123  0.535498  0.678199  1
  Ca  Ca8  1  0.001045  0.750000  0.447753  1
  Ca  Ca9  1  0.501045  0.750000  0.052247  1
  Ca  Ca10  1  0.999785  0.250000  0.554294  1
  Ca  Ca11  1  0.499785  0.250000  0.945706  1
  Ca  Ca12  1  0.207995  0.750000  0.160531  1
  Ca  Ca13  1  0.707995  0.750000  0.339469  1
  Ca  Ca14  1  0.784964  0.250000  0.833229  1
  Ca  Ca15  1  0.284964  0.250000  0.666771  1
  Ca  Ca16  1  0.303708  0.750000  0.636676  1
  Ca  Ca17  1  0.803708  0.750000  0.863324  1
  Ca  Ca18  1  0.698265  0.250000  0.359998  1
  Ca  Ca19  1  0.198265  0.250000  0.140002  1
  Ge  Ge20  1  0.509671  0.250000  0.563132  1
  Ge  Ge21  1  0.009671  0.250000  0.936868  1
  Bi  Bi22  1  0.330439  0.510974  0.940755  1
  Bi  Bi23  1  0.830439  0.989026  0.559245  1
  Bi  Bi24  1  0.671156  0.006316  0.062353  1
  Bi  Bi25  1  0.171156  0.493684  0.437647  1
  Bi  Bi26  1  0.671156  0.493684  0.062353  1
  Bi  Bi27  1  0.171156  0.006316  0.437647  1
  Bi  Bi28  1  0.330439  0.989026  0.940755  1
  Bi  Bi29  1  0.830439  0.510974  0.559245  1
  P  P30  1  0.489545  0.750000  0.436313  1
  P  P31  1  0.989545  0.750000  0.063687  1
