# generated using pymatgen
data_PaCo3P2
_symmetry_space_group_name_H-M   'P 1'
_cell_length_a   3.76542500
_cell_length_b   10.38479800
_cell_length_c   12.25433200
_cell_angle_alpha   90.00000000
_cell_angle_beta   90.00000000
_cell_angle_gamma   90.00000000
_symmetry_Int_Tables_number   1
_chemical_formula_structural   PaCo3P2
_chemical_formula_sum   'Pa6 Co18 P12'
_cell_volume   479.18332558
_cell_formula_units_Z   6
loop_
 _symmetry_equiv_pos_site_id
 _symmetry_equiv_pos_as_xyz
  1  'x, y, z'
loop_
 _atom_site_type_symbol
 _atom_site_label
 _atom_site_symmetry_multiplicity
 _atom_site_fract_x
 _atom_site_fract_y
 _atom_site_fract_z
 _atom_site_occupancy
  Pa  Pa0  1  0.000000  0.500000  0.522004  1
  Pa  Pa1  1  0.500000  0.000000  0.477996  1
  Pa  Pa2  1  0.500000  0.815248  0.207558  1
  Pa  Pa3  1  0.500000  0.184752  0.207558  1
  Pa  Pa4  1  0.000000  0.684752  0.792442  1
  Pa  Pa5  1  0.000000  0.315248  0.792442  1
  Co  Co6  1  0.000000  0.500000  0.977679  1
  Co  Co7  1  0.500000  0.000000  0.022321  1
  Co  Co8  1  0.500000  0.304264  0.428892  1
  Co  Co9  1  0.500000  0.695736  0.428892  1
  Co  Co10  1  0.000000  0.195736  0.571108  1
  Co  Co11  1  0.000000  0.804264  0.571108  1
  Co  Co12  1  0.500000  0.876197  0.713849  1
  Co  Co13  1  0.500000  0.123803  0.713849  1
  Co  Co14  1  0.000000  0.623803  0.286151  1
  Co  Co15  1  0.000000  0.376197  0.286151  1
  Co  Co16  1  0.500000  0.333250  0.994740  1
  Co  Co17  1  0.500000  0.666750  0.994740  1
  Co  Co18  1  0.000000  0.166750  0.005260  1
  Co  Co19  1  0.000000  0.833250  0.005260  1
  Co  Co20  1  0.500000  0.500000  0.157340  1
  Co  Co21  1  0.000000  0.000000  0.842660  1
  Co  Co22  1  0.500000  0.500000  0.699245  1
  Co  Co23  1  0.000000  0.000000  0.300755  1
  P  P24  1  0.500000  0.309210  0.612703  1
  P  P25  1  0.500000  0.690790  0.612703  1
  P  P26  1  0.000000  0.190790  0.387297  1
  P  P27  1  0.000000  0.809210  0.387297  1
  P  P28  1  0.500000  0.500000  0.880196  1
  P  P29  1  0.000000  0.000000  0.119804  1
  P  P30  1  0.500000  0.851008  0.897326  1
  P  P31  1  0.500000  0.148992  0.897326  1
  P  P32  1  0.000000  0.648992  0.102674  1
  P  P33  1  0.000000  0.351008  0.102674  1
  P  P34  1  0.500000  0.500000  0.338367  1
  P  P35  1  0.000000  0.000000  0.661633  1
