# generated using pymatgen
data_Ta4FeOsN
_symmetry_space_group_name_H-M   'P 1'
_cell_length_a   8.31888560
_cell_length_b   8.31745704
_cell_length_c   8.32087143
_cell_angle_alpha   60.00185916
_cell_angle_beta   60.00615181
_cell_angle_gamma   59.99455450
_symmetry_Int_Tables_number   1
_chemical_formula_structural   Ta4FeOsN
_chemical_formula_sum   'Ta16 Fe4 Os4 N4'
_cell_volume   407.11578615
_cell_formula_units_Z   4
loop_
 _symmetry_equiv_pos_site_id
 _symmetry_equiv_pos_as_xyz
  1  'x, y, z'
loop_
 _atom_site_type_symbol
 _atom_site_label
 _atom_site_symmetry_multiplicity
 _atom_site_fract_x
 _atom_site_fract_y
 _atom_site_fract_z
 _atom_site_occupancy
  Ta  Ta0  1  0.083470  0.638856  0.638789  1
  Ta  Ta1  1  0.638881  0.083337  0.638797  1
  Ta  Ta2  1  0.638708  0.638768  0.083738  1
  Ta  Ta3  1  0.638833  0.638912  0.638715  1
  Ta  Ta4  1  0.810604  0.810625  0.189413  1
  Ta  Ta5  1  0.189350  0.189391  0.810631  1
  Ta  Ta6  1  0.810643  0.189382  0.810676  1
  Ta  Ta7  1  0.189441  0.810606  0.189367  1
  Ta  Ta8  1  0.189412  0.810614  0.810602  1
  Ta  Ta9  1  0.810630  0.189387  0.189338  1
  Ta  Ta10  1  0.437346  0.437478  0.062588  1
  Ta  Ta11  1  0.062632  0.062615  0.437329  1
  Ta  Ta12  1  0.437424  0.062609  0.437433  1
  Ta  Ta13  1  0.062660  0.437385  0.062610  1
  Ta  Ta14  1  0.062652  0.437445  0.437316  1
  Ta  Ta15  1  0.437351  0.062626  0.062562  1
  Fe  Fe16  1  0.450984  0.849497  0.849794  1
  Fe  Fe17  1  0.849434  0.451306  0.849630  1
  Fe  Fe18  1  0.849918  0.849629  0.450825  1
  Fe  Fe19  1  0.849630  0.849522  0.849836  1
  Os  Os20  1  0.751576  0.416088  0.416184  1
  Os  Os21  1  0.416118  0.751561  0.416185  1
  Os  Os22  1  0.416174  0.416149  0.751444  1
  Os  Os23  1  0.416161  0.416104  0.416241  1
  N  N24  1  0.626610  0.124497  0.124440  1
  N  N25  1  0.124475  0.626532  0.124468  1
  N  N26  1  0.124420  0.124513  0.626601  1
  N  N27  1  0.124463  0.124567  0.124448  1
