# generated using pymatgen
data_Sm2Dy4Ga17Pd5
_symmetry_space_group_name_H-M   'P 1'
_cell_length_a   8.18785306
_cell_length_b   8.18785214
_cell_length_c   15.78504400
_cell_angle_alpha   75.99497119
_cell_angle_beta   75.99497278
_cell_angle_gamma   30.22998238
_symmetry_Int_Tables_number   1
_chemical_formula_structural   Sm2Dy4Ga17Pd5
_chemical_formula_sum   'Sm2 Dy4 Ga17 Pd5'
_cell_volume   515.78428573
_cell_formula_units_Z   1
loop_
 _symmetry_equiv_pos_site_id
 _symmetry_equiv_pos_as_xyz
  1  'x, y, z'
loop_
 _atom_site_type_symbol
 _atom_site_label
 _atom_site_symmetry_multiplicity
 _atom_site_fract_x
 _atom_site_fract_y
 _atom_site_fract_z
 _atom_site_occupancy
  Sm  Sm0  1  0.754253  0.754253  0.750245  1
  Sm  Sm1  1  0.245747  0.245747  0.249755  1
  Dy  Dy2  1  0.600188  0.600188  0.597342  1
  Dy  Dy3  1  0.090534  0.090534  0.093277  1
  Dy  Dy4  1  0.909466  0.909466  0.906723  1
  Dy  Dy5  1  0.399812  0.399812  0.402658  1
  Ga  Ga6  1  0.821780  0.821780  0.539219  1
  Ga  Ga7  1  0.326248  0.326248  0.043074  1
  Ga  Ga8  1  0.673752  0.673752  0.956926  1
  Ga  Ga9  1  0.178220  0.178220  0.460781  1
  Ga  Ga10  1  0.546133  0.546133  0.826254  1
  Ga  Ga11  1  0.037918  0.037918  0.322497  1
  Ga  Ga12  1  0.962082  0.962082  0.677503  1
  Ga  Ga13  1  0.453867  0.453867  0.173746  1
  Ga  Ga14  1  0.269753  0.269753  0.898183  1
  Ga  Ga15  1  0.760921  0.760921  0.395291  1
  Ga  Ga16  1  0.239079  0.239079  0.604709  1
  Ga  Ga17  1  0.730247  0.730247  0.101817  1
  Ga  Ga18  1  0.401242  0.401242  0.764724  1
  Ga  Ga19  1  0.892951  0.892951  0.266305  1
  Ga  Ga20  1  0.107049  0.107049  0.733695  1
  Ga  Ga21  1  0.598758  0.598758  0.235276  1
  Ga  Ga22  1  0.000000  0.000000  0.500000  1
  Pd  Pd23  1  0.106639  0.106639  0.896305  1
  Pd  Pd24  1  0.593018  0.593018  0.404610  1
  Pd  Pd25  1  0.406982  0.406982  0.595390  1
  Pd  Pd26  1  0.893361  0.893361  0.103695  1
  Pd  Pd27  1  0.500000  0.500000  0.000000  1
