# generated using pymatgen
data_Ti3CuIrSe8
_symmetry_space_group_name_H-M   'P 1'
_cell_length_a   7.25269491
_cell_length_b   7.25269533
_cell_length_c   7.25269500
_cell_angle_alpha   60.43857820
_cell_angle_beta   60.43857633
_cell_angle_gamma   60.43857429
_symmetry_Int_Tables_number   1
_chemical_formula_structural   Ti3CuIrSe8
_chemical_formula_sum   'Ti3 Cu1 Ir1 Se8'
_cell_volume   272.43845106
_cell_formula_units_Z   1
loop_
 _symmetry_equiv_pos_site_id
 _symmetry_equiv_pos_as_xyz
  1  'x, y, z'
loop_
 _atom_site_type_symbol
 _atom_site_label
 _atom_site_symmetry_multiplicity
 _atom_site_fract_x
 _atom_site_fract_y
 _atom_site_fract_z
 _atom_site_occupancy
  Ti  Ti0  1  0.122722  0.655867  0.122722  1
  Ti  Ti1  1  0.655867  0.122722  0.122722  1
  Ti  Ti2  1  0.122722  0.122722  0.655867  1
  Cu  Cu3  1  0.506143  0.506143  0.506143  1
  Ir  Ir4  1  0.105557  0.105557  0.105557  1
  Se  Se5  1  0.353637  0.908748  0.353637  1
  Se  Se6  1  0.353637  0.353637  0.908748  1
  Se  Se7  1  0.908748  0.353637  0.353637  1
  Se  Se8  1  0.877753  0.877753  0.877753  1
  Se  Se9  1  0.373737  0.373737  0.373737  1
  Se  Se10  1  0.861390  0.396693  0.861390  1
  Se  Se11  1  0.396693  0.861390  0.861390  1
  Se  Se12  1  0.861390  0.861390  0.396693  1
