# generated using pymatgen
data_YbHo3Sc4(ReB6)4
_symmetry_space_group_name_H-M   'P 1'
_cell_length_a   3.57315600
_cell_length_b   9.01430326
_cell_length_c   11.37932733
_cell_angle_alpha   90.02776845
_cell_angle_beta   90.00000000
_cell_angle_gamma   90.00000000
_symmetry_Int_Tables_number   1
_chemical_formula_structural   YbHo3Sc4(ReB6)4
_chemical_formula_sum   'Yb1 Ho3 Sc4 Re4 B24'
_cell_volume   366.52253495
_cell_formula_units_Z   1
loop_
 _symmetry_equiv_pos_site_id
 _symmetry_equiv_pos_as_xyz
  1  'x, y, z'
loop_
 _atom_site_type_symbol
 _atom_site_label
 _atom_site_symmetry_multiplicity
 _atom_site_fract_x
 _atom_site_fract_y
 _atom_site_fract_z
 _atom_site_occupancy
  Yb  Yb0  1  0.000000  0.321782  0.413857  1
  Ho  Ho1  1  0.000000  0.677114  0.585639  1
  Ho  Ho2  1  0.000000  0.821932  0.086327  1
  Ho  Ho3  1  0.000000  0.178360  0.914192  1
  Sc  Sc4  1  0.000000  0.944209  0.369636  1
  Sc  Sc5  1  0.000000  0.056345  0.629917  1
  Sc  Sc6  1  0.000000  0.444066  0.130403  1
  Sc  Sc7  1  0.000000  0.555587  0.870436  1
  Re  Re8  1  0.000000  0.642178  0.318417  1
  Re  Re9  1  0.000000  0.358680  0.681836  1
  Re  Re10  1  0.000000  0.140736  0.181545  1
  Re  Re11  1  0.000000  0.858744  0.817984  1
  B  B12  1  0.500000  0.553931  0.432450  1
  B  B13  1  0.500000  0.445789  0.567243  1
  B  B14  1  0.500000  0.053982  0.066906  1
  B  B15  1  0.500000  0.945646  0.932722  1
  B  B16  1  0.500000  0.754444  0.418798  1
  B  B17  1  0.500000  0.245980  0.580933  1
  B  B18  1  0.500000  0.254372  0.081251  1
  B  B19  1  0.500000  0.745660  0.918826  1
  B  B20  1  0.500000  0.795955  0.264491  1
  B  B21  1  0.500000  0.204468  0.735494  1
  B  B22  1  0.500000  0.295396  0.235477  1
  B  B23  1  0.500000  0.704578  0.764686  1
  B  B24  1  0.500000  0.629416  0.183012  1
  B  B25  1  0.500000  0.370770  0.817388  1
  B  B26  1  0.500000  0.129722  0.316963  1
  B  B27  1  0.500000  0.870467  0.682861  1
  B  B28  1  0.500000  0.981297  0.213311  1
  B  B29  1  0.500000  0.018716  0.786491  1
  B  B30  1  0.500000  0.481321  0.286606  1
  B  B31  1  0.500000  0.518513  0.713674  1
  B  B32  1  0.500000  0.595378  0.026034  1
  B  B33  1  0.500000  0.404641  0.974153  1
  B  B34  1  0.500000  0.094088  0.474198  1
  B  B35  1  0.500000  0.905735  0.525848  1
