# generated using pymatgen
data_Zr2Ni7(B3Ru7)2
_symmetry_space_group_name_H-M   'P 1'
_cell_length_a   7.89417776
_cell_length_b   7.89417763
_cell_length_c   7.89417711
_cell_angle_alpha   60.36445359
_cell_angle_beta   60.36445273
_cell_angle_gamma   60.36445186
_symmetry_Int_Tables_number   1
_chemical_formula_structural   Zr2Ni7(B3Ru7)2
_chemical_formula_sum   'Zr2 Ni7 B6 Ru14'
_cell_volume   350.72865248
_cell_formula_units_Z   1
loop_
 _symmetry_equiv_pos_site_id
 _symmetry_equiv_pos_as_xyz
  1  'x, y, z'
loop_
 _atom_site_type_symbol
 _atom_site_label
 _atom_site_symmetry_multiplicity
 _atom_site_fract_x
 _atom_site_fract_y
 _atom_site_fract_z
 _atom_site_occupancy
  Zr  Zr0  1  0.251866  0.251866  0.251866  1
  Zr  Zr1  1  0.748134  0.748134  0.748134  1
  Ni  Ni2  1  0.381856  0.381856  0.842969  1
  Ni  Ni3  1  0.381856  0.842969  0.381856  1
  Ni  Ni4  1  0.618144  0.618144  0.157031  1
  Ni  Ni5  1  0.618144  0.157031  0.618144  1
  Ni  Ni6  1  0.842969  0.381856  0.381856  1
  Ni  Ni7  1  0.157031  0.618144  0.618144  1
  Ni  Ni8  1  0.000000  0.000000  0.000000  1
  B  B9  1  0.723702  0.278927  0.278927  1
  B  B10  1  0.276298  0.721073  0.721073  1
  B  B11  1  0.278927  0.723702  0.278927  1
  B  B12  1  0.721073  0.276298  0.721073  1
  B  B13  1  0.278927  0.278927  0.723702  1
  B  B14  1  0.721073  0.721073  0.276298  1
  Ru  Ru15  1  0.338073  0.001069  0.001069  1
  Ru  Ru16  1  0.661927  0.998931  0.998931  1
  Ru  Ru17  1  0.000000  0.338816  0.661184  1
  Ru  Ru18  1  0.000000  0.661184  0.338816  1
  Ru  Ru19  1  0.001069  0.338073  0.001069  1
  Ru  Ru20  1  0.661184  0.000000  0.338816  1
  Ru  Ru21  1  0.998931  0.661927  0.998931  1
  Ru  Ru22  1  0.338816  0.000000  0.661184  1
  Ru  Ru23  1  0.001069  0.001069  0.338073  1
  Ru  Ru24  1  0.998931  0.998931  0.661927  1
  Ru  Ru25  1  0.661184  0.338816  0.000000  1
  Ru  Ru26  1  0.338816  0.661184  0.000000  1
  Ru  Ru27  1  0.389133  0.389133  0.389133  1
  Ru  Ru28  1  0.610867  0.610867  0.610867  1
