# generated using pymatgen
data_CaPr3Fe(RhO4)3
_symmetry_space_group_name_H-M   'P 1'
_cell_length_a   5.47940555
_cell_length_b   5.76491763
_cell_length_c   7.86225318
_cell_angle_alpha   90.25861702
_cell_angle_beta   90.19465529
_cell_angle_gamma   90.16993890
_symmetry_Int_Tables_number   1
_chemical_formula_structural   CaPr3Fe(RhO4)3
_chemical_formula_sum   'Ca1 Pr3 Fe1 Rh3 O12'
_cell_volume   248.35031543
_cell_formula_units_Z   1
loop_
 _symmetry_equiv_pos_site_id
 _symmetry_equiv_pos_as_xyz
  1  'x, y, z'
loop_
 _atom_site_type_symbol
 _atom_site_label
 _atom_site_symmetry_multiplicity
 _atom_site_fract_x
 _atom_site_fract_y
 _atom_site_fract_z
 _atom_site_occupancy
  Ca  Ca0  1  0.022817  0.936054  0.754335  1
  Pr  Pr1  1  0.513487  0.564053  0.246622  1
  Pr  Pr2  1  0.485448  0.435446  0.753497  1
  Pr  Pr3  1  0.977522  0.064700  0.245328  1
  Fe  Fe4  1  0.001050  0.502910  0.994609  1
  Rh  Rh5  1  0.000472  0.501985  0.502209  1
  Rh  Rh6  1  0.499337  0.999463  0.504161  1
  Rh  Rh7  1  0.499840  0.999329  0.996722  1
  O  O8  1  0.693746  0.299824  0.447065  1
  O  O9  1  0.192161  0.198214  0.557569  1
  O  O10  1  0.797686  0.790006  0.051556  1
  O  O11  1  0.304734  0.696124  0.956655  1
  O  O12  1  0.311655  0.696182  0.550985  1
  O  O13  1  0.799786  0.795543  0.441482  1
  O  O14  1  0.196584  0.205496  0.950547  1
  O  O15  1  0.699371  0.300455  0.046205  1
  O  O16  1  0.089820  0.473131  0.247318  1
  O  O17  1  0.612506  0.032123  0.750430  1
  O  O18  1  0.395354  0.972022  0.250314  1
  O  O19  1  0.906624  0.536941  0.752392  1
