# generated using pymatgen
data_ErLu4(In2Pt)2
_symmetry_space_group_name_H-M   'P 1'
_cell_length_a   3.58218600
_cell_length_b   8.04980400
_cell_length_c   18.02086200
_cell_angle_alpha   90.00000000
_cell_angle_beta   90.00000000
_cell_angle_gamma   90.00000000
_symmetry_Int_Tables_number   1
_chemical_formula_structural   ErLu4(In2Pt)2
_chemical_formula_sum   'Er2 Lu8 In8 Pt4'
_cell_volume   519.64768789
_cell_formula_units_Z   2
loop_
 _symmetry_equiv_pos_site_id
 _symmetry_equiv_pos_as_xyz
  1  'x, y, z'
loop_
 _atom_site_type_symbol
 _atom_site_label
 _atom_site_symmetry_multiplicity
 _atom_site_fract_x
 _atom_site_fract_y
 _atom_site_fract_z
 _atom_site_occupancy
  Er  Er0  1  0.000000  0.000000  0.000000  1
  Er  Er1  1  0.000000  0.500000  0.500000  1
  Lu  Lu2  1  0.000000  0.116522  0.414092  1
  Lu  Lu3  1  0.000000  0.883478  0.585908  1
  Lu  Lu4  1  0.000000  0.383478  0.914092  1
  Lu  Lu5  1  0.000000  0.616522  0.085908  1
  Lu  Lu6  1  0.000000  0.244388  0.221199  1
  Lu  Lu7  1  0.000000  0.755612  0.778801  1
  Lu  Lu8  1  0.000000  0.255612  0.721199  1
  Lu  Lu9  1  0.000000  0.744388  0.278801  1
  In  In10  1  0.500000  0.423930  0.351929  1
  In  In11  1  0.500000  0.576070  0.648071  1
  In  In12  1  0.500000  0.076070  0.851929  1
  In  In13  1  0.500000  0.923930  0.148071  1
  In  In14  1  0.500000  0.293040  0.066244  1
  In  In15  1  0.500000  0.706960  0.933756  1
  In  In16  1  0.500000  0.206960  0.566244  1
  In  In17  1  0.500000  0.793040  0.433756  1
  Pt  Pt18  1  0.500000  0.025853  0.303837  1
  Pt  Pt19  1  0.500000  0.974147  0.696163  1
  Pt  Pt20  1  0.500000  0.474147  0.803837  1
  Pt  Pt21  1  0.500000  0.525853  0.196163  1
