# generated using pymatgen
data_NaPr2Nd4IrBr12
_symmetry_space_group_name_H-M   'P 1'
_cell_length_a   9.57513156
_cell_length_b   9.55097239
_cell_length_c   9.67274041
_cell_angle_alpha   107.14775565
_cell_angle_beta   107.41364335
_cell_angle_gamma   107.03072179
_symmetry_Int_Tables_number   1
_chemical_formula_structural   NaPr2Nd4IrBr12
_chemical_formula_sum   'Na1 Pr2 Nd4 Ir1 Br12'
_cell_volume   732.68547553
_cell_formula_units_Z   1
loop_
 _symmetry_equiv_pos_site_id
 _symmetry_equiv_pos_as_xyz
  1  'x, y, z'
loop_
 _atom_site_type_symbol
 _atom_site_label
 _atom_site_symmetry_multiplicity
 _atom_site_fract_x
 _atom_site_fract_y
 _atom_site_fract_z
 _atom_site_occupancy
  Na  Na0  1  0.499947  0.500037  0.500085  1
  Pr  Pr1  1  0.109826  0.317405  0.029647  1
  Pr  Pr2  1  0.319181  0.031253  0.111360  1
  Nd  Nd3  1  0.031889  0.115302  0.327638  1
  Nd  Nd4  1  0.968049  0.883683  0.671827  1
  Nd  Nd5  1  0.682641  0.969180  0.889239  1
  Nd  Nd6  1  0.889818  0.683974  0.970159  1
  Ir  Ir7  1  0.999727  0.999519  0.999557  1
  Br  Br8  1  0.217425  0.684030  0.073144  1
  Br  Br9  1  0.456318  0.374865  0.157788  1
  Br  Br10  1  0.685519  0.072762  0.216889  1
  Br  Br11  1  0.927437  0.781677  0.313533  1
  Br  Br12  1  0.155566  0.452938  0.371917  1
  Br  Br13  1  0.370165  0.154738  0.452801  1
  Br  Br14  1  0.629669  0.846467  0.549826  1
  Br  Br15  1  0.844522  0.546924  0.630467  1
  Br  Br16  1  0.071954  0.216497  0.683932  1
  Br  Br17  1  0.315395  0.926519  0.780950  1
  Br  Br18  1  0.546303  0.627761  0.843693  1
  Br  Br19  1  0.778655  0.314470  0.925550  1
