# generated using pymatgen
data_TlIr3PdPb3O14
_symmetry_space_group_name_H-M   'P 1'
_cell_length_a   7.37168141
_cell_length_b   7.29505518
_cell_length_c   7.37168024
_cell_angle_alpha   59.84224299
_cell_angle_beta   60.24854499
_cell_angle_gamma   59.84224118
_symmetry_Int_Tables_number   1
_chemical_formula_structural   TlIr3PdPb3O14
_chemical_formula_sum   'Tl1 Ir3 Pd1 Pb3 O14'
_cell_volume   280.16386680
_cell_formula_units_Z   1
loop_
 _symmetry_equiv_pos_site_id
 _symmetry_equiv_pos_as_xyz
  1  'x, y, z'
loop_
 _atom_site_type_symbol
 _atom_site_label
 _atom_site_symmetry_multiplicity
 _atom_site_fract_x
 _atom_site_fract_y
 _atom_site_fract_z
 _atom_site_occupancy
  Tl  Tl0  1  0.125000  0.625000  0.125000  1
  Ir  Ir1  1  0.125000  0.625000  0.625000  1
  Ir  Ir2  1  0.625000  0.125000  0.625000  1
  Ir  Ir3  1  0.625000  0.625000  0.125000  1
  Pd  Pd4  1  0.625000  0.625000  0.625000  1
  Pb  Pb5  1  0.625000  0.125000  0.125000  1
  Pb  Pb6  1  0.125000  0.125000  0.625000  1
  Pb  Pb7  1  0.125000  0.125000  0.125000  1
  O  O8  1  0.706992  0.706288  0.287541  1
  O  O9  1  0.297156  0.295613  0.706154  1
  O  O10  1  0.706595  0.286769  0.706595  1
  O  O11  1  0.295551  0.706340  0.295551  1
  O  O12  1  0.287541  0.706288  0.706992  1
  O  O13  1  0.706154  0.295613  0.297156  1
  O  O14  1  0.543008  0.543712  0.962459  1
  O  O15  1  0.952844  0.954387  0.543846  1
  O  O16  1  0.543405  0.963231  0.543405  1
  O  O17  1  0.954449  0.543660  0.954449  1
  O  O18  1  0.962459  0.543712  0.543008  1
  O  O19  1  0.543846  0.954387  0.952844  1
  O  O20  1  0.250225  0.253152  0.250225  1
  O  O21  1  0.999775  0.996848  0.999775  1
