# generated using pymatgen
data_Dy3Al6Cu2Tc
_symmetry_space_group_name_H-M   'P 1'
_cell_length_a   5.43950406
_cell_length_b   5.43950369
_cell_length_c   9.05689698
_cell_angle_alpha   107.43367522
_cell_angle_beta   107.43367511
_cell_angle_gamma   60.16050118
_symmetry_Int_Tables_number   1
_chemical_formula_structural   Dy3Al6Cu2Tc
_chemical_formula_sum   'Dy3 Al6 Cu2 Tc1'
_cell_volume   218.07245544
_cell_formula_units_Z   1
loop_
 _symmetry_equiv_pos_site_id
 _symmetry_equiv_pos_as_xyz
  1  'x, y, z'
loop_
 _atom_site_type_symbol
 _atom_site_label
 _atom_site_symmetry_multiplicity
 _atom_site_fract_x
 _atom_site_fract_y
 _atom_site_fract_z
 _atom_site_occupancy
  Dy  Dy0  1  0.000000  0.000000  0.000000  1
  Dy  Dy1  1  0.143387  0.143387  0.427787  1
  Dy  Dy2  1  0.856612  0.856612  0.572212  1
  Al  Al3  1  0.579459  0.579459  0.241868  1
  Al  Al4  1  0.578986  0.083707  0.241509  1
  Al  Al5  1  0.083707  0.578986  0.241509  1
  Al  Al6  1  0.916292  0.421013  0.758490  1
  Al  Al7  1  0.421013  0.916292  0.758490  1
  Al  Al8  1  0.420541  0.420541  0.758133  1
  Cu  Cu9  1  0.332184  0.332184  0.998067  1
  Cu  Cu10  1  0.667817  0.667817  0.001934  1
  Tc  Tc11  1  0.500000  0.500000  0.500000  1
