# generated using pymatgen
data_Tm4FeOs6Ru
_symmetry_space_group_name_H-M   'P 1'
_cell_length_a   5.28280405
_cell_length_b   5.22625892
_cell_length_c   8.85163398
_cell_angle_alpha   89.93191582
_cell_angle_beta   89.99971311
_cell_angle_gamma   120.35800028
_symmetry_Int_Tables_number   1
_chemical_formula_structural   Tm4FeOs6Ru
_chemical_formula_sum   'Tm4 Fe1 Os6 Ru1'
_cell_volume   210.87789777
_cell_formula_units_Z   1
loop_
 _symmetry_equiv_pos_site_id
 _symmetry_equiv_pos_as_xyz
  1  'x, y, z'
loop_
 _atom_site_type_symbol
 _atom_site_label
 _atom_site_symmetry_multiplicity
 _atom_site_fract_x
 _atom_site_fract_y
 _atom_site_fract_z
 _atom_site_occupancy
  Tm  Tm0  1  0.667412  0.334975  0.566927  1
  Tm  Tm1  1  0.331799  0.663674  0.436440  1
  Tm  Tm2  1  0.331881  0.663726  0.063604  1
  Tm  Tm3  1  0.668021  0.336114  0.933218  1
  Fe  Fe4  1  0.167179  0.334540  0.748931  1
  Os  Os5  1  0.999776  0.999659  0.502140  1
  Os  Os6  1  0.176113  0.831721  0.749129  1
  Os  Os7  1  0.655591  0.831751  0.749128  1
  Os  Os8  1  0.830589  0.661116  0.250553  1
  Os  Os9  1  0.827181  0.171819  0.250779  1
  Os  Os10  1  0.344933  0.171893  0.250779  1
  Ru  Ru11  1  0.999527  0.999010  0.998372  1
