# generated using pymatgen
data_ZrSeO5
_symmetry_space_group_name_H-M   'P 1'
_cell_length_a   8.06110828
_cell_length_b   8.06110892
_cell_length_c   10.36626174
_cell_angle_alpha   90.20111193
_cell_angle_beta   90.20111259
_cell_angle_gamma   138.97756051
_symmetry_Int_Tables_number   1
_chemical_formula_structural   ZrSeO5
_chemical_formula_sum   'Zr4 Se4 O20'
_cell_volume   442.10805346
_cell_formula_units_Z   4
loop_
 _symmetry_equiv_pos_site_id
 _symmetry_equiv_pos_as_xyz
  1  'x, y, z'
loop_
 _atom_site_type_symbol
 _atom_site_label
 _atom_site_symmetry_multiplicity
 _atom_site_fract_x
 _atom_site_fract_y
 _atom_site_fract_z
 _atom_site_occupancy
  Zr  Zr0  1  0.000000  0.499999  0.000000  1
  Zr  Zr1  1  0.587464  0.412537  0.250000  1
  Zr  Zr2  1  0.499999  0.000000  0.500000  1
  Zr  Zr3  1  0.412537  0.587464  0.750000  1
  Se  Se4  1  0.642714  0.859460  0.069695  1
  Se  Se5  1  0.140541  0.357287  0.430305  1
  Se  Se6  1  0.859460  0.642713  0.569695  1
  Se  Se7  1  0.357287  0.140541  0.930305  1
  O  O8  1  0.341097  0.212012  0.078642  1
  O  O9  1  0.364301  0.746030  0.093767  1
  O  O10  1  0.869865  0.172376  0.086542  1
  O  O11  1  0.865445  0.526148  0.153580  1
  O  O12  1  0.691273  0.754127  0.180526  1
  O  O13  1  0.245872  0.308726  0.319474  1
  O  O14  1  0.473851  0.134554  0.346420  1
  O  O15  1  0.827623  0.130134  0.413458  1
  O  O16  1  0.253971  0.635700  0.406233  1
  O  O17  1  0.787987  0.658902  0.421358  1
  O  O18  1  0.212012  0.341097  0.578642  1
  O  O19  1  0.746030  0.364301  0.593767  1
  O  O20  1  0.172376  0.869865  0.586542  1
  O  O21  1  0.526148  0.865445  0.653580  1
  O  O22  1  0.754127  0.691273  0.680526  1
  O  O23  1  0.308726  0.245872  0.819474  1
  O  O24  1  0.134554  0.473851  0.846420  1
  O  O25  1  0.130134  0.827623  0.913458  1
  O  O26  1  0.635700  0.253971  0.906233  1
  O  O27  1  0.658902  0.787987  0.921358  1
