# generated using pymatgen
data_LuSc4Bi(TeO6)3
_symmetry_space_group_name_H-M   'P 1'
_cell_length_a   8.95578514
_cell_length_b   8.96100523
_cell_length_c   5.02702997
_cell_angle_alpha   89.88650588
_cell_angle_beta   90.18428692
_cell_angle_gamma   120.02780247
_symmetry_Int_Tables_number   1
_chemical_formula_structural   LuSc4Bi(TeO6)3
_chemical_formula_sum   'Lu1 Sc4 Bi1 Te3 O18'
_cell_volume   349.28382806
_cell_formula_units_Z   1
loop_
 _symmetry_equiv_pos_site_id
 _symmetry_equiv_pos_as_xyz
  1  'x, y, z'
loop_
 _atom_site_type_symbol
 _atom_site_label
 _atom_site_symmetry_multiplicity
 _atom_site_fract_x
 _atom_site_fract_y
 _atom_site_fract_z
 _atom_site_occupancy
  Lu  Lu0  1  0.625454  0.001708  0.000873  1
  Sc  Sc1  1  0.999275  0.289023  0.500394  1
  Sc  Sc2  1  0.372203  0.373758  0.001621  1
  Sc  Sc3  1  0.290418  0.000627  0.499296  1
  Sc  Sc4  1  0.710408  0.711543  0.501710  1
  Bi  Bi5  1  0.000918  0.623282  0.000724  1
  Te  Te6  1  0.339141  0.664086  0.502138  1
  Te  Te7  1  0.003011  0.007529  0.000039  1
  Te  Te8  1  0.657910  0.328233  0.497917  1
  O  O9  1  0.093386  0.894262  0.777377  1
  O  O10  1  0.235407  0.774328  0.293321  1
  O  O11  1  0.130654  0.529012  0.702929  1
  O  O12  1  0.410328  0.866601  0.726577  1
  O  O13  1  0.237050  0.457931  0.272853  1
  O  O14  1  0.120592  0.215973  0.788658  1
  O  O15  1  0.212491  0.122200  0.214601  1
  O  O16  1  0.548552  0.776659  0.289809  1
  O  O17  1  0.462573  0.581614  0.724816  1
  O  O18  1  0.794515  0.912315  0.781881  1
  O  O19  1  0.451885  0.230831  0.720502  1
  O  O20  1  0.580679  0.454275  0.266914  1
  O  O21  1  0.532380  0.120533  0.286787  1
  O  O22  1  0.766635  0.542685  0.699227  1
  O  O23  1  0.910061  0.802542  0.223787  1
  O  O24  1  0.764917  0.225981  0.721473  1
  O  O25  1  0.863775  0.396382  0.289605  1
  O  O26  1  0.885383  0.096089  0.214171  1
