# generated using pymatgen
data_Cd(S8Br)3
_symmetry_space_group_name_H-M   'P 1'
_cell_length_a   15.30383463
_cell_length_b   15.30547950
_cell_length_c   15.30694040
_cell_angle_alpha   118.74607377
_cell_angle_beta   118.73765418
_cell_angle_gamma   118.72736857
_symmetry_Int_Tables_number   1
_chemical_formula_structural   Cd(S8Br)3
_chemical_formula_sum   'Cd1 S24 Br3'
_cell_volume   1040.64871453
_cell_formula_units_Z   1
loop_
 _symmetry_equiv_pos_site_id
 _symmetry_equiv_pos_as_xyz
  1  'x, y, z'
loop_
 _atom_site_type_symbol
 _atom_site_label
 _atom_site_symmetry_multiplicity
 _atom_site_fract_x
 _atom_site_fract_y
 _atom_site_fract_z
 _atom_site_occupancy
  Cd  Cd0  1  0.063698  0.063722  0.063739  1
  S  S1  1  0.023238  0.619398  0.619398  1
  S  S2  1  0.619306  0.619309  0.023127  1
  S  S3  1  0.619356  0.023181  0.619359  1
  S  S4  1  0.231496  0.842131  0.714104  1
  S  S5  1  0.842246  0.714214  0.231609  1
  S  S6  1  0.714152  0.231540  0.842188  1
  S  S7  1  0.842188  0.231545  0.714155  1
  S  S8  1  0.231496  0.714102  0.842128  1
  S  S9  1  0.714216  0.842253  0.231605  1
  S  S10  1  0.104868  0.633465  0.452805  1
  S  S11  1  0.633346  0.452673  0.104740  1
  S  S12  1  0.452738  0.104803  0.633410  1
  S  S13  1  0.633413  0.104809  0.452742  1
  S  S14  1  0.104865  0.452803  0.633466  1
  S  S15  1  0.452670  0.633338  0.104735  1
  S  S16  1  0.351443  0.740302  0.612095  1
  S  S17  1  0.740438  0.612221  0.351583  1
  S  S18  1  0.612154  0.351521  0.740372  1
  S  S19  1  0.740367  0.351507  0.612151  1
  S  S20  1  0.351434  0.612078  0.740288  1
  S  S21  1  0.612230  0.740446  0.351595  1
  S  S22  1  0.193756  0.474317  0.474316  1
  S  S23  1  0.474166  0.474178  0.193609  1
  S  S24  1  0.474250  0.193697  0.474258  1
  Br  Br25  1  0.182551  0.015495  0.015505  1
  Br  Br26  1  0.015504  0.015515  0.182500  1
  Br  Br27  1  0.015516  0.182537  0.015520  1
