# generated using pymatgen
data_Li2Nd2SnBi
_symmetry_space_group_name_H-M   'P 1'
_cell_length_a   9.66444300
_cell_length_b   9.66400537
_cell_length_c   7.60589589
_cell_angle_alpha   89.85773216
_cell_angle_beta   90.00000000
_cell_angle_gamma   120.00150145
_symmetry_Int_Tables_number   1
_chemical_formula_structural   Li2Nd2SnBi
_chemical_formula_sum   'Li8 Nd8 Sn4 Bi4'
_cell_volume   615.18628304
_cell_formula_units_Z   4
loop_
 _symmetry_equiv_pos_site_id
 _symmetry_equiv_pos_as_xyz
  1  'x, y, z'
loop_
 _atom_site_type_symbol
 _atom_site_label
 _atom_site_symmetry_multiplicity
 _atom_site_fract_x
 _atom_site_fract_y
 _atom_site_fract_z
 _atom_site_occupancy
  Li  Li0  1  0.167365  0.334730  0.273275  1
  Li  Li1  1  0.171324  0.834116  0.279230  1
  Li  Li2  1  0.662793  0.834116  0.279230  1
  Li  Li3  1  0.830974  0.661948  0.781065  1
  Li  Li4  1  0.830357  0.168552  0.786257  1
  Li  Li5  1  0.338194  0.168552  0.786257  1
  Li  Li6  1  0.334005  0.668011  0.670494  1
  Li  Li7  1  0.664942  0.329884  0.177441  1
  Nd  Nd8  1  0.513807  0.027614  0.490654  1
  Nd  Nd9  1  0.507465  0.484338  0.491495  1
  Nd  Nd10  1  0.976871  0.484338  0.491495  1
  Nd  Nd11  1  0.491532  0.983062  0.999246  1
  Nd  Nd12  1  0.487720  0.506923  0.997113  1
  Nd  Nd13  1  0.019204  0.506923  0.997113  1
  Nd  Nd14  1  0.002894  0.005789  0.496062  1
  Nd  Nd15  1  0.002057  0.004115  0.006090  1
  Sn  Sn16  1  0.833627  0.166558  0.233382  1
  Sn  Sn17  1  0.332931  0.166558  0.233382  1
  Sn  Sn18  1  0.332793  0.665588  0.262666  1
  Sn  Sn19  1  0.666809  0.333618  0.763212  1
  Bi  Bi20  1  0.166520  0.333041  0.737789  1
  Bi  Bi21  1  0.165810  0.832663  0.736354  1
  Bi  Bi22  1  0.666851  0.832663  0.736354  1
  Bi  Bi23  1  0.833151  0.666302  0.236319  1
