# generated using pymatgen
data_Dy2Mg3PaPt3
_symmetry_space_group_name_H-M   'P 1'
_cell_length_a   7.57685100
_cell_length_b   7.44010433
_cell_length_c   3.96374000
_cell_angle_alpha   90.00000000
_cell_angle_beta   90.00000000
_cell_angle_gamma   120.60988463
_symmetry_Int_Tables_number   1
_chemical_formula_structural   Dy2Mg3PaPt3
_chemical_formula_sum   'Dy2 Mg3 Pa1 Pt3'
_cell_volume   192.30989091
_cell_formula_units_Z   1
loop_
 _symmetry_equiv_pos_site_id
 _symmetry_equiv_pos_as_xyz
  1  'x, y, z'
loop_
 _atom_site_type_symbol
 _atom_site_label
 _atom_site_symmetry_multiplicity
 _atom_site_fract_x
 _atom_site_fract_y
 _atom_site_fract_z
 _atom_site_occupancy
  Dy  Dy0  1  0.412620  0.407890  0.500000  1
  Dy  Dy1  1  0.004729  0.592110  0.500000  1
  Mg  Mg2  1  0.752534  0.744645  0.000000  1
  Mg  Mg3  1  0.007890  0.255355  0.000000  1
  Mg  Mg4  1  0.234794  0.000000  0.000000  1
  Pa  Pa5  1  0.583746  0.000000  0.500000  1
  Pt  Pt6  1  0.352201  0.688740  0.000000  1
  Pt  Pt7  1  0.663462  0.311260  0.000000  1
  Pt  Pt8  1  0.988023  0.000000  0.500000  1
