# generated using pymatgen
data_Tm2Ta3SiGe3
_symmetry_space_group_name_H-M   'P 1'
_cell_length_a   6.90083100
_cell_length_b   7.09398900
_cell_length_c   13.47769000
_cell_angle_alpha   90.00000000
_cell_angle_beta   90.00000000
_cell_angle_gamma   90.00000000
_symmetry_Int_Tables_number   1
_chemical_formula_structural   Tm2Ta3SiGe3
_chemical_formula_sum   'Tm8 Ta12 Si4 Ge12'
_cell_volume   659.79248617
_cell_formula_units_Z   4
loop_
 _symmetry_equiv_pos_site_id
 _symmetry_equiv_pos_as_xyz
  1  'x, y, z'
loop_
 _atom_site_type_symbol
 _atom_site_label
 _atom_site_symmetry_multiplicity
 _atom_site_fract_x
 _atom_site_fract_y
 _atom_site_fract_z
 _atom_site_occupancy
  Tm  Tm0  1  0.495120  0.672743  0.595040  1
  Tm  Tm1  1  0.995120  0.827257  0.904960  1
  Tm  Tm2  1  0.504880  0.327257  0.095040  1
  Tm  Tm3  1  0.004880  0.172743  0.404960  1
  Tm  Tm4  1  0.504880  0.327257  0.404960  1
  Tm  Tm5  1  0.004880  0.172743  0.095040  1
  Tm  Tm6  1  0.495120  0.672743  0.904960  1
  Tm  Tm7  1  0.995120  0.827257  0.595040  1
  Ta  Ta8  1  0.658921  0.173160  0.627454  1
  Ta  Ta9  1  0.158921  0.326840  0.872546  1
  Ta  Ta10  1  0.341079  0.826840  0.127454  1
  Ta  Ta11  1  0.841079  0.673160  0.372546  1
  Ta  Ta12  1  0.341079  0.826840  0.372546  1
  Ta  Ta13  1  0.841079  0.673160  0.127454  1
  Ta  Ta14  1  0.658921  0.173160  0.872546  1
  Ta  Ta15  1  0.158921  0.326840  0.627454  1
  Ta  Ta16  1  0.832275  0.484503  0.750000  1
  Ta  Ta17  1  0.332275  0.015497  0.750000  1
  Ta  Ta18  1  0.167725  0.515497  0.250000  1
  Ta  Ta19  1  0.667725  0.984503  0.250000  1
  Si  Si20  1  0.456700  0.378033  0.750000  1
  Si  Si21  1  0.956700  0.121967  0.750000  1
  Si  Si22  1  0.543300  0.621967  0.250000  1
  Si  Si23  1  0.043300  0.878033  0.250000  1
  Ge  Ge24  1  0.677089  0.963724  0.459542  1
  Ge  Ge25  1  0.177089  0.536276  0.040458  1
  Ge  Ge26  1  0.322911  0.036276  0.959542  1
  Ge  Ge27  1  0.822911  0.463724  0.540458  1
  Ge  Ge28  1  0.322911  0.036276  0.540458  1
  Ge  Ge29  1  0.822911  0.463724  0.959542  1
  Ge  Ge30  1  0.677089  0.963724  0.040458  1
  Ge  Ge31  1  0.177089  0.536276  0.459542  1
  Ge  Ge32  1  0.698104  0.860601  0.750000  1
  Ge  Ge33  1  0.198104  0.639399  0.750000  1
  Ge  Ge34  1  0.301896  0.139399  0.250000  1
  Ge  Ge35  1  0.801896  0.360601  0.250000  1
