# generated using pymatgen
data_Nd2Si3(AsRh3)4
_symmetry_space_group_name_H-M   'P 1'
_cell_length_a   9.92823000
_cell_length_b   9.92823052
_cell_length_c   3.93534200
_cell_angle_alpha   90.00000000
_cell_angle_beta   90.00000000
_cell_angle_gamma   119.99999825
_symmetry_Int_Tables_number   1
_chemical_formula_structural   Nd2Si3(AsRh3)4
_chemical_formula_sum   'Nd2 Si3 As4 Rh12'
_cell_volume   335.93619748
_cell_formula_units_Z   1
loop_
 _symmetry_equiv_pos_site_id
 _symmetry_equiv_pos_as_xyz
  1  'x, y, z'
loop_
 _atom_site_type_symbol
 _atom_site_label
 _atom_site_symmetry_multiplicity
 _atom_site_fract_x
 _atom_site_fract_y
 _atom_site_fract_z
 _atom_site_occupancy
  Nd  Nd0  1  0.333333  0.666667  0.244800  1
  Nd  Nd1  1  0.666667  0.333333  0.743247  1
  Si  Si2  1  0.400914  0.109932  0.242802  1
  Si  Si3  1  0.709018  0.599086  0.242802  1
  Si  Si4  1  0.890068  0.290982  0.242802  1
  As  As5  1  0.000000  0.000000  0.625550  1
  As  As6  1  0.598317  0.885594  0.745651  1
  As  As7  1  0.287276  0.401683  0.745651  1
  As  As8  1  0.114406  0.712724  0.745651  1
  Rh  Rh9  1  0.446548  0.379698  0.242550  1
  Rh  Rh10  1  0.933150  0.553452  0.242550  1
  Rh  Rh11  1  0.620302  0.066850  0.242550  1
  Rh  Rh12  1  0.560661  0.615489  0.744965  1
  Rh  Rh13  1  0.054829  0.439339  0.744965  1
  Rh  Rh14  1  0.384511  0.945171  0.744965  1
  Rh  Rh15  1  0.145440  0.887869  0.244997  1
  Rh  Rh16  1  0.742429  0.854560  0.244997  1
  Rh  Rh17  1  0.112131  0.257571  0.244997  1
  Rh  Rh18  1  0.849934  0.124720  0.741170  1
  Rh  Rh19  1  0.274786  0.150066  0.741170  1
  Rh  Rh20  1  0.875280  0.725214  0.741170  1
