# generated using pymatgen
data_Na4ScPaSe6
_symmetry_space_group_name_H-M   'P 1'
_cell_length_a   7.11321588
_cell_length_b   7.11321498
_cell_length_c   7.34612100
_cell_angle_alpha   80.61754239
_cell_angle_beta   80.61753543
_cell_angle_gamma   120.02995230
_symmetry_Int_Tables_number   1
_chemical_formula_structural   Na4ScPaSe6
_chemical_formula_sum   'Na4 Sc1 Pa1 Se6'
_cell_volume   304.20068559
_cell_formula_units_Z   1
loop_
 _symmetry_equiv_pos_site_id
 _symmetry_equiv_pos_as_xyz
  1  'x, y, z'
loop_
 _atom_site_type_symbol
 _atom_site_label
 _atom_site_symmetry_multiplicity
 _atom_site_fract_x
 _atom_site_fract_y
 _atom_site_fract_z
 _atom_site_occupancy
  Na  Na0  1  0.000101  0.999899  0.000000  1
  Na  Na1  1  0.499903  0.500097  0.500000  1
  Na  Na2  1  0.840249  0.159751  0.500000  1
  Na  Na3  1  0.160079  0.839921  0.500000  1
  Sc  Sc4  1  0.667580  0.332420  0.000000  1
  Pa  Pa5  1  0.332483  0.667517  0.000000  1
  Se  Se6  1  0.283637  0.279456  0.226432  1
  Se  Se7  1  0.436139  0.080589  0.774124  1
  Se  Se8  1  0.071425  0.431553  0.774939  1
  Se  Se9  1  0.720544  0.716363  0.773568  1
  Se  Se10  1  0.568447  0.928575  0.225061  1
  Se  Se11  1  0.919411  0.563861  0.225876  1
