# generated using pymatgen
data_Nd19ThRh16
_symmetry_space_group_name_H-M   'P 1'
_cell_length_a   7.62285343
_cell_length_b   7.72405870
_cell_length_c   14.97901592
_cell_angle_alpha   90.10911457
_cell_angle_beta   90.18948498
_cell_angle_gamma   90.02981546
_symmetry_Int_Tables_number   1
_chemical_formula_structural   Nd19ThRh16
_chemical_formula_sum   'Nd19 Th1 Rh16'
_cell_volume   881.94843559
_cell_formula_units_Z   1
loop_
 _symmetry_equiv_pos_site_id
 _symmetry_equiv_pos_as_xyz
  1  'x, y, z'
loop_
 _atom_site_type_symbol
 _atom_site_label
 _atom_site_symmetry_multiplicity
 _atom_site_fract_x
 _atom_site_fract_y
 _atom_site_fract_z
 _atom_site_occupancy
  Nd  Nd0  1  0.163812  0.332388  0.878347  1
  Nd  Nd1  1  0.336866  0.831822  0.121948  1
  Nd  Nd2  1  0.837915  0.668755  0.378696  1
  Nd  Nd3  1  0.337251  0.832929  0.379068  1
  Nd  Nd4  1  0.836090  0.668800  0.121914  1
  Nd  Nd5  1  0.663416  0.167094  0.878077  1
  Nd  Nd6  1  0.161832  0.332541  0.620988  1
  Nd  Nd7  1  0.512247  0.679538  0.594307  1
  Nd  Nd8  1  0.015223  0.817043  0.908339  1
  Nd  Nd9  1  0.486535  0.318945  0.093479  1
  Nd  Nd10  1  0.987667  0.181769  0.405732  1
  Nd  Nd11  1  0.487238  0.322396  0.405263  1
  Nd  Nd12  1  0.986876  0.180380  0.093831  1
  Nd  Nd13  1  0.513610  0.682418  0.907185  1
  Nd  Nd14  1  0.014480  0.818419  0.593026  1
  Nd  Nd15  1  0.827055  0.513768  0.751472  1
  Nd  Nd16  1  0.319639  0.988073  0.751145  1
  Nd  Nd17  1  0.174330  0.490052  0.249969  1
  Nd  Nd18  1  0.675059  0.010962  0.250130  1
  Th  Th19  1  0.662195  0.165585  0.621652  1
  Rh  Rh20  1  0.683444  0.973757  0.465749  1
  Rh  Rh21  1  0.175569  0.530917  0.040899  1
  Rh  Rh22  1  0.323327  0.030704  0.958808  1
  Rh  Rh23  1  0.815511  0.456903  0.540800  1
  Rh  Rh24  1  0.334892  0.034065  0.544144  1
  Rh  Rh25  1  0.824574  0.470923  0.958152  1
  Rh  Rh26  1  0.675439  0.970234  0.041604  1
  Rh  Rh27  1  0.171510  0.531093  0.458357  1
  Rh  Rh28  1  0.463761  0.388759  0.745013  1
  Rh  Rh29  1  0.950115  0.107667  0.744163  1
  Rh  Rh30  1  0.542034  0.601737  0.251091  1
  Rh  Rh31  1  0.042015  0.899802  0.250587  1
  Rh  Rh32  1  0.691707  0.860581  0.746137  1
  Rh  Rh33  1  0.203788  0.638675  0.749897  1
  Rh  Rh34  1  0.302050  0.144117  0.249989  1
  Rh  Rh35  1  0.800931  0.356388  0.250040  1
