# generated using pymatgen
data_TbHo5Er2(OsBr4)2
_symmetry_space_group_name_H-M   'P 1'
_cell_length_a   8.98809276
_cell_length_b   8.95055054
_cell_length_c   6.51821816
_cell_angle_alpha   89.36525091
_cell_angle_beta   89.65522511
_cell_angle_gamma   89.29181092
_symmetry_Int_Tables_number   1
_chemical_formula_structural   TbHo5Er2(OsBr4)2
_chemical_formula_sum   'Tb1 Ho5 Er2 Os2 Br8'
_cell_volume   524.29878160
_cell_formula_units_Z   1
loop_
 _symmetry_equiv_pos_site_id
 _symmetry_equiv_pos_as_xyz
  1  'x, y, z'
loop_
 _atom_site_type_symbol
 _atom_site_label
 _atom_site_symmetry_multiplicity
 _atom_site_fract_x
 _atom_site_fract_y
 _atom_site_fract_z
 _atom_site_occupancy
  Tb  Tb0  1  0.249307  0.097735  0.493263  1
  Ho  Ho1  1  0.247096  0.900852  0.011066  1
  Ho  Ho2  1  0.752294  0.098606  0.989478  1
  Ho  Ho3  1  0.097951  0.751539  0.490583  1
  Ho  Ho4  1  0.901666  0.248179  0.509941  1
  Ho  Ho5  1  0.753223  0.903015  0.507581  1
  Er  Er6  1  0.095484  0.245820  0.991846  1
  Er  Er7  1  0.903178  0.754158  0.008623  1
  Os  Os8  1  0.995461  0.004691  0.250035  1
  Os  Os9  1  0.004178  0.995157  0.750285  1
  Br  Br10  1  0.417866  0.815292  0.412269  1
  Br  Br11  1  0.583978  0.183457  0.586871  1
  Br  Br12  1  0.180599  0.581494  0.089527  1
  Br  Br13  1  0.818840  0.418372  0.910933  1
  Br  Br14  1  0.411992  0.188867  0.086852  1
  Br  Br15  1  0.588150  0.811244  0.910050  1
  Br  Br16  1  0.811478  0.587082  0.407287  1
  Br  Br17  1  0.187262  0.414442  0.593509  1
