# generated using pymatgen
data_Zr8Fe7Si14Ru
_symmetry_space_group_name_H-M   'P 1'
_cell_length_a   9.60748531
_cell_length_b   9.61189602
_cell_length_c   9.60367385
_cell_angle_alpha   94.02247187
_cell_angle_beta   93.99793115
_cell_angle_gamma   149.34122161
_symmetry_Int_Tables_number   1
_chemical_formula_structural   Zr8Fe7Si14Ru
_chemical_formula_sum   'Zr8 Fe7 Si14 Ru1'
_cell_volume   436.12242069
_cell_formula_units_Z   1
loop_
 _symmetry_equiv_pos_site_id
 _symmetry_equiv_pos_as_xyz
  1  'x, y, z'
loop_
 _atom_site_type_symbol
 _atom_site_label
 _atom_site_symmetry_multiplicity
 _atom_site_fract_x
 _atom_site_fract_y
 _atom_site_fract_z
 _atom_site_occupancy
  Zr  Zr0  1  0.138113  0.138113  0.276227  1
  Zr  Zr1  1  0.862200  0.862200  0.724398  1
  Zr  Zr2  1  0.862068  0.137252  0.001004  1
  Zr  Zr3  1  0.138936  0.863752  0.001004  1
  Zr  Zr4  1  0.498838  0.303554  0.803685  1
  Zr  Zr5  1  0.500670  0.696278  0.197271  1
  Zr  Zr6  1  0.696601  0.500992  0.197271  1
  Zr  Zr7  1  0.304846  0.500130  0.803685  1
  Fe  Fe8  1  0.103550  0.603550  0.207100  1
  Fe  Fe9  1  0.101589  0.896899  0.499841  1
  Fe  Fe10  1  0.398252  0.602942  0.499841  1
  Fe  Fe11  1  0.600256  0.397750  0.498537  1
  Fe  Fe12  1  0.898281  0.100787  0.498537  1
  Fe  Fe13  1  0.898226  0.398226  0.796454  1
  Fe  Fe14  1  0.601890  0.101890  0.203779  1
  Si  Si15  1  0.510521  0.103835  0.586522  1
  Si  Si16  1  0.502759  0.910905  0.408378  1
  Si  Si17  1  0.905619  0.497473  0.408378  1
  Si  Si18  1  0.076001  0.482686  0.586522  1
  Si  Si19  1  0.750042  0.750199  0.000400  1
  Si  Si20  1  0.250358  0.250202  0.000400  1
  Si  Si21  1  0.289333  0.289333  0.578664  1
  Si  Si22  1  0.710636  0.710636  0.421275  1
  Si  Si23  1  0.719950  0.300511  0.004431  1
  Si  Si24  1  0.284481  0.703919  0.004431  1
  Si  Si25  1  0.999063  0.299320  0.300237  1
  Si  Si26  1  0.989202  0.693591  0.698728  1
  Si  Si27  1  0.709526  0.005137  0.698728  1
  Si  Si28  1  0.301175  0.000919  0.300237  1
  Ru  Ru29  1  0.397019  0.897019  0.794040  1
