# generated using pymatgen
data_Hf6BSb2
_symmetry_space_group_name_H-M   'P 1'
_cell_length_a   7.51520715
_cell_length_b   3.67146200
_cell_length_c   7.51527900
_cell_angle_alpha   90.00000000
_cell_angle_beta   119.99987506
_cell_angle_gamma   90.00000000
_symmetry_Int_Tables_number   1
_chemical_formula_structural   Hf6BSb2
_chemical_formula_sum   'Hf6 B1 Sb2'
_cell_volume   179.57930241
_cell_formula_units_Z   1
loop_
 _symmetry_equiv_pos_site_id
 _symmetry_equiv_pos_as_xyz
  1  'x, y, z'
loop_
 _atom_site_type_symbol
 _atom_site_label
 _atom_site_symmetry_multiplicity
 _atom_site_fract_x
 _atom_site_fract_y
 _atom_site_fract_z
 _atom_site_occupancy
  Hf  Hf0  1  0.390121  0.000000  0.999999  1
  Hf  Hf1  1  0.769018  0.499999  0.999998  1
  Hf  Hf2  1  0.230972  0.499999  0.230975  1
  Hf  Hf3  1  0.999999  0.000000  0.390136  1
  Hf  Hf4  1  0.609864  0.000000  0.609864  1
  Hf  Hf5  1  0.999994  0.499999  0.769022  1
  B  B6  1  0.000000  0.000000  0.999997  1
  Sb  Sb7  1  0.666660  0.499999  0.333334  1
  Sb  Sb8  1  0.333328  0.499999  0.666669  1
