# generated using pymatgen
data_YNpTl2O6
_symmetry_space_group_name_H-M   'P 1'
_cell_length_a   6.15241726
_cell_length_b   6.15241697
_cell_length_c   6.15241700
_cell_angle_alpha   60.00000522
_cell_angle_beta   60.00000675
_cell_angle_gamma   89.99999973
_symmetry_Int_Tables_number   1
_chemical_formula_structural   YNpTl2O6
_chemical_formula_sum   'Y1 Np1 Tl2 O6'
_cell_volume   164.67299648
_cell_formula_units_Z   1
loop_
 _symmetry_equiv_pos_site_id
 _symmetry_equiv_pos_as_xyz
  1  'x, y, z'
loop_
 _atom_site_type_symbol
 _atom_site_label
 _atom_site_symmetry_multiplicity
 _atom_site_fract_x
 _atom_site_fract_y
 _atom_site_fract_z
 _atom_site_occupancy
  Y  Y0  1  0.500001  0.500001  0.000000  1
  Np  Np1  1  0.000000  0.000000  0.000000  1
  Tl  Tl2  1  0.250002  0.750002  0.499998  1
  Tl  Tl3  1  0.750001  0.249999  0.500001  1
  O  O4  1  0.765047  0.234953  0.000000  1
  O  O5  1  0.234954  0.234954  0.000000  1
  O  O6  1  0.234954  0.765048  0.000000  1
  O  O7  1  0.765048  0.765048  0.000000  1
  O  O8  1  0.765046  0.765046  0.469907  1
  O  O9  1  0.234954  0.234954  0.530090  1
