# generated using pymatgen
data_Er3Be2Co4Ni5B4
_symmetry_space_group_name_H-M   'P 1'
_cell_length_a   5.00361439
_cell_length_b   4.99514435
_cell_length_c   9.45383300
_cell_angle_alpha   90.00000000
_cell_angle_beta   90.00000000
_cell_angle_gamma   119.94401435
_symmetry_Int_Tables_number   1
_chemical_formula_structural   Er3Be2Co4Ni5B4
_chemical_formula_sum   'Er3 Be2 Co4 Ni5 B4'
_cell_volume   204.74587636
_cell_formula_units_Z   1
loop_
 _symmetry_equiv_pos_site_id
 _symmetry_equiv_pos_as_xyz
  1  'x, y, z'
loop_
 _atom_site_type_symbol
 _atom_site_label
 _atom_site_symmetry_multiplicity
 _atom_site_fract_x
 _atom_site_fract_y
 _atom_site_fract_z
 _atom_site_occupancy
  Er  Er0  1  0.000000  0.000000  0.003218  1
  Er  Er1  1  0.000000  0.000000  0.660003  1
  Er  Er2  1  0.000000  0.000000  0.338893  1
  Be  Be3  1  0.674394  0.337196  0.001319  1
  Be  Be4  1  0.325606  0.662804  0.001319  1
  Co  Co5  1  0.500000  0.500000  0.500158  1
  Co  Co6  1  0.500000  0.000000  0.500158  1
  Co  Co7  1  0.000000  0.500000  0.499130  1
  Co  Co8  1  0.000000  0.500000  0.191721  1
  Ni  Ni9  1  0.500000  0.500000  0.811783  1
  Ni  Ni10  1  0.500000  0.000000  0.811783  1
  Ni  Ni11  1  0.000000  0.500000  0.810564  1
  Ni  Ni12  1  0.500000  0.500000  0.187287  1
  Ni  Ni13  1  0.500000  0.000000  0.187287  1
  B  B14  1  0.666835  0.333417  0.654685  1
  B  B15  1  0.333165  0.666583  0.654685  1
  B  B16  1  0.330097  0.665049  0.343005  1
  B  B17  1  0.669903  0.334951  0.343005  1
