# generated using pymatgen
data_Nb6Al8Cu3Ni
_symmetry_space_group_name_H-M   'P 1'
_cell_length_a   8.76297169
_cell_length_b   8.83187130
_cell_length_c   8.14330600
_cell_angle_alpha   90.00000000
_cell_angle_beta   90.00000000
_cell_angle_gamma   120.96493729
_symmetry_Int_Tables_number   1
_chemical_formula_structural   Nb6Al8Cu3Ni
_chemical_formula_sum   'Nb12 Al16 Cu6 Ni2'
_cell_volume   540.41832974
_cell_formula_units_Z   2
loop_
 _symmetry_equiv_pos_site_id
 _symmetry_equiv_pos_as_xyz
  1  'x, y, z'
loop_
 _atom_site_type_symbol
 _atom_site_label
 _atom_site_symmetry_multiplicity
 _atom_site_fract_x
 _atom_site_fract_y
 _atom_site_fract_z
 _atom_site_occupancy
  Nb  Nb0  1  0.327733  0.991963  0.065399  1
  Nb  Nb1  1  0.672267  0.008037  0.934601  1
  Nb  Nb2  1  0.997253  0.328502  0.068011  1
  Nb  Nb3  1  0.672267  0.008037  0.565399  1
  Nb  Nb4  1  0.997253  0.328502  0.431989  1
  Nb  Nb5  1  0.002747  0.671498  0.931989  1
  Nb  Nb6  1  0.327733  0.991963  0.434601  1
  Nb  Nb7  1  0.002747  0.671498  0.568011  1
  Nb  Nb8  1  0.668481  0.665145  0.065536  1
  Nb  Nb9  1  0.331519  0.334855  0.934464  1
  Nb  Nb10  1  0.331519  0.334855  0.565536  1
  Nb  Nb11  1  0.668481  0.665145  0.434464  1
  Al  Al12  1  0.344084  0.848982  0.750000  1
  Al  Al13  1  0.655397  0.506694  0.750000  1
  Al  Al14  1  0.655916  0.151018  0.250000  1
  Al  Al15  1  0.344603  0.493306  0.250000  1
  Al  Al16  1  0.845572  0.341938  0.750000  1
  Al  Al17  1  0.154428  0.658062  0.250000  1
  Al  Al18  1  0.340096  0.665203  0.505215  1
  Al  Al19  1  0.659904  0.334797  0.494785  1
  Al  Al20  1  0.659904  0.334797  0.005215  1
  Al  Al21  1  0.340096  0.665203  0.994785  1
  Al  Al22  1  0.176390  0.009159  0.750000  1
  Al  Al23  1  0.823610  0.990841  0.250000  1
  Al  Al24  1  0.008563  0.177897  0.750000  1
  Al  Al25  1  0.991437  0.822103  0.250000  1
  Al  Al26  1  0.827777  0.836940  0.750000  1
  Al  Al27  1  0.172223  0.163060  0.250000  1
  Cu  Cu28  1  0.167112  0.499810  0.750000  1
  Cu  Cu29  1  0.832888  0.500190  0.250000  1
  Cu  Cu30  1  0.506263  0.671958  0.750000  1
  Cu  Cu31  1  0.502565  0.171102  0.750000  1
  Cu  Cu32  1  0.493737  0.328042  0.250000  1
  Cu  Cu33  1  0.497435  0.828898  0.250000  1
  Ni  Ni34  1  0.000000  0.000000  0.500000  1
  Ni  Ni35  1  0.000000  0.000000  0.000000  1
