# generated using pymatgen
data_Tb3CeHgRu
_symmetry_space_group_name_H-M   'P 1'
_cell_length_a   9.63266956
_cell_length_b   9.63266878
_cell_length_c   9.63266900
_cell_angle_alpha   60.00000270
_cell_angle_beta   60.00000537
_cell_angle_gamma   59.99999694
_symmetry_Int_Tables_number   1
_chemical_formula_structural   Tb3CeHgRu
_chemical_formula_sum   'Tb12 Ce4 Hg4 Ru4'
_cell_volume   632.01144942
_cell_formula_units_Z   4
loop_
 _symmetry_equiv_pos_site_id
 _symmetry_equiv_pos_as_xyz
  1  'x, y, z'
loop_
 _atom_site_type_symbol
 _atom_site_label
 _atom_site_symmetry_multiplicity
 _atom_site_fract_x
 _atom_site_fract_y
 _atom_site_fract_z
 _atom_site_occupancy
  Tb  Tb0  1  0.561609  0.561609  0.938391  1
  Tb  Tb1  1  0.938391  0.561609  0.938391  1
  Tb  Tb2  1  0.561609  0.938391  0.938391  1
  Tb  Tb3  1  0.938391  0.938391  0.561609  1
  Tb  Tb4  1  0.561609  0.938391  0.561609  1
  Tb  Tb5  1  0.938391  0.561609  0.561609  1
  Tb  Tb6  1  0.189931  0.189931  0.810069  1
  Tb  Tb7  1  0.810069  0.189931  0.810069  1
  Tb  Tb8  1  0.189930  0.810070  0.810069  1
  Tb  Tb9  1  0.810069  0.810070  0.189931  1
  Tb  Tb10  1  0.189930  0.810069  0.189930  1
  Tb  Tb11  1  0.810069  0.189931  0.189931  1
  Ce  Ce12  1  0.346858  0.346858  0.959427  1
  Ce  Ce13  1  0.346858  0.959427  0.346858  1
  Ce  Ce14  1  0.959427  0.346858  0.346858  1
  Ce  Ce15  1  0.346858  0.346858  0.346858  1
  Hg  Hg16  1  0.584505  0.584505  0.246485  1
  Hg  Hg17  1  0.584505  0.246485  0.584505  1
  Hg  Hg18  1  0.246485  0.584505  0.584505  1
  Hg  Hg19  1  0.584505  0.584505  0.584505  1
  Ru  Ru20  1  0.144704  0.144704  0.565888  1
  Ru  Ru21  1  0.144704  0.565888  0.144704  1
  Ru  Ru22  1  0.565888  0.144704  0.144704  1
  Ru  Ru23  1  0.144704  0.144704  0.144704  1
