# generated using pymatgen
data_Er3Al3HgGePd
_symmetry_space_group_name_H-M   'P 1'
_cell_length_a   7.02934000
_cell_length_b   7.02934036
_cell_length_c   4.28821200
_cell_angle_alpha   90.00000000
_cell_angle_beta   90.00000000
_cell_angle_gamma   119.99998891
_symmetry_Int_Tables_number   1
_chemical_formula_structural   Er3Al3HgGePd
_chemical_formula_sum   'Er3 Al3 Hg1 Ge1 Pd1'
_cell_volume   183.49999221
_cell_formula_units_Z   1
loop_
 _symmetry_equiv_pos_site_id
 _symmetry_equiv_pos_as_xyz
  1  'x, y, z'
loop_
 _atom_site_type_symbol
 _atom_site_label
 _atom_site_symmetry_multiplicity
 _atom_site_fract_x
 _atom_site_fract_y
 _atom_site_fract_z
 _atom_site_occupancy
  Er  Er0  1  0.411132  0.993794  0.500000  1
  Er  Er1  1  0.006206  0.417338  0.500000  1
  Er  Er2  1  0.582662  0.588868  0.500000  1
  Al  Al3  1  0.767511  0.000194  0.000000  1
  Al  Al4  1  0.999806  0.767317  0.000000  1
  Al  Al5  1  0.232683  0.232489  0.000000  1
  Hg  Hg6  1  0.666667  0.333333  0.000000  1
  Ge  Ge7  1  0.333333  0.666667  0.000000  1
  Pd  Pd8  1  0.000000  0.000000  0.500000  1
