# generated using pymatgen
data_HfZr6Nb(Ir2N)2
_symmetry_space_group_name_H-M   'P 1'
_cell_length_a   8.77815961
_cell_length_b   8.77815834
_cell_length_c   8.81929500
_cell_angle_alpha   59.84485480
_cell_angle_beta   59.84485962
_cell_angle_gamma   59.58212929
_symmetry_Int_Tables_number   1
_chemical_formula_structural   HfZr6Nb(Ir2N)2
_chemical_formula_sum   'Hf2 Zr12 Nb2 Ir8 N4'
_cell_volume   477.88065482
_cell_formula_units_Z   2
loop_
 _symmetry_equiv_pos_site_id
 _symmetry_equiv_pos_as_xyz
  1  'x, y, z'
loop_
 _atom_site_type_symbol
 _atom_site_label
 _atom_site_symmetry_multiplicity
 _atom_site_fract_x
 _atom_site_fract_y
 _atom_site_fract_z
 _atom_site_occupancy
  Hf  Hf0  1  0.125000  0.625000  0.625000  1
  Hf  Hf1  1  0.625000  0.125000  0.625000  1
  Zr  Zr2  1  0.812673  0.812673  0.187327  1
  Zr  Zr3  1  0.184072  0.184072  0.815928  1
  Zr  Zr4  1  0.814208  0.186448  0.813835  1
  Zr  Zr5  1  0.186448  0.814208  0.185509  1
  Zr  Zr6  1  0.186448  0.814208  0.813835  1
  Zr  Zr7  1  0.814208  0.186448  0.185509  1
  Zr  Zr8  1  0.437327  0.437327  0.062673  1
  Zr  Zr9  1  0.065928  0.065928  0.434072  1
  Zr  Zr10  1  0.435792  0.063552  0.436165  1
  Zr  Zr11  1  0.063552  0.435792  0.064491  1
  Zr  Zr12  1  0.063552  0.435792  0.436165  1
  Zr  Zr13  1  0.435792  0.063552  0.064491  1
  Nb  Nb14  1  0.625000  0.625000  0.125000  1
  Nb  Nb15  1  0.625000  0.625000  0.625000  1
  Ir  Ir16  1  0.757151  0.417647  0.412601  1
  Ir  Ir17  1  0.417647  0.757151  0.412601  1
  Ir  Ir18  1  0.413886  0.413886  0.766289  1
  Ir  Ir19  1  0.413886  0.413886  0.405939  1
  Ir  Ir20  1  0.492849  0.832353  0.837399  1
  Ir  Ir21  1  0.832353  0.492849  0.837399  1
  Ir  Ir22  1  0.836114  0.836114  0.483711  1
  Ir  Ir23  1  0.836114  0.836114  0.844061  1
  N  N24  1  0.625000  0.125000  0.125000  1
  N  N25  1  0.125000  0.625000  0.125000  1
  N  N26  1  0.125000  0.125000  0.625000  1
  N  N27  1  0.125000  0.125000  0.125000  1
