# generated using pymatgen
data_Ba2Re6Se11
_symmetry_space_group_name_H-M   'P 1'
_cell_length_a   12.55027070
_cell_length_b   12.55027066
_cell_length_c   12.55027024
_cell_angle_alpha   45.43870329
_cell_angle_beta   45.43870496
_cell_angle_gamma   45.43870230
_symmetry_Int_Tables_number   1
_chemical_formula_structural   Ba2Re6Se11
_chemical_formula_sum   'Ba4 Re12 Se22'
_cell_volume   914.24239110
_cell_formula_units_Z   2
loop_
 _symmetry_equiv_pos_site_id
 _symmetry_equiv_pos_as_xyz
  1  'x, y, z'
loop_
 _atom_site_type_symbol
 _atom_site_label
 _atom_site_symmetry_multiplicity
 _atom_site_fract_x
 _atom_site_fract_y
 _atom_site_fract_z
 _atom_site_occupancy
  Ba  Ba0  1  0.310545  0.310545  0.310545  1
  Ba  Ba1  1  0.189455  0.189455  0.189455  1
  Ba  Ba2  1  0.689455  0.689455  0.689455  1
  Ba  Ba3  1  0.810545  0.810545  0.810545  1
  Re  Re4  1  0.613550  0.299042  0.489502  1
  Re  Re5  1  0.489502  0.613550  0.299042  1
  Re  Re6  1  0.799042  0.113550  0.989502  1
  Re  Re7  1  0.989502  0.799042  0.113550  1
  Re  Re8  1  0.113550  0.989502  0.799042  1
  Re  Re9  1  0.700958  0.510498  0.386450  1
  Re  Re10  1  0.386450  0.700958  0.510498  1
  Re  Re11  1  0.510498  0.386450  0.700958  1
  Re  Re12  1  0.299042  0.489502  0.613550  1
  Re  Re13  1  0.886450  0.010498  0.200958  1
  Re  Re14  1  0.010498  0.200958  0.886450  1
  Re  Re15  1  0.200958  0.886450  0.010498  1
  Se  Se16  1  0.091645  0.091645  0.091645  1
  Se  Se17  1  0.408355  0.408355  0.408355  1
  Se  Se18  1  0.908355  0.908355  0.908355  1
  Se  Se19  1  0.591645  0.591645  0.591645  1
  Se  Se20  1  0.250000  0.983202  0.516798  1
  Se  Se21  1  0.516798  0.250000  0.983202  1
  Se  Se22  1  0.983202  0.516798  0.250000  1
  Se  Se23  1  0.750000  0.016798  0.483202  1
  Se  Se24  1  0.483202  0.750000  0.016798  1
  Se  Se25  1  0.016798  0.483202  0.750000  1
  Se  Se26  1  0.073786  0.706831  0.311311  1
  Se  Se27  1  0.311311  0.073786  0.706831  1
  Se  Se28  1  0.706831  0.311311  0.073786  1
  Se  Se29  1  0.426214  0.188689  0.793169  1
  Se  Se30  1  0.793169  0.426214  0.188689  1
  Se  Se31  1  0.188689  0.793169  0.426214  1
  Se  Se32  1  0.811311  0.206831  0.573786  1
  Se  Se33  1  0.206831  0.573786  0.811311  1
  Se  Se34  1  0.573786  0.811311  0.206831  1
  Se  Se35  1  0.293169  0.688689  0.926214  1
  Se  Se36  1  0.688689  0.926214  0.293169  1
  Se  Se37  1  0.926214  0.293169  0.688689  1
