# generated using pymatgen
data_Dy2HoTm9Rh4
_symmetry_space_group_name_H-M   'P 1'
_cell_length_a   6.25452202
_cell_length_b   7.13165143
_cell_length_c   9.28343900
_cell_angle_alpha   90.00000000
_cell_angle_beta   90.00000000
_cell_angle_gamma   90.11874223
_symmetry_Int_Tables_number   1
_chemical_formula_structural   Dy2HoTm9Rh4
_chemical_formula_sum   'Dy2 Ho1 Tm9 Rh4'
_cell_volume   414.08756550
_cell_formula_units_Z   1
loop_
 _symmetry_equiv_pos_site_id
 _symmetry_equiv_pos_as_xyz
  1  'x, y, z'
loop_
 _atom_site_type_symbol
 _atom_site_label
 _atom_site_symmetry_multiplicity
 _atom_site_fract_x
 _atom_site_fract_y
 _atom_site_fract_z
 _atom_site_occupancy
  Dy  Dy0  1  0.632083  0.033033  0.250000  1
  Dy  Dy1  1  0.368798  0.967282  0.750000  1
  Ho  Ho2  1  0.131758  0.467319  0.750000  1
  Tm  Tm3  1  0.327623  0.677100  0.063354  1
  Tm  Tm4  1  0.170347  0.177808  0.436561  1
  Tm  Tm5  1  0.671932  0.323071  0.562463  1
  Tm  Tm6  1  0.829484  0.821895  0.937345  1
  Tm  Tm7  1  0.671932  0.323071  0.937537  1
  Tm  Tm8  1  0.829484  0.821895  0.562655  1
  Tm  Tm9  1  0.327623  0.677100  0.436646  1
  Tm  Tm10  1  0.170347  0.177808  0.063439  1
  Tm  Tm11  1  0.867430  0.533658  0.250000  1
  Rh  Rh12  1  0.054313  0.880750  0.250000  1
  Rh  Rh13  1  0.446863  0.384266  0.250000  1
  Rh  Rh14  1  0.942838  0.117293  0.750000  1
  Rh  Rh15  1  0.557146  0.616649  0.750000  1
