# generated using pymatgen
data_SmGd3Dy4(ReB6)4
_symmetry_space_group_name_H-M   'P 1'
_cell_length_a   3.70308700
_cell_length_b   9.20982901
_cell_length_c   11.61504301
_cell_angle_alpha   89.99955875
_cell_angle_beta   90.00000000
_cell_angle_gamma   90.00000000
_symmetry_Int_Tables_number   1
_chemical_formula_structural   SmGd3Dy4(ReB6)4
_chemical_formula_sum   'Sm1 Gd3 Dy4 Re4 B24'
_cell_volume   396.12869682
_cell_formula_units_Z   1
loop_
 _symmetry_equiv_pos_site_id
 _symmetry_equiv_pos_as_xyz
  1  'x, y, z'
loop_
 _atom_site_type_symbol
 _atom_site_label
 _atom_site_symmetry_multiplicity
 _atom_site_fract_x
 _atom_site_fract_y
 _atom_site_fract_z
 _atom_site_occupancy
  Sm  Sm0  1  0.000000  0.176570  0.913899  1
  Gd  Gd1  1  0.000000  0.323560  0.413781  1
  Gd  Gd2  1  0.000000  0.676338  0.586248  1
  Gd  Gd3  1  0.000000  0.823744  0.086113  1
  Dy  Dy4  1  0.000000  0.943055  0.369649  1
  Dy  Dy5  1  0.000000  0.056853  0.630205  1
  Dy  Dy6  1  0.000000  0.443170  0.130476  1
  Dy  Dy7  1  0.000000  0.557166  0.869599  1
  Re  Re8  1  0.000000  0.639144  0.320328  1
  Re  Re9  1  0.000000  0.360976  0.679646  1
  Re  Re10  1  0.000000  0.139013  0.179445  1
  Re  Re11  1  0.000000  0.860895  0.820607  1
  B  B12  1  0.500000  0.553709  0.432403  1
  B  B13  1  0.500000  0.446374  0.567653  1
  B  B14  1  0.500000  0.053186  0.068371  1
  B  B15  1  0.500000  0.945337  0.932309  1
  B  B16  1  0.500000  0.748840  0.417991  1
  B  B17  1  0.500000  0.251098  0.581840  1
  B  B18  1  0.500000  0.249151  0.083148  1
  B  B19  1  0.500000  0.750801  0.917973  1
  B  B20  1  0.500000  0.791676  0.265719  1
  B  B21  1  0.500000  0.208633  0.733497  1
  B  B22  1  0.500000  0.291794  0.234691  1
  B  B23  1  0.500000  0.708280  0.765482  1
  B  B24  1  0.500000  0.630797  0.186048  1
  B  B25  1  0.500000  0.369986  0.813409  1
  B  B26  1  0.500000  0.130796  0.314008  1
  B  B27  1  0.500000  0.868928  0.685761  1
  B  B28  1  0.500000  0.982969  0.212194  1
  B  B29  1  0.500000  0.015819  0.787341  1
  B  B30  1  0.500000  0.483131  0.288102  1
  B  B31  1  0.500000  0.517125  0.711868  1
  B  B32  1  0.500000  0.599062  0.027676  1
  B  B33  1  0.500000  0.402109  0.972632  1
  B  B34  1  0.500000  0.099312  0.472198  1
  B  B35  1  0.500000  0.900602  0.527691  1
