# generated using pymatgen
data_Lu12GaFe3Cu
_symmetry_space_group_name_H-M   'P 1'
_cell_length_a   8.05526796
_cell_length_b   8.05526764
_cell_length_c   8.05526800
_cell_angle_alpha   107.93118086
_cell_angle_beta   109.68546755
_cell_angle_gamma   110.80994059
_symmetry_Int_Tables_number   1
_chemical_formula_structural   Lu12GaFe3Cu
_chemical_formula_sum   'Lu12 Ga1 Fe3 Cu1'
_cell_volume   402.10586141
_cell_formula_units_Z   1
loop_
 _symmetry_equiv_pos_site_id
 _symmetry_equiv_pos_as_xyz
  1  'x, y, z'
loop_
 _atom_site_type_symbol
 _atom_site_label
 _atom_site_symmetry_multiplicity
 _atom_site_fract_x
 _atom_site_fract_y
 _atom_site_fract_z
 _atom_site_occupancy
  Lu  Lu0  1  0.308914  0.309427  0.618342  1
  Lu  Lu1  1  0.691086  0.690573  0.381658  1
  Lu  Lu2  1  0.691086  0.309427  0.000512  1
  Lu  Lu3  1  0.308914  0.690573  0.999488  1
  Lu  Lu4  1  0.186045  0.416900  0.230853  1
  Lu  Lu5  1  0.813955  0.583100  0.769147  1
  Lu  Lu6  1  0.186045  0.955192  0.769147  1
  Lu  Lu7  1  0.932397  0.189584  0.742813  1
  Lu  Lu8  1  0.813955  0.044808  0.230853  1
  Lu  Lu9  1  0.067603  0.810416  0.257187  1
  Lu  Lu10  1  0.446771  0.189584  0.257187  1
  Lu  Lu11  1  0.553229  0.810416  0.742813  1
  Ga  Ga12  1  0.000000  0.500000  0.500000  1
  Fe  Fe13  1  0.379874  0.379874  0.000000  1
  Fe  Fe14  1  0.620126  0.620126  0.000000  1
  Fe  Fe15  1  0.000000  0.000000  0.000000  1
  Cu  Cu16  1  0.500000  0.000000  0.500000  1
