# generated using pymatgen
data_Zr15Nb5Si16
_symmetry_space_group_name_H-M   'P 1'
_cell_length_a   7.05580358
_cell_length_b   7.05367214
_cell_length_c   12.94362152
_cell_angle_alpha   90.17339670
_cell_angle_beta   90.16725439
_cell_angle_gamma   89.98669989
_symmetry_Int_Tables_number   1
_chemical_formula_structural   Zr15Nb5Si16
_chemical_formula_sum   'Zr15 Nb5 Si16'
_cell_volume   644.18959779
_cell_formula_units_Z   1
loop_
 _symmetry_equiv_pos_site_id
 _symmetry_equiv_pos_as_xyz
  1  'x, y, z'
loop_
 _atom_site_type_symbol
 _atom_site_label
 _atom_site_symmetry_multiplicity
 _atom_site_fract_x
 _atom_site_fract_y
 _atom_site_fract_z
 _atom_site_occupancy
  Zr  Zr0  1  0.855152  0.997606  0.373649  1
  Zr  Zr1  1  0.004573  0.145926  0.127688  1
  Zr  Zr2  1  0.998067  0.853230  0.625425  1
  Zr  Zr3  1  0.645242  0.497199  0.876416  1
  Zr  Zr4  1  0.501742  0.353927  0.623405  1
  Zr  Zr5  1  0.498222  0.644303  0.123561  1
  Zr  Zr6  1  0.145188  0.002749  0.873672  1
  Zr  Zr7  1  0.001453  0.650692  0.034879  1
  Zr  Zr8  1  0.001856  0.348886  0.531882  1
  Zr  Zr9  1  0.650839  0.998474  0.966557  1
  Zr  Zr10  1  0.150718  0.500266  0.783690  1
  Zr  Zr11  1  0.849627  0.498569  0.283894  1
  Zr  Zr12  1  0.501440  0.151536  0.218331  1
  Zr  Zr13  1  0.498312  0.847595  0.714553  1
  Zr  Zr14  1  0.347897  0.000644  0.465926  1
  Nb  Nb15  1  0.354693  0.506772  0.375590  1
  Nb  Nb16  1  0.673140  0.673800  0.498922  1
  Nb  Nb17  1  0.823888  0.175319  0.749958  1
  Nb  Nb18  1  0.176940  0.824716  0.251131  1
  Nb  Nb19  1  0.325322  0.325078  0.000795  1
  Si  Si20  1  0.052501  0.698598  0.434943  1
  Si  Si21  1  0.951375  0.300804  0.936668  1
  Si  Si22  1  0.699439  0.049832  0.563522  1
  Si  Si23  1  0.201541  0.451767  0.188514  1
  Si  Si24  1  0.800340  0.548268  0.685311  1
  Si  Si25  1  0.450780  0.198788  0.814158  1
  Si  Si26  1  0.547738  0.797653  0.314639  1
  Si  Si27  1  0.301164  0.950695  0.064699  1
  Si  Si28  1  0.852192  0.796988  0.820872  1
  Si  Si29  1  0.147348  0.210525  0.324556  1
  Si  Si30  1  0.796582  0.853191  0.178459  1
  Si  Si31  1  0.297037  0.645073  0.568267  1
  Si  Si32  1  0.703502  0.351615  0.072016  1
  Si  Si33  1  0.640231  0.298669  0.426306  1
  Si  Si34  1  0.352527  0.702853  0.928901  1
  Si  Si35  1  0.201390  0.147392  0.678244  1
