# generated using pymatgen
data_Hf2ThFe9
_symmetry_space_group_name_H-M   'P 1'
_cell_length_a   8.55159973
_cell_length_b   8.55159974
_cell_length_c   8.55160022
_cell_angle_alpha   33.96147624
_cell_angle_beta   33.96147680
_cell_angle_gamma   33.96147572
_symmetry_Int_Tables_number   1
_chemical_formula_structural   Hf2ThFe9
_chemical_formula_sum   'Hf2 Th1 Fe9'
_cell_volume   173.95308475
_cell_formula_units_Z   1
loop_
 _symmetry_equiv_pos_site_id
 _symmetry_equiv_pos_as_xyz
  1  'x, y, z'
loop_
 _atom_site_type_symbol
 _atom_site_label
 _atom_site_symmetry_multiplicity
 _atom_site_fract_x
 _atom_site_fract_y
 _atom_site_fract_z
 _atom_site_occupancy
  Hf  Hf0  1  0.856548  0.856548  0.856548  1
  Hf  Hf1  1  0.143452  0.143452  0.143452  1
  Th  Th2  1  0.000000  0.000000  0.000000  1
  Fe  Fe3  1  0.412699  0.916604  0.412699  1
  Fe  Fe4  1  0.412699  0.412699  0.916604  1
  Fe  Fe5  1  0.916604  0.412699  0.412699  1
  Fe  Fe6  1  0.587301  0.083396  0.587301  1
  Fe  Fe7  1  0.587301  0.587301  0.083396  1
  Fe  Fe8  1  0.083396  0.587301  0.587301  1
  Fe  Fe9  1  0.667278  0.667278  0.667278  1
  Fe  Fe10  1  0.332722  0.332722  0.332722  1
  Fe  Fe11  1  0.500000  0.500000  0.500000  1
