# generated using pymatgen
data_Hf2ScGaP2Ru3
_symmetry_space_group_name_H-M   'P 1'
_cell_length_a   6.58324242
_cell_length_b   6.56107954
_cell_length_c   3.76343400
_cell_angle_alpha   90.00000000
_cell_angle_beta   90.00000000
_cell_angle_gamma   119.88868597
_symmetry_Int_Tables_number   1
_chemical_formula_structural   Hf2ScGaP2Ru3
_chemical_formula_sum   'Hf2 Sc1 Ga1 P2 Ru3'
_cell_volume   140.93411451
_cell_formula_units_Z   1
loop_
 _symmetry_equiv_pos_site_id
 _symmetry_equiv_pos_as_xyz
  1  'x, y, z'
loop_
 _atom_site_type_symbol
 _atom_site_label
 _atom_site_symmetry_multiplicity
 _atom_site_fract_x
 _atom_site_fract_y
 _atom_site_fract_z
 _atom_site_occupancy
  Hf  Hf0  1  0.421304  0.420481  0.500000  1
  Hf  Hf1  1  0.578696  0.999177  0.500000  1
  Sc  Sc2  1  0.000000  0.578618  0.500000  1
  Ga  Ga3  1  0.000000  0.996846  0.500000  1
  P  P4  1  0.669426  0.335437  0.000000  1
  P  P5  1  0.330574  0.666012  0.000000  1
  Ru  Ru6  1  0.258403  0.004208  0.000000  1
  Ru  Ru7  1  0.741597  0.745804  0.000000  1
  Ru  Ru8  1  0.000000  0.253416  0.000000  1
