# generated using pymatgen
data_Hf2Zr3BeAs3
_symmetry_space_group_name_H-M   'P 1'
_cell_length_a   3.67124400
_cell_length_b   10.39375800
_cell_length_c   17.56998400
_cell_angle_alpha   90.00000000
_cell_angle_beta   90.00000000
_cell_angle_gamma   90.00000000
_symmetry_Int_Tables_number   1
_chemical_formula_structural   Hf2Zr3BeAs3
_chemical_formula_sum   'Hf8 Zr12 Be4 As12'
_cell_volume   670.43583065
_cell_formula_units_Z   4
loop_
 _symmetry_equiv_pos_site_id
 _symmetry_equiv_pos_as_xyz
  1  'x, y, z'
loop_
 _atom_site_type_symbol
 _atom_site_label
 _atom_site_symmetry_multiplicity
 _atom_site_fract_x
 _atom_site_fract_y
 _atom_site_fract_z
 _atom_site_occupancy
  Hf  Hf0  1  0.250000  0.244239  0.168482  1
  Hf  Hf1  1  0.750000  0.755761  0.831518  1
  Hf  Hf2  1  0.750000  0.744239  0.331518  1
  Hf  Hf3  1  0.250000  0.255761  0.668482  1
  Hf  Hf4  1  0.250000  0.518780  0.273175  1
  Hf  Hf5  1  0.750000  0.481220  0.726825  1
  Hf  Hf6  1  0.750000  0.018780  0.226825  1
  Hf  Hf7  1  0.250000  0.981220  0.773175  1
  Zr  Zr8  1  0.250000  0.187232  0.369224  1
  Zr  Zr9  1  0.750000  0.812768  0.630776  1
  Zr  Zr10  1  0.750000  0.687232  0.130776  1
  Zr  Zr11  1  0.250000  0.312768  0.869224  1
  Zr  Zr12  1  0.250000  0.877858  0.477331  1
  Zr  Zr13  1  0.750000  0.122142  0.522669  1
  Zr  Zr14  1  0.750000  0.377858  0.022669  1
  Zr  Zr15  1  0.250000  0.622142  0.977331  1
  Zr  Zr16  1  0.250000  0.939689  0.079548  1
  Zr  Zr17  1  0.750000  0.060311  0.920452  1
  Zr  Zr18  1  0.750000  0.439689  0.420452  1
  Zr  Zr19  1  0.250000  0.560311  0.579548  1
  Be  Be20  1  0.250000  0.629039  0.413423  1
  Be  Be21  1  0.750000  0.370961  0.586577  1
  Be  Be22  1  0.750000  0.129039  0.086577  1
  Be  Be23  1  0.250000  0.870961  0.913423  1
  As  As24  1  0.250000  0.491036  0.118228  1
  As  As25  1  0.750000  0.508964  0.881772  1
  As  As26  1  0.750000  0.991036  0.381772  1
  As  As27  1  0.250000  0.008964  0.618228  1
  As  As28  1  0.250000  0.812374  0.222059  1
  As  As29  1  0.750000  0.187626  0.777941  1
  As  As30  1  0.750000  0.312374  0.277941  1
  As  As31  1  0.250000  0.687626  0.722059  1
  As  As32  1  0.250000  0.182829  0.011491  1
  As  As33  1  0.750000  0.817171  0.988509  1
  As  As34  1  0.750000  0.682829  0.488509  1
  As  As35  1  0.250000  0.317171  0.511491  1
