# generated using pymatgen
data_Li3Nd3NiPt2
_symmetry_space_group_name_H-M   'P 1'
_cell_length_a   7.26739700
_cell_length_b   7.26739589
_cell_length_c   4.11276500
_cell_angle_alpha   90.00000000
_cell_angle_beta   90.00000000
_cell_angle_gamma   119.99999142
_symmetry_Int_Tables_number   1
_chemical_formula_structural   Li3Nd3NiPt2
_chemical_formula_sum   'Li3 Nd3 Ni1 Pt2'
_cell_volume   188.11449809
_cell_formula_units_Z   1
loop_
 _symmetry_equiv_pos_site_id
 _symmetry_equiv_pos_as_xyz
  1  'x, y, z'
loop_
 _atom_site_type_symbol
 _atom_site_label
 _atom_site_symmetry_multiplicity
 _atom_site_fract_x
 _atom_site_fract_y
 _atom_site_fract_z
 _atom_site_occupancy
  Li  Li0  1  0.000000  0.766016  0.500000  1
  Li  Li1  1  0.233984  0.233984  0.500000  1
  Li  Li2  1  0.766016  0.000000  0.500000  1
  Nd  Nd3  1  0.598309  0.598309  0.000000  1
  Nd  Nd4  1  0.401691  0.000000  0.000000  1
  Nd  Nd5  1  0.000000  0.401691  0.000000  1
  Ni  Ni6  1  0.000000  0.000000  0.000000  1
  Pt  Pt7  1  0.333333  0.666667  0.500000  1
  Pt  Pt8  1  0.666667  0.333333  0.500000  1
