# generated using pymatgen
data_Ac7Er(Tm3Pt4)4
_symmetry_space_group_name_H-M   'P 1'
_cell_length_a   7.70216636
_cell_length_b   7.79307372
_cell_length_c   15.03791600
_cell_angle_alpha   90.00556557
_cell_angle_beta   90.04484180
_cell_angle_gamma   90.03769742
_symmetry_Int_Tables_number   1
_chemical_formula_structural   Ac7Er(Tm3Pt4)4
_chemical_formula_sum   'Ac7 Er1 Tm12 Pt16'
_cell_volume   902.62863085
_cell_formula_units_Z   1
loop_
 _symmetry_equiv_pos_site_id
 _symmetry_equiv_pos_as_xyz
  1  'x, y, z'
loop_
 _atom_site_type_symbol
 _atom_site_label
 _atom_site_symmetry_multiplicity
 _atom_site_fract_x
 _atom_site_fract_y
 _atom_site_fract_z
 _atom_site_occupancy
  Ac  Ac0  1  0.499396  0.678959  0.594357  1
  Ac  Ac1  1  0.999352  0.823476  0.903975  1
  Ac  Ac2  1  0.500613  0.324149  0.095889  1
  Ac  Ac3  1  0.000708  0.172410  0.407571  1
  Ac  Ac4  1  0.500522  0.323758  0.404555  1
  Ac  Ac5  1  0.000522  0.176619  0.095340  1
  Ac  Ac6  1  0.499760  0.675985  0.902650  1
  Er  Er7  1  0.005301  0.818822  0.599271  1
  Tm  Tm8  1  0.662890  0.162372  0.623692  1
  Tm  Tm9  1  0.155385  0.331519  0.872530  1
  Tm  Tm10  1  0.343793  0.832918  0.125735  1
  Tm  Tm11  1  0.847432  0.670770  0.378539  1
  Tm  Tm12  1  0.342704  0.833325  0.375623  1
  Tm  Tm13  1  0.842797  0.666559  0.126234  1
  Tm  Tm14  1  0.657161  0.167116  0.871980  1
  Tm  Tm15  1  0.156339  0.333985  0.625224  1
  Tm  Tm16  1  0.824324  0.503483  0.746627  1
  Tm  Tm17  1  0.319355  0.998992  0.746044  1
  Tm  Tm18  1  0.175651  0.499946  0.251145  1
  Tm  Tm19  1  0.676978  0.999436  0.250783  1
  Pt  Pt20  1  0.676153  0.956682  0.457683  1
  Pt  Pt21  1  0.174802  0.541876  0.044830  1
  Pt  Pt22  1  0.325769  0.042313  0.955013  1
  Pt  Pt23  1  0.831328  0.467784  0.548060  1
  Pt  Pt24  1  0.309918  0.032911  0.547174  1
  Pt  Pt25  1  0.825300  0.457432  0.954966  1
  Pt  Pt26  1  0.674520  0.957549  0.045158  1
  Pt  Pt27  1  0.172500  0.547376  0.457959  1
  Pt  Pt28  1  0.453877  0.367999  0.748978  1
  Pt  Pt29  1  0.956425  0.127070  0.747262  1
  Pt  Pt30  1  0.545624  0.633858  0.251149  1
  Pt  Pt31  1  0.045772  0.866340  0.250184  1
  Pt  Pt32  1  0.690845  0.868268  0.747339  1
  Pt  Pt33  1  0.181723  0.637611  0.744757  1
  Pt  Pt34  1  0.312092  0.131386  0.250601  1
  Pt  Pt35  1  0.812367  0.368946  0.251120  1
