# generated using pymatgen
data_Tb12CoTc2Rh
_symmetry_space_group_name_H-M   'P 1'
_cell_length_a   6.35962517
_cell_length_b   7.26156124
_cell_length_c   9.29676900
_cell_angle_alpha   90.00000000
_cell_angle_beta   90.00000000
_cell_angle_gamma   90.25317000
_symmetry_Int_Tables_number   1
_chemical_formula_structural   Tb12CoTc2Rh
_chemical_formula_sum   'Tb12 Co1 Tc2 Rh1'
_cell_volume   429.32810960
_cell_formula_units_Z   1
loop_
 _symmetry_equiv_pos_site_id
 _symmetry_equiv_pos_as_xyz
  1  'x, y, z'
loop_
 _atom_site_type_symbol
 _atom_site_label
 _atom_site_symmetry_multiplicity
 _atom_site_fract_x
 _atom_site_fract_y
 _atom_site_fract_z
 _atom_site_occupancy
  Tb  Tb0  1  0.329079  0.677927  0.065048  1
  Tb  Tb1  1  0.166907  0.179883  0.439277  1
  Tb  Tb2  1  0.668453  0.325310  0.565848  1
  Tb  Tb3  1  0.825463  0.818952  0.931229  1
  Tb  Tb4  1  0.668453  0.325310  0.934152  1
  Tb  Tb5  1  0.825463  0.818952  0.568771  1
  Tb  Tb6  1  0.329079  0.677927  0.434952  1
  Tb  Tb7  1  0.166907  0.179883  0.060723  1
  Tb  Tb8  1  0.866694  0.538999  0.250000  1
  Tb  Tb9  1  0.632287  0.042625  0.250000  1
  Tb  Tb10  1  0.143144  0.460226  0.750000  1
  Tb  Tb11  1  0.370847  0.952590  0.750000  1
  Co  Co12  1  0.541840  0.615400  0.750000  1
  Tc  Tc13  1  0.458682  0.390358  0.250000  1
  Tc  Tc14  1  0.965183  0.108437  0.750000  1
  Rh  Rh15  1  0.041519  0.887220  0.250000  1
