# generated using pymatgen
data_KEu2B2Pt7
_symmetry_space_group_name_H-M   'P 1'
_cell_length_a   8.44419106
_cell_length_b   8.44419053
_cell_length_c   8.44419017
_cell_angle_alpha   38.64080482
_cell_angle_beta   38.64081140
_cell_angle_gamma   38.64080517
_symmetry_Int_Tables_number   1
_chemical_formula_structural   KEu2B2Pt7
_chemical_formula_sum   'K1 Eu2 B2 Pt7'
_cell_volume   210.99395723
_cell_formula_units_Z   1
loop_
 _symmetry_equiv_pos_site_id
 _symmetry_equiv_pos_as_xyz
  1  'x, y, z'
loop_
 _atom_site_type_symbol
 _atom_site_label
 _atom_site_symmetry_multiplicity
 _atom_site_fract_x
 _atom_site_fract_y
 _atom_site_fract_z
 _atom_site_occupancy
  K  K0  1  0.855885  0.855885  0.855885  1
  Eu  Eu1  1  0.145899  0.145899  0.145899  1
  Eu  Eu2  1  0.997869  0.997869  0.997869  1
  B  B3  1  0.669236  0.669236  0.669236  1
  B  B4  1  0.331467  0.331467  0.331467  1
  Pt  Pt5  1  0.436916  0.932439  0.436916  1
  Pt  Pt6  1  0.436916  0.436916  0.932439  1
  Pt  Pt7  1  0.932439  0.436916  0.436916  1
  Pt  Pt8  1  0.562572  0.068436  0.562572  1
  Pt  Pt9  1  0.562572  0.562572  0.068436  1
  Pt  Pt10  1  0.068436  0.562572  0.562572  1
  Pt  Pt11  1  0.499791  0.499791  0.499791  1
