# generated using pymatgen
data_Li3Nd8Si12Rh
_symmetry_space_group_name_H-M   'P 1'
_cell_length_a   8.29033900
_cell_length_b   8.29033859
_cell_length_c   8.41250000
_cell_angle_alpha   90.00000000
_cell_angle_beta   90.00000000
_cell_angle_gamma   119.99999763
_symmetry_Int_Tables_number   1
_chemical_formula_structural   Li3Nd8Si12Rh
_chemical_formula_sum   'Li3 Nd8 Si12 Rh1'
_cell_volume   500.72615537
_cell_formula_units_Z   1
loop_
 _symmetry_equiv_pos_site_id
 _symmetry_equiv_pos_as_xyz
  1  'x, y, z'
loop_
 _atom_site_type_symbol
 _atom_site_label
 _atom_site_symmetry_multiplicity
 _atom_site_fract_x
 _atom_site_fract_y
 _atom_site_fract_z
 _atom_site_occupancy
  Li  Li0  1  0.333333  0.666667  0.491419  1
  Li  Li1  1  0.666667  0.333333  0.509909  1
  Li  Li2  1  0.666667  0.333333  0.992058  1
  Nd  Nd3  1  0.000000  0.000000  0.251039  1
  Nd  Nd4  1  0.000000  0.000000  0.749493  1
  Nd  Nd5  1  0.499552  0.500448  0.247594  1
  Nd  Nd6  1  0.499552  0.999105  0.247594  1
  Nd  Nd7  1  0.000895  0.500448  0.247594  1
  Nd  Nd8  1  0.495828  0.504172  0.752325  1
  Nd  Nd9  1  0.495828  0.991656  0.752325  1
  Nd  Nd10  1  0.008344  0.504172  0.752325  1
  Si  Si11  1  0.165807  0.834193  0.500637  1
  Si  Si12  1  0.165807  0.331613  0.500637  1
  Si  Si13  1  0.668387  0.834193  0.500637  1
  Si  Si14  1  0.833806  0.166194  0.499481  1
  Si  Si15  1  0.833806  0.667612  0.499481  1
  Si  Si16  1  0.332388  0.166194  0.499481  1
  Si  Si17  1  0.835493  0.164507  0.999329  1
  Si  Si18  1  0.835493  0.670986  0.999329  1
  Si  Si19  1  0.329014  0.164507  0.999329  1
  Si  Si20  1  0.168289  0.831711  0.001874  1
  Si  Si21  1  0.168289  0.336578  0.001874  1
  Si  Si22  1  0.663422  0.831711  0.001874  1
  Rh  Rh23  1  0.333333  0.666667  0.002365  1
