# generated using pymatgen
data_Co3P3RuW2
_symmetry_space_group_name_H-M   'P 1'
_cell_length_a   5.79090198
_cell_length_b   5.74197379
_cell_length_c   3.77576800
_cell_angle_alpha   90.00000000
_cell_angle_beta   90.00000000
_cell_angle_gamma   119.72088751
_symmetry_Int_Tables_number   1
_chemical_formula_structural   Co3P3RuW2
_chemical_formula_sum   'Co3 P3 Ru1 W2'
_cell_volume   109.03299911
_cell_formula_units_Z   1
loop_
 _symmetry_equiv_pos_site_id
 _symmetry_equiv_pos_as_xyz
  1  'x, y, z'
loop_
 _atom_site_type_symbol
 _atom_site_label
 _atom_site_symmetry_multiplicity
 _atom_site_fract_x
 _atom_site_fract_y
 _atom_site_fract_z
 _atom_site_occupancy
  Co  Co0  1  0.744289  0.743889  0.000000  1
  Co  Co1  1  0.255711  0.999599  0.000000  1
  Co  Co2  1  0.000000  0.256743  0.000000  1
  P  P3  1  0.000000  0.999357  0.500000  1
  P  P4  1  0.668704  0.334909  0.000000  1
  P  P5  1  0.331296  0.666206  0.000000  1
  Ru  Ru6  1  0.000000  0.592369  0.500000  1
  W  W7  1  0.587926  0.997428  0.500000  1
  W  W8  1  0.412074  0.409502  0.500000  1
