# generated using pymatgen
data_CeDy(MgRh)2
_symmetry_space_group_name_H-M   'P 1'
_cell_length_a   4.02287400
_cell_length_b   7.16083821
_cell_length_c   8.78801550
_cell_angle_alpha   91.56697952
_cell_angle_beta   90.00000000
_cell_angle_gamma   90.00000000
_symmetry_Int_Tables_number   1
_chemical_formula_structural   CeDy(MgRh)2
_chemical_formula_sum   'Ce2 Dy2 Mg4 Rh4'
_cell_volume   253.06300853
_cell_formula_units_Z   2
loop_
 _symmetry_equiv_pos_site_id
 _symmetry_equiv_pos_as_xyz
  1  'x, y, z'
loop_
 _atom_site_type_symbol
 _atom_site_label
 _atom_site_symmetry_multiplicity
 _atom_site_fract_x
 _atom_site_fract_y
 _atom_site_fract_z
 _atom_site_occupancy
  Ce  Ce0  1  0.250000  0.532508  0.186158  1
  Ce  Ce1  1  0.750000  0.467492  0.813842  1
  Dy  Dy2  1  0.750000  0.960721  0.674143  1
  Dy  Dy3  1  0.250000  0.039279  0.325857  1
  Mg  Mg4  1  0.250000  0.639155  0.554701  1
  Mg  Mg5  1  0.750000  0.360845  0.445299  1
  Mg  Mg6  1  0.750000  0.868862  0.060092  1
  Mg  Mg7  1  0.250000  0.131138  0.939908  1
  Rh  Rh8  1  0.250000  0.737395  0.868485  1
  Rh  Rh9  1  0.750000  0.262605  0.131515  1
  Rh  Rh10  1  0.750000  0.747317  0.360609  1
  Rh  Rh11  1  0.250000  0.252683  0.639391  1
