# generated using pymatgen
data_Tb7YSc12Si15Sn
_symmetry_space_group_name_H-M   'P 1'
_cell_length_a   7.14778513
_cell_length_b   7.42894740
_cell_length_c   14.09449912
_cell_angle_alpha   89.99057110
_cell_angle_beta   89.61572455
_cell_angle_gamma   90.03273394
_symmetry_Int_Tables_number   1
_chemical_formula_structural   Tb7YSc12Si15Sn
_chemical_formula_sum   'Tb7 Y1 Sc12 Si15 Sn1'
_cell_volume   748.40826353
_cell_formula_units_Z   1
loop_
 _symmetry_equiv_pos_site_id
 _symmetry_equiv_pos_as_xyz
  1  'x, y, z'
loop_
 _atom_site_type_symbol
 _atom_site_label
 _atom_site_symmetry_multiplicity
 _atom_site_fract_x
 _atom_site_fract_y
 _atom_site_fract_z
 _atom_site_occupancy
  Tb  Tb0  1  0.987498  0.825080  0.903754  1
  Tb  Tb1  1  0.488249  0.675524  0.903601  1
  Tb  Tb2  1  0.987452  0.831195  0.598489  1
  Tb  Tb3  1  0.512037  0.324436  0.097259  1
  Tb  Tb4  1  0.007273  0.169315  0.399093  1
  Tb  Tb5  1  0.513473  0.321618  0.399553  1
  Tb  Tb6  1  0.499961  0.683052  0.599947  1
  Y  Y7  1  0.012592  0.175465  0.097048  1
  Sc  Sc8  1  0.161462  0.502079  0.755208  1
  Sc  Sc9  1  0.838468  0.498262  0.249272  1
  Sc  Sc10  1  0.338868  0.002029  0.249344  1
  Sc  Sc11  1  0.662427  0.997964  0.751449  1
  Sc  Sc12  1  0.341397  0.162968  0.630512  1
  Sc  Sc13  1  0.665208  0.824972  0.372855  1
  Sc  Sc14  1  0.165374  0.683054  0.369605  1
  Sc  Sc15  1  0.669127  0.823401  0.124322  1
  Sc  Sc16  1  0.821930  0.323116  0.626557  1
  Sc  Sc17  1  0.330048  0.175635  0.875346  1
  Sc  Sc18  1  0.830599  0.323478  0.875483  1
  Sc  Sc19  1  0.169354  0.676548  0.125102  1
  Si  Si20  1  0.034085  0.119975  0.751114  1
  Si  Si21  1  0.964285  0.883206  0.247357  1
  Si  Si22  1  0.466311  0.617524  0.248719  1
  Si  Si23  1  0.532461  0.383604  0.751754  1
  Si  Si24  1  0.285498  0.871767  0.751905  1
  Si  Si25  1  0.713140  0.125092  0.247950  1
  Si  Si26  1  0.212853  0.374510  0.249320  1
  Si  Si27  1  0.788780  0.625966  0.751205  1
  Si  Si28  1  0.831507  0.539165  0.458502  1
  Si  Si29  1  0.340536  0.964073  0.460082  1
  Si  Si30  1  0.843603  0.534935  0.039614  1
  Si  Si31  1  0.659277  0.037127  0.538170  1
  Si  Si32  1  0.155990  0.464588  0.961378  1
  Si  Si33  1  0.655902  0.035452  0.960648  1
  Si  Si34  1  0.343320  0.964844  0.039768  1
  Sn  Sn35  1  0.169653  0.458981  0.538718  1
