# generated using pymatgen
data_Ca3Si4(AsPd10)2
_symmetry_space_group_name_H-M   'P 1'
_cell_length_a   8.81274543
_cell_length_b   8.81274487
_cell_length_c   8.73610900
_cell_angle_alpha   60.28724401
_cell_angle_beta   60.28724610
_cell_angle_gamma   59.42550586
_symmetry_Int_Tables_number   1
_chemical_formula_structural   Ca3Si4(AsPd10)2
_chemical_formula_sum   'Ca3 Si4 As2 Pd20'
_cell_volume   479.68963342
_cell_formula_units_Z   1
loop_
 _symmetry_equiv_pos_site_id
 _symmetry_equiv_pos_as_xyz
  1  'x, y, z'
loop_
 _atom_site_type_symbol
 _atom_site_label
 _atom_site_symmetry_multiplicity
 _atom_site_fract_x
 _atom_site_fract_y
 _atom_site_fract_z
 _atom_site_occupancy
  Ca  Ca0  1  0.250000  0.250000  0.250000  1
  Ca  Ca1  1  0.750000  0.750000  0.750000  1
  Ca  Ca2  1  0.000000  0.000000  0.000000  1
  Si  Si3  1  0.732881  0.267119  0.267119  1
  Si  Si4  1  0.267119  0.732881  0.732881  1
  Si  Si5  1  0.267119  0.732881  0.267119  1
  Si  Si6  1  0.732881  0.267119  0.732881  1
  As  As7  1  0.265484  0.265484  0.734516  1
  As  As8  1  0.734516  0.734516  0.265484  1
  Pd  Pd9  1  0.387037  0.387037  0.380108  1
  Pd  Pd10  1  0.612963  0.612963  0.619892  1
  Pd  Pd11  1  0.387037  0.387037  0.845820  1
  Pd  Pd12  1  0.380108  0.845820  0.387037  1
  Pd  Pd13  1  0.612963  0.612963  0.154180  1
  Pd  Pd14  1  0.619892  0.154180  0.612963  1
  Pd  Pd15  1  0.845820  0.380108  0.387037  1
  Pd  Pd16  1  0.154180  0.619892  0.612963  1
  Pd  Pd17  1  0.346410  0.992537  0.007463  1
  Pd  Pd18  1  0.653590  0.007463  0.992537  1
  Pd  Pd19  1  0.992537  0.346410  0.653590  1
  Pd  Pd20  1  0.007463  0.653590  0.346410  1
  Pd  Pd21  1  0.992537  0.346410  0.007463  1
  Pd  Pd22  1  0.653590  0.007463  0.346410  1
  Pd  Pd23  1  0.007463  0.653590  0.992537  1
  Pd  Pd24  1  0.346410  0.992537  0.653590  1
  Pd  Pd25  1  0.000000  0.000000  0.345814  1
  Pd  Pd26  1  0.000000  0.000000  0.654186  1
  Pd  Pd27  1  0.654186  0.345814  0.000000  1
  Pd  Pd28  1  0.345814  0.654186  0.000000  1
