# generated using pymatgen
data_Ce8HfSc11Si15As
_symmetry_space_group_name_H-M   'P 1'
_cell_length_a   7.37459428
_cell_length_b   7.40005699
_cell_length_c   13.47136500
_cell_angle_alpha   89.54137689
_cell_angle_beta   89.79483442
_cell_angle_gamma   89.90935697
_symmetry_Int_Tables_number   1
_chemical_formula_structural   Ce8HfSc11Si15As
_chemical_formula_sum   'Ce8 Hf1 Sc11 Si15 As1'
_cell_volume   735.13580992
_cell_formula_units_Z   1
loop_
 _symmetry_equiv_pos_site_id
 _symmetry_equiv_pos_as_xyz
  1  'x, y, z'
loop_
 _atom_site_type_symbol
 _atom_site_label
 _atom_site_symmetry_multiplicity
 _atom_site_fract_x
 _atom_site_fract_y
 _atom_site_fract_z
 _atom_site_occupancy
  Ce  Ce0  1  0.997113  0.342798  0.213834  1
  Ce  Ce1  1  0.005180  0.655636  0.713689  1
  Ce  Ce2  1  0.150942  0.501723  0.465774  1
  Ce  Ce3  1  0.507261  0.840957  0.034011  1
  Ce  Ce4  1  0.844112  0.503632  0.964812  1
  Ce  Ce5  1  0.496814  0.154889  0.537579  1
  Ce  Ce6  1  0.345065  0.995670  0.786600  1
  Ce  Ce7  1  0.653018  0.005556  0.284848  1
  Hf  Hf8  1  0.996192  0.846426  0.121669  1
  Sc  Sc9  1  0.173477  0.175571  0.000004  1
  Sc  Sc10  1  0.825770  0.827993  0.499219  1
  Sc  Sc11  1  0.325057  0.676916  0.249566  1
  Sc  Sc12  1  0.674728  0.325779  0.750619  1
  Sc  Sc13  1  0.151720  0.002622  0.372654  1
  Sc  Sc14  1  0.850322  0.997931  0.877371  1
  Sc  Sc15  1  0.497908  0.651053  0.626561  1
  Sc  Sc16  1  0.349906  0.500140  0.873838  1
  Sc  Sc17  1  0.497627  0.345901  0.127719  1
  Sc  Sc18  1  0.654246  0.504268  0.375192  1
  Sc  Sc19  1  0.000525  0.150817  0.624149  1
  Si  Si20  1  0.637722  0.707639  0.816250  1
  Si  Si21  1  0.207871  0.865175  0.565578  1
  Si  Si22  1  0.136806  0.791126  0.933749  1
  Si  Si23  1  0.793659  0.135101  0.068950  1
  Si  Si24  1  0.863362  0.208361  0.432658  1
  Si  Si25  1  0.291976  0.362433  0.683325  1
  Si  Si26  1  0.709075  0.634279  0.182507  1
  Si  Si27  1  0.287344  0.035788  0.178078  1
  Si  Si28  1  0.708531  0.947756  0.686314  1
  Si  Si29  1  0.447987  0.794437  0.435789  1
  Si  Si30  1  0.207842  0.551205  0.065293  1
  Si  Si31  1  0.551606  0.207402  0.936383  1
  Si  Si32  1  0.790551  0.448868  0.564831  1
  Si  Si33  1  0.051569  0.291446  0.814387  1
  Si  Si34  1  0.949928  0.710133  0.312071  1
  As  As35  1  0.367189  0.302574  0.324128  1
