# generated using pymatgen
data_NdY3Sc6(Si5Ir2)4
_symmetry_space_group_name_H-M   'P 1'
_cell_length_a   12.50450425
_cell_length_b   12.50450402
_cell_length_c   4.17021900
_cell_angle_alpha   90.00000000
_cell_angle_beta   90.00000000
_cell_angle_gamma   89.90505151
_symmetry_Int_Tables_number   1
_chemical_formula_structural   NdY3Sc6(Si5Ir2)4
_chemical_formula_sum   'Nd1 Y3 Sc6 Si20 Ir8'
_cell_volume   652.06548857
_cell_formula_units_Z   1
loop_
 _symmetry_equiv_pos_site_id
 _symmetry_equiv_pos_as_xyz
  1  'x, y, z'
loop_
 _atom_site_type_symbol
 _atom_site_label
 _atom_site_symmetry_multiplicity
 _atom_site_fract_x
 _atom_site_fract_y
 _atom_site_fract_z
 _atom_site_occupancy
  Nd  Nd0  1  0.384682  0.115318  0.500000  1
  Y  Y1  1  0.115327  0.615299  0.500000  1
  Y  Y2  1  0.884701  0.384673  0.500000  1
  Y  Y3  1  0.615666  0.884334  0.500000  1
  Sc  Sc4  1  0.674582  0.174296  0.500000  1
  Sc  Sc5  1  0.325704  0.825418  0.500000  1
  Sc  Sc6  1  0.173889  0.326111  0.500000  1
  Sc  Sc7  1  0.825705  0.674295  0.500000  1
  Sc  Sc8  1  0.999603  0.999920  0.000000  1
  Sc  Sc9  1  0.500080  0.500397  0.000000  1
  Si  Si10  1  0.569188  0.067894  0.000000  1
  Si  Si11  1  0.432106  0.930812  0.000000  1
  Si  Si12  1  0.067883  0.432117  0.000000  1
  Si  Si13  1  0.932047  0.567953  0.000000  1
  Si  Si14  1  0.198626  0.165436  0.000000  1
  Si  Si15  1  0.800382  0.834425  0.000000  1
  Si  Si16  1  0.165071  0.799617  0.000000  1
  Si  Si17  1  0.700383  0.334929  0.000000  1
  Si  Si18  1  0.834694  0.199628  0.000000  1
  Si  Si19  1  0.300372  0.665306  0.000000  1
  Si  Si20  1  0.665575  0.699618  0.000000  1
  Si  Si21  1  0.334564  0.301374  0.000000  1
  Si  Si22  1  0.007736  0.151018  0.500000  1
  Si  Si23  1  0.992202  0.849058  0.500000  1
  Si  Si24  1  0.149996  0.992531  0.500000  1
  Si  Si25  1  0.507469  0.350004  0.500000  1
  Si  Si26  1  0.849482  0.007881  0.500000  1
  Si  Si27  1  0.492119  0.650518  0.500000  1
  Si  Si28  1  0.650942  0.507798  0.500000  1
  Si  Si29  1  0.348982  0.492264  0.500000  1
  Ir  Ir30  1  0.020286  0.244299  0.000000  1
  Ir  Ir31  1  0.979290  0.755709  0.000000  1
  Ir  Ir32  1  0.242126  0.977848  0.000000  1
  Ir  Ir33  1  0.522152  0.257874  0.000000  1
  Ir  Ir34  1  0.756940  0.020546  0.000000  1
  Ir  Ir35  1  0.479454  0.743060  0.000000  1
  Ir  Ir36  1  0.744291  0.520710  0.000000  1
  Ir  Ir37  1  0.255701  0.479714  0.000000  1
