# generated using pymatgen
data_Lu3P2S
_symmetry_space_group_name_H-M   'P 1'
_cell_length_a   6.72417549
_cell_length_b   6.72417525
_cell_length_c   6.72417661
_cell_angle_alpha   146.44710769
_cell_angle_beta   131.83138323
_cell_angle_gamma   59.97904905
_symmetry_Int_Tables_number   1
_chemical_formula_structural   Lu3P2S
_chemical_formula_sum   'Lu3 P2 S1'
_cell_volume   124.06613820
_cell_formula_units_Z   1
loop_
 _symmetry_equiv_pos_site_id
 _symmetry_equiv_pos_as_xyz
  1  'x, y, z'
loop_
 _atom_site_type_symbol
 _atom_site_label
 _atom_site_symmetry_multiplicity
 _atom_site_fract_x
 _atom_site_fract_y
 _atom_site_fract_z
 _atom_site_occupancy
  Lu  Lu0  1  0.500000  0.000000  0.500000  1
  Lu  Lu1  1  0.171662  0.671662  0.500000  1
  Lu  Lu2  1  0.828338  0.328338  0.500000  1
  P  P3  1  0.665055  0.665055  0.000000  1
  P  P4  1  0.334945  0.334945  0.000000  1
  S  S5  1  0.000000  0.000000  0.000000  1
