# generated using pymatgen
data_Ce4Al(TcB3)2
_symmetry_space_group_name_H-M   'P 1'
_cell_length_a   5.41542457
_cell_length_b   5.41542295
_cell_length_c   8.42891654
_cell_angle_alpha   71.26202299
_cell_angle_beta   71.26201448
_cell_angle_gamma   59.99999720
_symmetry_Int_Tables_number   1
_chemical_formula_structural   Ce4Al(TcB3)2
_chemical_formula_sum   'Ce4 Al1 Tc2 B6'
_cell_volume   198.80307343
_cell_formula_units_Z   1
loop_
 _symmetry_equiv_pos_site_id
 _symmetry_equiv_pos_as_xyz
  1  'x, y, z'
loop_
 _atom_site_type_symbol
 _atom_site_label
 _atom_site_symmetry_multiplicity
 _atom_site_fract_x
 _atom_site_fract_y
 _atom_site_fract_z
 _atom_site_occupancy
  Ce  Ce0  1  0.253659  0.253659  0.239023  1
  Ce  Ce1  1  0.746341  0.746341  0.760977  1
  Ce  Ce2  1  0.412306  0.412306  0.763083  1
  Ce  Ce3  1  0.587694  0.587694  0.236918  1
  Al  Al4  1  0.000000  0.000000  0.000000  1
  Tc  Tc5  1  0.110121  0.110121  0.669638  1
  Tc  Tc6  1  0.889879  0.889879  0.330362  1
  B  B7  1  0.170902  0.829098  0.500000  1
  B  B8  1  0.829098  0.500000  0.500000  1
  B  B9  1  0.500000  0.170902  0.500000  1
  B  B10  1  0.170902  0.500000  0.500000  1
  B  B11  1  0.500000  0.829098  0.500000  1
  B  B12  1  0.829098  0.170902  0.500000  1
