# generated using pymatgen
data_Hf5Zr5Sn3Ge2Sb3
_symmetry_space_group_name_H-M   'P 1'
_cell_length_a   8.69426113
_cell_length_b   8.69426102
_cell_length_c   5.85272600
_cell_angle_alpha   90.00000000
_cell_angle_beta   90.00000000
_cell_angle_gamma   120.08014274
_symmetry_Int_Tables_number   1
_chemical_formula_structural   Hf5Zr5Sn3Ge2Sb3
_chemical_formula_sum   'Hf5 Zr5 Sn3 Ge2 Sb3'
_cell_volume   382.82728918
_cell_formula_units_Z   1
loop_
 _symmetry_equiv_pos_site_id
 _symmetry_equiv_pos_as_xyz
  1  'x, y, z'
loop_
 _atom_site_type_symbol
 _atom_site_label
 _atom_site_symmetry_multiplicity
 _atom_site_fract_x
 _atom_site_fract_y
 _atom_site_fract_z
 _atom_site_occupancy
  Hf  Hf0  1  0.666961  0.334052  0.997455  1
  Hf  Hf1  1  0.334052  0.666961  0.997455  1
  Hf  Hf2  1  0.334052  0.666961  0.502545  1
  Hf  Hf3  1  0.666961  0.334052  0.502545  1
  Hf  Hf4  1  0.731253  0.731253  0.750000  1
  Zr  Zr5  1  0.269440  0.000674  0.750000  1
  Zr  Zr6  1  0.000674  0.269440  0.750000  1
  Zr  Zr7  1  0.260217  0.260217  0.250000  1
  Zr  Zr8  1  0.738337  0.999261  0.250000  1
  Zr  Zr9  1  0.999261  0.738337  0.250000  1
  Sn  Sn10  1  0.390999  0.390999  0.750000  1
  Sn  Sn11  1  0.610771  0.999644  0.750000  1
  Sn  Sn12  1  0.999644  0.610771  0.750000  1
  Ge  Ge13  1  0.998693  0.998693  0.992898  1
  Ge  Ge14  1  0.998693  0.998693  0.507102  1
  Sb  Sb15  1  0.602431  0.602431  0.250000  1
  Sb  Sb16  1  0.397380  0.000182  0.250000  1
  Sb  Sb17  1  0.000182  0.397380  0.250000  1
