# generated using pymatgen
data_Ti11V8Si16Os
_symmetry_space_group_name_H-M   'P 1'
_cell_length_a   6.52740862
_cell_length_b   6.52740860
_cell_length_c   12.02231968
_cell_angle_alpha   89.83750167
_cell_angle_beta   90.16249924
_cell_angle_gamma   89.67909555
_symmetry_Int_Tables_number   1
_chemical_formula_structural   Ti11V8Si16Os
_chemical_formula_sum   'Ti11 V8 Si16 Os1'
_cell_volume   512.22355658
_cell_formula_units_Z   1
loop_
 _symmetry_equiv_pos_site_id
 _symmetry_equiv_pos_as_xyz
  1  'x, y, z'
loop_
 _atom_site_type_symbol
 _atom_site_label
 _atom_site_symmetry_multiplicity
 _atom_site_fract_x
 _atom_site_fract_y
 _atom_site_fract_z
 _atom_site_occupancy
  Ti  Ti0  1  0.003756  0.342182  0.220505  1
  Ti  Ti1  1  0.160153  0.501939  0.469888  1
  Ti  Ti2  1  0.836272  0.497847  0.969669  1
  Ti  Ti3  1  0.501939  0.160153  0.530112  1
  Ti  Ti4  1  0.497847  0.836272  0.030331  1
  Ti  Ti5  1  0.998903  0.659694  0.721415  1
  Ti  Ti6  1  0.342182  0.003756  0.779495  1
  Ti  Ti7  1  0.659694  0.998903  0.278585  1
  Ti  Ti8  1  0.331934  0.666515  0.247769  1
  Ti  Ti9  1  0.666515  0.331934  0.752231  1
  Ti  Ti10  1  0.833794  0.833794  0.500000  1
  V  V11  1  0.995650  0.153928  0.623397  1
  V  V12  1  0.347237  0.501173  0.869517  1
  V  V13  1  0.653901  0.505418  0.371637  1
  V  V14  1  0.501173  0.347237  0.130483  1
  V  V15  1  0.505418  0.653901  0.628363  1
  V  V16  1  0.004266  0.836078  0.121358  1
  V  V17  1  0.153928  0.995650  0.376603  1
  V  V18  1  0.836078  0.004266  0.878642  1
  Si  Si19  1  0.044409  0.295148  0.816477  1
  Si  Si20  1  0.205190  0.536513  0.059560  1
  Si  Si21  1  0.798209  0.457294  0.563572  1
  Si  Si22  1  0.536513  0.205190  0.940440  1
  Si  Si23  1  0.457294  0.798209  0.436428  1
  Si  Si24  1  0.958005  0.702429  0.313513  1
  Si  Si25  1  0.295148  0.044409  0.183523  1
  Si  Si26  1  0.702429  0.958005  0.686487  1
  Si  Si27  1  0.290688  0.366257  0.673271  1
  Si  Si28  1  0.131532  0.796061  0.923860  1
  Si  Si29  1  0.866317  0.208801  0.423356  1
  Si  Si30  1  0.796061  0.131532  0.076140  1
  Si  Si31  1  0.208801  0.866317  0.576644  1
  Si  Si32  1  0.709474  0.633709  0.173740  1
  Si  Si33  1  0.366257  0.290688  0.326729  1
  Si  Si34  1  0.633709  0.709474  0.826260  1
  Os  Os35  1  0.169327  0.169327  0.000000  1
