# generated using pymatgen
data_TbEu4Ho3(Si3Pd)4
_symmetry_space_group_name_H-M   'P 1'
_cell_length_a   8.26410100
_cell_length_b   8.26410226
_cell_length_c   8.32963400
_cell_angle_alpha   90.00000000
_cell_angle_beta   90.00000000
_cell_angle_gamma   120.00000695
_symmetry_Int_Tables_number   1
_chemical_formula_structural   TbEu4Ho3(Si3Pd)4
_chemical_formula_sum   'Tb1 Eu4 Ho3 Si12 Pd4'
_cell_volume   492.66058646
_cell_formula_units_Z   1
loop_
 _symmetry_equiv_pos_site_id
 _symmetry_equiv_pos_as_xyz
  1  'x, y, z'
loop_
 _atom_site_type_symbol
 _atom_site_label
 _atom_site_symmetry_multiplicity
 _atom_site_fract_x
 _atom_site_fract_y
 _atom_site_fract_z
 _atom_site_occupancy
  Tb  Tb0  1  0.000000  0.000000  0.750000  1
  Eu  Eu1  1  0.501667  0.003333  0.250000  1
  Eu  Eu2  1  0.996667  0.498333  0.250000  1
  Eu  Eu3  1  0.501667  0.498333  0.250000  1
  Eu  Eu4  1  0.000000  0.000000  0.250000  1
  Ho  Ho5  1  0.498477  0.996954  0.750000  1
  Ho  Ho6  1  0.003046  0.501523  0.750000  1
  Ho  Ho7  1  0.498477  0.501523  0.750000  1
  Si  Si8  1  0.164717  0.329433  0.989939  1
  Si  Si9  1  0.835119  0.670240  0.990560  1
  Si  Si10  1  0.670567  0.835283  0.989939  1
  Si  Si11  1  0.835119  0.670240  0.509440  1
  Si  Si12  1  0.329760  0.164881  0.990560  1
  Si  Si13  1  0.164717  0.329433  0.510061  1
  Si  Si14  1  0.164717  0.835283  0.989939  1
  Si  Si15  1  0.329760  0.164881  0.509440  1
  Si  Si16  1  0.835119  0.164881  0.990560  1
  Si  Si17  1  0.670567  0.835283  0.510061  1
  Si  Si18  1  0.835119  0.164881  0.509440  1
  Si  Si19  1  0.164717  0.835283  0.510061  1
  Pd  Pd20  1  0.333333  0.666667  0.984435  1
  Pd  Pd21  1  0.666667  0.333333  0.973006  1
  Pd  Pd22  1  0.666667  0.333333  0.526994  1
  Pd  Pd23  1  0.333333  0.666667  0.515565  1
