# generated using pymatgen
data_CePr2(SnIr)3
_symmetry_space_group_name_H-M   'P 1'
_cell_length_a   7.53439790
_cell_length_b   7.61089835
_cell_length_c   4.13228200
_cell_angle_alpha   90.00000000
_cell_angle_beta   90.00000000
_cell_angle_gamma   120.33643264
_symmetry_Int_Tables_number   1
_chemical_formula_structural   CePr2(SnIr)3
_chemical_formula_sum   'Ce1 Pr2 Sn3 Ir3'
_cell_volume   204.51385820
_cell_formula_units_Z   1
loop_
 _symmetry_equiv_pos_site_id
 _symmetry_equiv_pos_as_xyz
  1  'x, y, z'
loop_
 _atom_site_type_symbol
 _atom_site_label
 _atom_site_symmetry_multiplicity
 _atom_site_fract_x
 _atom_site_fract_y
 _atom_site_fract_z
 _atom_site_occupancy
  Ce  Ce0  1  0.000000  0.586346  0.000000  1
  Pr  Pr1  1  0.410274  0.411192  0.000000  1
  Pr  Pr2  1  0.589726  0.000918  0.000000  1
  Sn  Sn3  1  0.000000  0.247565  0.500000  1
  Sn  Sn4  1  0.745240  0.748307  0.500000  1
  Sn  Sn5  1  0.254760  0.003068  0.500000  1
  Ir  Ir6  1  0.000000  0.990592  0.000000  1
  Ir  Ir7  1  0.687829  0.349920  0.500000  1
  Ir  Ir8  1  0.312171  0.662092  0.500000  1
