# generated using pymatgen
data_DyHo2Mg3Ag2Ir
_symmetry_space_group_name_H-M   'P 1'
_cell_length_a   7.79959503
_cell_length_b   7.80210068
_cell_length_c   3.89803500
_cell_angle_alpha   90.00000000
_cell_angle_beta   90.00000000
_cell_angle_gamma   119.97899748
_symmetry_Int_Tables_number   1
_chemical_formula_structural   DyHo2Mg3Ag2Ir
_chemical_formula_sum   'Dy1 Ho2 Mg3 Ag2 Ir1'
_cell_volume   205.47161913
_cell_formula_units_Z   1
loop_
 _symmetry_equiv_pos_site_id
 _symmetry_equiv_pos_as_xyz
  1  'x, y, z'
loop_
 _atom_site_type_symbol
 _atom_site_label
 _atom_site_symmetry_multiplicity
 _atom_site_fract_x
 _atom_site_fract_y
 _atom_site_fract_z
 _atom_site_occupancy
  Dy  Dy0  1  0.569514  0.968244  0.000000  1
  Ho  Ho1  1  0.031996  0.601429  0.000000  1
  Ho  Ho2  1  0.398543  0.430519  0.000000  1
  Mg  Mg3  1  0.254263  0.998311  0.500000  1
  Mg  Mg4  1  0.001804  0.256194  0.500000  1
  Mg  Mg5  1  0.743936  0.745501  0.500000  1
  Ag  Ag6  1  0.666753  0.333584  0.500000  1
  Ag  Ag7  1  0.000168  0.999999  0.000000  1
  Ir  Ir8  1  0.333023  0.666218  0.500000  1
