# generated using pymatgen
data_Dy7Ho(ReB6)4
_symmetry_space_group_name_H-M   'P 1'
_cell_length_a   3.68505500
_cell_length_b   9.17712800
_cell_length_c   11.56013600
_cell_angle_alpha   90.00330989
_cell_angle_beta   90.00000000
_cell_angle_gamma   90.00000000
_symmetry_Int_Tables_number   1
_chemical_formula_structural   Dy7Ho(ReB6)4
_chemical_formula_sum   'Dy7 Ho1 Re4 B24'
_cell_volume   390.94323859
_cell_formula_units_Z   1
loop_
 _symmetry_equiv_pos_site_id
 _symmetry_equiv_pos_as_xyz
  1  'x, y, z'
loop_
 _atom_site_type_symbol
 _atom_site_label
 _atom_site_symmetry_multiplicity
 _atom_site_fract_x
 _atom_site_fract_y
 _atom_site_fract_z
 _atom_site_occupancy
  Dy  Dy0  1  0.000000  0.323709  0.413866  1
  Dy  Dy1  1  0.000000  0.676292  0.586263  1
  Dy  Dy2  1  0.000000  0.823579  0.086091  1
  Dy  Dy3  1  0.000000  0.176394  0.913814  1
  Dy  Dy4  1  0.000000  0.943143  0.370036  1
  Dy  Dy5  1  0.000000  0.056884  0.630066  1
  Dy  Dy6  1  0.000000  0.443202  0.129749  1
  Ho  Ho7  1  0.000000  0.556933  0.869896  1
  Re  Re8  1  0.000000  0.638645  0.320789  1
  Re  Re9  1  0.000000  0.361599  0.679446  1
  Re  Re10  1  0.000000  0.138745  0.179092  1
  Re  Re11  1  0.000000  0.860859  0.820846  1
  B  B12  1  0.500000  0.553215  0.432947  1
  B  B13  1  0.500000  0.446847  0.567228  1
  B  B14  1  0.500000  0.053183  0.067032  1
  B  B15  1  0.500000  0.946550  0.932888  1
  B  B16  1  0.500000  0.748771  0.418509  1
  B  B17  1  0.500000  0.251331  0.581583  1
  B  B18  1  0.500000  0.248824  0.081447  1
  B  B19  1  0.500000  0.750737  0.918485  1
  B  B20  1  0.500000  0.791976  0.265495  1
  B  B21  1  0.500000  0.208204  0.734558  1
  B  B22  1  0.500000  0.292036  0.234430  1
  B  B23  1  0.500000  0.707640  0.765644  1
  B  B24  1  0.500000  0.630931  0.185659  1
  B  B25  1  0.500000  0.369414  0.814454  1
  B  B26  1  0.500000  0.130983  0.314245  1
  B  B27  1  0.500000  0.868889  0.685835  1
  B  B28  1  0.500000  0.982525  0.211817  1
  B  B29  1  0.500000  0.017364  0.788236  1
  B  B30  1  0.500000  0.482487  0.288125  1
  B  B31  1  0.500000  0.517707  0.712095  1
  B  B32  1  0.500000  0.600176  0.027632  1
  B  B33  1  0.500000  0.400209  0.971635  1
  B  B34  1  0.500000  0.100441  0.471934  1
  B  B35  1  0.500000  0.899579  0.528135  1
