# generated using pymatgen
data_Cs8LaPr3I20
_symmetry_space_group_name_H-M   'P 1'
_cell_length_a   9.84865996
_cell_length_b   10.26512800
_cell_length_c   15.68692411
_cell_angle_alpha   90.00000000
_cell_angle_beta   89.92779578
_cell_angle_gamma   90.00000000
_symmetry_Int_Tables_number   1
_chemical_formula_structural   Cs8LaPr3I20
_chemical_formula_sum   'Cs8 La1 Pr3 I20'
_cell_volume   1585.91155255
_cell_formula_units_Z   1
loop_
 _symmetry_equiv_pos_site_id
 _symmetry_equiv_pos_as_xyz
  1  'x, y, z'
loop_
 _atom_site_type_symbol
 _atom_site_label
 _atom_site_symmetry_multiplicity
 _atom_site_fract_x
 _atom_site_fract_y
 _atom_site_fract_z
 _atom_site_occupancy
  Cs  Cs0  1  0.942697  0.003428  0.827405  1
  Cs  Cs1  1  0.057308  0.996602  0.172595  1
  Cs  Cs2  1  0.442732  0.996628  0.672596  1
  Cs  Cs3  1  0.057308  0.503398  0.172595  1
  Cs  Cs4  1  0.557243  0.003435  0.327389  1
  Cs  Cs5  1  0.942697  0.496572  0.827405  1
  Cs  Cs6  1  0.557243  0.496565  0.327389  1
  Cs  Cs7  1  0.442732  0.503372  0.672596  1
  La  La8  1  0.928080  0.750000  0.504109  1
  Pr  Pr9  1  0.072514  0.250000  0.496044  1
  Pr  Pr10  1  0.427357  0.250000  0.995989  1
  Pr  Pr11  1  0.572689  0.750000  0.004022  1
  I  I12  1  0.116775  0.750000  0.671649  1
  I  I13  1  0.884348  0.250000  0.329433  1
  I  I14  1  0.615680  0.250000  0.829422  1
  I  I15  1  0.384284  0.750000  0.170612  1
  I  I16  1  0.841079  0.045746  0.570097  1
  I  I17  1  0.159355  0.956943  0.429889  1
  I  I18  1  0.341534  0.955887  0.930355  1
  I  I19  1  0.159355  0.543057  0.429889  1
  I  I20  1  0.658485  0.044109  0.069653  1
  I  I21  1  0.841079  0.454254  0.570097  1
  I  I22  1  0.658485  0.455891  0.069653  1
  I  I23  1  0.341534  0.544113  0.930355  1
  I  I24  1  0.596691  0.750000  0.512864  1
  I  I25  1  0.401310  0.250000  0.487160  1
  I  I26  1  0.098802  0.250000  0.987069  1
  I  I27  1  0.901200  0.750000  0.012897  1
  I  I28  1  0.652128  0.750000  0.806302  1
  I  I29  1  0.347911  0.250000  0.193670  1
  I  I30  1  0.152104  0.250000  0.693647  1
  I  I31  1  0.847261  0.750000  0.305150  1
