# generated using pymatgen
data_Y8Er7Th(CdPt)4
_symmetry_space_group_name_H-M   'P 1'
_cell_length_a   9.67884080
_cell_length_b   9.67884168
_cell_length_c   9.68726374
_cell_angle_alpha   60.16291483
_cell_angle_beta   60.16291891
_cell_angle_gamma   60.26453229
_symmetry_Int_Tables_number   1
_chemical_formula_structural   Y8Er7Th(CdPt)4
_chemical_formula_sum   'Y8 Er7 Th1 Cd4 Pt4'
_cell_volume   644.55936522
_cell_formula_units_Z   1
loop_
 _symmetry_equiv_pos_site_id
 _symmetry_equiv_pos_as_xyz
  1  'x, y, z'
loop_
 _atom_site_type_symbol
 _atom_site_label
 _atom_site_symmetry_multiplicity
 _atom_site_fract_x
 _atom_site_fract_y
 _atom_site_fract_z
 _atom_site_occupancy
  Y  Y0  1  0.188925  0.188925  0.812788  1
  Y  Y1  1  0.810780  0.810780  0.190402  1
  Y  Y2  1  0.936204  0.565497  0.565526  1
  Y  Y3  1  0.563427  0.936771  0.936781  1
  Y  Y4  1  0.565497  0.936204  0.565526  1
  Y  Y5  1  0.936771  0.563427  0.936781  1
  Y  Y6  1  0.565402  0.565402  0.936273  1
  Y  Y7  1  0.936892  0.936892  0.563291  1
  Er  Er8  1  0.353638  0.353638  0.940051  1
  Er  Er9  1  0.353104  0.940067  0.353598  1
  Er  Er10  1  0.940067  0.353104  0.353598  1
  Er  Er11  1  0.812910  0.188908  0.188907  1
  Er  Er12  1  0.190412  0.810722  0.810708  1
  Er  Er13  1  0.188908  0.812910  0.188907  1
  Er  Er14  1  0.810722  0.190412  0.810708  1
  Th  Th15  1  0.349826  0.349826  0.349302  1
  Cd  Cd16  1  0.581679  0.581679  0.581812  1
  Cd  Cd17  1  0.582602  0.582602  0.252986  1
  Cd  Cd18  1  0.582699  0.252994  0.582609  1
  Cd  Cd19  1  0.252994  0.582699  0.582609  1
  Pt  Pt20  1  0.143740  0.143740  0.145717  1
  Pt  Pt21  1  0.140310  0.140310  0.570285  1
  Pt  Pt22  1  0.142216  0.570274  0.140417  1
  Pt  Pt23  1  0.570274  0.142216  0.140417  1
