# generated using pymatgen
data_Y4InPt
_symmetry_space_group_name_H-M   'P 1'
_cell_length_a   9.77543968
_cell_length_b   9.77543959
_cell_length_c   9.77543900
_cell_angle_alpha   59.99999862
_cell_angle_beta   59.99999891
_cell_angle_gamma   60.00000094
_symmetry_Int_Tables_number   1
_chemical_formula_structural   Y4InPt
_chemical_formula_sum   'Y16 In4 Pt4'
_cell_volume   660.53200206
_cell_formula_units_Z   4
loop_
 _symmetry_equiv_pos_site_id
 _symmetry_equiv_pos_as_xyz
  1  'x, y, z'
loop_
 _atom_site_type_symbol
 _atom_site_label
 _atom_site_symmetry_multiplicity
 _atom_site_fract_x
 _atom_site_fract_y
 _atom_site_fract_z
 _atom_site_occupancy
  Y  Y0  1  0.808896  0.191104  0.808896  1
  Y  Y1  1  0.937925  0.562075  0.562075  1
  Y  Y2  1  0.562075  0.937925  0.562075  1
  Y  Y3  1  0.808896  0.191104  0.191104  1
  Y  Y4  1  0.191104  0.808896  0.191104  1
  Y  Y5  1  0.351216  0.946354  0.351216  1
  Y  Y6  1  0.937925  0.937925  0.562075  1
  Y  Y7  1  0.562075  0.937925  0.937925  1
  Y  Y8  1  0.191104  0.808896  0.808896  1
  Y  Y9  1  0.351216  0.351216  0.946354  1
  Y  Y10  1  0.562075  0.562075  0.937925  1
  Y  Y11  1  0.351216  0.351216  0.351216  1
  Y  Y12  1  0.191104  0.191104  0.808896  1
  Y  Y13  1  0.808896  0.808896  0.191104  1
  Y  Y14  1  0.937925  0.562075  0.937925  1
  Y  Y15  1  0.946354  0.351216  0.351216  1
  In  In16  1  0.583489  0.583489  0.583489  1
  In  In17  1  0.583489  0.249533  0.583489  1
  In  In18  1  0.583489  0.583489  0.249533  1
  In  In19  1  0.249533  0.583489  0.583489  1
  Pt  Pt20  1  0.142841  0.142841  0.571478  1
  Pt  Pt21  1  0.571478  0.142841  0.142841  1
  Pt  Pt22  1  0.142841  0.571478  0.142841  1
  Pt  Pt23  1  0.142841  0.142841  0.142841  1
