# generated using pymatgen
data_Ca4Ho3TmHg8
_symmetry_space_group_name_H-M   'P 1'
_cell_length_a   7.52566800
_cell_length_b   7.50887600
_cell_length_c   7.42940600
_cell_angle_alpha   90.00000000
_cell_angle_beta   90.00204800
_cell_angle_gamma   90.00000000
_symmetry_Int_Tables_number   1
_chemical_formula_structural   Ca4Ho3TmHg8
_chemical_formula_sum   'Ca4 Ho3 Tm1 Hg8'
_cell_volume   419.83059064
_cell_formula_units_Z   1
loop_
 _symmetry_equiv_pos_site_id
 _symmetry_equiv_pos_as_xyz
  1  'x, y, z'
loop_
 _atom_site_type_symbol
 _atom_site_label
 _atom_site_symmetry_multiplicity
 _atom_site_fract_x
 _atom_site_fract_y
 _atom_site_fract_z
 _atom_site_occupancy
  Ca  Ca0  1  0.749596  0.250000  0.000183  1
  Ca  Ca1  1  0.249459  0.750000  0.499840  1
  Ca  Ca2  1  0.750434  0.250000  0.500164  1
  Ca  Ca3  1  0.250427  0.750000  0.999789  1
  Ho  Ho4  1  0.250503  0.250000  0.000001  1
  Ho  Ho5  1  0.749579  0.750000  0.999995  1
  Ho  Ho6  1  0.750445  0.750000  0.500016  1
  Tm  Tm7  1  0.249461  0.250000  0.500010  1
  Hg  Hg8  1  0.000178  0.500084  0.248633  1
  Hg  Hg9  1  0.000178  0.999918  0.248633  1
  Hg  Hg10  1  0.500146  0.000082  0.251228  1
  Hg  Hg11  1  0.500146  0.499918  0.251228  1
  Hg  Hg12  1  0.499860  0.500109  0.748783  1
  Hg  Hg13  1  0.499860  0.999893  0.748783  1
  Hg  Hg14  1  0.999864  0.000085  0.751358  1
  Hg  Hg15  1  0.999864  0.499915  0.751358  1
