# generated using pymatgen
data_Zr11Sc(Si3Ru)4
_symmetry_space_group_name_H-M   'P 1'
_cell_length_a   3.93199700
_cell_length_b   10.36882817
_cell_length_c   11.80113620
_cell_angle_alpha   90.02102216
_cell_angle_beta   90.00000000
_cell_angle_gamma   90.00000000
_symmetry_Int_Tables_number   1
_chemical_formula_structural   Zr11Sc(Si3Ru)4
_chemical_formula_sum   'Zr11 Sc1 Si12 Ru4'
_cell_volume   481.13466571
_cell_formula_units_Z   1
loop_
 _symmetry_equiv_pos_site_id
 _symmetry_equiv_pos_as_xyz
  1  'x, y, z'
loop_
 _atom_site_type_symbol
 _atom_site_label
 _atom_site_symmetry_multiplicity
 _atom_site_fract_x
 _atom_site_fract_y
 _atom_site_fract_z
 _atom_site_occupancy
  Zr  Zr0  1  0.250000  0.875582  0.020609  1
  Zr  Zr1  1  0.250000  0.625283  0.520469  1
  Zr  Zr2  1  0.750000  0.123771  0.979557  1
  Zr  Zr3  1  0.750000  0.375717  0.479387  1
  Zr  Zr4  1  0.250000  0.924821  0.596670  1
  Zr  Zr5  1  0.250000  0.574680  0.097480  1
  Zr  Zr6  1  0.750000  0.074166  0.401570  1
  Zr  Zr7  1  0.750000  0.424578  0.902603  1
  Zr  Zr8  1  0.250000  0.657984  0.800425  1
  Zr  Zr9  1  0.250000  0.841843  0.300166  1
  Zr  Zr10  1  0.750000  0.341903  0.199594  1
  Sc  Sc11  1  0.750000  0.158864  0.700108  1
  Si  Si12  1  0.250000  0.015461  0.825060  1
  Si  Si13  1  0.250000  0.484730  0.325831  1
  Si  Si14  1  0.750000  0.984229  0.173981  1
  Si  Si15  1  0.750000  0.515227  0.674227  1
  Si  Si16  1  0.250000  0.250511  0.841389  1
  Si  Si17  1  0.250000  0.249287  0.342310  1
  Si  Si18  1  0.750000  0.748828  0.158238  1
  Si  Si19  1  0.750000  0.751403  0.658465  1
  Si  Si20  1  0.250000  0.194469  0.545227  1
  Si  Si21  1  0.250000  0.305511  0.043630  1
  Si  Si22  1  0.750000  0.806402  0.456179  1
  Si  Si23  1  0.750000  0.694699  0.956091  1
  Ru  Ru24  1  0.250000  0.387180  0.679519  1
  Ru  Ru25  1  0.250000  0.112911  0.179891  1
  Ru  Ru26  1  0.750000  0.612591  0.320299  1
  Ru  Ru27  1  0.750000  0.887370  0.821026  1
