# generated using pymatgen
data_Dy20Ir7Rh5
_symmetry_space_group_name_H-M   'P 1'
_cell_length_a   10.87696722
_cell_length_b   10.87696722
_cell_length_c   6.39550705
_cell_angle_alpha   89.98981370
_cell_angle_beta   89.98981370
_cell_angle_gamma   89.94672279
_symmetry_Int_Tables_number   1
_chemical_formula_structural   Dy20Ir7Rh5
_chemical_formula_sum   'Dy20 Ir7 Rh5'
_cell_volume   756.64195684
_cell_formula_units_Z   1
loop_
 _symmetry_equiv_pos_site_id
 _symmetry_equiv_pos_as_xyz
  1  'x, y, z'
loop_
 _atom_site_type_symbol
 _atom_site_label
 _atom_site_symmetry_multiplicity
 _atom_site_fract_x
 _atom_site_fract_y
 _atom_site_fract_z
 _atom_site_occupancy
  Dy  Dy0  1  0.290270  0.089123  0.379813  1
  Dy  Dy1  1  0.290434  0.910813  0.879281  1
  Dy  Dy2  1  0.708871  0.088711  0.878564  1
  Dy  Dy3  1  0.708976  0.909339  0.379982  1
  Dy  Dy4  1  0.589169  0.790351  0.879746  1
  Dy  Dy5  1  0.587724  0.209810  0.379679  1
  Dy  Dy6  1  0.410615  0.790407  0.379640  1
  Dy  Dy7  1  0.410783  0.209477  0.879489  1
  Dy  Dy8  1  0.209649  0.410831  0.620254  1
  Dy  Dy9  1  0.209593  0.589385  0.120360  1
  Dy  Dy10  1  0.790190  0.412276  0.120321  1
  Dy  Dy11  1  0.790523  0.589217  0.620511  1
  Dy  Dy12  1  0.910877  0.709730  0.120187  1
  Dy  Dy13  1  0.911289  0.291129  0.621436  1
  Dy  Dy14  1  0.089187  0.709566  0.620719  1
  Dy  Dy15  1  0.090661  0.291024  0.120018  1
  Dy  Dy16  1  0.000070  0.999755  0.499872  1
  Dy  Dy17  1  0.000245  0.999930  0.000128  1
  Dy  Dy18  1  0.499943  0.499827  0.999881  1
  Dy  Dy19  1  0.500173  0.500057  0.500119  1
  Ir  Ir20  1  0.846070  0.846624  0.749936  1
  Ir  Ir21  1  0.153376  0.153930  0.750064  1
  Ir  Ir22  1  0.153997  0.846003  0.250000  1
  Ir  Ir23  1  0.654561  0.345439  0.750000  1
  Ir  Ir24  1  0.654144  0.653819  0.249829  1
  Ir  Ir25  1  0.346181  0.345856  0.250171  1
  Ir  Ir26  1  0.346027  0.653973  0.750000  1
  Rh  Rh27  1  0.845882  0.154118  0.250000  1
  Rh  Rh28  1  0.500613  0.000263  0.124394  1
  Rh  Rh29  1  0.500421  0.000249  0.623889  1
  Rh  Rh30  1  0.999751  0.499579  0.876111  1
  Rh  Rh31  1  0.999737  0.499387  0.375606  1
