# generated using pymatgen
data_HfZr2U(Co2Sn)2
_symmetry_space_group_name_H-M   'P 1'
_cell_length_a   7.19302720
_cell_length_b   7.19302745
_cell_length_c   3.33534500
_cell_angle_alpha   90.00000000
_cell_angle_beta   90.00000000
_cell_angle_gamma   93.41974857
_symmetry_Int_Tables_number   1
_chemical_formula_structural   HfZr2U(Co2Sn)2
_chemical_formula_sum   'Hf1 Zr2 U1 Co4 Sn2'
_cell_volume   172.26226654
_cell_formula_units_Z   1
loop_
 _symmetry_equiv_pos_site_id
 _symmetry_equiv_pos_as_xyz
  1  'x, y, z'
loop_
 _atom_site_type_symbol
 _atom_site_label
 _atom_site_symmetry_multiplicity
 _atom_site_fract_x
 _atom_site_fract_y
 _atom_site_fract_z
 _atom_site_occupancy
  Hf  Hf0  1  0.325372  0.825372  0.500000  1
  Zr  Zr1  1  0.833026  0.670854  0.500000  1
  Zr  Zr2  1  0.170854  0.333026  0.500000  1
  U  U3  1  0.667283  0.167283  0.500000  1
  Co  Co4  1  0.392527  0.133653  0.000000  1
  Co  Co5  1  0.852194  0.352194  0.000000  1
  Co  Co6  1  0.118406  0.618406  0.000000  1
  Co  Co7  1  0.633653  0.892527  0.000000  1
  Sn  Sn8  1  0.013686  0.992999  0.000000  1
  Sn  Sn9  1  0.492999  0.513686  0.000000  1
