# generated using pymatgen
data_Ca4AcAu4
_symmetry_space_group_name_H-M   'P 1'
_cell_length_a   8.20776600
_cell_length_b   7.93253130
_cell_length_c   8.22335442
_cell_angle_alpha   70.27627579
_cell_angle_beta   90.00000000
_cell_angle_gamma   90.00000000
_symmetry_Int_Tables_number   1
_chemical_formula_structural   Ca4AcAu4
_chemical_formula_sum   'Ca8 Ac2 Au8'
_cell_volume   503.99714603
_cell_formula_units_Z   2
loop_
 _symmetry_equiv_pos_site_id
 _symmetry_equiv_pos_as_xyz
  1  'x, y, z'
loop_
 _atom_site_type_symbol
 _atom_site_label
 _atom_site_symmetry_multiplicity
 _atom_site_fract_x
 _atom_site_fract_y
 _atom_site_fract_z
 _atom_site_occupancy
  Ca  Ca0  1  0.818952  0.431560  0.693818  1
  Ca  Ca1  1  0.334218  0.250412  0.748014  1
  Ca  Ca2  1  0.994755  0.006098  0.992397  1
  Ca  Ca3  1  0.681048  0.931560  0.693818  1
  Ca  Ca4  1  0.827309  0.243394  0.255759  1
  Ca  Ca5  1  0.165782  0.750412  0.748014  1
  Ca  Ca6  1  0.672691  0.743394  0.255759  1
  Ca  Ca7  1  0.505245  0.506098  0.992397  1
  Ac  Ac8  1  0.325036  0.061677  0.311195  1
  Ac  Ac9  1  0.174964  0.561677  0.311195  1
  Au  Au10  1  0.868689  0.630561  0.988555  1
  Au  Au11  1  0.965141  0.856894  0.419117  1
  Au  Au12  1  0.132597  0.368365  0.010580  1
  Au  Au13  1  0.534859  0.356894  0.419117  1
  Au  Au14  1  0.367403  0.868365  0.010580  1
  Au  Au15  1  0.465758  0.651040  0.580566  1
  Au  Au16  1  0.034242  0.151040  0.580566  1
  Au  Au17  1  0.631311  0.130561  0.988555  1
