# generated using pymatgen
data_Ta4Co6SiAs
_symmetry_space_group_name_H-M   'P 1'
_cell_length_a   4.86814100
_cell_length_b   4.86814008
_cell_length_c   7.60697700
_cell_angle_alpha   90.00000000
_cell_angle_beta   90.00000000
_cell_angle_gamma   119.99999947
_symmetry_Int_Tables_number   1
_chemical_formula_structural   Ta4Co6SiAs
_chemical_formula_sum   'Ta4 Co6 Si1 As1'
_cell_volume   156.12374206
_cell_formula_units_Z   1
loop_
 _symmetry_equiv_pos_site_id
 _symmetry_equiv_pos_as_xyz
  1  'x, y, z'
loop_
 _atom_site_type_symbol
 _atom_site_label
 _atom_site_symmetry_multiplicity
 _atom_site_fract_x
 _atom_site_fract_y
 _atom_site_fract_z
 _atom_site_occupancy
  Ta  Ta0  1  0.333333  0.666667  0.436398  1
  Ta  Ta1  1  0.666667  0.333333  0.563602  1
  Ta  Ta2  1  0.666667  0.333333  0.942784  1
  Ta  Ta3  1  0.333333  0.666667  0.057216  1
  Co  Co4  1  0.829828  0.170172  0.244956  1
  Co  Co5  1  0.829828  0.659657  0.244956  1
  Co  Co6  1  0.340343  0.170172  0.244956  1
  Co  Co7  1  0.170172  0.829828  0.755044  1
  Co  Co8  1  0.170172  0.340343  0.755044  1
  Co  Co9  1  0.659657  0.829828  0.755044  1
  Si  Si10  1  0.000000  0.000000  0.000000  1
  As  As11  1  0.000000  0.000000  0.500000  1
