# generated using pymatgen
data_Nd2Tm4Al17Si7Os8
_symmetry_space_group_name_H-M   'P 1'
_cell_length_a   8.72335210
_cell_length_b   8.70735630
_cell_length_c   9.52128000
_cell_angle_alpha   90.00000000
_cell_angle_beta   90.00000000
_cell_angle_gamma   120.20722050
_symmetry_Int_Tables_number   1
_chemical_formula_structural   Nd2Tm4Al17Si7Os8
_chemical_formula_sum   'Nd2 Tm4 Al17 Si7 Os8'
_cell_volume   625.00723965
_cell_formula_units_Z   1
loop_
 _symmetry_equiv_pos_site_id
 _symmetry_equiv_pos_as_xyz
  1  'x, y, z'
loop_
 _atom_site_type_symbol
 _atom_site_label
 _atom_site_symmetry_multiplicity
 _atom_site_fract_x
 _atom_site_fract_y
 _atom_site_fract_z
 _atom_site_occupancy
  Nd  Nd0  1  0.810743  0.620372  0.750000  1
  Nd  Nd1  1  0.381027  0.187756  0.750000  1
  Tm  Tm2  1  0.193927  0.389360  0.250000  1
  Tm  Tm3  1  0.609667  0.805871  0.250000  1
  Tm  Tm4  1  0.197278  0.803310  0.250000  1
  Tm  Tm5  1  0.799668  0.193178  0.750000  1
  Al  Al6  1  0.163681  0.330811  0.575079  1
  Al  Al7  1  0.834787  0.671785  0.418224  1
  Al  Al8  1  0.670520  0.835845  0.574499  1
  Al  Al9  1  0.834787  0.671785  0.081776  1
  Al  Al10  1  0.329027  0.165228  0.419401  1
  Al  Al11  1  0.163681  0.330811  0.924921  1
  Al  Al12  1  0.165012  0.833202  0.572134  1
  Al  Al13  1  0.329027  0.165228  0.080599  1
  Al  Al14  1  0.836187  0.163364  0.421082  1
  Al  Al15  1  0.670520  0.835845  0.925501  1
  Al  Al16  1  0.836187  0.163364  0.078918  1
  Al  Al17  1  0.165012  0.833202  0.927866  1
  Al  Al18  1  0.126743  0.565159  0.750000  1
  Al  Al19  1  0.564407  0.435052  0.250000  1
  Al  Al20  1  0.437673  0.568264  0.750000  1
  Al  Al21  1  0.000237  0.998655  0.250000  1
  Al  Al22  1  0.994436  0.006216  0.750000  1
  Si  Si23  1  0.333966  0.664256  0.042062  1
  Si  Si24  1  0.667329  0.334796  0.964290  1
  Si  Si25  1  0.667329  0.334796  0.535710  1
  Si  Si26  1  0.333966  0.664256  0.457938  1
  Si  Si27  1  0.565569  0.123186  0.250000  1
  Si  Si28  1  0.437413  0.871917  0.750000  1
  Si  Si29  1  0.875583  0.433794  0.250000  1
  Os  Os30  1  0.501652  0.999634  0.003557  1
  Os  Os31  1  0.999810  0.498896  0.008891  1
  Os  Os32  1  0.501652  0.999634  0.496443  1
  Os  Os33  1  0.499974  0.500763  0.003273  1
  Os  Os34  1  0.999810  0.498896  0.491109  1
  Os  Os35  1  0.499974  0.500763  0.496727  1
  Os  Os36  1  0.000870  0.000372  0.000241  1
  Os  Os37  1  0.000870  0.000372  0.499759  1
