# generated using pymatgen
data_LaPr3V4(WO6)4
_symmetry_space_group_name_H-M   'P 1'
_cell_length_a   5.43854425
_cell_length_b   7.58747927
_cell_length_c   11.20881333
_cell_angle_alpha   90.01422533
_cell_angle_beta   89.97660907
_cell_angle_gamma   90.02651221
_symmetry_Int_Tables_number   1
_chemical_formula_structural   LaPr3V4(WO6)4
_chemical_formula_sum   'La1 Pr3 V4 W4 O24'
_cell_volume   462.52980586
_cell_formula_units_Z   1
loop_
 _symmetry_equiv_pos_site_id
 _symmetry_equiv_pos_as_xyz
  1  'x, y, z'
loop_
 _atom_site_type_symbol
 _atom_site_label
 _atom_site_symmetry_multiplicity
 _atom_site_fract_x
 _atom_site_fract_y
 _atom_site_fract_z
 _atom_site_occupancy
  La  La0  1  0.044149  0.253034  0.044520  1
  Pr  Pr1  1  0.544560  0.753179  0.454044  1
  Pr  Pr2  1  0.455699  0.253231  0.545874  1
  Pr  Pr3  1  0.955304  0.753295  0.954066  1
  V  V4  1  0.548997  0.504876  0.134823  1
  V  V5  1  0.049533  0.005065  0.365664  1
  V  V6  1  0.949902  0.506066  0.634212  1
  V  V7  1  0.450123  0.005373  0.865458  1
  W  W8  1  0.554060  0.997783  0.144074  1
  W  W9  1  0.053290  0.498915  0.356569  1
  W  W10  1  0.945487  0.999533  0.643772  1
  W  W11  1  0.445146  0.500247  0.855923  1
  O  O12  1  0.266439  0.540486  0.018255  1
  O  O13  1  0.271471  0.962420  0.029950  1
  O  O14  1  0.658304  0.755751  0.121371  1
  O  O15  1  0.454741  0.245520  0.141964  1
  O  O16  1  0.861756  0.059911  0.210790  1
  O  O17  1  0.879900  0.446658  0.216902  1
  O  O18  1  0.380660  0.945078  0.284243  1
  O  O19  1  0.362519  0.561490  0.289966  1
  O  O20  1  0.952664  0.746207  0.358087  1
  O  O21  1  0.158176  0.256393  0.378958  1
  O  O22  1  0.769644  0.463573  0.469515  1
  O  O23  1  0.766088  0.039591  0.481115  1
  O  O24  1  0.232537  0.539546  0.520174  1
  O  O25  1  0.228407  0.963892  0.529305  1
  O  O26  1  0.842452  0.756132  0.621136  1
  O  O27  1  0.048008  0.246052  0.642904  1
  O  O28  1  0.637345  0.061904  0.709593  1
  O  O29  1  0.621060  0.445896  0.715695  1
  O  O30  1  0.119720  0.945442  0.784102  1
  O  O31  1  0.137236  0.561734  0.790678  1
  O  O32  1  0.549255  0.746392  0.856325  1
  O  O33  1  0.346270  0.256212  0.877926  1
  O  O34  1  0.726609  0.465593  0.971444  1
  O  O35  1  0.732476  0.037926  0.980600  1
