# generated using pymatgen
data_Zr3Al2TcO
_symmetry_space_group_name_H-M   'P 1'
_cell_length_a   8.63731010
_cell_length_b   8.63731057
_cell_length_c   8.63731100
_cell_angle_alpha   60.00000217
_cell_angle_beta   60.00000040
_cell_angle_gamma   60.00000646
_symmetry_Int_Tables_number   1
_chemical_formula_structural   Zr3Al2TcO
_chemical_formula_sum   'Zr12 Al8 Tc4 O4'
_cell_volume   455.63873454
_cell_formula_units_Z   4
loop_
 _symmetry_equiv_pos_site_id
 _symmetry_equiv_pos_as_xyz
  1  'x, y, z'
loop_
 _atom_site_type_symbol
 _atom_site_label
 _atom_site_symmetry_multiplicity
 _atom_site_fract_x
 _atom_site_fract_y
 _atom_site_fract_z
 _atom_site_occupancy
  Zr  Zr0  1  0.554515  0.945454  0.554524  1
  Zr  Zr1  1  0.304543  0.695490  0.695489  1
  Zr  Zr2  1  0.695522  0.304510  0.304498  1
  Zr  Zr3  1  0.304510  0.695528  0.304481  1
  Zr  Zr4  1  0.695493  0.695485  0.304530  1
  Zr  Zr5  1  0.304505  0.304487  0.695525  1
  Zr  Zr6  1  0.554507  0.554515  0.945470  1
  Zr  Zr7  1  0.945457  0.554510  0.554511  1
  Zr  Zr8  1  0.554478  0.945490  0.945502  1
  Zr  Zr9  1  0.945495  0.945513  0.554475  1
  Zr  Zr10  1  0.695485  0.304546  0.695476  1
  Zr  Zr11  1  0.945490  0.554472  0.945519  1
  Al  Al12  1  0.332139  0.332136  0.332139  1
  Al  Al13  1  0.246399  0.917878  0.917873  1
  Al  Al14  1  0.917874  0.246401  0.917874  1
  Al  Al15  1  0.917872  0.917877  0.246403  1
  Al  Al16  1  0.332126  0.003599  0.332126  1
  Al  Al17  1  0.332128  0.332123  0.003597  1
  Al  Al18  1  0.003601  0.332122  0.332127  1
  Al  Al19  1  0.917861  0.917864  0.917861  1
  Tc  Tc20  1  0.125000  0.125000  0.125000  1
  Tc  Tc21  1  0.625000  0.125000  0.125000  1
  Tc  Tc22  1  0.125000  0.625000  0.125000  1
  Tc  Tc23  1  0.125000  0.125000  0.625000  1
  O  O24  1  0.625000  0.625000  0.625000  1
  O  O25  1  0.125000  0.625000  0.625000  1
  O  O26  1  0.625000  0.125000  0.625000  1
  O  O27  1  0.625000  0.625000  0.125000  1
