# generated using pymatgen
data_Tb2Dy2FeRu7
_symmetry_space_group_name_H-M   'P 1'
_cell_length_a   5.33756216
_cell_length_b   5.21017365
_cell_length_c   8.95149538
_cell_angle_alpha   89.96890594
_cell_angle_beta   90.00550855
_cell_angle_gamma   120.67866610
_symmetry_Int_Tables_number   1
_chemical_formula_structural   Tb2Dy2FeRu7
_chemical_formula_sum   'Tb2 Dy2 Fe1 Ru7'
_cell_volume   214.09694939
_cell_formula_units_Z   1
loop_
 _symmetry_equiv_pos_site_id
 _symmetry_equiv_pos_as_xyz
  1  'x, y, z'
loop_
 _atom_site_type_symbol
 _atom_site_label
 _atom_site_symmetry_multiplicity
 _atom_site_fract_x
 _atom_site_fract_y
 _atom_site_fract_z
 _atom_site_occupancy
  Tb  Tb0  1  0.668420  0.336533  0.567295  1
  Tb  Tb1  1  0.331562  0.663785  0.434336  1
  Dy  Dy2  1  0.331469  0.663572  0.065593  1
  Dy  Dy3  1  0.668517  0.336748  0.932849  1
  Fe  Fe4  1  0.163251  0.326519  0.750504  1
  Ru  Ru5  1  0.002213  0.005016  0.501605  1
  Ru  Ru6  1  0.002301  0.005243  0.998420  1
  Ru  Ru7  1  0.174353  0.827616  0.750703  1
  Ru  Ru8  1  0.653710  0.827868  0.750666  1
  Ru  Ru9  1  0.832409  0.665476  0.249375  1
  Ru  Ru10  1  0.827298  0.170399  0.249330  1
  Ru  Ru11  1  0.344497  0.171227  0.249324  1
