# generated using pymatgen
data_Y3Ho(MgRh)4
_symmetry_space_group_name_H-M   'P 1'
_cell_length_a   4.11797900
_cell_length_b   7.11239517
_cell_length_c   8.53637608
_cell_angle_alpha   89.87794507
_cell_angle_beta   90.00000000
_cell_angle_gamma   90.00000000
_symmetry_Int_Tables_number   1
_chemical_formula_structural   Y3Ho(MgRh)4
_chemical_formula_sum   'Y3 Ho1 Mg4 Rh4'
_cell_volume   250.01873914
_cell_formula_units_Z   1
loop_
 _symmetry_equiv_pos_site_id
 _symmetry_equiv_pos_as_xyz
  1  'x, y, z'
loop_
 _atom_site_type_symbol
 _atom_site_label
 _atom_site_symmetry_multiplicity
 _atom_site_fract_x
 _atom_site_fract_y
 _atom_site_fract_z
 _atom_site_occupancy
  Y  Y0  1  0.250000  0.537645  0.176595  1
  Y  Y1  1  0.750000  0.461784  0.823762  1
  Y  Y2  1  0.750000  0.961854  0.675710  1
  Ho  Ho3  1  0.250000  0.038632  0.324514  1
  Mg  Mg4  1  0.250000  0.636473  0.558418  1
  Mg  Mg5  1  0.750000  0.364534  0.440764  1
  Mg  Mg6  1  0.750000  0.863400  0.058900  1
  Mg  Mg7  1  0.250000  0.135877  0.941362  1
  Rh  Rh8  1  0.250000  0.751915  0.870184  1
  Rh  Rh9  1  0.750000  0.244595  0.131650  1
  Rh  Rh10  1  0.750000  0.751127  0.370038  1
  Rh  Rh11  1  0.250000  0.252164  0.628104  1
