# generated using pymatgen
data_Ta8MnSnS16
_symmetry_space_group_name_H-M   'P 1'
_cell_length_a   6.70023589
_cell_length_b   6.69292953
_cell_length_c   13.58286700
_cell_angle_alpha   90.13495866
_cell_angle_beta   90.05317204
_cell_angle_gamma   119.93481184
_symmetry_Int_Tables_number   1
_chemical_formula_structural   Ta8MnSnS16
_chemical_formula_sum   'Ta8 Mn1 Sn1 S16'
_cell_volume   527.85038767
_cell_formula_units_Z   1
loop_
 _symmetry_equiv_pos_site_id
 _symmetry_equiv_pos_as_xyz
  1  'x, y, z'
loop_
 _atom_site_type_symbol
 _atom_site_label
 _atom_site_symmetry_multiplicity
 _atom_site_fract_x
 _atom_site_fract_y
 _atom_site_fract_z
 _atom_site_occupancy
  Ta  Ta0  1  0.505025  0.495785  0.770378  1
  Ta  Ta1  1  0.009751  0.504666  0.229589  1
  Ta  Ta2  1  0.494811  0.989999  0.229629  1
  Ta  Ta3  1  0.505189  0.010001  0.770371  1
  Ta  Ta4  1  0.990249  0.495334  0.770411  1
  Ta  Ta5  1  0.494975  0.504215  0.229622  1
  Ta  Ta6  1  0.999577  0.000147  0.771104  1
  Ta  Ta7  1  0.000423  0.999853  0.228896  1
  Mn  Mn8  1  0.000000  0.000000  0.000000  1
  Sn  Sn9  1  0.000000  0.000000  0.500000  1
  S  S10  1  0.832873  0.167650  0.343265  1
  S  S11  1  0.832922  0.665601  0.343263  1
  S  S12  1  0.335205  0.167758  0.343608  1
  S  S13  1  0.664000  0.832693  0.884788  1
  S  S14  1  0.167078  0.334399  0.656737  1
  S  S15  1  0.168846  0.832928  0.884502  1
  S  S16  1  0.168876  0.337286  0.884645  1
  S  S17  1  0.831154  0.167072  0.115498  1
  S  S18  1  0.336000  0.167307  0.115212  1
  S  S19  1  0.664795  0.832242  0.656392  1
  S  S20  1  0.332710  0.665537  0.113229  1
  S  S21  1  0.666236  0.333005  0.653053  1
  S  S22  1  0.667290  0.334463  0.886771  1
  S  S23  1  0.333764  0.666995  0.346947  1
  S  S24  1  0.831124  0.662714  0.115355  1
  S  S25  1  0.167127  0.832350  0.656735  1
