# generated using pymatgen
data_Tm3Hf2Zr3(Si4Ru3)4
_symmetry_space_group_name_H-M   'P 1'
_cell_length_a   10.00396260
_cell_length_b   10.00503735
_cell_length_c   13.48370788
_cell_angle_alpha   53.60131854
_cell_angle_beta   53.54817166
_cell_angle_gamma   31.21050607
_symmetry_Int_Tables_number   1
_chemical_formula_structural   Tm3Hf2Zr3(Si4Ru3)4
_chemical_formula_sum   'Tm3 Hf2 Zr3 Si16 Ru12'
_cell_volume   550.62291185
_cell_formula_units_Z   1
loop_
 _symmetry_equiv_pos_site_id
 _symmetry_equiv_pos_as_xyz
  1  'x, y, z'
loop_
 _atom_site_type_symbol
 _atom_site_label
 _atom_site_symmetry_multiplicity
 _atom_site_fract_x
 _atom_site_fract_y
 _atom_site_fract_z
 _atom_site_occupancy
  Tm  Tm0  1  0.295333  0.560740  0.644960  1
  Tm  Tm1  1  0.441028  0.701085  0.857026  1
  Tm  Tm2  1  0.704481  0.439781  0.353697  1
  Hf  Hf3  1  0.962089  0.705315  0.362962  1
  Hf  Hf4  1  0.294497  0.039651  0.136051  1
  Zr  Zr5  1  0.556569  0.290080  0.151928  1
  Zr  Zr6  1  0.039475  0.295841  0.634637  1
  Zr  Zr7  1  0.703089  0.962024  0.865399  1
  Si  Si8  1  0.875211  0.123054  0.248986  1
  Si  Si9  1  0.120204  0.880125  0.750667  1
  Si  Si10  1  0.379217  0.618164  0.248381  1
  Si  Si11  1  0.623045  0.377810  0.749584  1
  Si  Si12  1  0.976372  0.253702  0.891930  1
  Si  Si13  1  0.748592  0.022308  0.608065  1
  Si  Si14  1  0.026186  0.746890  0.107689  1
  Si  Si15  1  0.251649  0.978411  0.390070  1
  Si  Si16  1  0.572765  0.084080  0.065977  1
  Si  Si17  1  0.915021  0.429345  0.434519  1
  Si  Si18  1  0.427131  0.918146  0.933915  1
  Si  Si19  1  0.084387  0.571523  0.565008  1
  Si  Si20  1  0.387596  0.141688  0.397537  1
  Si  Si21  1  0.858563  0.613394  0.102382  1
  Si  Si22  1  0.614048  0.856947  0.602370  1
  Si  Si23  1  0.142049  0.387400  0.897551  1
  Ru  Ru24  1  0.648181  0.832517  0.281185  1
  Ru  Ru25  1  0.169792  0.353382  0.217796  1
  Ru  Ru26  1  0.758434  0.485379  0.069524  1
  Ru  Ru27  1  0.833325  0.647345  0.781443  1
  Ru  Ru28  1  0.902095  0.140759  0.585085  1
  Ru  Ru29  1  0.855103  0.102752  0.916025  1
  Ru  Ru30  1  0.100110  0.857881  0.411788  1
  Ru  Ru31  1  0.140075  0.902665  0.084731  1
  Ru  Ru32  1  0.240600  0.515486  0.930755  1
  Ru  Ru33  1  0.484480  0.759305  0.570445  1
  Ru  Ru34  1  0.515597  0.238319  0.431679  1
  Ru  Ru35  1  0.353612  0.166703  0.718253  1
