# generated using pymatgen
data_HfNp3Bi4Sb
_symmetry_space_group_name_H-M   'P 1'
_cell_length_a   9.53611332
_cell_length_b   9.58763500
_cell_length_c   6.35804500
_cell_angle_alpha   90.00000000
_cell_angle_beta   90.00000000
_cell_angle_gamma   120.17889333
_symmetry_Int_Tables_number   1
_chemical_formula_structural   HfNp3Bi4Sb
_chemical_formula_sum   'Hf2 Np6 Bi8 Sb2'
_cell_volume   502.51776363
_cell_formula_units_Z   2
loop_
 _symmetry_equiv_pos_site_id
 _symmetry_equiv_pos_as_xyz
  1  'x, y, z'
loop_
 _atom_site_type_symbol
 _atom_site_label
 _atom_site_symmetry_multiplicity
 _atom_site_fract_x
 _atom_site_fract_y
 _atom_site_fract_z
 _atom_site_occupancy
  Hf  Hf0  1  0.008027  0.004013  0.500000  1
  Hf  Hf1  1  0.008027  0.004013  0.000000  1
  Np  Np2  1  0.379251  0.005601  0.750000  1
  Np  Np3  1  0.379251  0.373651  0.250000  1
  Np  Np4  1  0.003879  0.623395  0.250000  1
  Np  Np5  1  0.003879  0.380484  0.750000  1
  Np  Np6  1  0.610443  0.611924  0.750000  1
  Np  Np7  1  0.610443  0.998519  0.250000  1
  Bi  Bi8  1  0.333566  0.666784  0.500000  1
  Bi  Bi9  1  0.668709  0.334354  0.000000  1
  Bi  Bi10  1  0.668709  0.334354  0.500000  1
  Bi  Bi11  1  0.333566  0.666784  0.000000  1
  Bi  Bi12  1  0.732328  0.997885  0.750000  1
  Bi  Bi13  1  0.732328  0.734443  0.250000  1
  Bi  Bi14  1  0.997558  0.267375  0.250000  1
  Bi  Bi15  1  0.997558  0.730183  0.750000  1
  Sb  Sb16  1  0.266240  0.999367  0.250000  1
  Sb  Sb17  1  0.266240  0.266872  0.750000  1
