# generated using pymatgen
data_Nd4Mn5Fe2AgO20
_symmetry_space_group_name_H-M   'P 1'
_cell_length_a   5.82942700
_cell_length_b   7.64784322
_cell_length_c   8.80143603
_cell_angle_alpha   89.32685164
_cell_angle_beta   90.00000000
_cell_angle_gamma   90.00000000
_symmetry_Int_Tables_number   1
_chemical_formula_structural   Nd4Mn5Fe2AgO20
_chemical_formula_sum   'Nd4 Mn5 Fe2 Ag1 O20'
_cell_volume   392.36332623
_cell_formula_units_Z   1
loop_
 _symmetry_equiv_pos_site_id
 _symmetry_equiv_pos_as_xyz
  1  'x, y, z'
loop_
 _atom_site_type_symbol
 _atom_site_label
 _atom_site_symmetry_multiplicity
 _atom_site_fract_x
 _atom_site_fract_y
 _atom_site_fract_z
 _atom_site_occupancy
  Nd  Nd0  1  0.000000  0.365066  0.673349  1
  Nd  Nd1  1  0.000000  0.639582  0.328349  1
  Nd  Nd2  1  0.000000  0.854918  0.827802  1
  Nd  Nd3  1  0.000000  0.144416  0.170958  1
  Mn  Mn4  1  0.500000  0.408372  0.353487  1
  Mn  Mn5  1  0.255756  0.503465  0.002351  1
  Mn  Mn6  1  0.747264  0.998668  0.495766  1
  Mn  Mn7  1  0.744244  0.503465  0.002351  1
  Mn  Mn8  1  0.252736  0.998668  0.495766  1
  Fe  Fe9  1  0.500000  0.890133  0.148104  1
  Fe  Fe10  1  0.500000  0.609885  0.644990  1
  Ag  Ag11  1  0.500000  0.068463  0.843160  1
  O  O12  1  0.246243  0.901656  0.293777  1
  O  O13  1  0.233068  0.096411  0.697872  1
  O  O14  1  0.753571  0.404889  0.209079  1
  O  O15  1  0.752189  0.600373  0.794514  1
  O  O16  1  0.766932  0.096411  0.697872  1
  O  O17  1  0.753757  0.901656  0.293777  1
  O  O18  1  0.247811  0.600373  0.794514  1
  O  O19  1  0.246429  0.404889  0.209079  1
  O  O20  1  0.500000  0.360739  0.946553  1
  O  O21  1  0.500000  0.658032  0.067419  1
  O  O22  1  0.500000  0.846172  0.562858  1
  O  O23  1  0.500000  0.149185  0.434711  1
  O  O24  1  0.266904  0.997576  0.004997  1
  O  O25  1  0.724555  0.497338  0.501015  1
  O  O26  1  0.733096  0.997576  0.004997  1
  O  O27  1  0.275445  0.497338  0.501015  1
  O  O28  1  0.000000  0.155200  0.445190  1
  O  O29  1  0.000000  0.839715  0.550208  1
  O  O30  1  0.000000  0.660825  0.054376  1
  O  O31  1  0.000000  0.348543  0.949740  1
