# generated using pymatgen
data_Tm3Lu5Re(B8Ru)3
_symmetry_space_group_name_H-M   'P 1'
_cell_length_a   3.61007600
_cell_length_b   9.04215541
_cell_length_c   11.41879302
_cell_angle_alpha   90.12171902
_cell_angle_beta   90.00000000
_cell_angle_gamma   90.00000000
_symmetry_Int_Tables_number   1
_chemical_formula_structural   Tm3Lu5Re(B8Ru)3
_chemical_formula_sum   'Tm3 Lu5 Re1 B24 Ru3'
_cell_volume   372.74131458
_cell_formula_units_Z   1
loop_
 _symmetry_equiv_pos_site_id
 _symmetry_equiv_pos_as_xyz
  1  'x, y, z'
loop_
 _atom_site_type_symbol
 _atom_site_label
 _atom_site_symmetry_multiplicity
 _atom_site_fract_x
 _atom_site_fract_y
 _atom_site_fract_z
 _atom_site_occupancy
  Tm  Tm0  1  0.000000  0.322189  0.415157  1
  Tm  Tm1  1  0.000000  0.680817  0.587964  1
  Tm  Tm2  1  0.000000  0.821852  0.083418  1
  Lu  Lu3  1  0.000000  0.176965  0.913444  1
  Lu  Lu4  1  0.000000  0.943408  0.371507  1
  Lu  Lu5  1  0.000000  0.056323  0.627619  1
  Lu  Lu6  1  0.000000  0.442703  0.127901  1
  Lu  Lu7  1  0.000000  0.555715  0.872797  1
  Re  Re8  1  0.000000  0.862581  0.820908  1
  B  B9  1  0.500000  0.554061  0.433764  1
  B  B10  1  0.500000  0.446206  0.566627  1
  B  B11  1  0.500000  0.053907  0.066806  1
  B  B12  1  0.500000  0.947555  0.933828  1
  B  B13  1  0.500000  0.749773  0.419809  1
  B  B14  1  0.500000  0.250580  0.580078  1
  B  B15  1  0.500000  0.249357  0.079992  1
  B  B16  1  0.500000  0.749820  0.919773  1
  B  B17  1  0.500000  0.791593  0.265329  1
  B  B18  1  0.500000  0.208084  0.733929  1
  B  B19  1  0.500000  0.291956  0.234573  1
  B  B20  1  0.500000  0.707159  0.765441  1
  B  B21  1  0.500000  0.630417  0.184320  1
  B  B22  1  0.500000  0.368579  0.815523  1
  B  B23  1  0.500000  0.131256  0.315751  1
  B  B24  1  0.500000  0.869421  0.684476  1
  B  B25  1  0.500000  0.982367  0.212758  1
  B  B26  1  0.500000  0.019519  0.787189  1
  B  B27  1  0.500000  0.482196  0.287671  1
  B  B28  1  0.500000  0.517469  0.712956  1
  B  B29  1  0.500000  0.603291  0.029304  1
  B  B30  1  0.500000  0.393977  0.971285  1
  B  B31  1  0.500000  0.105039  0.470638  1
  B  B32  1  0.500000  0.895905  0.528055  1
  Ru  Ru33  1  0.000000  0.638191  0.320551  1
  Ru  Ru34  1  0.000000  0.361650  0.679144  1
  Ru  Ru35  1  0.000000  0.138121  0.179714  1
