# generated using pymatgen
data_Y8Tc(B8Ru)3
_symmetry_space_group_name_H-M   'P 1'
_cell_length_a   3.67351300
_cell_length_b   9.16901762
_cell_length_c   11.55161430
_cell_angle_alpha   89.91338346
_cell_angle_beta   90.00000000
_cell_angle_gamma   90.00000000
_symmetry_Int_Tables_number   1
_chemical_formula_structural   Y8Tc(B8Ru)3
_chemical_formula_sum   'Y8 Tc1 B24 Ru3'
_cell_volume   389.08686669
_cell_formula_units_Z   1
loop_
 _symmetry_equiv_pos_site_id
 _symmetry_equiv_pos_as_xyz
  1  'x, y, z'
loop_
 _atom_site_type_symbol
 _atom_site_label
 _atom_site_symmetry_multiplicity
 _atom_site_fract_x
 _atom_site_fract_y
 _atom_site_fract_z
 _atom_site_occupancy
  Y  Y0  1  0.000000  0.324555  0.413113  1
  Y  Y1  1  0.000000  0.676416  0.583788  1
  Y  Y2  1  0.000000  0.821267  0.088099  1
  Y  Y3  1  0.000000  0.176620  0.914710  1
  Y  Y4  1  0.000000  0.943286  0.372584  1
  Y  Y5  1  0.000000  0.057082  0.627974  1
  Y  Y6  1  0.000000  0.444160  0.127893  1
  Y  Y7  1  0.000000  0.556764  0.871696  1
  Tc  Tc8  1  0.000000  0.637629  0.321250  1
  B  B9  1  0.500000  0.552857  0.432936  1
  B  B10  1  0.500000  0.446466  0.567641  1
  B  B11  1  0.500000  0.053638  0.067347  1
  B  B12  1  0.500000  0.946275  0.932860  1
  B  B13  1  0.500000  0.747491  0.419499  1
  B  B14  1  0.500000  0.252761  0.580482  1
  B  B15  1  0.500000  0.247354  0.080317  1
  B  B16  1  0.500000  0.752548  0.919570  1
  B  B17  1  0.500000  0.791238  0.266487  1
  B  B18  1  0.500000  0.209385  0.733498  1
  B  B19  1  0.500000  0.290591  0.232862  1
  B  B20  1  0.500000  0.709785  0.766483  1
  B  B21  1  0.500000  0.631873  0.185943  1
  B  B22  1  0.500000  0.367850  0.814422  1
  B  B23  1  0.500000  0.131967  0.313868  1
  B  B24  1  0.500000  0.868444  0.685750  1
  B  B25  1  0.500000  0.983516  0.212701  1
  B  B26  1  0.500000  0.016455  0.787682  1
  B  B27  1  0.500000  0.482745  0.287289  1
  B  B28  1  0.500000  0.516194  0.712679  1
  B  B29  1  0.500000  0.609174  0.029691  1
  B  B30  1  0.500000  0.390387  0.969317  1
  B  B31  1  0.500000  0.109819  0.469871  1
  B  B32  1  0.500000  0.891507  0.530747  1
  Ru  Ru33  1  0.000000  0.361952  0.679336  1
  Ru  Ru34  1  0.000000  0.137575  0.178396  1
  Ru  Ru35  1  0.000000  0.862374  0.821217  1
