# generated using pymatgen
data_TbEu6Ho3Sn8
_symmetry_space_group_name_H-M   'P 1'
_cell_length_a   8.02810600
_cell_length_b   8.62077254
_cell_length_c   16.43780700
_cell_angle_alpha   89.97977547
_cell_angle_beta   90.00000000
_cell_angle_gamma   90.00000000
_symmetry_Int_Tables_number   1
_chemical_formula_structural   TbEu6Ho3Sn8
_chemical_formula_sum   'Tb2 Eu12 Ho6 Sn16'
_cell_volume   1137.63549593
_cell_formula_units_Z   2
loop_
 _symmetry_equiv_pos_site_id
 _symmetry_equiv_pos_as_xyz
  1  'x, y, z'
loop_
 _atom_site_type_symbol
 _atom_site_label
 _atom_site_symmetry_multiplicity
 _atom_site_fract_x
 _atom_site_fract_y
 _atom_site_fract_z
 _atom_site_occupancy
  Tb  Tb0  1  0.669798  0.168774  0.621680  1
  Tb  Tb1  1  0.169798  0.331226  0.878320  1
  Eu  Eu2  1  0.502323  0.684587  0.593353  1
  Eu  Eu3  1  0.002323  0.815413  0.906647  1
  Eu  Eu4  1  0.497666  0.315542  0.092914  1
  Eu  Eu5  1  0.997666  0.184458  0.407086  1
  Eu  Eu6  1  0.497692  0.315463  0.406868  1
  Eu  Eu7  1  0.997692  0.184537  0.093132  1
  Eu  Eu8  1  0.502201  0.684696  0.906600  1
  Eu  Eu9  1  0.002201  0.815304  0.593400  1
  Eu  Eu10  1  0.829362  0.512682  0.750197  1
  Eu  Eu11  1  0.329362  0.987318  0.749803  1
  Eu  Eu12  1  0.171124  0.487285  0.250211  1
  Eu  Eu13  1  0.671124  0.012715  0.249789  1
  Ho  Ho14  1  0.330393  0.831519  0.122296  1
  Ho  Ho15  1  0.830393  0.668481  0.377704  1
  Ho  Ho16  1  0.329987  0.831594  0.377771  1
  Ho  Ho17  1  0.829987  0.668406  0.122229  1
  Ho  Ho18  1  0.669872  0.168323  0.877957  1
  Ho  Ho19  1  0.169872  0.331677  0.622043  1
  Sn  Sn20  1  0.668806  0.960789  0.460324  1
  Sn  Sn21  1  0.168806  0.539211  0.039676  1
  Sn  Sn22  1  0.332015  0.037732  0.960897  1
  Sn  Sn23  1  0.832015  0.462268  0.539103  1
  Sn  Sn24  1  0.329370  0.038146  0.538958  1
  Sn  Sn25  1  0.829370  0.461854  0.961042  1
  Sn  Sn26  1  0.669731  0.961170  0.039184  1
  Sn  Sn27  1  0.169731  0.538830  0.460816  1
  Sn  Sn28  1  0.463523  0.367164  0.749780  1
  Sn  Sn29  1  0.963523  0.132836  0.750220  1
  Sn  Sn30  1  0.536202  0.633908  0.250040  1
  Sn  Sn31  1  0.036202  0.866092  0.249960  1
  Sn  Sn32  1  0.716357  0.881338  0.750194  1
  Sn  Sn33  1  0.216357  0.618662  0.749806  1
  Sn  Sn34  1  0.283579  0.118157  0.249971  1
  Sn  Sn35  1  0.783579  0.381843  0.250029  1
