# generated using pymatgen
data_Ho4Tm3Lu13(CoSb2)4
_symmetry_space_group_name_H-M   'P 1'
_cell_length_a   7.70662943
_cell_length_b   8.71602000
_cell_length_c   11.97888267
_cell_angle_alpha   90.00000000
_cell_angle_beta   90.03840282
_cell_angle_gamma   90.00000000
_symmetry_Int_Tables_number   1
_chemical_formula_structural   Ho4Tm3Lu13(CoSb2)4
_chemical_formula_sum   'Ho4 Tm3 Lu13 Co4 Sb8'
_cell_volume   804.63497961
_cell_formula_units_Z   1
loop_
 _symmetry_equiv_pos_site_id
 _symmetry_equiv_pos_as_xyz
  1  'x, y, z'
loop_
 _atom_site_type_symbol
 _atom_site_label
 _atom_site_symmetry_multiplicity
 _atom_site_fract_x
 _atom_site_fract_y
 _atom_site_fract_z
 _atom_site_occupancy
  Ho  Ho0  1  0.622956  0.750000  0.307966  1
  Ho  Ho1  1  0.122884  0.250000  0.191998  1
  Ho  Ho2  1  0.377054  0.250000  0.692019  1
  Ho  Ho3  1  0.877341  0.750000  0.808012  1
  Tm  Tm4  1  0.156525  0.750000  0.204198  1
  Tm  Tm5  1  0.656510  0.250000  0.295800  1
  Tm  Tm6  1  0.843524  0.250000  0.795785  1
  Lu  Lu7  1  0.343621  0.750000  0.703848  1
  Lu  Lu8  1  0.448151  0.750000  0.997452  1
  Lu  Lu9  1  0.948217  0.250000  0.502383  1
  Lu  Lu10  1  0.551827  0.250000  0.002364  1
  Lu  Lu11  1  0.052193  0.750000  0.497791  1
  Lu  Lu12  1  0.824159  0.962352  0.065314  1
  Lu  Lu13  1  0.324204  0.037525  0.434770  1
  Lu  Lu14  1  0.175874  0.462530  0.934637  1
  Lu  Lu15  1  0.675580  0.537800  0.565387  1
  Lu  Lu16  1  0.175874  0.037470  0.934637  1
  Lu  Lu17  1  0.675580  0.962200  0.565387  1
  Lu  Lu18  1  0.824159  0.537648  0.065314  1
  Lu  Lu19  1  0.324204  0.462475  0.434770  1
  Co  Co20  1  0.430553  0.750000  0.491170  1
  Co  Co21  1  0.930648  0.250000  0.009142  1
  Co  Co22  1  0.569287  0.250000  0.509143  1
  Co  Co23  1  0.069230  0.750000  0.990874  1
  Sb  Sb24  1  0.931894  0.991613  0.328710  1
  Sb  Sb25  1  0.431922  0.008401  0.171272  1
  Sb  Sb26  1  0.068384  0.491884  0.671375  1
  Sb  Sb27  1  0.567722  0.508709  0.828561  1
  Sb  Sb28  1  0.068384  0.008116  0.671375  1
  Sb  Sb29  1  0.567722  0.991291  0.828561  1
  Sb  Sb30  1  0.931894  0.508387  0.328710  1
  Sb  Sb31  1  0.431922  0.491599  0.171272  1
