# generated using pymatgen
data_Ho6Al18ReSi6Ru7
_symmetry_space_group_name_H-M   'P 1'
_cell_length_a   8.68515800
_cell_length_b   8.65757259
_cell_length_c   9.55183215
_cell_angle_alpha   89.75933966
_cell_angle_beta   90.00000000
_cell_angle_gamma   120.10546487
_symmetry_Int_Tables_number   1
_chemical_formula_structural   Ho6Al18ReSi6Ru7
_chemical_formula_sum   'Ho6 Al18 Re1 Si6 Ru7'
_cell_volume   621.33173920
_cell_formula_units_Z   1
loop_
 _symmetry_equiv_pos_site_id
 _symmetry_equiv_pos_as_xyz
  1  'x, y, z'
loop_
 _atom_site_type_symbol
 _atom_site_label
 _atom_site_symmetry_multiplicity
 _atom_site_fract_x
 _atom_site_fract_y
 _atom_site_fract_z
 _atom_site_occupancy
  Ho  Ho0  1  0.193458  0.386917  0.249658  1
  Ho  Ho1  1  0.806542  0.613083  0.750342  1
  Ho  Ho2  1  0.608972  0.808313  0.249235  1
  Ho  Ho3  1  0.391028  0.191687  0.750765  1
  Ho  Ho4  1  0.199340  0.808313  0.249235  1
  Ho  Ho5  1  0.800660  0.191687  0.750765  1
  Al  Al6  1  0.165106  0.330213  0.579863  1
  Al  Al7  1  0.834894  0.669787  0.420137  1
  Al  Al8  1  0.669657  0.833975  0.578373  1
  Al  Al9  1  0.834638  0.669276  0.079817  1
  Al  Al10  1  0.330343  0.166025  0.421627  1
  Al  Al11  1  0.165362  0.330724  0.920183  1
  Al  Al12  1  0.164318  0.833975  0.578373  1
  Al  Al13  1  0.329528  0.165852  0.078047  1
  Al  Al14  1  0.835682  0.166025  0.421627  1
  Al  Al15  1  0.670472  0.834148  0.921953  1
  Al  Al16  1  0.836324  0.165852  0.078047  1
  Al  Al17  1  0.163676  0.834148  0.921953  1
  Al  Al18  1  0.873683  0.433774  0.250314  1
  Al  Al19  1  0.126317  0.566226  0.749686  1
  Al  Al20  1  0.560090  0.433774  0.250314  1
  Al  Al21  1  0.439910  0.566226  0.749686  1
  Al  Al22  1  0.999356  0.998712  0.249981  1
  Al  Al23  1  0.000644  0.001288  0.750019  1
  Re  Re24  1  0.500000  0.000000  0.000000  1
  Si  Si25  1  0.331991  0.663983  0.039530  1
  Si  Si26  1  0.668009  0.336017  0.960470  1
  Si  Si27  1  0.668335  0.336671  0.540466  1
  Si  Si28  1  0.331665  0.663329  0.459534  1
  Si  Si29  1  0.563496  0.126994  0.250399  1
  Si  Si30  1  0.436504  0.873006  0.749601  1
  Ru  Ru31  1  0.000000  0.500000  0.000000  1
  Ru  Ru32  1  0.500000  0.000000  0.500000  1
  Ru  Ru33  1  0.500000  0.500000  0.000000  1
  Ru  Ru34  1  0.000000  0.500000  0.500000  1
  Ru  Ru35  1  0.500000  0.500000  0.500000  1
  Ru  Ru36  1  0.000000  0.000000  0.000000  1
  Ru  Ru37  1  0.000000  0.000000  0.500000  1
