# generated using pymatgen
data_Dy12Si8(Ni3Rh)3
_symmetry_space_group_name_H-M   'P 1'
_cell_length_a   5.54273201
_cell_length_b   7.30283103
_cell_length_c   14.48743700
_cell_angle_alpha   90.00000000
_cell_angle_beta   90.00000000
_cell_angle_gamma   89.99066648
_symmetry_Int_Tables_number   1
_chemical_formula_structural   Dy12Si8(Ni3Rh)3
_chemical_formula_sum   'Dy12 Si8 Ni9 Rh3'
_cell_volume   586.41718431
_cell_formula_units_Z   1
loop_
 _symmetry_equiv_pos_site_id
 _symmetry_equiv_pos_as_xyz
  1  'x, y, z'
loop_
 _atom_site_type_symbol
 _atom_site_label
 _atom_site_symmetry_multiplicity
 _atom_site_fract_x
 _atom_site_fract_y
 _atom_site_fract_z
 _atom_site_occupancy
  Dy  Dy0  1  0.876381  0.837484  0.750000  1
  Dy  Dy1  1  0.855700  0.527180  0.393326  1
  Dy  Dy2  1  0.355310  0.972976  0.608063  1
  Dy  Dy3  1  0.143676  0.472686  0.892008  1
  Dy  Dy4  1  0.643759  0.027326  0.107005  1
  Dy  Dy5  1  0.122847  0.163873  0.250000  1
  Dy  Dy6  1  0.143676  0.472686  0.607992  1
  Dy  Dy7  1  0.643759  0.027326  0.392995  1
  Dy  Dy8  1  0.376021  0.663771  0.250000  1
  Dy  Dy9  1  0.355310  0.972976  0.891937  1
  Dy  Dy10  1  0.619422  0.336352  0.750000  1
  Dy  Dy11  1  0.855700  0.527180  0.106674  1
  Si  Si12  1  0.639683  0.626960  0.899399  1
  Si  Si13  1  0.857309  0.127698  0.597332  1
  Si  Si14  1  0.141500  0.871905  0.096357  1
  Si  Si15  1  0.141500  0.871905  0.403643  1
  Si  Si16  1  0.639683  0.626960  0.600601  1
  Si  Si17  1  0.857309  0.127698  0.902668  1
  Si  Si18  1  0.358706  0.373071  0.096663  1
  Si  Si19  1  0.358706  0.373071  0.403337  1
  Ni  Ni20  1  0.594831  0.335667  0.963800  1
  Ni  Ni21  1  0.096040  0.165336  0.465568  1
  Ni  Ni22  1  0.096040  0.165336  0.034432  1
  Ni  Ni23  1  0.419534  0.683984  0.750000  1
  Ni  Ni24  1  0.902885  0.832887  0.963728  1
  Ni  Ni25  1  0.902885  0.832887  0.536272  1
  Ni  Ni26  1  0.594831  0.335667  0.536200  1
  Ni  Ni27  1  0.406137  0.665981  0.466727  1
  Ni  Ni28  1  0.406137  0.665981  0.033273  1
  Rh  Rh29  1  0.595214  0.314767  0.250000  1
  Rh  Rh30  1  0.904298  0.814051  0.250000  1
  Rh  Rh31  1  0.095207  0.186374  0.750000  1
