# generated using pymatgen
data_Lu12Tc3Ni
_symmetry_space_group_name_H-M   'P 1'
_cell_length_a   7.23177593
_cell_length_b   8.93807500
_cell_length_c   6.11064894
_cell_angle_alpha   90.00000000
_cell_angle_beta   89.76924067
_cell_angle_gamma   90.00000000
_symmetry_Int_Tables_number   1
_chemical_formula_structural   Lu12Tc3Ni
_chemical_formula_sum   'Lu12 Tc3 Ni1'
_cell_volume   394.97787422
_cell_formula_units_Z   1
loop_
 _symmetry_equiv_pos_site_id
 _symmetry_equiv_pos_as_xyz
  1  'x, y, z'
loop_
 _atom_site_type_symbol
 _atom_site_label
 _atom_site_symmetry_multiplicity
 _atom_site_fract_x
 _atom_site_fract_y
 _atom_site_fract_z
 _atom_site_occupancy
  Lu  Lu0  1  0.458107  0.250000  0.123864  1
  Lu  Lu1  1  0.178042  0.565412  0.169507  1
  Lu  Lu2  1  0.178042  0.934587  0.169507  1
  Lu  Lu3  1  0.676681  0.561358  0.338310  1
  Lu  Lu4  1  0.676681  0.938641  0.338310  1
  Lu  Lu5  1  0.958562  0.250000  0.361500  1
  Lu  Lu6  1  0.039026  0.750000  0.624916  1
  Lu  Lu7  1  0.323397  0.060276  0.664041  1
  Lu  Lu8  1  0.323397  0.439723  0.664041  1
  Lu  Lu9  1  0.823492  0.061649  0.835781  1
  Lu  Lu10  1  0.823492  0.438350  0.835781  1
  Lu  Lu11  1  0.539175  0.750000  0.879127  1
  Tc  Tc12  1  0.887928  0.750000  0.040295  1
  Tc  Tc13  1  0.385858  0.750000  0.461312  1
  Tc  Tc14  1  0.614075  0.250000  0.539832  1
  Ni  Ni15  1  0.114040  0.250000  0.953884  1
