# generated using pymatgen
data_Al2CuNi3Pt2
_symmetry_space_group_name_H-M   'P 1'
_cell_length_a   5.26728858
_cell_length_b   5.26728808
_cell_length_c   3.68379500
_cell_angle_alpha   90.00000000
_cell_angle_beta   90.00000000
_cell_angle_gamma   92.39359926
_symmetry_Int_Tables_number   1
_chemical_formula_structural   Al2CuNi3Pt2
_chemical_formula_sum   'Al2 Cu1 Ni3 Pt2'
_cell_volume   102.11523750
_cell_formula_units_Z   1
loop_
 _symmetry_equiv_pos_site_id
 _symmetry_equiv_pos_as_xyz
  1  'x, y, z'
loop_
 _atom_site_type_symbol
 _atom_site_label
 _atom_site_symmetry_multiplicity
 _atom_site_fract_x
 _atom_site_fract_y
 _atom_site_fract_z
 _atom_site_occupancy
  Al  Al0  1  0.737799  0.262201  0.500000  1
  Al  Al1  1  0.262201  0.737799  0.500000  1
  Cu  Cu2  1  0.000000  0.000000  0.000000  1
  Ni  Ni3  1  0.753159  0.753159  0.500000  1
  Ni  Ni4  1  0.246841  0.246841  0.500000  1
  Ni  Ni5  1  0.500000  0.500000  0.000000  1
  Pt  Pt6  1  0.500000  0.000000  0.000000  1
  Pt  Pt7  1  0.000000  0.500000  0.000000  1
