# generated using pymatgen
data_Tb12InGaNi4
_symmetry_space_group_name_H-M   'P 1'
_cell_length_a   8.42186478
_cell_length_b   8.42186381
_cell_length_c   8.42186473
_cell_angle_alpha   113.72075570
_cell_angle_beta   109.36257390
_cell_angle_gamma   105.43682447
_symmetry_Int_Tables_number   1
_chemical_formula_structural   Tb12InGaNi4
_chemical_formula_sum   'Tb12 In1 Ga1 Ni4'
_cell_volume   457.42614472
_cell_formula_units_Z   1
loop_
 _symmetry_equiv_pos_site_id
 _symmetry_equiv_pos_as_xyz
  1  'x, y, z'
loop_
 _atom_site_type_symbol
 _atom_site_label
 _atom_site_symmetry_multiplicity
 _atom_site_fract_x
 _atom_site_fract_y
 _atom_site_fract_z
 _atom_site_occupancy
  Tb  Tb0  1  0.425966  0.231312  0.194655  1
  Tb  Tb1  1  0.574034  0.768688  0.805345  1
  Tb  Tb2  1  0.036658  0.231312  0.805345  1
  Tb  Tb3  1  0.963342  0.768688  0.194655  1
  Tb  Tb4  1  0.180346  0.288837  0.469182  1
  Tb  Tb5  1  0.819654  0.711163  0.530818  1
  Tb  Tb6  1  0.180346  0.711163  0.891509  1
  Tb  Tb7  1  0.819654  0.288837  0.108491  1
  Tb  Tb8  1  0.324756  0.636472  0.311717  1
  Tb  Tb9  1  0.675244  0.363528  0.688283  1
  Tb  Tb10  1  0.324756  0.013040  0.688283  1
  Tb  Tb11  1  0.675244  0.986960  0.311717  1
  In  In12  1  0.500000  0.500000  0.000000  1
  Ga  Ga13  1  0.000000  0.000000  0.000000  1
  Ni  Ni14  1  0.344075  0.000000  0.344075  1
  Ni  Ni15  1  0.655925  0.000000  0.655925  1
  Ni  Ni16  1  0.121951  0.621951  0.500000  1
  Ni  Ni17  1  0.878049  0.378049  0.500000  1
