# generated using pymatgen
data_HoTc(PRh)2
_symmetry_space_group_name_H-M   'P 1'
_cell_length_a   3.98021400
_cell_length_b   11.13832800
_cell_length_c   12.70411200
_cell_angle_alpha   90.00000000
_cell_angle_beta   90.00000000
_cell_angle_gamma   90.00000000
_symmetry_Int_Tables_number   1
_chemical_formula_structural   HoTc(PRh)2
_chemical_formula_sum   'Ho6 Tc6 P12 Rh12'
_cell_volume   563.21049584
_cell_formula_units_Z   6
loop_
 _symmetry_equiv_pos_site_id
 _symmetry_equiv_pos_as_xyz
  1  'x, y, z'
loop_
 _atom_site_type_symbol
 _atom_site_label
 _atom_site_symmetry_multiplicity
 _atom_site_fract_x
 _atom_site_fract_y
 _atom_site_fract_z
 _atom_site_occupancy
  Ho  Ho0  1  0.000000  0.500000  0.523352  1
  Ho  Ho1  1  0.500000  0.000000  0.477571  1
  Ho  Ho2  1  0.500000  0.819344  0.203050  1
  Ho  Ho3  1  0.500000  0.180656  0.203050  1
  Ho  Ho4  1  0.000000  0.682520  0.796927  1
  Ho  Ho5  1  0.000000  0.317480  0.796927  1
  Tc  Tc6  1  0.000000  0.500000  0.985202  1
  Tc  Tc7  1  0.500000  0.000000  0.013700  1
  Tc  Tc8  1  0.500000  0.298195  0.430514  1
  Tc  Tc9  1  0.500000  0.701805  0.430514  1
  Tc  Tc10  1  0.500000  0.500000  0.155933  1
  Tc  Tc11  1  0.000000  0.000000  0.841991  1
  P  P12  1  0.500000  0.308618  0.615556  1
  P  P13  1  0.500000  0.691382  0.615556  1
  P  P14  1  0.000000  0.193058  0.384004  1
  P  P15  1  0.000000  0.806942  0.384004  1
  P  P16  1  0.500000  0.500000  0.877270  1
  P  P17  1  0.000000  0.000000  0.122572  1
  P  P18  1  0.500000  0.849858  0.892047  1
  P  P19  1  0.500000  0.150142  0.892047  1
  P  P20  1  0.000000  0.649447  0.107540  1
  P  P21  1  0.000000  0.350553  0.107540  1
  P  P22  1  0.500000  0.500000  0.344646  1
  P  P23  1  0.000000  0.000000  0.657330  1
  Rh  Rh24  1  0.000000  0.202006  0.572629  1
  Rh  Rh25  1  0.000000  0.797994  0.572629  1
  Rh  Rh26  1  0.500000  0.876257  0.711350  1
  Rh  Rh27  1  0.500000  0.123743  0.711350  1
  Rh  Rh28  1  0.000000  0.624823  0.287177  1
  Rh  Rh29  1  0.000000  0.375177  0.287177  1
  Rh  Rh30  1  0.500000  0.329908  0.982974  1
  Rh  Rh31  1  0.500000  0.670092  0.982974  1
  Rh  Rh32  1  0.000000  0.170408  0.015981  1
  Rh  Rh33  1  0.000000  0.829592  0.015981  1
  Rh  Rh34  1  0.500000  0.500000  0.693272  1
  Rh  Rh35  1  0.000000  0.000000  0.307661  1
