# generated using pymatgen
data_Yb12MnBeN10
_symmetry_space_group_name_H-M   'P 1'
_cell_length_a   6.09795600
_cell_length_b   6.09795530
_cell_length_c   12.00152100
_cell_angle_alpha   90.00000000
_cell_angle_beta   90.00000000
_cell_angle_gamma   120.00000379
_symmetry_Int_Tables_number   1
_chemical_formula_structural   Yb12MnBeN10
_chemical_formula_sum   'Yb12 Mn1 Be1 N10'
_cell_volume   386.48747790
_cell_formula_units_Z   1
loop_
 _symmetry_equiv_pos_site_id
 _symmetry_equiv_pos_as_xyz
  1  'x, y, z'
loop_
 _atom_site_type_symbol
 _atom_site_label
 _atom_site_symmetry_multiplicity
 _atom_site_fract_x
 _atom_site_fract_y
 _atom_site_fract_z
 _atom_site_occupancy
  Yb  Yb0  1  0.000000  0.394431  0.867876  1
  Yb  Yb1  1  0.605569  0.605569  0.867876  1
  Yb  Yb2  1  0.599429  0.000000  0.115047  1
  Yb  Yb3  1  0.394431  0.000000  0.632124  1
  Yb  Yb4  1  0.400571  0.400571  0.384953  1
  Yb  Yb5  1  0.599429  0.000000  0.384953  1
  Yb  Yb6  1  0.400571  0.400571  0.115047  1
  Yb  Yb7  1  0.000000  0.599429  0.115047  1
  Yb  Yb8  1  0.000000  0.394431  0.632124  1
  Yb  Yb9  1  0.605569  0.605569  0.632124  1
  Yb  Yb10  1  0.394431  0.000000  0.867876  1
  Yb  Yb11  1  0.000000  0.599429  0.384953  1
  Mn  Mn12  1  0.000000  0.000000  0.250000  1
  Be  Be13  1  0.000000  0.000000  0.750000  1
  N  N14  1  0.720296  0.000000  0.750000  1
  N  N15  1  0.279704  0.279704  0.750000  1
  N  N16  1  0.283376  0.000000  0.250000  1
  N  N17  1  0.666667  0.333333  0.498846  1
  N  N18  1  0.333333  0.666667  0.001154  1
  N  N19  1  0.333333  0.666667  0.498846  1
  N  N20  1  0.666667  0.333333  0.001154  1
  N  N21  1  0.716624  0.716624  0.250000  1
  N  N22  1  0.000000  0.283376  0.250000  1
  N  N23  1  0.000000  0.720296  0.750000  1
