# generated using pymatgen
data_Nd7PuGaPd24
_symmetry_space_group_name_H-M   'P 1'
_cell_length_a   8.48788104
_cell_length_b   8.48788104
_cell_length_c   8.48788104
_cell_angle_alpha   90.04015784
_cell_angle_beta   90.04015784
_cell_angle_gamma   89.95984216
_symmetry_Int_Tables_number   1
_chemical_formula_structural   Nd7PuGaPd24
_chemical_formula_sum   'Nd7 Pu1 Ga1 Pd24'
_cell_volume   611.50150886
_cell_formula_units_Z   1
loop_
 _symmetry_equiv_pos_site_id
 _symmetry_equiv_pos_as_xyz
  1  'x, y, z'
loop_
 _atom_site_type_symbol
 _atom_site_label
 _atom_site_symmetry_multiplicity
 _atom_site_fract_x
 _atom_site_fract_y
 _atom_site_fract_z
 _atom_site_occupancy
  Nd  Nd0  1  0.252315  0.747807  0.252193  1
  Nd  Nd1  1  0.747807  0.252315  0.252193  1
  Nd  Nd2  1  0.747807  0.747807  0.747685  1
  Nd  Nd3  1  0.748049  0.748049  0.251951  1
  Nd  Nd4  1  0.748341  0.252081  0.747919  1
  Nd  Nd5  1  0.252081  0.748341  0.747919  1
  Nd  Nd6  1  0.252081  0.252081  0.251659  1
  Pu  Pu7  1  0.252706  0.252706  0.747294  1
  Ga  Ga8  1  0.999523  0.999523  0.000477  1
  Pd  Pd9  1  0.496407  0.496407  0.747407  1
  Pd  Pd10  1  0.496407  0.252593  0.503593  1
  Pd  Pd11  1  0.252593  0.496407  0.503593  1
  Pd  Pd12  1  0.499985  0.499985  0.253198  1
  Pd  Pd13  1  0.499985  0.746802  0.500015  1
  Pd  Pd14  1  0.746802  0.499985  0.500015  1
  Pd  Pd15  1  0.002532  0.002532  0.707260  1
  Pd  Pd16  1  0.002532  0.292740  0.997468  1
  Pd  Pd17  1  0.292740  0.002532  0.997468  1
  Pd  Pd18  1  0.000285  0.000285  0.292651  1
  Pd  Pd19  1  0.000285  0.707349  0.999715  1
  Pd  Pd20  1  0.707349  0.000285  0.999715  1
  Pd  Pd21  1  0.003091  0.497487  0.739491  1
  Pd  Pd22  1  0.497487  0.260509  0.996909  1
  Pd  Pd23  1  0.260509  0.003091  0.502513  1
  Pd  Pd24  1  0.003091  0.260509  0.502513  1
  Pd  Pd25  1  0.497487  0.003091  0.739491  1
  Pd  Pd26  1  0.260509  0.497487  0.996909  1
  Pd  Pd27  1  0.000092  0.499863  0.260346  1
  Pd  Pd28  1  0.499863  0.739654  0.999908  1
  Pd  Pd29  1  0.000092  0.739654  0.500137  1
  Pd  Pd30  1  0.499863  0.000092  0.260346  1
  Pd  Pd31  1  0.739654  0.000092  0.500137  1
  Pd  Pd32  1  0.739654  0.499863  0.999908  1
