# generated using pymatgen
data_AlV12Ga5(CuN2)2
_symmetry_space_group_name_H-M   'P 1'
_cell_length_a   6.57338616
_cell_length_b   6.57098017
_cell_length_c   6.57719238
_cell_angle_alpha   90.06303575
_cell_angle_beta   90.07416119
_cell_angle_gamma   90.12417336
_symmetry_Int_Tables_number   1
_chemical_formula_structural   AlV12Ga5(CuN2)2
_chemical_formula_sum   'Al1 V12 Ga5 Cu2 N4'
_cell_volume   284.09147365
_cell_formula_units_Z   1
loop_
 _symmetry_equiv_pos_site_id
 _symmetry_equiv_pos_as_xyz
  1  'x, y, z'
loop_
 _atom_site_type_symbol
 _atom_site_label
 _atom_site_symmetry_multiplicity
 _atom_site_fract_x
 _atom_site_fract_y
 _atom_site_fract_z
 _atom_site_occupancy
  Al  Al0  1  0.823532  0.320554  0.177258  1
  V  V1  1  0.789264  0.960922  0.374462  1
  V  V2  1  0.711001  0.040377  0.876932  1
  V  V3  1  0.206960  0.458656  0.125415  1
  V  V4  1  0.292739  0.541780  0.626984  1
  V  V5  1  0.959413  0.376816  0.791434  1
  V  V6  1  0.040159  0.872048  0.709353  1
  V  V7  1  0.461300  0.127918  0.210673  1
  V  V8  1  0.540808  0.621563  0.289422  1
  V  V9  1  0.375611  0.790128  0.958805  1
  V  V10  1  0.873904  0.708025  0.040510  1
  V  V11  1  0.121538  0.211448  0.458776  1
  V  V12  1  0.627494  0.290165  0.539657  1
  Ga  Ga13  1  0.677531  0.680675  0.678271  1
  Ga  Ga14  1  0.562075  0.420356  0.927149  1
  Ga  Ga15  1  0.418227  0.935537  0.570457  1
  Ga  Ga16  1  0.938588  0.578740  0.425815  1
  Ga  Ga17  1  0.081128  0.065627  0.070822  1
  Cu  Cu18  1  0.183042  0.821646  0.318853  1
  Cu  Cu19  1  0.317152  0.178438  0.818724  1
  N  N20  1  0.877200  0.123493  0.627662  1
  N  N21  1  0.622442  0.874958  0.126557  1
  N  N22  1  0.126199  0.624696  0.877631  1
  N  N23  1  0.372691  0.375436  0.378378  1
