# generated using pymatgen
data_AcAuI6
_symmetry_space_group_name_H-M   'P 1'
_cell_length_a   8.88963871
_cell_length_b   11.67344891
_cell_length_c   16.94336098
_cell_angle_alpha   102.93958877
_cell_angle_beta   95.90863216
_cell_angle_gamma   111.95767867
_symmetry_Int_Tables_number   1
_chemical_formula_structural   AcAuI6
_chemical_formula_sum   'Ac4 Au4 I24'
_cell_volume   1555.04569617
_cell_formula_units_Z   4
loop_
 _symmetry_equiv_pos_site_id
 _symmetry_equiv_pos_as_xyz
  1  'x, y, z'
loop_
 _atom_site_type_symbol
 _atom_site_label
 _atom_site_symmetry_multiplicity
 _atom_site_fract_x
 _atom_site_fract_y
 _atom_site_fract_z
 _atom_site_occupancy
  Ac  Ac0  1  0.576620  0.916473  0.622035  1
  Ac  Ac1  1  0.023787  0.688616  0.129050  1
  Ac  Ac2  1  0.423380  0.083527  0.377965  1
  Ac  Ac3  1  0.976213  0.311384  0.870950  1
  Au  Au4  1  0.294976  0.632808  0.764046  1
  Au  Au5  1  0.500000  0.500000  0.500000  1
  Au  Au6  1  0.705024  0.367192  0.235954  1
  Au  Au7  1  0.000000  0.000000  0.000000  1
  I  I8  1  0.774878  0.094886  0.971123  1
  I  I9  1  0.725827  0.154271  0.258581  1
  I  I10  1  0.274173  0.845729  0.741419  1
  I  I11  1  0.764665  0.796209  0.025929  1
  I  I12  1  0.605068  0.192974  0.743112  1
  I  I13  1  0.316813  0.417050  0.781848  1
  I  I14  1  0.683187  0.582950  0.218152  1
  I  I15  1  0.298599  0.623078  0.497141  1
  I  I16  1  0.235335  0.203791  0.974071  1
  I  I17  1  0.760732  0.722920  0.521455  1
  I  I18  1  0.225122  0.905114  0.028877  1
  I  I19  1  0.744615  0.057244  0.483431  1
  I  I20  1  0.610956  0.726889  0.748219  1
  I  I21  1  0.965186  0.052639  0.729010  1
  I  I22  1  0.239268  0.277080  0.478545  1
  I  I23  1  0.394932  0.807026  0.256888  1
  I  I24  1  0.977545  0.542157  0.777962  1
  I  I25  1  0.746349  0.432861  0.977493  1
  I  I26  1  0.253651  0.567139  0.022507  1
  I  I27  1  0.022455  0.457843  0.222038  1
  I  I28  1  0.389044  0.273111  0.251781  1
  I  I29  1  0.255385  0.942756  0.516569  1
  I  I30  1  0.701401  0.376922  0.502859  1
  I  I31  1  0.034814  0.947361  0.270990  1
