# generated using pymatgen
data_Lu2UCo2
_symmetry_space_group_name_H-M   'P 1'
_cell_length_a   5.82259063
_cell_length_b   5.82259158
_cell_length_c   5.82259205
_cell_angle_alpha   144.67608224
_cell_angle_beta   118.37464192
_cell_angle_gamma   73.07431139
_symmetry_Int_Tables_number   1
_chemical_formula_structural   Lu2UCo2
_chemical_formula_sum   'Lu2 U1 Co2'
_cell_volume   98.59681455
_cell_formula_units_Z   1
loop_
 _symmetry_equiv_pos_site_id
 _symmetry_equiv_pos_as_xyz
  1  'x, y, z'
loop_
 _atom_site_type_symbol
 _atom_site_label
 _atom_site_symmetry_multiplicity
 _atom_site_fract_x
 _atom_site_fract_y
 _atom_site_fract_z
 _atom_site_occupancy
  Lu  Lu0  1  0.695616  0.195616  0.500000  1
  Lu  Lu1  1  0.304385  0.804385  0.500001  1
  U  U2  1  0.000000  0.000000  0.000000  1
  Co  Co3  1  0.725459  0.500000  0.225459  1
  Co  Co4  1  0.274541  0.500001  0.774542  1
