# generated using pymatgen
data_La2Fe2(Tc5C)3
_symmetry_space_group_name_H-M   'P 1'
_cell_length_a   6.98042258
_cell_length_b   6.98042308
_cell_length_c   6.97455418
_cell_angle_alpha   82.90556515
_cell_angle_beta   82.90556929
_cell_angle_gamma   83.08623381
_symmetry_Int_Tables_number   1
_chemical_formula_structural   La2Fe2(Tc5C)3
_chemical_formula_sum   'La2 Fe2 Tc15 C3'
_cell_volume   332.74813433
_cell_formula_units_Z   1
loop_
 _symmetry_equiv_pos_site_id
 _symmetry_equiv_pos_as_xyz
  1  'x, y, z'
loop_
 _atom_site_type_symbol
 _atom_site_label
 _atom_site_symmetry_multiplicity
 _atom_site_fract_x
 _atom_site_fract_y
 _atom_site_fract_z
 _atom_site_occupancy
  La  La0  1  0.648843  0.648843  0.648999  1
  La  La1  1  0.351157  0.351157  0.351001  1
  Fe  Fe2  1  0.500000  0.000000  0.000000  1
  Fe  Fe3  1  0.000000  0.500000  0.000000  1
  Tc  Tc4  1  0.000000  0.000000  0.500000  1
  Tc  Tc5  1  0.723819  0.276181  0.000000  1
  Tc  Tc6  1  0.001027  0.720864  0.272998  1
  Tc  Tc7  1  0.279136  0.998973  0.727002  1
  Tc  Tc8  1  0.998973  0.279136  0.727002  1
  Tc  Tc9  1  0.720864  0.001027  0.272998  1
  Tc  Tc10  1  0.276181  0.723819  0.000000  1
  Tc  Tc11  1  0.344446  0.344446  0.867888  1
  Tc  Tc12  1  0.866676  0.349270  0.343362  1
  Tc  Tc13  1  0.349270  0.866676  0.343362  1
  Tc  Tc14  1  0.655554  0.655554  0.132112  1
  Tc  Tc15  1  0.133324  0.650730  0.656638  1
  Tc  Tc16  1  0.650730  0.133324  0.656638  1
  Tc  Tc17  1  0.902246  0.902246  0.903152  1
  Tc  Tc18  1  0.097754  0.097754  0.096848  1
  C  C19  1  0.500000  0.500000  0.000000  1
  C  C20  1  0.000000  0.500000  0.500000  1
  C  C21  1  0.500000  0.000000  0.500000  1
