# generated using pymatgen
data_Tb3Y2(GaSb)2
_symmetry_space_group_name_H-M   'P 1'
_cell_length_a   8.68121502
_cell_length_b   8.67378604
_cell_length_c   7.95855194
_cell_angle_alpha   90.00064841
_cell_angle_beta   90.04504773
_cell_angle_gamma   125.37825668
_symmetry_Int_Tables_number   1
_chemical_formula_structural   Tb3Y2(GaSb)2
_chemical_formula_sum   'Tb6 Y4 Ga4 Sb4'
_cell_volume   488.61393540
_cell_formula_units_Z   2
loop_
 _symmetry_equiv_pos_site_id
 _symmetry_equiv_pos_as_xyz
  1  'x, y, z'
loop_
 _atom_site_type_symbol
 _atom_site_label
 _atom_site_symmetry_multiplicity
 _atom_site_fract_x
 _atom_site_fract_y
 _atom_site_fract_z
 _atom_site_occupancy
  Tb  Tb0  1  0.038790  0.300866  0.332229  1
  Tb  Tb1  1  0.961210  0.699134  0.667771  1
  Tb  Tb2  1  0.461147  0.199017  0.832227  1
  Tb  Tb3  1  0.800912  0.538825  0.167657  1
  Tb  Tb4  1  0.538853  0.800983  0.167773  1
  Tb  Tb5  1  0.199088  0.461175  0.832343  1
  Y  Y6  1  0.699587  0.961543  0.667458  1
  Y  Y7  1  0.300413  0.038457  0.332542  1
  Y  Y8  1  0.000000  0.000000  0.000000  1
  Y  Y9  1  0.500000  0.500000  0.500000  1
  Ga  Ga10  1  0.375303  0.375410  0.124167  1
  Ga  Ga11  1  0.624697  0.624590  0.875833  1
  Ga  Ga12  1  0.124643  0.124703  0.624074  1
  Ga  Ga13  1  0.875357  0.875297  0.375926  1
  Sb  Sb14  1  0.794959  0.204742  0.999607  1
  Sb  Sb15  1  0.205041  0.795258  0.000393  1
  Sb  Sb16  1  0.704713  0.294577  0.499845  1
  Sb  Sb17  1  0.295287  0.705423  0.500155  1
