# generated using pymatgen
data_Ta3VSe18
_symmetry_space_group_name_H-M   'P 1'
_cell_length_a   8.96187625
_cell_length_b   9.08093689
_cell_length_c   8.38361939
_cell_angle_alpha   82.40231361
_cell_angle_beta   82.52263146
_cell_angle_gamma   99.44527322
_symmetry_Int_Tables_number   1
_chemical_formula_structural   Ta3VSe18
_chemical_formula_sum   'Ta3 V1 Se18'
_cell_volume   659.02726677
_cell_formula_units_Z   1
loop_
 _symmetry_equiv_pos_site_id
 _symmetry_equiv_pos_as_xyz
  1  'x, y, z'
loop_
 _atom_site_type_symbol
 _atom_site_label
 _atom_site_symmetry_multiplicity
 _atom_site_fract_x
 _atom_site_fract_y
 _atom_site_fract_z
 _atom_site_occupancy
  Ta  Ta0  1  0.404462  0.861976  0.087835  1
  Ta  Ta1  1  0.136168  0.593904  0.412888  1
  Ta  Ta2  1  0.598090  0.141510  0.913138  1
  V  V3  1  0.861244  0.405127  0.583626  1
  Se  Se4  1  0.384232  0.674733  0.544763  1
  Se  Se5  1  0.324035  0.617067  0.956015  1
  Se  Se6  1  0.711044  0.119934  0.605121  1
  Se  Se7  1  0.887555  0.300146  0.887821  1
  Se  Se8  1  0.293152  0.882706  0.398305  1
  Se  Se9  1  0.112830  0.703393  0.102751  1
  Se  Se10  1  0.125076  0.320290  0.565701  1
  Se  Se11  1  0.682932  0.869821  0.935926  1
  Se  Se12  1  0.861722  0.671387  0.437068  1
  Se  Se13  1  0.318870  0.132855  0.064642  1
  Se  Se14  1  0.010168  0.336103  0.331309  1
  Se  Se15  1  0.670641  0.983278  0.171535  1
  Se  Se16  1  0.974022  0.653503  0.672560  1
  Se  Se17  1  0.332979  0.019794  0.828630  1
  Se  Se18  1  0.683099  0.385076  0.045574  1
  Se  Se19  1  0.621630  0.326919  0.461509  1
  Se  Se20  1  0.414417  0.587321  0.250618  1
  Se  Se21  1  0.591634  0.413158  0.742664  1
