# generated using pymatgen
data_ErTm3(Pd2O7)2
_symmetry_space_group_name_H-M   'P 1'
_cell_length_a   7.19439453
_cell_length_b   7.19527420
_cell_length_c   7.19439500
_cell_angle_alpha   60.00403737
_cell_angle_beta   59.99999323
_cell_angle_gamma   60.00402901
_symmetry_Int_Tables_number   1
_chemical_formula_structural   ErTm3(Pd2O7)2
_chemical_formula_sum   'Er1 Tm3 Pd4 O14'
_cell_volume   263.35849385
_cell_formula_units_Z   1
loop_
 _symmetry_equiv_pos_site_id
 _symmetry_equiv_pos_as_xyz
  1  'x, y, z'
loop_
 _atom_site_type_symbol
 _atom_site_label
 _atom_site_symmetry_multiplicity
 _atom_site_fract_x
 _atom_site_fract_y
 _atom_site_fract_z
 _atom_site_occupancy
  Er  Er0  1  0.125000  0.625000  0.125000  1
  Tm  Tm1  1  0.125000  0.125000  0.125000  1
  Tm  Tm2  1  0.125000  0.125000  0.625000  1
  Tm  Tm3  1  0.625000  0.125000  0.125000  1
  Pd  Pd4  1  0.625000  0.125000  0.625000  1
  Pd  Pd5  1  0.625000  0.625000  0.125000  1
  Pd  Pd6  1  0.125000  0.625000  0.625000  1
  Pd  Pd7  1  0.625000  0.625000  0.625000  1
  O  O8  1  0.967039  0.532415  0.967039  1
  O  O9  1  0.250522  0.248434  0.250522  1
  O  O10  1  0.717257  0.282736  0.717257  1
  O  O11  1  0.716493  0.717585  0.282961  1
  O  O12  1  0.282961  0.717585  0.716493  1
  O  O13  1  0.967251  0.967264  0.532743  1
  O  O14  1  0.532743  0.967264  0.967251  1
  O  O15  1  0.967039  0.532415  0.533507  1
  O  O16  1  0.533507  0.532415  0.967039  1
  O  O17  1  0.717257  0.282736  0.282749  1
  O  O18  1  0.282749  0.282736  0.717257  1
  O  O19  1  0.999478  0.001566  0.999478  1
  O  O20  1  0.282961  0.717585  0.282961  1
  O  O21  1  0.532743  0.967264  0.532743  1
