# generated using pymatgen
data_K8LaNd3I20
_symmetry_space_group_name_H-M   'P 1'
_cell_length_a   9.38565257
_cell_length_b   9.93523800
_cell_length_c   14.75453004
_cell_angle_alpha   90.00000000
_cell_angle_beta   90.18382131
_cell_angle_gamma   90.00000000
_symmetry_Int_Tables_number   1
_chemical_formula_structural   K8LaNd3I20
_chemical_formula_sum   'K8 La1 Nd3 I20'
_cell_volume   1375.83354702
_cell_formula_units_Z   1
loop_
 _symmetry_equiv_pos_site_id
 _symmetry_equiv_pos_as_xyz
  1  'x, y, z'
loop_
 _atom_site_type_symbol
 _atom_site_label
 _atom_site_symmetry_multiplicity
 _atom_site_fract_x
 _atom_site_fract_y
 _atom_site_fract_z
 _atom_site_occupancy
  K  K0  1  0.434781  0.505238  0.672260  1
  K  K1  1  0.934819  0.495186  0.827103  1
  K  K2  1  0.565385  0.004911  0.327730  1
  K  K3  1  0.064922  0.994613  0.172940  1
  K  K4  1  0.565385  0.495089  0.327730  1
  K  K5  1  0.064922  0.505387  0.172940  1
  K  K6  1  0.434781  0.994762  0.672260  1
  K  K7  1  0.934819  0.004814  0.827103  1
  La  La8  1  0.419799  0.250000  0.993963  1
  Nd  Nd9  1  0.920185  0.750000  0.505347  1
  Nd  Nd10  1  0.580390  0.750000  0.005430  1
  Nd  Nd11  1  0.079991  0.250000  0.494573  1
  I  I12  1  0.574152  0.750000  0.507583  1
  I  I13  1  0.330711  0.951001  0.926078  1
  I  I14  1  0.832575  0.045723  0.572277  1
  I  I15  1  0.669524  0.456208  0.074001  1
  I  I16  1  0.069100  0.250000  0.993042  1
  I  I17  1  0.655624  0.750000  0.795587  1
  I  I18  1  0.926915  0.750000  0.007249  1
  I  I19  1  0.425851  0.250000  0.492924  1
  I  I20  1  0.118716  0.750000  0.681518  1
  I  I21  1  0.155831  0.250000  0.704864  1
  I  I22  1  0.343227  0.250000  0.207299  1
  I  I23  1  0.844431  0.750000  0.295464  1
  I  I24  1  0.669524  0.043792  0.074001  1
  I  I25  1  0.622575  0.250000  0.815588  1
  I  I26  1  0.881014  0.250000  0.318363  1
  I  I27  1  0.381443  0.750000  0.181275  1
  I  I28  1  0.832575  0.454277  0.572277  1
  I  I29  1  0.330711  0.548999  0.926078  1
  I  I30  1  0.167660  0.954213  0.427577  1
  I  I31  1  0.167660  0.545787  0.427577  1
