# generated using pymatgen
data_Th3Co2(CuSi2)2
_symmetry_space_group_name_H-M   'P 1'
_cell_length_a   4.11216910
_cell_length_b   4.08361630
_cell_length_c   12.15541290
_cell_angle_alpha   99.67010227
_cell_angle_beta   99.73838586
_cell_angle_gamma   90.00001458
_symmetry_Int_Tables_number   1
_chemical_formula_structural   Th3Co2(CuSi2)2
_chemical_formula_sum   'Th3 Co2 Cu2 Si4'
_cell_volume   198.23540996
_cell_formula_units_Z   1
loop_
 _symmetry_equiv_pos_site_id
 _symmetry_equiv_pos_as_xyz
  1  'x, y, z'
loop_
 _atom_site_type_symbol
 _atom_site_label
 _atom_site_symmetry_multiplicity
 _atom_site_fract_x
 _atom_site_fract_y
 _atom_site_fract_z
 _atom_site_occupancy
  Th  Th0  1  0.846332  0.346332  0.692667  1
  Th  Th1  1  0.153668  0.653668  0.307333  1
  Th  Th2  1  0.000000  0.000000  0.000000  1
  Co  Co3  1  0.249046  0.249046  0.498091  1
  Co  Co4  1  0.750954  0.750954  0.501909  1
  Cu  Cu5  1  0.599258  0.099258  0.198516  1
  Cu  Cu6  1  0.400742  0.900742  0.801484  1
  Si  Si7  1  0.449327  0.449327  0.898654  1
  Si  Si8  1  0.550673  0.550673  0.101346  1
  Si  Si9  1  0.701065  0.201065  0.402130  1
  Si  Si10  1  0.298935  0.798935  0.597870  1
