# generated using pymatgen
data_Y20Ir3OsPt8
_symmetry_space_group_name_H-M   'P 1'
_cell_length_a   11.10172800
_cell_length_b   11.10172800
_cell_length_c   6.38262500
_cell_angle_alpha   90.00000000
_cell_angle_beta   90.00000000
_cell_angle_gamma   90.00000000
_symmetry_Int_Tables_number   1
_chemical_formula_structural   Y20Ir3OsPt8
_chemical_formula_sum   'Y20 Ir3 Os1 Pt8'
_cell_volume   786.64809302
_cell_formula_units_Z   1
loop_
 _symmetry_equiv_pos_site_id
 _symmetry_equiv_pos_as_xyz
  1  'x, y, z'
loop_
 _atom_site_type_symbol
 _atom_site_label
 _atom_site_symmetry_multiplicity
 _atom_site_fract_x
 _atom_site_fract_y
 _atom_site_fract_z
 _atom_site_occupancy
  Y  Y0  1  0.296022  0.087099  0.372656  1
  Y  Y1  1  0.296213  0.913063  0.875634  1
  Y  Y2  1  0.703787  0.086937  0.875634  1
  Y  Y3  1  0.703978  0.912901  0.372656  1
  Y  Y4  1  0.586937  0.796213  0.875634  1
  Y  Y5  1  0.587099  0.203978  0.372656  1
  Y  Y6  1  0.412901  0.796022  0.372656  1
  Y  Y7  1  0.413063  0.203787  0.875634  1
  Y  Y8  1  0.205345  0.412093  0.625515  1
  Y  Y9  1  0.205214  0.587766  0.125420  1
  Y  Y10  1  0.794786  0.412234  0.125420  1
  Y  Y11  1  0.794655  0.587907  0.625515  1
  Y  Y12  1  0.912234  0.705214  0.125420  1
  Y  Y13  1  0.912093  0.294655  0.625515  1
  Y  Y14  1  0.087907  0.705345  0.625515  1
  Y  Y15  1  0.087766  0.294786  0.125420  1
  Y  Y16  1  0.000000  0.000000  0.499938  1
  Y  Y17  1  0.000000  0.000000  0.999957  1
  Y  Y18  1  0.500000  0.500000  0.999957  1
  Y  Y19  1  0.500000  0.500000  0.499938  1
  Ir  Ir20  1  0.500000  0.000000  0.622604  1
  Ir  Ir21  1  0.000000  0.500000  0.877780  1
  Ir  Ir22  1  0.000000  0.500000  0.377819  1
  Os  Os23  1  0.500000  0.000000  0.124317  1
  Pt  Pt24  1  0.846499  0.154213  0.250232  1
  Pt  Pt25  1  0.846570  0.845835  0.749966  1
  Pt  Pt26  1  0.153430  0.154165  0.749966  1
  Pt  Pt27  1  0.153501  0.845787  0.250232  1
  Pt  Pt28  1  0.654165  0.346570  0.749966  1
  Pt  Pt29  1  0.654213  0.653501  0.250232  1
  Pt  Pt30  1  0.345787  0.346499  0.250232  1
  Pt  Pt31  1  0.345835  0.653430  0.749966  1
