# generated using pymatgen
data_Rb4ZrUBr12
_symmetry_space_group_name_H-M   'P 1'
_cell_length_a   7.85686400
_cell_length_b   7.85686400
_cell_length_c   11.18592000
_cell_angle_alpha   90.00000000
_cell_angle_beta   90.00000000
_cell_angle_gamma   90.00000000
_symmetry_Int_Tables_number   1
_chemical_formula_structural   Rb4ZrUBr12
_chemical_formula_sum   'Rb4 Zr1 U1 Br12'
_cell_volume   690.51033065
_cell_formula_units_Z   1
loop_
 _symmetry_equiv_pos_site_id
 _symmetry_equiv_pos_as_xyz
  1  'x, y, z'
loop_
 _atom_site_type_symbol
 _atom_site_label
 _atom_site_symmetry_multiplicity
 _atom_site_fract_x
 _atom_site_fract_y
 _atom_site_fract_z
 _atom_site_occupancy
  Rb  Rb0  1  0.500000  0.000000  0.751073  1
  Rb  Rb1  1  0.500000  0.000000  0.248927  1
  Rb  Rb2  1  0.000000  0.500000  0.248927  1
  Rb  Rb3  1  0.000000  0.500000  0.751073  1
  Zr  Zr4  1  0.000000  0.000000  0.000000  1
  U  U5  1  0.500000  0.500000  0.500000  1
  Br  Br6  1  0.794062  0.268752  0.000000  1
  Br  Br7  1  0.205938  0.731248  0.000000  1
  Br  Br8  1  0.500000  0.500000  0.251439  1
  Br  Br9  1  0.284918  0.218062  0.500000  1
  Br  Br10  1  0.268752  0.205938  0.000000  1
  Br  Br11  1  0.781938  0.284918  0.500000  1
  Br  Br12  1  0.000000  0.000000  0.237258  1
  Br  Br13  1  0.715082  0.781938  0.500000  1
  Br  Br14  1  0.218062  0.715082  0.500000  1
  Br  Br15  1  0.500000  0.500000  0.748561  1
  Br  Br16  1  0.731248  0.794062  0.000000  1
  Br  Br17  1  0.000000  0.000000  0.762742  1
