# generated using pymatgen
data_Dy8ZrSc3Ga20
_symmetry_space_group_name_H-M   'P 1'
_cell_length_a   6.02632296
_cell_length_b   9.46828200
_cell_length_c   11.34851585
_cell_angle_alpha   90.00000000
_cell_angle_beta   89.84078160
_cell_angle_gamma   90.00000000
_symmetry_Int_Tables_number   1
_chemical_formula_structural   Dy8ZrSc3Ga20
_chemical_formula_sum   'Dy8 Zr1 Sc3 Ga20'
_cell_volume   647.53161648
_cell_formula_units_Z   1
loop_
 _symmetry_equiv_pos_site_id
 _symmetry_equiv_pos_as_xyz
  1  'x, y, z'
loop_
 _atom_site_type_symbol
 _atom_site_label
 _atom_site_symmetry_multiplicity
 _atom_site_fract_x
 _atom_site_fract_y
 _atom_site_fract_z
 _atom_site_occupancy
  Dy  Dy0  1  0.888397  0.510283  0.352518  1
  Dy  Dy1  1  0.610753  0.988919  0.851903  1
  Dy  Dy2  1  0.111942  0.010791  0.647747  1
  Dy  Dy3  1  0.389387  0.489336  0.148161  1
  Dy  Dy4  1  0.111942  0.489209  0.647747  1
  Dy  Dy5  1  0.389387  0.010664  0.148161  1
  Dy  Dy6  1  0.888397  0.989717  0.352518  1
  Dy  Dy7  1  0.610753  0.511081  0.851903  1
  Zr  Zr8  1  0.356945  0.250000  0.425281  1
  Sc  Sc9  1  0.850225  0.750000  0.076099  1
  Sc  Sc10  1  0.648851  0.750000  0.574955  1
  Sc  Sc11  1  0.149311  0.250000  0.925034  1
  Ga  Ga12  1  0.877892  0.052109  0.089077  1
  Ga  Ga13  1  0.622448  0.448290  0.588648  1
  Ga  Ga14  1  0.122954  0.551152  0.910592  1
  Ga  Ga15  1  0.375388  0.949737  0.411042  1
  Ga  Ga16  1  0.122954  0.948848  0.910592  1
  Ga  Ga17  1  0.375388  0.550263  0.411042  1
  Ga  Ga18  1  0.877892  0.447891  0.089077  1
  Ga  Ga19  1  0.622448  0.051710  0.588648  1
  Ga  Ga20  1  0.164382  0.750000  0.248619  1
  Ga  Ga21  1  0.336290  0.750000  0.749583  1
  Ga  Ga22  1  0.834402  0.250000  0.752064  1
  Ga  Ga23  1  0.665257  0.250000  0.249196  1
  Ga  Ga24  1  0.382382  0.750000  0.003228  1
  Ga  Ga25  1  0.117598  0.750000  0.502036  1
  Ga  Ga26  1  0.615919  0.250000  0.996989  1
  Ga  Ga27  1  0.881245  0.250000  0.496055  1
  Ga  Ga28  1  0.600836  0.750000  0.294610  1
  Ga  Ga29  1  0.900598  0.750000  0.793094  1
  Ga  Ga30  1  0.396383  0.250000  0.705223  1
  Ga  Ga31  1  0.101059  0.250000  0.208562  1
