# generated using pymatgen
data_Er6Zn21AsAu2
_symmetry_space_group_name_H-M   'P 1'
_cell_length_a   9.03017033
_cell_length_b   9.04269045
_cell_length_c   9.04269043
_cell_angle_alpha   59.88188892
_cell_angle_beta   60.04579210
_cell_angle_gamma   60.04579280
_symmetry_Int_Tables_number   1
_chemical_formula_structural   Er6Zn21AsAu2
_chemical_formula_sum   'Er6 Zn21 As1 Au2'
_cell_volume   522.01962177
_cell_formula_units_Z   1
loop_
 _symmetry_equiv_pos_site_id
 _symmetry_equiv_pos_as_xyz
  1  'x, y, z'
loop_
 _atom_site_type_symbol
 _atom_site_label
 _atom_site_symmetry_multiplicity
 _atom_site_fract_x
 _atom_site_fract_y
 _atom_site_fract_z
 _atom_site_occupancy
  Er  Er0  1  0.716605  0.283395  0.283395  1
  Er  Er1  1  0.715876  0.283347  0.716653  1
  Er  Er2  1  0.715876  0.716653  0.283347  1
  Er  Er3  1  0.283395  0.716605  0.716605  1
  Er  Er4  1  0.284124  0.716653  0.283347  1
  Er  Er5  1  0.284124  0.283347  0.716653  1
  Zn  Zn6  1  0.624121  0.125336  0.125336  1
  Zn  Zn7  1  0.126226  0.624315  0.123234  1
  Zn  Zn8  1  0.126226  0.123234  0.624315  1
  Zn  Zn9  1  0.125209  0.125336  0.125336  1
  Zn  Zn10  1  0.375879  0.874664  0.874664  1
  Zn  Zn11  1  0.873774  0.375685  0.876766  1
  Zn  Zn12  1  0.873774  0.876766  0.375685  1
  Zn  Zn13  1  0.874791  0.874664  0.874664  1
  Zn  Zn14  1  0.500000  0.000000  0.000000  1
  Zn  Zn15  1  0.500000  0.000000  0.500000  1
  Zn  Zn16  1  0.500000  0.500000  0.000000  1
  Zn  Zn17  1  0.000000  0.500000  0.000000  1
  Zn  Zn18  1  0.000000  0.000000  0.500000  1
  Zn  Zn19  1  0.005832  0.328943  0.328943  1
  Zn  Zn20  1  0.331593  0.006171  0.330641  1
  Zn  Zn21  1  0.331593  0.330641  0.006171  1
  Zn  Zn22  1  0.336279  0.328943  0.328943  1
  Zn  Zn23  1  0.994168  0.671057  0.671057  1
  Zn  Zn24  1  0.668407  0.993829  0.669359  1
  Zn  Zn25  1  0.668407  0.669359  0.993829  1
  Zn  Zn26  1  0.663721  0.671057  0.671057  1
  As  As27  1  0.500000  0.500000  0.500000  1
  Au  Au28  1  0.000000  0.500000  0.500000  1
  Au  Au29  1  0.000000  0.000000  0.000000  1
