# generated using pymatgen
data_Sm5B4PdPt5Rh9
_symmetry_space_group_name_H-M   'P 1'
_cell_length_a   4.27806200
_cell_length_b   4.26607100
_cell_length_c   20.92802700
_cell_angle_alpha   90.00000000
_cell_angle_beta   90.00000000
_cell_angle_gamma   90.00000000
_symmetry_Int_Tables_number   1
_chemical_formula_structural   Sm5B4PdPt5Rh9
_chemical_formula_sum   'Sm5 B4 Pd1 Pt5 Rh9'
_cell_volume   381.94729652
_cell_formula_units_Z   1
loop_
 _symmetry_equiv_pos_site_id
 _symmetry_equiv_pos_as_xyz
  1  'x, y, z'
loop_
 _atom_site_type_symbol
 _atom_site_label
 _atom_site_symmetry_multiplicity
 _atom_site_fract_x
 _atom_site_fract_y
 _atom_site_fract_z
 _atom_site_occupancy
  Sm  Sm0  1  0.000000  0.000000  0.900485  1
  Sm  Sm1  1  0.000000  0.000000  0.099515  1
  Sm  Sm2  1  0.000000  0.000000  0.299874  1
  Sm  Sm3  1  0.000000  0.000000  0.500000  1
  Sm  Sm4  1  0.000000  0.000000  0.700126  1
  B  B5  1  0.500000  0.500000  0.190800  1
  B  B6  1  0.500000  0.500000  0.399652  1
  B  B7  1  0.500000  0.500000  0.600348  1
  B  B8  1  0.500000  0.500000  0.809200  1
  Pd  Pd9  1  0.000000  0.500000  0.000000  1
  Pt  Pt10  1  0.500000  0.500000  0.908230  1
  Pt  Pt11  1  0.500000  0.500000  0.091770  1
  Pt  Pt12  1  0.500000  0.500000  0.297406  1
  Pt  Pt13  1  0.500000  0.500000  0.702594  1
  Pt  Pt14  1  0.500000  0.000000  0.000000  1
  Rh  Rh15  1  0.500000  0.500000  0.500000  1
  Rh  Rh16  1  0.500000  0.000000  0.200303  1
  Rh  Rh17  1  0.500000  0.000000  0.400170  1
  Rh  Rh18  1  0.500000  0.000000  0.599830  1
  Rh  Rh19  1  0.500000  0.000000  0.799697  1
  Rh  Rh20  1  0.000000  0.500000  0.200925  1
  Rh  Rh21  1  0.000000  0.500000  0.400247  1
  Rh  Rh22  1  0.000000  0.500000  0.599753  1
  Rh  Rh23  1  0.000000  0.500000  0.799075  1
