# generated using pymatgen
data_Li4Sm3Ho(Si2Sn)2
_symmetry_space_group_name_H-M   'P 1'
_cell_length_a   9.66991205
_cell_length_b   9.66991196
_cell_length_c   6.77865700
_cell_angle_alpha   90.00000000
_cell_angle_beta   90.00000000
_cell_angle_gamma   153.27772719
_symmetry_Int_Tables_number   1
_chemical_formula_structural   Li4Sm3Ho(Si2Sn)2
_chemical_formula_sum   'Li4 Sm3 Ho1 Si4 Sn2'
_cell_volume   285.02240115
_cell_formula_units_Z   1
loop_
 _symmetry_equiv_pos_site_id
 _symmetry_equiv_pos_as_xyz
  1  'x, y, z'
loop_
 _atom_site_type_symbol
 _atom_site_label
 _atom_site_symmetry_multiplicity
 _atom_site_fract_x
 _atom_site_fract_y
 _atom_site_fract_z
 _atom_site_occupancy
  Li  Li0  1  0.815578  0.184422  0.554078  1
  Li  Li1  1  0.184306  0.815694  0.445757  1
  Li  Li2  1  0.184306  0.815694  0.054243  1
  Li  Li3  1  0.815578  0.184422  0.945922  1
  Sm  Sm4  1  0.451992  0.548008  0.750000  1
  Sm  Sm5  1  0.350827  0.649173  0.250000  1
  Sm  Sm6  1  0.649200  0.350800  0.750000  1
  Ho  Ho7  1  0.548035  0.451965  0.250000  1
  Si  Si8  1  0.942782  0.057218  0.074073  1
  Si  Si9  1  0.057641  0.942359  0.928025  1
  Si  Si10  1  0.057641  0.942359  0.571975  1
  Si  Si11  1  0.942782  0.057218  0.425927  1
  Sn  Sn12  1  0.718260  0.281740  0.250000  1
  Sn  Sn13  1  0.281074  0.718926  0.750000  1
