# generated using pymatgen
data_TbDy3Ni2(B8Rh)2
_symmetry_space_group_name_H-M   'P 1'
_cell_length_a   6.92115181
_cell_length_b   6.92112877
_cell_length_c   6.92114600
_cell_angle_alpha   111.19617125
_cell_angle_beta   113.37175957
_cell_angle_gamma   103.98957360
_symmetry_Int_Tables_number   1
_chemical_formula_structural   TbDy3Ni2(B8Rh)2
_chemical_formula_sum   'Tb1 Dy3 Ni2 B16 Rh2'
_cell_volume   253.38647000
_cell_formula_units_Z   1
loop_
 _symmetry_equiv_pos_site_id
 _symmetry_equiv_pos_as_xyz
  1  'x, y, z'
loop_
 _atom_site_type_symbol
 _atom_site_label
 _atom_site_symmetry_multiplicity
 _atom_site_fract_x
 _atom_site_fract_y
 _atom_site_fract_z
 _atom_site_occupancy
  Tb  Tb0  1  0.791179  0.791180  0.999999  1
  Dy  Dy1  1  0.208889  0.208889  0.000001  1
  Dy  Dy2  1  0.751214  0.251213  0.500000  1
  Dy  Dy3  1  0.248779  0.748780  0.500000  1
  Ni  Ni4  1  0.499991  0.744657  0.244671  1
  Ni  Ni5  1  0.499987  0.255319  0.755327  1
  B  B6  1  0.273300  0.108699  0.381981  1
  B  B7  1  0.726720  0.891321  0.618019  1
  B  B8  1  0.273307  0.891321  0.164606  1
  B  B9  1  0.726714  0.108699  0.835394  1
  B  B10  1  0.111013  0.730275  0.841265  1
  B  B11  1  0.889012  0.269750  0.158737  1
  B  B12  1  0.111015  0.269748  0.380738  1
  B  B13  1  0.889010  0.730277  0.619263  1
  B  B14  1  0.114525  0.109003  0.527608  1
  B  B15  1  0.581394  0.586913  0.472390  1
  B  B16  1  0.114528  0.586921  0.005520  1
  B  B17  1  0.581403  0.109008  0.994481  1
  B  B18  1  0.885494  0.891016  0.472448  1
  B  B19  1  0.418569  0.413052  0.527555  1
  B  B20  1  0.885493  0.413044  0.994483  1
  B  B21  1  0.418559  0.891010  0.005518  1
  Rh  Rh22  1  0.276256  0.499949  0.776297  1
  Rh  Rh23  1  0.723650  0.499954  0.223700  1
