# generated using pymatgen
data_Lu4FeI4
_symmetry_space_group_name_H-M   'P 1'
_cell_length_a   11.69211796
_cell_length_b   11.69211863
_cell_length_c   5.90963735
_cell_angle_alpha   89.84165457
_cell_angle_beta   89.84165202
_cell_angle_gamma   90.21150745
_symmetry_Int_Tables_number   1
_chemical_formula_structural   Lu4FeI4
_chemical_formula_sum   'Lu8 Fe2 I8'
_cell_volume   807.86899956
_cell_formula_units_Z   2
loop_
 _symmetry_equiv_pos_site_id
 _symmetry_equiv_pos_as_xyz
  1  'x, y, z'
loop_
 _atom_site_type_symbol
 _atom_site_label
 _atom_site_symmetry_multiplicity
 _atom_site_fract_x
 _atom_site_fract_y
 _atom_site_fract_z
 _atom_site_occupancy
  Lu  Lu0  1  0.180563  0.925746  0.999400  1
  Lu  Lu1  1  0.819437  0.074254  0.000600  1
  Lu  Lu2  1  0.074254  0.819437  0.500600  1
  Lu  Lu3  1  0.925746  0.180563  0.499400  1
  Lu  Lu4  1  0.819187  0.925082  0.501294  1
  Lu  Lu5  1  0.180813  0.074918  0.498706  1
  Lu  Lu6  1  0.074918  0.180813  0.998706  1
  Lu  Lu7  1  0.925082  0.819187  0.001294  1
  Fe  Fe8  1  0.999708  0.000292  0.250000  1
  Fe  Fe9  1  0.000292  0.999708  0.750000  1
  I  I10  1  0.337065  0.860043  0.500481  1
  I  I11  1  0.662935  0.139957  0.499519  1
  I  I12  1  0.139957  0.662935  0.999519  1
  I  I13  1  0.860043  0.337065  0.000481  1
  I  I14  1  0.337716  0.141079  0.995367  1
  I  I15  1  0.662284  0.858921  0.004633  1
  I  I16  1  0.858921  0.662284  0.504633  1
  I  I17  1  0.141079  0.337716  0.495367  1
