# generated using pymatgen
data_Sc12Mn2CoSi12Pt
_symmetry_space_group_name_H-M   'P 1'
_cell_length_a   3.98570100
_cell_length_b   10.20074741
_cell_length_c   11.68792399
_cell_angle_alpha   89.83605761
_cell_angle_beta   89.99994184
_cell_angle_gamma   89.99999434
_symmetry_Int_Tables_number   1
_chemical_formula_structural   Sc12Mn2CoSi12Pt
_chemical_formula_sum   'Sc12 Mn2 Co1 Si12 Pt1'
_cell_volume   475.19549013
_cell_formula_units_Z   1
loop_
 _symmetry_equiv_pos_site_id
 _symmetry_equiv_pos_as_xyz
  1  'x, y, z'
loop_
 _atom_site_type_symbol
 _atom_site_label
 _atom_site_symmetry_multiplicity
 _atom_site_fract_x
 _atom_site_fract_y
 _atom_site_fract_z
 _atom_site_occupancy
  Sc  Sc0  1  0.250000  0.880001  0.022839  1
  Sc  Sc1  1  0.250000  0.619830  0.521985  1
  Sc  Sc2  1  0.750002  0.125780  0.979957  1
  Sc  Sc3  1  0.750000  0.379512  0.475881  1
  Sc  Sc4  1  0.249997  0.920969  0.604282  1
  Sc  Sc5  1  0.250000  0.578755  0.101097  1
  Sc  Sc6  1  0.749999  0.078060  0.400491  1
  Sc  Sc7  1  0.750002  0.422749  0.899756  1
  Sc  Sc8  1  0.250000  0.650976  0.798996  1
  Sc  Sc9  1  0.249999  0.838561  0.300013  1
  Sc  Sc10  1  0.750001  0.339581  0.199862  1
  Sc  Sc11  1  0.750002  0.165846  0.698373  1
  Mn  Mn12  1  0.250000  0.113233  0.175998  1
  Mn  Mn13  1  0.749999  0.613217  0.324177  1
  Co  Co14  1  0.250000  0.388530  0.676737  1
  Si  Si15  1  0.250000  0.022433  0.823893  1
  Si  Si16  1  0.250000  0.485623  0.322057  1
  Si  Si17  1  0.750000  0.985564  0.177711  1
  Si  Si18  1  0.750000  0.503336  0.678073  1
  Si  Si19  1  0.250000  0.257373  0.837713  1
  Si  Si20  1  0.250000  0.246724  0.341402  1
  Si  Si21  1  0.750001  0.747304  0.158908  1
  Si  Si22  1  0.750000  0.743638  0.655913  1
  Si  Si23  1  0.250000  0.200154  0.545663  1
  Si  Si24  1  0.250000  0.306873  0.043582  1
  Si  Si25  1  0.750000  0.805446  0.456067  1
  Si  Si26  1  0.750000  0.692010  0.957095  1
  Pt  Pt27  1  0.750000  0.887924  0.821477  1
