# generated using pymatgen
data_Er2CdNi7B2
_symmetry_space_group_name_H-M   'P 1'
_cell_length_a   4.99175200
_cell_length_b   4.99175196
_cell_length_c   14.17538900
_cell_angle_alpha   90.00000000
_cell_angle_beta   90.00000000
_cell_angle_gamma   120.00000024
_symmetry_Int_Tables_number   1
_chemical_formula_structural   Er2CdNi7B2
_chemical_formula_sum   'Er4 Cd2 Ni14 B4'
_cell_volume   305.89446193
_cell_formula_units_Z   2
loop_
 _symmetry_equiv_pos_site_id
 _symmetry_equiv_pos_as_xyz
  1  'x, y, z'
loop_
 _atom_site_type_symbol
 _atom_site_label
 _atom_site_symmetry_multiplicity
 _atom_site_fract_x
 _atom_site_fract_y
 _atom_site_fract_z
 _atom_site_occupancy
  Er  Er0  1  0.666667  0.333333  0.529349  1
  Er  Er1  1  0.333333  0.666667  0.029349  1
  Er  Er2  1  0.666667  0.333333  0.756359  1
  Er  Er3  1  0.333333  0.666667  0.256359  1
  Cd  Cd4  1  0.333333  0.666667  0.468044  1
  Cd  Cd5  1  0.666667  0.333333  0.968044  1
  Ni  Ni6  1  0.834437  0.165563  0.351670  1
  Ni  Ni7  1  0.834437  0.668874  0.351670  1
  Ni  Ni8  1  0.000000  0.000000  0.999538  1
  Ni  Ni9  1  0.000000  0.000000  0.499538  1
  Ni  Ni10  1  0.834161  0.668323  0.148217  1
  Ni  Ni11  1  0.165839  0.834161  0.648217  1
  Ni  Ni12  1  0.668323  0.834161  0.648217  1
  Ni  Ni13  1  0.331677  0.165839  0.148217  1
  Ni  Ni14  1  0.834161  0.165839  0.148217  1
  Ni  Ni15  1  0.165563  0.331126  0.851670  1
  Ni  Ni16  1  0.165563  0.834437  0.851670  1
  Ni  Ni17  1  0.165839  0.331677  0.648217  1
  Ni  Ni18  1  0.668874  0.834437  0.851670  1
  Ni  Ni19  1  0.331126  0.165563  0.351670  1
  B  B20  1  0.666667  0.333333  0.249710  1
  B  B21  1  0.333333  0.666667  0.749710  1
  B  B22  1  0.000000  0.000000  0.747339  1
  B  B23  1  0.000000  0.000000  0.247339  1
