# generated using pymatgen
data_Yb7Pu(Si4Mo3)4
_symmetry_space_group_name_H-M   'P 1'
_cell_length_a   6.73187376
_cell_length_b   6.92868514
_cell_length_c   13.02604243
_cell_angle_alpha   89.99091870
_cell_angle_beta   90.07011588
_cell_angle_gamma   89.86075312
_symmetry_Int_Tables_number   1
_chemical_formula_structural   Yb7Pu(Si4Mo3)4
_chemical_formula_sum   'Yb7 Pu1 Si16 Mo12'
_cell_volume   607.57187862
_cell_formula_units_Z   1
loop_
 _symmetry_equiv_pos_site_id
 _symmetry_equiv_pos_as_xyz
  1  'x, y, z'
loop_
 _atom_site_type_symbol
 _atom_site_label
 _atom_site_symmetry_multiplicity
 _atom_site_fract_x
 _atom_site_fract_y
 _atom_site_fract_z
 _atom_site_occupancy
  Yb  Yb0  1  0.498292  0.334629  0.090250  1
  Yb  Yb1  1  0.997807  0.165189  0.409583  1
  Yb  Yb2  1  0.501354  0.666039  0.590787  1
  Yb  Yb3  1  0.002155  0.833741  0.909051  1
  Yb  Yb4  1  0.500630  0.666794  0.908830  1
  Yb  Yb5  1  0.001459  0.833132  0.590723  1
  Yb  Yb6  1  0.498062  0.335278  0.410309  1
  Pu  Pu7  1  0.998140  0.169495  0.094205  1
  Si  Si8  1  0.658079  0.042301  0.545384  1
  Si  Si9  1  0.158890  0.457276  0.955509  1
  Si  Si10  1  0.340296  0.957660  0.044779  1
  Si  Si11  1  0.842364  0.542448  0.454120  1
  Si  Si12  1  0.342363  0.957184  0.453976  1
  Si  Si13  1  0.841814  0.544485  0.044645  1
  Si  Si14  1  0.658354  0.042035  0.954700  1
  Si  Si15  1  0.157775  0.457290  0.545579  1
  Si  Si16  1  0.534472  0.373963  0.750156  1
  Si  Si17  1  0.035695  0.124478  0.749414  1
  Si  Si18  1  0.465078  0.628800  0.248999  1
  Si  Si19  1  0.964781  0.872257  0.249621  1
  Si  Si20  1  0.800345  0.630741  0.750190  1
  Si  Si21  1  0.301428  0.867999  0.749969  1
  Si  Si22  1  0.201250  0.369609  0.250684  1
  Si  Si23  1  0.695730  0.131303  0.251540  1
  Mo  Mo24  1  0.835315  0.330310  0.627908  1
  Mo  Mo25  1  0.334500  0.167811  0.872985  1
  Mo  Mo26  1  0.166677  0.667726  0.126551  1
  Mo  Mo27  1  0.665928  0.830296  0.372199  1
  Mo  Mo28  1  0.164760  0.669126  0.371462  1
  Mo  Mo29  1  0.668232  0.833792  0.126835  1
  Mo  Mo30  1  0.836450  0.328989  0.873450  1
  Mo  Mo31  1  0.334273  0.168539  0.627758  1
  Mo  Mo32  1  0.661812  0.009081  0.750099  1
  Mo  Mo33  1  0.161225  0.490435  0.750532  1
  Mo  Mo34  1  0.336573  0.993995  0.248979  1
  Mo  Mo35  1  0.837641  0.505773  0.248242  1
