# generated using pymatgen
data_TbY2Hf(Co5P3)4
_symmetry_space_group_name_H-M   'P 1'
_cell_length_a   3.63695400
_cell_length_b   10.24136838
_cell_length_c   11.70026708
_cell_angle_alpha   90.08007083
_cell_angle_beta   90.00000000
_cell_angle_gamma   90.00000000
_symmetry_Int_Tables_number   1
_chemical_formula_structural   TbY2Hf(Co5P3)4
_chemical_formula_sum   'Tb1 Y2 Hf1 Co20 P12'
_cell_volume   435.80393510
_cell_formula_units_Z   1
loop_
 _symmetry_equiv_pos_site_id
 _symmetry_equiv_pos_as_xyz
  1  'x, y, z'
loop_
 _atom_site_type_symbol
 _atom_site_label
 _atom_site_symmetry_multiplicity
 _atom_site_fract_x
 _atom_site_fract_y
 _atom_site_fract_z
 _atom_site_occupancy
  Tb  Tb0  1  0.750000  0.082348  0.797125  1
  Y  Y1  1  0.750000  0.416893  0.297135  1
  Y  Y2  1  0.250000  0.583225  0.702810  1
  Hf  Hf3  1  0.250000  0.918371  0.200569  1
  Co  Co4  1  0.250000  0.783007  0.492613  1
  Co  Co5  1  0.750000  0.216234  0.506329  1
  Co  Co6  1  0.750000  0.282117  0.010158  1
  Co  Co7  1  0.250000  0.718480  0.993722  1
  Co  Co8  1  0.250000  0.089635  0.991407  1
  Co  Co9  1  0.750000  0.906178  0.018074  1
  Co  Co10  1  0.750000  0.593263  0.511173  1
  Co  Co11  1  0.250000  0.406790  0.488584  1
  Co  Co12  1  0.250000  0.277904  0.676820  1
  Co  Co13  1  0.750000  0.725038  0.321895  1
  Co  Co14  1  0.750000  0.779823  0.824437  1
  Co  Co15  1  0.250000  0.220673  0.177571  1
  Co  Co16  1  0.250000  0.620872  0.199575  1
  Co  Co17  1  0.750000  0.382428  0.802267  1
  Co  Co18  1  0.750000  0.112346  0.297857  1
  Co  Co19  1  0.250000  0.883057  0.697670  1
  Co  Co20  1  0.250000  0.029184  0.426503  1
  Co  Co21  1  0.750000  0.967282  0.564481  1
  Co  Co22  1  0.750000  0.535050  0.069407  1
  Co  Co23  1  0.250000  0.468681  0.932621  1
  P  P24  1  0.250000  0.081136  0.608958  1
  P  P25  1  0.750000  0.918804  0.382777  1
  P  P26  1  0.750000  0.582084  0.888647  1
  P  P27  1  0.250000  0.419283  0.112582  1
  P  P28  1  0.250000  0.228868  0.370803  1
  P  P29  1  0.750000  0.771330  0.629405  1
  P  P30  1  0.750000  0.733429  0.132399  1
  P  P31  1  0.250000  0.270555  0.871942  1
  P  P32  1  0.250000  0.897583  0.891030  1
  P  P33  1  0.750000  0.098772  0.110056  1
  P  P34  1  0.750000  0.397296  0.609007  1
  P  P35  1  0.250000  0.601986  0.391596  1
