# generated using pymatgen
data_CaLa15(CdRu)4
_symmetry_space_group_name_H-M   'P 1'
_cell_length_a   10.07989818
_cell_length_b   10.07989785
_cell_length_c   10.10379900
_cell_angle_alpha   59.92153458
_cell_angle_beta   59.92153566
_cell_angle_gamma   59.61166069
_symmetry_Int_Tables_number   1
_chemical_formula_structural   CaLa15(CdRu)4
_chemical_formula_sum   'Ca1 La15 Cd4 Ru4'
_cell_volume   722.89973508
_cell_formula_units_Z   1
loop_
 _symmetry_equiv_pos_site_id
 _symmetry_equiv_pos_as_xyz
  1  'x, y, z'
loop_
 _atom_site_type_symbol
 _atom_site_label
 _atom_site_symmetry_multiplicity
 _atom_site_fract_x
 _atom_site_fract_y
 _atom_site_fract_z
 _atom_site_occupancy
  Ca  Ca0  1  0.939565  0.939565  0.560435  1
  La  La1  1  0.345051  0.345051  0.346339  1
  La  La2  1  0.345051  0.345051  0.963557  1
  La  La3  1  0.345332  0.962140  0.346264  1
  La  La4  1  0.962140  0.345332  0.346264  1
  La  La5  1  0.810349  0.188138  0.190491  1
  La  La6  1  0.188138  0.810349  0.811021  1
  La  La7  1  0.188138  0.810349  0.190491  1
  La  La8  1  0.810349  0.188138  0.811021  1
  La  La9  1  0.188162  0.188162  0.811838  1
  La  La10  1  0.811444  0.811444  0.188556  1
  La  La11  1  0.940476  0.559842  0.560326  1
  La  La12  1  0.559842  0.940476  0.939355  1
  La  La13  1  0.559842  0.940476  0.560326  1
  La  La14  1  0.940476  0.559842  0.939355  1
  La  La15  1  0.561113  0.561113  0.938887  1
  Cd  Cd16  1  0.578812  0.578812  0.578557  1
  Cd  Cd17  1  0.578812  0.578812  0.263816  1
  Cd  Cd18  1  0.579079  0.262670  0.579125  1
  Cd  Cd19  1  0.262670  0.579079  0.579125  1
  Ru  Ru20  1  0.138277  0.138277  0.133097  1
  Ru  Ru21  1  0.138277  0.138277  0.590350  1
  Ru  Ru22  1  0.138625  0.589977  0.135699  1
  Ru  Ru23  1  0.589977  0.138625  0.135699  1
