# generated using pymatgen
data_Ho6Si4Ir3Pt
_symmetry_space_group_name_H-M   'P 1'
_cell_length_a   5.57709661
_cell_length_b   5.57709688
_cell_length_c   13.24287500
_cell_angle_alpha   90.00000000
_cell_angle_beta   90.00000000
_cell_angle_gamma   137.03479382
_symmetry_Int_Tables_number   1
_chemical_formula_structural   Ho6Si4Ir3Pt
_chemical_formula_sum   'Ho6 Si4 Ir3 Pt1'
_cell_volume   280.73656106
_cell_formula_units_Z   1
loop_
 _symmetry_equiv_pos_site_id
 _symmetry_equiv_pos_as_xyz
  1  'x, y, z'
loop_
 _atom_site_type_symbol
 _atom_site_label
 _atom_site_symmetry_multiplicity
 _atom_site_fract_x
 _atom_site_fract_y
 _atom_site_fract_z
 _atom_site_occupancy
  Ho  Ho0  1  0.775175  0.224825  0.604864  1
  Ho  Ho1  1  0.517313  0.482687  0.250000  1
  Ho  Ho2  1  0.224158  0.775842  0.398345  1
  Ho  Ho3  1  0.775175  0.224825  0.895136  1
  Ho  Ho4  1  0.483463  0.516537  0.750000  1
  Ho  Ho5  1  0.224158  0.775842  0.101655  1
  Si  Si6  1  0.062466  0.937534  0.590757  1
  Si  Si7  1  0.062466  0.937534  0.909243  1
  Si  Si8  1  0.938580  0.061420  0.411544  1
  Si  Si9  1  0.938580  0.061420  0.088456  1
  Ir  Ir10  1  0.189987  0.810013  0.750000  1
  Ir  Ir11  1  0.501322  0.498678  0.000094  1
  Ir  Ir12  1  0.501322  0.498678  0.499906  1
  Pt  Pt13  1  0.805834  0.194166  0.250000  1
