# generated using pymatgen
data_Cs4H11Os2
_symmetry_space_group_name_H-M   'P 1'
_cell_length_a   6.58892044
_cell_length_b   9.42574029
_cell_length_c   11.19853494
_cell_angle_alpha   69.11856916
_cell_angle_beta   87.43181816
_cell_angle_gamma   86.95634559
_symmetry_Int_Tables_number   1
_chemical_formula_structural   Cs4H11Os2
_chemical_formula_sum   'Cs8 H22 Os4'
_cell_volume   648.64394657
_cell_formula_units_Z   2
loop_
 _symmetry_equiv_pos_site_id
 _symmetry_equiv_pos_as_xyz
  1  'x, y, z'
loop_
 _atom_site_type_symbol
 _atom_site_label
 _atom_site_symmetry_multiplicity
 _atom_site_fract_x
 _atom_site_fract_y
 _atom_site_fract_z
 _atom_site_occupancy
  Cs  Cs0  1  0.744421  0.350744  0.501488  1
  Cs  Cs1  1  0.255551  0.649249  0.498518  1
  Cs  Cs2  1  0.760688  0.471490  0.115940  1
  Cs  Cs3  1  0.239294  0.528506  0.884062  1
  Cs  Cs4  1  0.765520  0.968295  0.385219  1
  Cs  Cs5  1  0.234514  0.031698  0.614781  1
  Cs  Cs6  1  0.714197  0.163186  0.940167  1
  Cs  Cs7  1  0.285801  0.836820  0.059822  1
  H  H8  1  0.585932  0.782269  0.670064  1
  H  H9  1  0.414078  0.217753  0.329930  1
  H  H10  1  0.580373  0.472534  0.716283  1
  H  H11  1  0.419591  0.527474  0.283717  1
  H  H12  1  0.703377  0.009532  0.636828  1
  H  H13  1  0.296675  0.990479  0.363175  1
  H  H14  1  0.645621  0.662692  0.844590  1
  H  H15  1  0.354372  0.337316  0.155407  1
  H  H16  1  0.930263  0.752358  0.708980  1
  H  H17  1  0.069732  0.247629  0.291015  1
  H  H18  1  0.729615  0.647274  0.552182  1
  H  H19  1  0.270357  0.352719  0.447814  1
  H  H20  1  0.881969  0.983906  0.787441  1
  H  H21  1  0.118075  0.016074  0.212573  1
  H  H22  1  0.775344  0.808352  0.930717  1
  H  H23  1  0.224687  0.191636  0.069285  1
  H  H24  1  0.818005  0.471348  0.851820  1
  H  H25  1  0.181973  0.528653  0.148174  1
  H  H26  1  0.917886  0.486319  0.677724  1
  H  H27  1  0.082074  0.513667  0.322275  1
  H  H28  1  0.539314  0.956974  0.818681  1
  H  H29  1  0.460720  0.043044  0.181323  1
  Os  Os30  1  0.727330  0.857335  0.773715  1
  Os  Os31  1  0.272676  0.142665  0.226287  1
  Os  Os32  1  0.747709  0.604038  0.712518  1
  Os  Os33  1  0.252271  0.395967  0.287480  1
