# generated using pymatgen
data_Ho5Tl2In2PdAu
_symmetry_space_group_name_H-M   'P 1'
_cell_length_a   3.64566600
_cell_length_b   8.19828630
_cell_length_c   18.38208454
_cell_angle_alpha   89.95436215
_cell_angle_beta   90.00000000
_cell_angle_gamma   90.00000000
_symmetry_Int_Tables_number   1
_chemical_formula_structural   Ho5Tl2In2PdAu
_chemical_formula_sum   'Ho10 Tl4 In4 Pd2 Au2'
_cell_volume   549.40749530
_cell_formula_units_Z   2
loop_
 _symmetry_equiv_pos_site_id
 _symmetry_equiv_pos_as_xyz
  1  'x, y, z'
loop_
 _atom_site_type_symbol
 _atom_site_label
 _atom_site_symmetry_multiplicity
 _atom_site_fract_x
 _atom_site_fract_y
 _atom_site_fract_z
 _atom_site_occupancy
  Ho  Ho0  1  0.000000  0.500000  0.500000  1
  Ho  Ho1  1  0.000000  0.000000  0.000000  1
  Ho  Ho2  1  0.000000  0.747165  0.283347  1
  Ho  Ho3  1  0.000000  0.252835  0.716653  1
  Ho  Ho4  1  0.000000  0.766879  0.779919  1
  Ho  Ho5  1  0.000000  0.233121  0.220081  1
  Ho  Ho6  1  0.000000  0.618890  0.082029  1
  Ho  Ho7  1  0.000000  0.381110  0.917971  1
  Ho  Ho8  1  0.000000  0.886293  0.583650  1
  Ho  Ho9  1  0.000000  0.113707  0.416350  1
  Tl  Tl10  1  0.500000  0.712380  0.933565  1
  Tl  Tl11  1  0.500000  0.287620  0.066435  1
  Tl  Tl12  1  0.500000  0.789422  0.433617  1
  Tl  Tl13  1  0.500000  0.210578  0.566383  1
  In  In14  1  0.500000  0.585532  0.647378  1
  In  In15  1  0.500000  0.414468  0.352622  1
  In  In16  1  0.500000  0.918739  0.148760  1
  In  In17  1  0.500000  0.081261  0.851240  1
  Pd  Pd18  1  0.500000  0.971254  0.697272  1
  Pd  Pd19  1  0.500000  0.028746  0.302728  1
  Au  Au20  1  0.500000  0.529926  0.198988  1
  Au  Au21  1  0.500000  0.470074  0.801012  1
