# generated using pymatgen
data_TbNd19(Ir5Au)2
_symmetry_space_group_name_H-M   'P 1'
_cell_length_a   11.42114412
_cell_length_b   11.33032376
_cell_length_c   6.54561900
_cell_angle_alpha   90.02044991
_cell_angle_beta   89.86625623
_cell_angle_gamma   89.95809620
_symmetry_Int_Tables_number   1
_chemical_formula_structural   TbNd19(Ir5Au)2
_chemical_formula_sum   'Tb1 Nd19 Ir10 Au2'
_cell_volume   847.03494334
_cell_formula_units_Z   1
loop_
 _symmetry_equiv_pos_site_id
 _symmetry_equiv_pos_as_xyz
  1  'x, y, z'
loop_
 _atom_site_type_symbol
 _atom_site_label
 _atom_site_symmetry_multiplicity
 _atom_site_fract_x
 _atom_site_fract_y
 _atom_site_fract_z
 _atom_site_occupancy
  Tb  Tb0  1  0.499356  0.501731  0.500926  1
  Nd  Nd1  1  0.292591  0.089905  0.377440  1
  Nd  Nd2  1  0.292637  0.910061  0.876986  1
  Nd  Nd3  1  0.697413  0.093323  0.865127  1
  Nd  Nd4  1  0.697529  0.906488  0.364689  1
  Nd  Nd5  1  0.579372  0.788200  0.880250  1
  Nd  Nd6  1  0.579307  0.212600  0.381621  1
  Nd  Nd7  1  0.407223  0.790029  0.380643  1
  Nd  Nd8  1  0.406604  0.209327  0.880717  1
  Nd  Nd9  1  0.211566  0.410059  0.617737  1
  Nd  Nd10  1  0.211112  0.590628  0.117677  1
  Nd  Nd11  1  0.789191  0.418440  0.119524  1
  Nd  Nd12  1  0.788619  0.581302  0.618853  1
  Nd  Nd13  1  0.916242  0.704229  0.136548  1
  Nd  Nd14  1  0.916050  0.295596  0.636416  1
  Nd  Nd15  1  0.098122  0.702073  0.621419  1
  Nd  Nd16  1  0.097932  0.298280  0.121490  1
  Nd  Nd17  1  0.008807  0.998300  0.499166  1
  Nd  Nd18  1  0.009396  0.001482  0.999187  1
  Nd  Nd19  1  0.499442  0.498237  0.000998  1
  Ir  Ir20  1  0.154095  0.154715  0.751523  1
  Ir  Ir21  1  0.153903  0.845062  0.250971  1
  Ir  Ir22  1  0.653558  0.349932  0.745455  1
  Ir  Ir23  1  0.652552  0.650368  0.253186  1
  Ir  Ir24  1  0.350387  0.347711  0.255077  1
  Ir  Ir25  1  0.350262  0.651783  0.748001  1
  Ir  Ir26  1  0.500417  0.999809  0.115873  1
  Ir  Ir27  1  0.500550  0.000187  0.616270  1
  Ir  Ir28  1  0.999368  0.501694  0.883883  1
  Ir  Ir29  1  0.999371  0.498367  0.383547  1
  Au  Au30  1  0.843607  0.155357  0.249245  1
  Au  Au31  1  0.843419  0.844725  0.749560  1
