# generated using pymatgen
data_Dy20Ir5Os4Rh3
_symmetry_space_group_name_H-M   'P 1'
_cell_length_a   10.86511536
_cell_length_b   10.86511536
_cell_length_c   6.41657212
_cell_angle_alpha   90.01554965
_cell_angle_beta   90.01554965
_cell_angle_gamma   90.08877087
_symmetry_Int_Tables_number   1
_chemical_formula_structural   Dy20Ir5Os4Rh3
_chemical_formula_sum   'Dy20 Ir5 Os4 Rh3'
_cell_volume   757.48006913
_cell_formula_units_Z   1
loop_
 _symmetry_equiv_pos_site_id
 _symmetry_equiv_pos_as_xyz
  1  'x, y, z'
loop_
 _atom_site_type_symbol
 _atom_site_label
 _atom_site_symmetry_multiplicity
 _atom_site_fract_x
 _atom_site_fract_y
 _atom_site_fract_z
 _atom_site_occupancy
  Dy  Dy0  1  0.294126  0.085741  0.376456  1
  Dy  Dy1  1  0.293924  0.912070  0.878003  1
  Dy  Dy2  1  0.705411  0.087415  0.877032  1
  Dy  Dy3  1  0.705109  0.912660  0.376810  1
  Dy  Dy4  1  0.585470  0.793526  0.878388  1
  Dy  Dy5  1  0.585692  0.206509  0.377847  1
  Dy  Dy6  1  0.413053  0.793554  0.377608  1
  Dy  Dy7  1  0.414472  0.206412  0.877966  1
  Dy  Dy8  1  0.206474  0.414530  0.621612  1
  Dy  Dy9  1  0.206446  0.586947  0.122392  1
  Dy  Dy10  1  0.793491  0.414308  0.122153  1
  Dy  Dy11  1  0.793588  0.585528  0.622034  1
  Dy  Dy12  1  0.914259  0.705874  0.123544  1
  Dy  Dy13  1  0.912585  0.294589  0.622968  1
  Dy  Dy14  1  0.087930  0.706076  0.621997  1
  Dy  Dy15  1  0.087340  0.294891  0.123190  1
  Dy  Dy16  1  0.000162  0.999885  0.499753  1
  Dy  Dy17  1  0.000115  0.999838  0.000247  1
  Dy  Dy18  1  0.500022  0.500019  0.999981  1
  Dy  Dy19  1  0.499981  0.499978  0.500019  1
  Ir  Ir20  1  0.151321  0.848679  0.250000  1
  Ir  Ir21  1  0.652259  0.347741  0.750000  1
  Ir  Ir22  1  0.652118  0.651996  0.250095  1
  Ir  Ir23  1  0.348004  0.347882  0.249905  1
  Ir  Ir24  1  0.347978  0.652022  0.750000  1
  Os  Os25  1  0.500497  0.000303  0.123565  1
  Os  Os26  1  0.500366  0.000269  0.624134  1
  Os  Os27  1  0.999731  0.499634  0.875866  1
  Os  Os28  1  0.999697  0.499503  0.376435  1
  Rh  Rh29  1  0.848870  0.151130  0.250000  1
  Rh  Rh30  1  0.848363  0.848853  0.749871  1
  Rh  Rh31  1  0.151147  0.151637  0.750129  1
