# generated using pymatgen
data_Nd5(In2Ir)2
_symmetry_space_group_name_H-M   'P 1'
_cell_length_a   3.81803500
_cell_length_b   8.24371800
_cell_length_c   18.65820500
_cell_angle_alpha   90.00000000
_cell_angle_beta   90.00000000
_cell_angle_gamma   90.00000000
_symmetry_Int_Tables_number   1
_chemical_formula_structural   Nd5(In2Ir)2
_chemical_formula_sum   'Nd10 In8 Ir4'
_cell_volume   587.26334265
_cell_formula_units_Z   2
loop_
 _symmetry_equiv_pos_site_id
 _symmetry_equiv_pos_as_xyz
  1  'x, y, z'
loop_
 _atom_site_type_symbol
 _atom_site_label
 _atom_site_symmetry_multiplicity
 _atom_site_fract_x
 _atom_site_fract_y
 _atom_site_fract_z
 _atom_site_occupancy
  Nd  Nd0  1  0.000000  0.114003  0.410558  1
  Nd  Nd1  1  0.000000  0.885997  0.589442  1
  Nd  Nd2  1  0.000000  0.385997  0.910558  1
  Nd  Nd3  1  0.000000  0.614003  0.089442  1
  Nd  Nd4  1  0.000000  0.241995  0.221884  1
  Nd  Nd5  1  0.000000  0.758005  0.778116  1
  Nd  Nd6  1  0.000000  0.258005  0.721884  1
  Nd  Nd7  1  0.000000  0.741995  0.278116  1
  Nd  Nd8  1  0.000000  0.000000  0.000000  1
  Nd  Nd9  1  0.000000  0.500000  0.500000  1
  In  In10  1  0.500000  0.435100  0.350660  1
  In  In11  1  0.500000  0.564900  0.649340  1
  In  In12  1  0.500000  0.064900  0.850660  1
  In  In13  1  0.500000  0.935100  0.149340  1
  In  In14  1  0.500000  0.289218  0.069823  1
  In  In15  1  0.500000  0.710782  0.930177  1
  In  In16  1  0.500000  0.210782  0.569823  1
  In  In17  1  0.500000  0.789218  0.430177  1
  Ir  Ir18  1  0.500000  0.009195  0.304912  1
  Ir  Ir19  1  0.500000  0.990805  0.695088  1
  Ir  Ir20  1  0.500000  0.490805  0.804912  1
  Ir  Ir21  1  0.500000  0.509195  0.195088  1
