# generated using pymatgen
data_DyTh3(CdPd2)2
_symmetry_space_group_name_H-M   'P 1'
_cell_length_a   7.90292163
_cell_length_b   7.90292163
_cell_length_c   3.81590200
_cell_angle_alpha   90.00000000
_cell_angle_beta   90.00000000
_cell_angle_gamma   89.39365493
_symmetry_Int_Tables_number   1
_chemical_formula_structural   DyTh3(CdPd2)2
_chemical_formula_sum   'Dy1 Th3 Cd2 Pd4'
_cell_volume   238.31327996
_cell_formula_units_Z   1
loop_
 _symmetry_equiv_pos_site_id
 _symmetry_equiv_pos_as_xyz
  1  'x, y, z'
loop_
 _atom_site_type_symbol
 _atom_site_label
 _atom_site_symmetry_multiplicity
 _atom_site_fract_x
 _atom_site_fract_y
 _atom_site_fract_z
 _atom_site_occupancy
  Dy  Dy0  1  0.673826  0.173826  0.500000  1
  Th  Th1  1  0.329827  0.829827  0.500000  1
  Th  Th2  1  0.824181  0.671616  0.500000  1
  Th  Th3  1  0.171616  0.324181  0.500000  1
  Cd  Cd4  1  0.994660  0.002165  0.000000  1
  Cd  Cd5  1  0.502165  0.494660  0.000000  1
  Pd  Pd6  1  0.370973  0.127853  0.000000  1
  Pd  Pd7  1  0.874989  0.374989  0.000000  1
  Pd  Pd8  1  0.129910  0.629910  0.000000  1
  Pd  Pd9  1  0.627853  0.870973  0.000000  1
