# generated using pymatgen
data_LiLa4CoSi6
_symmetry_space_group_name_H-M   'P 1'
_cell_length_a   8.27713500
_cell_length_b   8.27713459
_cell_length_c   4.33321500
_cell_angle_alpha   90.00000000
_cell_angle_beta   90.00000000
_cell_angle_gamma   119.99999763
_symmetry_Int_Tables_number   1
_chemical_formula_structural   LiLa4CoSi6
_chemical_formula_sum   'Li1 La4 Co1 Si6'
_cell_volume   257.09932462
_cell_formula_units_Z   1
loop_
 _symmetry_equiv_pos_site_id
 _symmetry_equiv_pos_as_xyz
  1  'x, y, z'
loop_
 _atom_site_type_symbol
 _atom_site_label
 _atom_site_symmetry_multiplicity
 _atom_site_fract_x
 _atom_site_fract_y
 _atom_site_fract_z
 _atom_site_occupancy
  Li  Li0  1  0.333333  0.666667  0.500000  1
  La  La1  1  0.507515  0.492485  0.000000  1
  La  La2  1  0.984969  0.492485  0.000000  1
  La  La3  1  0.507515  0.015031  0.000000  1
  La  La4  1  0.000000  0.000000  0.000000  1
  Co  Co5  1  0.666667  0.333333  0.500000  1
  Si  Si6  1  0.828486  0.656973  0.500000  1
  Si  Si7  1  0.163643  0.836357  0.500000  1
  Si  Si8  1  0.672714  0.836357  0.500000  1
  Si  Si9  1  0.163643  0.327286  0.500000  1
  Si  Si10  1  0.828486  0.171514  0.500000  1
  Si  Si11  1  0.343027  0.171514  0.500000  1
