# generated using pymatgen
data_BaCaCdP2
_symmetry_space_group_name_H-M   'P 1'
_cell_length_a   8.99931982
_cell_length_b   8.99931854
_cell_length_c   7.06915300
_cell_angle_alpha   90.00000000
_cell_angle_beta   90.00000000
_cell_angle_gamma   151.81509100
_symmetry_Int_Tables_number   1
_chemical_formula_structural   BaCaCdP2
_chemical_formula_sum   'Ba2 Ca2 Cd2 P4'
_cell_volume   270.40938620
_cell_formula_units_Z   2
loop_
 _symmetry_equiv_pos_site_id
 _symmetry_equiv_pos_as_xyz
  1  'x, y, z'
loop_
 _atom_site_type_symbol
 _atom_site_label
 _atom_site_symmetry_multiplicity
 _atom_site_fract_x
 _atom_site_fract_y
 _atom_site_fract_z
 _atom_site_occupancy
  Ba  Ba0  1  0.300049  0.699951  0.951720  1
  Ba  Ba1  1  0.699951  0.300049  0.451720  1
  Ca  Ca2  1  0.471800  0.528200  0.267652  1
  Ca  Ca3  1  0.528200  0.471800  0.767652  1
  Cd  Cd4  1  0.093501  0.906499  0.099917  1
  Cd  Cd5  1  0.906499  0.093501  0.599917  1
  P  P6  1  0.054914  0.945086  0.476871  1
  P  P7  1  0.945086  0.054914  0.976871  1
  P  P8  1  0.333425  0.666575  0.492509  1
  P  P9  1  0.666575  0.333425  0.992509  1
