# generated using pymatgen
data_Th2PtSe4
_symmetry_space_group_name_H-M   'P 1'
_cell_length_a   9.00545078
_cell_length_b   8.27734141
_cell_length_c   7.35557251
_cell_angle_alpha   70.06348956
_cell_angle_beta   59.77603537
_cell_angle_gamma   50.16046111
_symmetry_Int_Tables_number   1
_chemical_formula_structural   Th2PtSe4
_chemical_formula_sum   'Th4 Pt2 Se8'
_cell_volume   363.63172374
_cell_formula_units_Z   2
loop_
 _symmetry_equiv_pos_site_id
 _symmetry_equiv_pos_as_xyz
  1  'x, y, z'
loop_
 _atom_site_type_symbol
 _atom_site_label
 _atom_site_symmetry_multiplicity
 _atom_site_fract_x
 _atom_site_fract_y
 _atom_site_fract_z
 _atom_site_occupancy
  Th  Th0  1  0.416890  0.512125  0.187039  1
  Th  Th1  1  0.883945  0.187039  0.512125  1
  Th  Th2  1  0.062961  0.366055  0.833110  1
  Th  Th3  1  0.737875  0.833110  0.366055  1
  Pt  Pt4  1  0.220399  0.279601  0.279601  1
  Pt  Pt5  1  0.970399  0.029601  0.029601  1
  Se  Se6  1  0.695214  0.562554  0.236346  1
  Se  Se7  1  0.505885  0.236346  0.562554  1
  Se  Se8  1  0.013654  0.744115  0.554786  1
  Se  Se9  1  0.687446  0.554786  0.744115  1
  Se  Se10  1  0.144759  0.576270  0.013662  1
  Se  Se11  1  0.265309  0.013662  0.576270  1
  Se  Se12  1  0.673730  0.105241  0.984691  1
  Se  Se13  1  0.236338  0.984691  0.105241  1
