# generated using pymatgen
data_TbSc7Ti11Si16Ir
_symmetry_space_group_name_H-M   'P 1'
_cell_length_a   6.87935854
_cell_length_b   6.88120998
_cell_length_c   12.58775574
_cell_angle_alpha   90.01780066
_cell_angle_beta   89.92480636
_cell_angle_gamma   89.81211109
_symmetry_Int_Tables_number   1
_chemical_formula_structural   TbSc7Ti11Si16Ir
_chemical_formula_sum   'Tb1 Sc7 Ti11 Si16 Ir1'
_cell_volume   595.87934491
_cell_formula_units_Z   1
loop_
 _symmetry_equiv_pos_site_id
 _symmetry_equiv_pos_as_xyz
  1  'x, y, z'
loop_
 _atom_site_type_symbol
 _atom_site_label
 _atom_site_symmetry_multiplicity
 _atom_site_fract_x
 _atom_site_fract_y
 _atom_site_fract_z
 _atom_site_occupancy
  Tb  Tb0  1  0.995549  0.658872  0.031009  1
  Sc  Sc1  1  0.341447  0.003037  0.467857  1
  Sc  Sc2  1  0.497092  0.842728  0.717334  1
  Sc  Sc3  1  0.500401  0.157033  0.217500  1
  Sc  Sc4  1  0.842407  0.497063  0.282553  1
  Sc  Sc5  1  0.157491  0.500092  0.784002  1
  Sc  Sc6  1  0.656804  0.998809  0.967698  1
  Sc  Sc7  1  0.003153  0.341669  0.532438  1
  Ti  Ti8  1  0.175077  0.828696  0.248762  1
  Ti  Ti9  1  0.826752  0.174008  0.750817  1
  Ti  Ti10  1  0.673041  0.673202  0.499921  1
  Ti  Ti11  1  0.149311  0.998819  0.871999  1
  Ti  Ti12  1  0.494908  0.655279  0.124536  1
  Ti  Ti13  1  0.505031  0.352632  0.627549  1
  Ti  Ti14  1  0.654144  0.492629  0.874231  1
  Ti  Ti15  1  0.353309  0.505070  0.373723  1
  Ti  Ti16  1  0.852005  0.996467  0.375791  1
  Ti  Ti17  1  0.999789  0.149164  0.127051  1
  Ti  Ti18  1  0.995609  0.852235  0.624693  1
  Si  Si19  1  0.204027  0.139202  0.680628  1
  Si  Si20  1  0.372926  0.707275  0.926971  1
  Si  Si21  1  0.636922  0.294538  0.430704  1
  Si  Si22  1  0.698052  0.362318  0.070250  1
  Si  Si23  1  0.294259  0.636990  0.569925  1
  Si  Si24  1  0.790502  0.867391  0.183932  1
  Si  Si25  1  0.139010  0.203686  0.319919  1
  Si  Si26  1  0.860167  0.796640  0.816655  1
  Si  Si27  1  0.295598  0.959766  0.064053  1
  Si  Si28  1  0.544981  0.798730  0.317027  1
  Si  Si29  1  0.450426  0.203500  0.817622  1
  Si  Si30  1  0.798821  0.546343  0.683232  1
  Si  Si31  1  0.208245  0.447308  0.184554  1
  Si  Si32  1  0.701614  0.047358  0.565859  1
  Si  Si33  1  0.951925  0.284474  0.934572  1
  Si  Si34  1  0.047318  0.701923  0.434206  1
  Ir  Ir35  1  0.331886  0.325057  0.000427  1
