# generated using pymatgen
data_Rb8Er4Lu2BBr20
_symmetry_space_group_name_H-M   'P 1'
_cell_length_a   12.21889986
_cell_length_b   12.21889943
_cell_length_c   12.25818800
_cell_angle_alpha   59.89357853
_cell_angle_beta   59.89357967
_cell_angle_gamma   60.21284630
_symmetry_Int_Tables_number   1
_chemical_formula_structural   Rb8Er4Lu2BBr20
_chemical_formula_sum   'Rb8 Er4 Lu2 B1 Br20'
_cell_volume   1294.09595911
_cell_formula_units_Z   1
loop_
 _symmetry_equiv_pos_site_id
 _symmetry_equiv_pos_as_xyz
  1  'x, y, z'
loop_
 _atom_site_type_symbol
 _atom_site_label
 _atom_site_symmetry_multiplicity
 _atom_site_fract_x
 _atom_site_fract_y
 _atom_site_fract_z
 _atom_site_occupancy
  Rb  Rb0  1  0.360077  0.360077  0.358574  1
  Rb  Rb1  1  0.639923  0.639923  0.641426  1
  Rb  Rb2  1  0.360077  0.360077  0.921273  1
  Rb  Rb3  1  0.358574  0.921273  0.360077  1
  Rb  Rb4  1  0.639923  0.639923  0.078727  1
  Rb  Rb5  1  0.641426  0.078727  0.639923  1
  Rb  Rb6  1  0.921273  0.358574  0.360077  1
  Rb  Rb7  1  0.078727  0.641426  0.639923  1
  Er  Er8  1  0.851001  0.148999  0.148999  1
  Er  Er9  1  0.148999  0.851001  0.851001  1
  Er  Er10  1  0.148999  0.851001  0.148999  1
  Er  Er11  1  0.851001  0.148999  0.851001  1
  Lu  Lu12  1  0.148435  0.148435  0.851565  1
  Lu  Lu13  1  0.851565  0.851565  0.148435  1
  B  B14  1  0.000000  0.000000  0.000000  1
  Br  Br15  1  0.325984  0.002736  0.997264  1
  Br  Br16  1  0.674016  0.997264  0.002736  1
  Br  Br17  1  0.002736  0.325984  0.674016  1
  Br  Br18  1  0.997264  0.674016  0.325984  1
  Br  Br19  1  0.002736  0.325984  0.997264  1
  Br  Br20  1  0.674016  0.997264  0.325984  1
  Br  Br21  1  0.997264  0.674016  0.002736  1
  Br  Br22  1  0.325984  0.002736  0.674016  1
  Br  Br23  1  0.000000  0.000000  0.327634  1
  Br  Br24  1  0.000000  0.000000  0.672366  1
  Br  Br25  1  0.672366  0.327634  0.000000  1
  Br  Br26  1  0.327634  0.672366  0.000000  1
  Br  Br27  1  0.683480  0.316520  0.316520  1
  Br  Br28  1  0.316520  0.683480  0.683480  1
  Br  Br29  1  0.316520  0.683480  0.316520  1
  Br  Br30  1  0.683480  0.316520  0.683480  1
  Br  Br31  1  0.314200  0.314200  0.685800  1
  Br  Br32  1  0.685800  0.685800  0.314200  1
  Br  Br33  1  0.250000  0.250000  0.250000  1
  Br  Br34  1  0.750000  0.750000  0.750000  1
