# generated using pymatgen
data_Ba6YLuIn2O12
_symmetry_space_group_name_H-M   'P 1'
_cell_length_a   7.29660273
_cell_length_b   7.29660271
_cell_length_c   7.29660333
_cell_angle_alpha   93.07579901
_cell_angle_beta   93.07580253
_cell_angle_gamma   93.07580978
_symmetry_Int_Tables_number   1
_chemical_formula_structural   Ba6YLuIn2O12
_chemical_formula_sum   'Ba6 Y1 Lu1 In2 O12'
_cell_volume   386.73256919
_cell_formula_units_Z   1
loop_
 _symmetry_equiv_pos_site_id
 _symmetry_equiv_pos_as_xyz
  1  'x, y, z'
loop_
 _atom_site_type_symbol
 _atom_site_label
 _atom_site_symmetry_multiplicity
 _atom_site_fract_x
 _atom_site_fract_y
 _atom_site_fract_z
 _atom_site_occupancy
  Ba  Ba0  1  0.250000  0.887500  0.612500  1
  Ba  Ba1  1  0.887500  0.612500  0.250000  1
  Ba  Ba2  1  0.750000  0.111237  0.388763  1
  Ba  Ba3  1  0.388763  0.750000  0.111237  1
  Ba  Ba4  1  0.111237  0.388763  0.750000  1
  Ba  Ba5  1  0.612500  0.250000  0.887500  1
  Y  Y6  1  0.250000  0.250000  0.250000  1
  Lu  Lu7  1  0.750000  0.750000  0.750000  1
  In  In8  1  0.501344  0.501344  0.501344  1
  In  In9  1  0.998656  0.998656  0.998656  1
  O  O10  1  0.601964  0.791364  0.472908  1
  O  O11  1  0.472908  0.601964  0.791364  1
  O  O12  1  0.791364  0.472908  0.601964  1
  O  O13  1  0.898036  0.027092  0.708636  1
  O  O14  1  0.708636  0.898036  0.027092  1
  O  O15  1  0.027092  0.708636  0.898036  1
  O  O16  1  0.402349  0.209981  0.533147  1
  O  O17  1  0.533147  0.402349  0.209981  1
  O  O18  1  0.209981  0.533147  0.402349  1
  O  O19  1  0.097651  0.966853  0.290019  1
  O  O20  1  0.966853  0.290019  0.097651  1
  O  O21  1  0.290019  0.097651  0.966853  1
