# generated using pymatgen
data_La4TlRu
_symmetry_space_group_name_H-M   'P 1'
_cell_length_a   10.12069167
_cell_length_b   10.12069244
_cell_length_c   10.12069200
_cell_angle_alpha   60.00000144
_cell_angle_beta   59.99999894
_cell_angle_gamma   60.00000180
_symmetry_Int_Tables_number   1
_chemical_formula_structural   La4TlRu
_chemical_formula_sum   'La16 Tl4 Ru4'
_cell_volume   733.01968769
_cell_formula_units_Z   4
loop_
 _symmetry_equiv_pos_site_id
 _symmetry_equiv_pos_as_xyz
  1  'x, y, z'
loop_
 _atom_site_type_symbol
 _atom_site_label
 _atom_site_symmetry_multiplicity
 _atom_site_fract_x
 _atom_site_fract_y
 _atom_site_fract_z
 _atom_site_occupancy
  La  La0  1  0.903925  0.903925  0.903925  1
  La  La1  1  0.440351  0.440351  0.059649  1
  La  La2  1  0.059649  0.059649  0.440351  1
  La  La3  1  0.440351  0.059649  0.059649  1
  La  La4  1  0.308362  0.691638  0.308362  1
  La  La5  1  0.691638  0.691638  0.308362  1
  La  La6  1  0.691638  0.308362  0.308362  1
  La  La7  1  0.288225  0.903925  0.903925  1
  La  La8  1  0.903925  0.288225  0.903925  1
  La  La9  1  0.308362  0.691638  0.691638  1
  La  La10  1  0.903925  0.903925  0.288225  1
  La  La11  1  0.059649  0.440351  0.059649  1
  La  La12  1  0.308362  0.308362  0.691638  1
  La  La13  1  0.059649  0.440351  0.440351  1
  La  La14  1  0.440351  0.059649  0.440351  1
  La  La15  1  0.691638  0.308362  0.691638  1
  Tl  Tl16  1  0.668148  0.668148  0.995554  1
  Tl  Tl17  1  0.995554  0.668148  0.668148  1
  Tl  Tl18  1  0.668148  0.995554  0.668148  1
  Tl  Tl19  1  0.668148  0.668148  0.668148  1
  Ru  Ru20  1  0.112944  0.112944  0.661166  1
  Ru  Ru21  1  0.112944  0.112944  0.112944  1
  Ru  Ru22  1  0.112944  0.661166  0.112944  1
  Ru  Ru23  1  0.661166  0.112944  0.112944  1
