# generated using pymatgen
data_Ce(DyRu)2
_symmetry_space_group_name_H-M   'P 1'
_cell_length_a   5.84825750
_cell_length_b   5.84825745
_cell_length_c   5.84825835
_cell_angle_alpha   138.01471874
_cell_angle_beta   118.63642053
_cell_angle_gamma   77.14017633
_symmetry_Int_Tables_number   1
_chemical_formula_structural   Ce(DyRu)2
_chemical_formula_sum   'Ce1 Dy2 Ru2'
_cell_volume   114.35213598
_cell_formula_units_Z   1
loop_
 _symmetry_equiv_pos_site_id
 _symmetry_equiv_pos_as_xyz
  1  'x, y, z'
loop_
 _atom_site_type_symbol
 _atom_site_label
 _atom_site_symmetry_multiplicity
 _atom_site_fract_x
 _atom_site_fract_y
 _atom_site_fract_z
 _atom_site_occupancy
  Ce  Ce0  1  0.000000  0.000000  0.000000  1
  Dy  Dy1  1  0.691173  0.191174  0.499999  1
  Dy  Dy2  1  0.308826  0.808827  0.500001  1
  Ru  Ru3  1  0.742966  0.500000  0.242966  1
  Ru  Ru4  1  0.257033  0.500001  0.757034  1
