# generated using pymatgen
data_Ho3Er7Zn3Bi2Au
_symmetry_space_group_name_H-M   'P 1'
_cell_length_a   8.60994092
_cell_length_b   8.60987953
_cell_length_c   8.61044519
_cell_angle_alpha   123.93096081
_cell_angle_beta   123.92929563
_cell_angle_gamma   83.30984290
_symmetry_Int_Tables_number   1
_chemical_formula_structural   Ho3Er7Zn3Bi2Au
_chemical_formula_sum   'Ho3 Er7 Zn3 Bi2 Au1'
_cell_volume   421.41611729
_cell_formula_units_Z   1
loop_
 _symmetry_equiv_pos_site_id
 _symmetry_equiv_pos_as_xyz
  1  'x, y, z'
loop_
 _atom_site_type_symbol
 _atom_site_label
 _atom_site_symmetry_multiplicity
 _atom_site_fract_x
 _atom_site_fract_y
 _atom_site_fract_z
 _atom_site_occupancy
  Ho  Ho0  1  0.293794  0.795331  0.804371  1
  Ho  Ho1  1  0.489241  0.294362  0.500004  1
  Ho  Ho2  1  0.794684  0.988441  0.499994  1
  Er  Er3  1  0.999638  0.999400  0.999157  1
  Er  Er4  1  0.500577  0.500182  0.000879  1
  Er  Er5  1  0.009076  0.510725  0.804337  1
  Er  Er6  1  0.704829  0.206503  0.195772  1
  Er  Er7  1  0.511639  0.705385  0.499952  1
  Er  Er8  1  0.205775  0.010755  0.499968  1
  Er  Er9  1  0.989355  0.490976  0.195663  1
  Zn  Zn10  1  0.638501  0.140098  0.778752  1
  Zn  Zn11  1  0.359774  0.861356  0.221319  1
  Zn  Zn12  1  0.140270  0.359567  0.499950  1
  Bi  Bi13  1  0.749030  0.751012  0.999997  1
  Bi  Bi14  1  0.248979  0.251060  0.999992  1
  Au  Au15  1  0.864839  0.634847  0.499892  1
