# generated using pymatgen
data_EuBr29
_symmetry_space_group_name_H-M   'P 1'
_cell_length_a   11.28788698
_cell_length_b   13.55551778
_cell_length_c   16.29957300
_cell_angle_alpha   46.82660510
_cell_angle_beta   56.29537028
_cell_angle_gamma   62.84874957
_symmetry_Int_Tables_number   1
_chemical_formula_structural   EuBr29
_chemical_formula_sum   'Eu1 Br29'
_cell_volume   1501.01028284
_cell_formula_units_Z   1
loop_
 _symmetry_equiv_pos_site_id
 _symmetry_equiv_pos_as_xyz
  1  'x, y, z'
loop_
 _atom_site_type_symbol
 _atom_site_label
 _atom_site_symmetry_multiplicity
 _atom_site_fract_x
 _atom_site_fract_y
 _atom_site_fract_z
 _atom_site_occupancy
  Eu  Eu0  1  0.000000  0.000000  0.000000  1
  Br  Br1  1  0.500000  0.000000  0.000000  1
  Br  Br2  1  0.115728  0.146048  0.208184  1
  Br  Br3  1  0.743240  0.516246  0.367179  1
  Br  Br4  1  0.256760  0.483754  0.632821  1
  Br  Br5  1  0.511219  0.130802  0.254969  1
  Br  Br6  1  0.884272  0.853952  0.791816  1
  Br  Br7  1  0.313281  0.381832  0.396898  1
  Br  Br8  1  0.686719  0.618168  0.603102  1
  Br  Br9  1  0.488781  0.869198  0.745031  1
  Br  Br10  1  0.347734  0.046530  0.795042  1
  Br  Br11  1  0.628622  0.819914  0.955890  1
  Br  Br12  1  0.819136  0.266549  0.978463  1
  Br  Br13  1  0.072614  0.901776  0.194468  1
  Br  Br14  1  0.234720  0.556261  0.215524  1
  Br  Br15  1  0.927386  0.098224  0.805532  1
  Br  Br16  1  0.851977  0.174826  0.332074  1
  Br  Br17  1  0.180864  0.733451  0.021537  1
  Br  Br18  1  0.885262  0.752873  0.402754  1
  Br  Br19  1  0.371378  0.180086  0.044110  1
  Br  Br20  1  0.652266  0.953470  0.204958  1
  Br  Br21  1  0.677526  0.298746  0.541938  1
  Br  Br22  1  0.690439  0.002568  0.543332  1
  Br  Br23  1  0.802013  0.791801  0.142422  1
  Br  Br24  1  0.197987  0.208199  0.857578  1
  Br  Br25  1  0.309561  0.997432  0.456668  1
  Br  Br26  1  0.322474  0.701254  0.458062  1
  Br  Br27  1  0.114738  0.247127  0.597246  1
  Br  Br28  1  0.148023  0.825174  0.667926  1
  Br  Br29  1  0.765280  0.443739  0.784476  1
