# generated using pymatgen
data_Zr4P4Ir2OsRu
_symmetry_space_group_name_H-M   'P 1'
_cell_length_a   3.87345100
_cell_length_b   6.54339736
_cell_length_c   7.38397412
_cell_angle_alpha   90.00883022
_cell_angle_beta   90.00000000
_cell_angle_gamma   90.00000000
_symmetry_Int_Tables_number   1
_chemical_formula_structural   Zr4P4Ir2OsRu
_chemical_formula_sum   'Zr4 P4 Ir2 Os1 Ru1'
_cell_volume   187.15072814
_cell_formula_units_Z   1
loop_
 _symmetry_equiv_pos_site_id
 _symmetry_equiv_pos_as_xyz
  1  'x, y, z'
loop_
 _atom_site_type_symbol
 _atom_site_label
 _atom_site_symmetry_multiplicity
 _atom_site_fract_x
 _atom_site_fract_y
 _atom_site_fract_z
 _atom_site_occupancy
  Zr  Zr0  1  0.750000  0.520647  0.322109  1
  Zr  Zr1  1  0.250000  0.976179  0.822891  1
  Zr  Zr2  1  0.750000  0.021001  0.177980  1
  Zr  Zr3  1  0.250000  0.477419  0.677237  1
  P  P4  1  0.250000  0.727438  0.127030  1
  P  P5  1  0.250000  0.227485  0.373555  1
  P  P6  1  0.750000  0.267816  0.883384  1
  P  P7  1  0.750000  0.768924  0.616255  1
  Ir  Ir8  1  0.750000  0.151408  0.562937  1
  Ir  Ir9  1  0.750000  0.650936  0.937918  1
  Os  Os10  1  0.250000  0.354087  0.057069  1
  Ru  Ru11  1  0.250000  0.856661  0.441637  1
