# generated using pymatgen
data_Nd3Zn3(Ni5B)2
_symmetry_space_group_name_H-M   'P 1'
_cell_length_a   5.13418598
_cell_length_b   5.13418687
_cell_length_c   10.80478100
_cell_angle_alpha   90.03542076
_cell_angle_beta   89.96456807
_cell_angle_gamma   120.00664991
_symmetry_Int_Tables_number   1
_chemical_formula_structural   Nd3Zn3(Ni5B)2
_chemical_formula_sum   'Nd3 Zn3 Ni10 B2'
_cell_volume   246.63837622
_cell_formula_units_Z   1
loop_
 _symmetry_equiv_pos_site_id
 _symmetry_equiv_pos_as_xyz
  1  'x, y, z'
loop_
 _atom_site_type_symbol
 _atom_site_label
 _atom_site_symmetry_multiplicity
 _atom_site_fract_x
 _atom_site_fract_y
 _atom_site_fract_z
 _atom_site_occupancy
  Nd  Nd0  1  0.000049  0.999951  0.999375  1
  Nd  Nd1  1  0.999955  0.000045  0.659313  1
  Nd  Nd2  1  0.999948  0.000052  0.327947  1
  Zn  Zn3  1  0.666593  0.333407  0.685744  1
  Zn  Zn4  1  0.333345  0.666655  0.685410  1
  Zn  Zn5  1  0.333303  0.666697  0.316698  1
  Ni  Ni6  1  0.501712  0.498288  0.499861  1
  Ni  Ni7  1  0.501666  0.003442  0.499898  1
  Ni  Ni8  1  0.996558  0.498334  0.499898  1
  Ni  Ni9  1  0.666597  0.333403  0.318394  1
  Ni  Ni10  1  0.499833  0.500167  0.872637  1
  Ni  Ni11  1  0.499939  0.999350  0.872435  1
  Ni  Ni12  1  0.000650  0.500061  0.872435  1
  Ni  Ni13  1  0.501535  0.498465  0.129566  1
  Ni  Ni14  1  0.501478  0.003189  0.129604  1
  Ni  Ni15  1  0.996811  0.498522  0.129604  1
  B  B16  1  0.666751  0.333249  0.000655  1
  B  B17  1  0.333276  0.666724  0.000527  1
