# generated using pymatgen
data_Y2Ho14CdHg3Rh4
_symmetry_space_group_name_H-M   'P 1'
_cell_length_a   9.57305240
_cell_length_b   9.57296955
_cell_length_c   9.57067700
_cell_angle_alpha   60.00779783
_cell_angle_beta   60.00802476
_cell_angle_gamma   59.97680421
_symmetry_Int_Tables_number   1
_chemical_formula_structural   Y2Ho14CdHg3Rh4
_chemical_formula_sum   'Y2 Ho14 Cd1 Hg3 Rh4'
_cell_volume   620.15534095
_cell_formula_units_Z   1
loop_
 _symmetry_equiv_pos_site_id
 _symmetry_equiv_pos_as_xyz
  1  'x, y, z'
loop_
 _atom_site_type_symbol
 _atom_site_label
 _atom_site_symmetry_multiplicity
 _atom_site_fract_x
 _atom_site_fract_y
 _atom_site_fract_z
 _atom_site_occupancy
  Y  Y0  1  0.936059  0.936712  0.563615  1
  Y  Y1  1  0.563184  0.564640  0.936091  1
  Ho  Ho2  1  0.689245  0.689339  0.310703  1
  Ho  Ho3  1  0.148273  0.554601  0.148560  1
  Ho  Ho4  1  0.688502  0.311844  0.688518  1
  Ho  Ho5  1  0.149736  0.149020  0.149420  1
  Ho  Ho6  1  0.551823  0.148710  0.149728  1
  Ho  Ho7  1  0.688511  0.311846  0.311130  1
  Ho  Ho8  1  0.149731  0.149016  0.551828  1
  Ho  Ho9  1  0.310791  0.689266  0.310774  1
  Ho  Ho10  1  0.310791  0.689255  0.689180  1
  Ho  Ho11  1  0.936726  0.564177  0.562388  1
  Ho  Ho12  1  0.936725  0.564177  0.936711  1
  Ho  Ho13  1  0.562998  0.937331  0.563023  1
  Ho  Ho14  1  0.563000  0.937330  0.936648  1
  Ho  Ho15  1  0.311044  0.311781  0.688597  1
  Cd  Cd16  1  0.919907  0.240675  0.919709  1
  Hg  Hg17  1  0.914684  0.916329  0.253902  1
  Hg  Hg18  1  0.253918  0.916714  0.914684  1
  Hg  Hg19  1  0.914684  0.916330  0.915083  1
  Rh  Rh20  1  0.356803  0.357380  0.928585  1
  Rh  Rh21  1  0.357465  0.928371  0.357081  1
  Rh  Rh22  1  0.928595  0.357781  0.356811  1
  Rh  Rh23  1  0.356802  0.357380  0.357229  1
