# generated using pymatgen
data_Yb2ReBrO6
_symmetry_space_group_name_H-M   'P 1'
_cell_length_a   5.41961704
_cell_length_b   6.51814260
_cell_length_c   5.67052612
_cell_angle_alpha   62.30011873
_cell_angle_beta   71.70604579
_cell_angle_gamma   55.94253322
_symmetry_Int_Tables_number   1
_chemical_formula_structural   Yb2ReBrO6
_chemical_formula_sum   'Yb2 Re1 Br1 O6'
_cell_volume   146.54516424
_cell_formula_units_Z   1
loop_
 _symmetry_equiv_pos_site_id
 _symmetry_equiv_pos_as_xyz
  1  'x, y, z'
loop_
 _atom_site_type_symbol
 _atom_site_label
 _atom_site_symmetry_multiplicity
 _atom_site_fract_x
 _atom_site_fract_y
 _atom_site_fract_z
 _atom_site_occupancy
  Yb  Yb0  1  0.284972  0.214851  0.213651  1
  Yb  Yb1  1  0.715029  0.785149  0.786348  1
  Re  Re2  1  0.000000  0.000000  0.000000  1
  Br  Br3  1  0.499999  0.500001  0.500000  1
  O  O4  1  0.926675  0.330912  0.959074  1
  O  O5  1  0.370187  0.837033  0.163379  1
  O  O6  1  0.779621  0.970389  0.330614  1
  O  O7  1  0.220378  0.029611  0.669385  1
  O  O8  1  0.629813  0.162968  0.836621  1
  O  O9  1  0.073325  0.669089  0.040926  1
