# generated using pymatgen
data_Cs2TiMo3P6(O5F2)4
_symmetry_space_group_name_H-M   'P 1'
_cell_length_a   8.86109500
_cell_length_b   8.64491942
_cell_length_c   9.21494800
_cell_angle_alpha   82.97933718
_cell_angle_beta   90.00000000
_cell_angle_gamma   90.00000000
_symmetry_Int_Tables_number   1
_chemical_formula_structural   Cs2TiMo3P6(O5F2)4
_chemical_formula_sum   'Cs2 Ti1 Mo3 P6 O20 F8'
_cell_volume   700.60411149
_cell_formula_units_Z   1
loop_
 _symmetry_equiv_pos_site_id
 _symmetry_equiv_pos_as_xyz
  1  'x, y, z'
loop_
 _atom_site_type_symbol
 _atom_site_label
 _atom_site_symmetry_multiplicity
 _atom_site_fract_x
 _atom_site_fract_y
 _atom_site_fract_z
 _atom_site_occupancy
  Cs  Cs0  1  0.604695  0.495824  0.751287  1
  Cs  Cs1  1  0.399553  0.503973  0.247050  1
  Ti  Ti2  1  0.741211  0.846960  0.046393  1
  Mo  Mo3  1  0.252585  0.842568  0.549899  1
  Mo  Mo4  1  0.255507  0.153884  0.952804  1
  Mo  Mo5  1  0.745260  0.154031  0.449439  1
  P  P6  1  0.905232  0.800496  0.391244  1
  P  P7  1  0.899746  0.198744  0.102391  1
  P  P8  1  0.101376  0.201207  0.602030  1
  P  P9  1  0.088451  0.799864  0.895890  1
  P  P10  1  0.535889  0.999537  0.753535  1
  P  P11  1  0.466221  0.996640  0.250485  1
  O  O12  1  0.381627  0.876792  0.357081  1
  O  O13  1  0.351858  0.094037  0.148360  1
  O  O14  1  0.641049  0.095064  0.642151  1
  O  O15  1  0.634844  0.893490  0.862604  1
  O  O16  1  0.183376  0.069255  0.537208  1
  O  O17  1  0.178351  0.930039  0.953478  1
  O  O18  1  0.826914  0.930322  0.460314  1
  O  O19  1  0.821085  0.064137  0.042252  1
  O  O20  1  0.112995  0.785973  0.735139  1
  O  O21  1  0.137498  0.213391  0.762162  1
  O  O22  1  0.867210  0.212435  0.263985  1
  O  O23  1  0.863934  0.791404  0.233373  1
  O  O24  1  0.076342  0.796124  0.416503  1
  O  O25  1  0.066958  0.214974  0.072792  1
  O  O26  1  0.934072  0.212185  0.573052  1
  O  O27  1  0.921828  0.795977  0.935441  1
  O  O28  1  0.429904  0.891538  0.677734  1
  O  O29  1  0.448025  0.118326  0.831210  1
  O  O30  1  0.554516  0.115865  0.328067  1
  O  O31  1  0.571747  0.903926  0.157779  1
  F  F32  1  0.843274  0.646680  0.482188  1
  F  F33  1  0.823868  0.349794  0.018079  1
  F  F34  1  0.174700  0.351744  0.515554  1
  F  F35  1  0.156723  0.647206  0.984226  1
  F  F36  1  0.327939  0.628339  0.563528  1
  F  F37  1  0.335739  0.366875  0.948013  1
  F  F38  1  0.664147  0.366660  0.445049  1
  F  F39  1  0.673752  0.643721  0.060229  1
