# generated using pymatgen
data_SmPu9O20
_symmetry_space_group_name_H-M   'P 1'
_cell_length_a   6.61729660
_cell_length_b   7.62923493
_cell_length_c   8.52801098
_cell_angle_alpha   102.95372831
_cell_angle_beta   97.39211411
_cell_angle_gamma   106.84437336
_symmetry_Int_Tables_number   1
_chemical_formula_structural   SmPu9O20
_chemical_formula_sum   'Sm1 Pu9 O20'
_cell_volume   392.83048990
_cell_formula_units_Z   1
loop_
 _symmetry_equiv_pos_site_id
 _symmetry_equiv_pos_as_xyz
  1  'x, y, z'
loop_
 _atom_site_type_symbol
 _atom_site_label
 _atom_site_symmetry_multiplicity
 _atom_site_fract_x
 _atom_site_fract_y
 _atom_site_fract_z
 _atom_site_occupancy
  Sm  Sm0  1  0.000000  0.000000  0.000000  1
  Pu  Pu1  1  0.799616  0.599755  0.599772  1
  Pu  Pu2  1  0.600212  0.200201  0.200275  1
  Pu  Pu3  1  0.000000  0.500000  0.000000  1
  Pu  Pu4  1  0.799489  0.099858  0.599723  1
  Pu  Pu5  1  0.399788  0.799799  0.799725  1
  Pu  Pu6  1  0.200384  0.400245  0.400228  1
  Pu  Pu7  1  0.600238  0.699933  0.200260  1
  Pu  Pu8  1  0.399762  0.300067  0.799740  1
  Pu  Pu9  1  0.200511  0.900142  0.400277  1
  O  O10  1  0.849872  0.325066  0.452363  1
  O  O11  1  0.639980  0.921780  0.052774  1
  O  O12  1  0.949378  0.767370  0.154789  1
  O  O13  1  0.447413  0.522724  0.649700  1
  O  O14  1  0.851554  0.826056  0.450566  1
  O  O15  1  0.648001  0.425565  0.048989  1
  O  O16  1  0.745671  0.373716  0.750008  1
  O  O17  1  0.258379  0.128823  0.257505  1
  O  O18  1  0.948145  0.284298  0.154783  1
  O  O19  1  0.447883  0.025532  0.648021  1
  O  O20  1  0.552117  0.974468  0.351979  1
  O  O21  1  0.051855  0.715702  0.845217  1
  O  O22  1  0.741621  0.871177  0.742495  1
  O  O23  1  0.351999  0.574435  0.951011  1
  O  O24  1  0.254329  0.626284  0.249992  1
  O  O25  1  0.552587  0.477276  0.350300  1
  O  O26  1  0.148446  0.173944  0.549434  1
  O  O27  1  0.050622  0.232630  0.845211  1
  O  O28  1  0.360020  0.078220  0.947226  1
  O  O29  1  0.150128  0.674934  0.547637  1
