# generated using pymatgen
data_LiMnH6Ir
_symmetry_space_group_name_H-M   'P 1'
_cell_length_a   6.63515300
_cell_length_b   6.63515300
_cell_length_c   6.63515300
_cell_angle_alpha   90.00000000
_cell_angle_beta   90.00000000
_cell_angle_gamma   90.00000000
_symmetry_Int_Tables_number   1
_chemical_formula_structural   LiMnH6Ir
_chemical_formula_sum   'Li4 Mn4 H24 Ir4'
_cell_volume   292.11430500
_cell_formula_units_Z   4
loop_
 _symmetry_equiv_pos_site_id
 _symmetry_equiv_pos_as_xyz
  1  'x, y, z'
loop_
 _atom_site_type_symbol
 _atom_site_label
 _atom_site_symmetry_multiplicity
 _atom_site_fract_x
 _atom_site_fract_y
 _atom_site_fract_z
 _atom_site_occupancy
  Li  Li0  1  0.000000  0.000000  0.500000  1
  Li  Li1  1  0.000000  0.500000  0.000000  1
  Li  Li2  1  0.500000  0.000000  0.000000  1
  Li  Li3  1  0.000000  0.000000  0.000000  1
  Mn  Mn4  1  0.500000  0.500000  0.500000  1
  Mn  Mn5  1  0.000000  0.500000  0.500000  1
  Mn  Mn6  1  0.500000  0.000000  0.500000  1
  Mn  Mn7  1  0.500000  0.500000  0.000000  1
  H  H8  1  0.752866  0.752866  0.508142  1
  H  H9  1  0.247134  0.247134  0.508142  1
  H  H10  1  0.004920  0.750419  0.750419  1
  H  H11  1  0.249581  0.995080  0.750419  1
  H  H12  1  0.750419  0.004920  0.750419  1
  H  H13  1  0.995080  0.249581  0.750419  1
  H  H14  1  0.752866  0.508142  0.752866  1
  H  H15  1  0.508142  0.752866  0.752866  1
  H  H16  1  0.491858  0.247134  0.752866  1
  H  H17  1  0.247134  0.491858  0.752866  1
  H  H18  1  0.249581  0.750419  0.995080  1
  H  H19  1  0.750419  0.249581  0.995080  1
  H  H20  1  0.750419  0.750419  0.004920  1
  H  H21  1  0.249581  0.249581  0.004920  1
  H  H22  1  0.247134  0.508142  0.247134  1
  H  H23  1  0.491858  0.752866  0.247134  1
  H  H24  1  0.508142  0.247134  0.247134  1
  H  H25  1  0.752866  0.491858  0.247134  1
  H  H26  1  0.995080  0.750419  0.249581  1
  H  H27  1  0.750419  0.995080  0.249581  1
  H  H28  1  0.249581  0.004920  0.249581  1
  H  H29  1  0.004920  0.249581  0.249581  1
  H  H30  1  0.247134  0.752866  0.491858  1
  H  H31  1  0.752866  0.247134  0.491858  1
  Ir  Ir32  1  0.256258  0.743742  0.743742  1
  Ir  Ir33  1  0.743742  0.256258  0.743742  1
  Ir  Ir34  1  0.743742  0.743742  0.256258  1
  Ir  Ir35  1  0.256258  0.256258  0.256258  1
