# generated using pymatgen
data_Dy10Si5Pb
_symmetry_space_group_name_H-M   'P 1'
_cell_length_a   8.53574200
_cell_length_b   8.56625249
_cell_length_c   6.42243400
_cell_angle_alpha   90.00000000
_cell_angle_beta   90.00000000
_cell_angle_gamma   119.88224943
_symmetry_Int_Tables_number   1
_chemical_formula_structural   Dy10Si5Pb
_chemical_formula_sum   'Dy10 Si5 Pb1'
_cell_volume   407.17069665
_cell_formula_units_Z   1
loop_
 _symmetry_equiv_pos_site_id
 _symmetry_equiv_pos_as_xyz
  1  'x, y, z'
loop_
 _atom_site_type_symbol
 _atom_site_label
 _atom_site_symmetry_multiplicity
 _atom_site_fract_x
 _atom_site_fract_y
 _atom_site_fract_z
 _atom_site_occupancy
  Dy  Dy0  1  0.987507  0.747366  0.750000  1
  Dy  Dy1  1  0.998884  0.242834  0.250000  1
  Dy  Dy2  1  0.756050  0.757166  0.250000  1
  Dy  Dy3  1  0.766349  0.000000  0.750000  1
  Dy  Dy4  1  0.240140  0.252634  0.750000  1
  Dy  Dy5  1  0.240511  0.000000  0.250000  1
  Dy  Dy6  1  0.674583  0.343166  0.004069  1
  Dy  Dy7  1  0.331416  0.656834  0.495931  1
  Dy  Dy8  1  0.331416  0.656834  0.004069  1
  Dy  Dy9  1  0.674583  0.343166  0.495931  1
  Si  Si10  1  0.393647  0.392318  0.250000  1
  Si  Si11  1  0.001329  0.607682  0.250000  1
  Si  Si12  1  0.998681  0.394360  0.750000  1
  Si  Si13  1  0.604321  0.605640  0.750000  1
  Si  Si14  1  0.606155  0.000000  0.250000  1
  Pb  Pb15  1  0.394428  0.000000  0.750000  1
