# generated using pymatgen
data_YHo7Zn3Si12Rh
_symmetry_space_group_name_H-M   'P 1'
_cell_length_a   8.10085833
_cell_length_b   8.09524233
_cell_length_c   8.04685100
_cell_angle_alpha   90.00000133
_cell_angle_beta   89.98801709
_cell_angle_gamma   119.97705777
_symmetry_Int_Tables_number   1
_chemical_formula_structural   YHo7Zn3Si12Rh
_chemical_formula_sum   'Y1 Ho7 Zn3 Si12 Rh1'
_cell_volume   457.10694932
_cell_formula_units_Z   1
loop_
 _symmetry_equiv_pos_site_id
 _symmetry_equiv_pos_as_xyz
  1  'x, y, z'
loop_
 _atom_site_type_symbol
 _atom_site_label
 _atom_site_symmetry_multiplicity
 _atom_site_fract_x
 _atom_site_fract_y
 _atom_site_fract_z
 _atom_site_occupancy
  Y  Y0  1  0.994251  0.497126  0.750243  1
  Ho  Ho1  1  0.000059  0.000030  0.248660  1
  Ho  Ho2  1  0.000105  0.000052  0.751196  1
  Ho  Ho3  1  0.999635  0.499818  0.250077  1
  Ho  Ho4  1  0.500339  0.499847  0.250167  1
  Ho  Ho5  1  0.502598  0.005100  0.749868  1
  Ho  Ho6  1  0.500339  0.000493  0.250167  1
  Ho  Ho7  1  0.502598  0.497498  0.749868  1
  Zn  Zn8  1  0.333733  0.666867  0.994690  1
  Zn  Zn9  1  0.333801  0.666900  0.501922  1
  Zn  Zn10  1  0.666421  0.333210  0.007321  1
  Si  Si11  1  0.166791  0.333229  0.001431  1
  Si  Si12  1  0.666894  0.833447  0.001071  1
  Si  Si13  1  0.163376  0.326634  0.500734  1
  Si  Si14  1  0.333743  0.166871  0.998788  1
  Si  Si15  1  0.166791  0.833563  0.001431  1
  Si  Si16  1  0.673555  0.836777  0.501018  1
  Si  Si17  1  0.833165  0.666480  0.999194  1
  Si  Si18  1  0.339465  0.169733  0.498778  1
  Si  Si19  1  0.163376  0.836740  0.500734  1
  Si  Si20  1  0.830027  0.660206  0.498332  1
  Si  Si21  1  0.833165  0.166687  0.999194  1
  Si  Si22  1  0.830027  0.169820  0.498332  1
  Rh  Rh23  1  0.665747  0.332873  0.496785  1
