# generated using pymatgen
data_Hf3Ga3FePtRh
_symmetry_space_group_name_H-M   'P 1'
_cell_length_a   7.18326900
_cell_length_b   7.18326801
_cell_length_c   3.34369700
_cell_angle_alpha   90.00000000
_cell_angle_beta   90.00000000
_cell_angle_gamma   120.00000918
_symmetry_Int_Tables_number   1
_chemical_formula_structural   Hf3Ga3FePtRh
_chemical_formula_sum   'Hf3 Ga3 Fe1 Pt1 Rh1'
_cell_volume   149.41758319
_cell_formula_units_Z   1
loop_
 _symmetry_equiv_pos_site_id
 _symmetry_equiv_pos_as_xyz
  1  'x, y, z'
loop_
 _atom_site_type_symbol
 _atom_site_label
 _atom_site_symmetry_multiplicity
 _atom_site_fract_x
 _atom_site_fract_y
 _atom_site_fract_z
 _atom_site_occupancy
  Hf  Hf0  1  0.387348  0.977819  0.500000  1
  Hf  Hf1  1  0.022181  0.409528  0.500000  1
  Hf  Hf2  1  0.590472  0.612652  0.500000  1
  Ga  Ga3  1  0.725140  0.997097  0.000000  1
  Ga  Ga4  1  0.002903  0.728043  0.000000  1
  Ga  Ga5  1  0.271957  0.274860  0.000000  1
  Fe  Fe6  1  0.333333  0.666667  0.000000  1
  Pt  Pt7  1  0.666667  0.333333  0.000000  1
  Rh  Rh8  1  0.000000  0.000000  0.500000  1
