# generated using pymatgen
data_Ti3V7Si6N
_symmetry_space_group_name_H-M   'P 1'
_cell_length_a   7.23287000
_cell_length_b   7.23286949
_cell_length_c   4.87126700
_cell_angle_alpha   90.00000000
_cell_angle_beta   90.00000000
_cell_angle_gamma   120.00001146
_symmetry_Int_Tables_number   1
_chemical_formula_structural   Ti3V7Si6N
_chemical_formula_sum   'Ti3 V7 Si6 N1'
_cell_volume   220.69566583
_cell_formula_units_Z   1
loop_
 _symmetry_equiv_pos_site_id
 _symmetry_equiv_pos_as_xyz
  1  'x, y, z'
loop_
 _atom_site_type_symbol
 _atom_site_label
 _atom_site_symmetry_multiplicity
 _atom_site_fract_x
 _atom_site_fract_y
 _atom_site_fract_z
 _atom_site_occupancy
  Ti  Ti0  1  0.000000  0.764479  0.256963  1
  Ti  Ti1  1  0.235521  0.235521  0.256963  1
  Ti  Ti2  1  0.764479  0.000000  0.256963  1
  V  V3  1  0.000000  0.234075  0.743066  1
  V  V4  1  0.765925  0.765925  0.743066  1
  V  V5  1  0.234075  0.000000  0.743066  1
  V  V6  1  0.333333  0.666667  0.498229  1
  V  V7  1  0.666667  0.333333  0.498229  1
  V  V8  1  0.666667  0.333333  0.999644  1
  V  V9  1  0.333333  0.666667  0.999644  1
  Si  Si10  1  0.000000  0.405556  0.240147  1
  Si  Si11  1  0.594444  0.594444  0.240147  1
  Si  Si12  1  0.405556  0.000000  0.240147  1
  Si  Si13  1  0.000000  0.595963  0.758076  1
  Si  Si14  1  0.404037  0.404037  0.758076  1
  Si  Si15  1  0.595963  0.000000  0.758076  1
  N  N16  1  0.000000  0.000000  0.509496  1
