# generated using pymatgen
data_Pd(NF7)2
_symmetry_space_group_name_H-M   'P 1'
_cell_length_a   6.91955354
_cell_length_b   6.91955371
_cell_length_c   6.91955341
_cell_angle_alpha   119.01944942
_cell_angle_beta   119.01944864
_cell_angle_gamma   91.70692279
_symmetry_Int_Tables_number   1
_chemical_formula_structural   Pd(NF7)2
_chemical_formula_sum   'Pd1 N2 F14'
_cell_volume   237.62940957
_cell_formula_units_Z   1
loop_
 _symmetry_equiv_pos_site_id
 _symmetry_equiv_pos_as_xyz
  1  'x, y, z'
loop_
 _atom_site_type_symbol
 _atom_site_label
 _atom_site_symmetry_multiplicity
 _atom_site_fract_x
 _atom_site_fract_y
 _atom_site_fract_z
 _atom_site_occupancy
  Pd  Pd0  1  0.000000  0.000000  0.000000  1
  N  N1  1  0.750000  0.250000  0.500000  1
  N  N2  1  0.250000  0.750000  0.500000  1
  F  F3  1  0.404093  0.967600  0.711661  1
  F  F4  1  0.241107  0.140736  0.381841  1
  F  F5  1  0.140736  0.758893  0.899629  1
  F  F6  1  0.859264  0.241107  0.100371  1
  F  F7  1  0.758893  0.859264  0.618159  1
  F  F8  1  0.202950  0.202950  0.000000  1
  F  F9  1  0.797050  0.797050  0.000000  1
  F  F10  1  0.744061  0.307569  0.711661  1
  F  F11  1  0.307569  0.595907  0.563508  1
  F  F12  1  0.032400  0.744061  0.436492  1
  F  F13  1  0.595907  0.032400  0.288339  1
  F  F14  1  0.255939  0.692431  0.288339  1
  F  F15  1  0.692431  0.404093  0.436492  1
  F  F16  1  0.967600  0.255939  0.563508  1
