# generated using pymatgen
data_Dy3HoTm4(ReB6)4
_symmetry_space_group_name_H-M   'P 1'
_cell_length_a   3.65919700
_cell_length_b   9.13080300
_cell_length_c   11.51736800
_cell_angle_alpha   89.99954526
_cell_angle_beta   90.00000000
_cell_angle_gamma   90.00000000
_symmetry_Int_Tables_number   1
_chemical_formula_structural   Dy3HoTm4(ReB6)4
_chemical_formula_sum   'Dy3 Ho1 Tm4 Re4 B24'
_cell_volume   384.81146918
_cell_formula_units_Z   1
loop_
 _symmetry_equiv_pos_site_id
 _symmetry_equiv_pos_as_xyz
  1  'x, y, z'
loop_
 _atom_site_type_symbol
 _atom_site_label
 _atom_site_symmetry_multiplicity
 _atom_site_fract_x
 _atom_site_fract_y
 _atom_site_fract_z
 _atom_site_occupancy
  Dy  Dy0  1  0.000000  0.323296  0.413929  1
  Dy  Dy1  1  0.000000  0.676715  0.586094  1
  Dy  Dy2  1  0.000000  0.823288  0.086040  1
  Ho  Ho3  1  0.000000  0.176619  0.913917  1
  Tm  Tm4  1  0.000000  0.943273  0.370160  1
  Tm  Tm5  1  0.000000  0.056721  0.629888  1
  Tm  Tm6  1  0.000000  0.443267  0.129769  1
  Tm  Tm7  1  0.000000  0.556688  0.870187  1
  Re  Re8  1  0.000000  0.639112  0.320300  1
  Re  Re9  1  0.000000  0.360824  0.679812  1
  Re  Re10  1  0.000000  0.139109  0.179571  1
  Re  Re11  1  0.000000  0.861052  0.820365  1
  B  B12  1  0.500000  0.553588  0.432671  1
  B  B13  1  0.500000  0.446414  0.567341  1
  B  B14  1  0.500000  0.053613  0.067172  1
  B  B15  1  0.500000  0.946586  0.932689  1
  B  B16  1  0.500000  0.750136  0.418447  1
  B  B17  1  0.500000  0.249851  0.581580  1
  B  B18  1  0.500000  0.250117  0.081357  1
  B  B19  1  0.500000  0.749898  0.918420  1
  B  B20  1  0.500000  0.792669  0.265564  1
  B  B21  1  0.500000  0.207223  0.734585  1
  B  B22  1  0.500000  0.292681  0.234403  1
  B  B23  1  0.500000  0.707325  0.765572  1
  B  B24  1  0.500000  0.630460  0.185252  1
  B  B25  1  0.500000  0.369410  0.814875  1
  B  B26  1  0.500000  0.130479  0.314727  1
  B  B27  1  0.500000  0.869562  0.685280  1
  B  B28  1  0.500000  0.982072  0.212394  1
  B  B29  1  0.500000  0.018138  0.787670  1
  B  B30  1  0.500000  0.482046  0.287556  1
  B  B31  1  0.500000  0.517953  0.712455  1
  B  B32  1  0.500000  0.598875  0.027550  1
  B  B33  1  0.500000  0.400933  0.972375  1
  B  B34  1  0.500000  0.098857  0.472463  1
  B  B35  1  0.500000  0.901148  0.527569  1
