# generated using pymatgen
data_Cs2Yb(SeO3)2
_symmetry_space_group_name_H-M   'P 1'
_cell_length_a   7.86457427
_cell_length_b   7.86457403
_cell_length_c   7.86457336
_cell_angle_alpha   44.58814640
_cell_angle_beta   44.58815170
_cell_angle_gamma   44.58814806
_symmetry_Int_Tables_number   1
_chemical_formula_structural   Cs2Yb(SeO3)2
_chemical_formula_sum   'Cs2 Yb1 Se2 O6'
_cell_volume   218.00011752
_cell_formula_units_Z   1
loop_
 _symmetry_equiv_pos_site_id
 _symmetry_equiv_pos_as_xyz
  1  'x, y, z'
loop_
 _atom_site_type_symbol
 _atom_site_label
 _atom_site_symmetry_multiplicity
 _atom_site_fract_x
 _atom_site_fract_y
 _atom_site_fract_z
 _atom_site_occupancy
  Cs  Cs0  1  0.200704  0.200704  0.200704  1
  Cs  Cs1  1  0.799296  0.799296  0.799296  1
  Yb  Yb2  1  0.000000  0.000000  0.000000  1
  Se  Se3  1  0.369907  0.369907  0.369907  1
  Se  Se4  1  0.630093  0.630093  0.630093  1
  O  O5  1  0.249965  0.708993  0.249965  1
  O  O6  1  0.708993  0.249965  0.249965  1
  O  O7  1  0.750035  0.750035  0.291007  1
  O  O8  1  0.249965  0.249965  0.708993  1
  O  O9  1  0.750035  0.291007  0.750035  1
  O  O10  1  0.291007  0.750035  0.750035  1
