# generated using pymatgen
data_Y4Ho4Sc12Si15P
_symmetry_space_group_name_H-M   'P 1'
_cell_length_a   7.08669457
_cell_length_b   7.36555801
_cell_length_c   13.95673873
_cell_angle_alpha   89.99916819
_cell_angle_beta   90.03698455
_cell_angle_gamma   90.18844368
_symmetry_Int_Tables_number   1
_chemical_formula_structural   Y4Ho4Sc12Si15P
_chemical_formula_sum   'Y4 Ho4 Sc12 Si15 P1'
_cell_volume   728.50221796
_cell_formula_units_Z   1
loop_
 _symmetry_equiv_pos_site_id
 _symmetry_equiv_pos_as_xyz
  1  'x, y, z'
loop_
 _atom_site_type_symbol
 _atom_site_label
 _atom_site_symmetry_multiplicity
 _atom_site_fract_x
 _atom_site_fract_y
 _atom_site_fract_z
 _atom_site_occupancy
  Y  Y0  1  0.009980  0.175014  0.096565  1
  Y  Y1  1  0.991061  0.826871  0.900516  1
  Y  Y2  1  0.490408  0.674698  0.904300  1
  Y  Y3  1  0.990998  0.826846  0.599075  1
  Ho  Ho4  1  0.511336  0.324318  0.096636  1
  Ho  Ho5  1  0.010488  0.175542  0.403203  1
  Ho  Ho6  1  0.511381  0.324315  0.403735  1
  Ho  Ho7  1  0.489918  0.675300  0.595962  1
  Sc  Sc8  1  0.160120  0.501777  0.749855  1
  Sc  Sc9  1  0.838023  0.497282  0.250118  1
  Sc  Sc10  1  0.338671  0.002819  0.250069  1
  Sc  Sc11  1  0.662337  0.999203  0.749852  1
  Sc  Sc12  1  0.327756  0.173124  0.627276  1
  Sc  Sc13  1  0.667992  0.823578  0.375427  1
  Sc  Sc14  1  0.168183  0.676907  0.375328  1
  Sc  Sc15  1  0.667994  0.823762  0.124833  1
  Sc  Sc16  1  0.832777  0.322960  0.626176  1
  Sc  Sc17  1  0.327833  0.173186  0.872636  1
  Sc  Sc18  1  0.832751  0.323048  0.873536  1
  Sc  Sc19  1  0.168006  0.676830  0.124838  1
  Si  Si20  1  0.964903  0.883497  0.250243  1
  Si  Si21  1  0.465746  0.615143  0.250087  1
  Si  Si22  1  0.531782  0.382399  0.749771  1
  Si  Si23  1  0.296885  0.863276  0.749674  1
  Si  Si24  1  0.713593  0.126609  0.250319  1
  Si  Si25  1  0.214904  0.373530  0.250333  1
  Si  Si26  1  0.786557  0.627997  0.749684  1
  Si  Si27  1  0.158606  0.462975  0.539879  1
  Si  Si28  1  0.841612  0.535106  0.461028  1
  Si  Si29  1  0.340207  0.965614  0.460639  1
  Si  Si30  1  0.841118  0.535839  0.038894  1
  Si  Si31  1  0.658910  0.036997  0.540130  1
  Si  Si32  1  0.157986  0.463018  0.959974  1
  Si  Si33  1  0.659391  0.037694  0.959953  1
  Si  Si34  1  0.340788  0.965533  0.039521  1
  P  P35  1  0.028999  0.127395  0.749934  1
