# generated using pymatgen
data_Lu4GeB4Ir9
_symmetry_space_group_name_H-M   'P 1'
_cell_length_a   10.69506201
_cell_length_b   10.69506242
_cell_length_c   10.69506367
_cell_angle_alpha   29.76054086
_cell_angle_beta   29.76053604
_cell_angle_gamma   29.76054194
_symmetry_Int_Tables_number   1
_chemical_formula_structural   Lu4GeB4Ir9
_chemical_formula_sum   'Lu4 Ge1 B4 Ir9'
_cell_volume   266.89789655
_cell_formula_units_Z   1
loop_
 _symmetry_equiv_pos_site_id
 _symmetry_equiv_pos_as_xyz
  1  'x, y, z'
loop_
 _atom_site_type_symbol
 _atom_site_label
 _atom_site_symmetry_multiplicity
 _atom_site_fract_x
 _atom_site_fract_y
 _atom_site_fract_z
 _atom_site_occupancy
  Lu  Lu0  1  0.150107  0.150107  0.150107  1
  Lu  Lu1  1  0.950301  0.950301  0.950301  1
  Lu  Lu2  1  0.849893  0.849893  0.849893  1
  Lu  Lu3  1  0.049699  0.049699  0.049699  1
  Ge  Ge4  1  0.500000  0.500000  0.500000  1
  B  B5  1  0.615715  0.615715  0.615715  1
  B  B6  1  0.718019  0.718019  0.718019  1
  B  B7  1  0.384285  0.384285  0.384285  1
  B  B8  1  0.281981  0.281981  0.281981  1
  Ir  Ir9  1  0.401511  0.901475  0.401511  1
  Ir  Ir10  1  0.901475  0.401511  0.401511  1
  Ir  Ir11  1  0.500000  0.500000  0.000000  1
  Ir  Ir12  1  0.500000  0.000000  0.500000  1
  Ir  Ir13  1  0.000000  0.500000  0.500000  1
  Ir  Ir14  1  0.598489  0.098525  0.598489  1
  Ir  Ir15  1  0.598489  0.598489  0.098525  1
  Ir  Ir16  1  0.098525  0.598489  0.598489  1
  Ir  Ir17  1  0.401511  0.401511  0.901475  1
