# generated using pymatgen
data_Ac3LaAl3NiI2
_symmetry_space_group_name_H-M   'P 1'
_cell_length_a   4.44099400
_cell_length_b   4.44099346
_cell_length_c   18.27858600
_cell_angle_alpha   90.00000000
_cell_angle_beta   90.00000000
_cell_angle_gamma   120.00000401
_symmetry_Int_Tables_number   1
_chemical_formula_structural   Ac3LaAl3NiI2
_chemical_formula_sum   'Ac3 La1 Al3 Ni1 I2'
_cell_volume   312.20045432
_cell_formula_units_Z   1
loop_
 _symmetry_equiv_pos_site_id
 _symmetry_equiv_pos_as_xyz
  1  'x, y, z'
loop_
 _atom_site_type_symbol
 _atom_site_label
 _atom_site_symmetry_multiplicity
 _atom_site_fract_x
 _atom_site_fract_y
 _atom_site_fract_z
 _atom_site_occupancy
  Ac  Ac0  1  0.000000  0.000000  0.107739  1
  Ac  Ac1  1  0.000000  0.000000  0.898857  1
  Ac  Ac2  1  0.000000  0.000000  0.616416  1
  La  La3  1  0.000000  0.000000  0.379831  1
  Al  Al4  1  0.333333  0.666667  0.497591  1
  Al  Al5  1  0.666667  0.333333  0.489439  1
  Al  Al6  1  0.666667  0.333333  0.003695  1
  Ni  Ni7  1  0.333333  0.666667  0.001210  1
  I  I8  1  0.333333  0.666667  0.255047  1
  I  I9  1  0.666667  0.333333  0.750176  1
