# generated using pymatgen
data_Dy3Sn3RuRh2
_symmetry_space_group_name_H-M   'P 1'
_cell_length_a   7.57268600
_cell_length_b   7.57268598
_cell_length_c   3.86650100
_cell_angle_alpha   90.00000000
_cell_angle_beta   90.00000000
_cell_angle_gamma   119.99999137
_symmetry_Int_Tables_number   1
_chemical_formula_structural   Dy3Sn3RuRh2
_chemical_formula_sum   'Dy3 Sn3 Ru1 Rh2'
_cell_volume   192.02098512
_cell_formula_units_Z   1
loop_
 _symmetry_equiv_pos_site_id
 _symmetry_equiv_pos_as_xyz
  1  'x, y, z'
loop_
 _atom_site_type_symbol
 _atom_site_label
 _atom_site_symmetry_multiplicity
 _atom_site_fract_x
 _atom_site_fract_y
 _atom_site_fract_z
 _atom_site_occupancy
  Dy  Dy0  1  0.408167  0.408167  0.500000  1
  Dy  Dy1  1  0.591833  0.000000  0.500000  1
  Dy  Dy2  1  0.000000  0.591833  0.500000  1
  Sn  Sn3  1  0.740756  0.740756  0.000000  1
  Sn  Sn4  1  0.259244  0.000000  0.000000  1
  Sn  Sn5  1  0.000000  0.259244  0.000000  1
  Ru  Ru6  1  0.000000  0.000000  0.500000  1
  Rh  Rh7  1  0.666667  0.333333  0.000000  1
  Rh  Rh8  1  0.333333  0.666667  0.000000  1
