# generated using pymatgen
data_Y3Sc2ZnPt3
_symmetry_space_group_name_H-M   'P 1'
_cell_length_a   7.23218375
_cell_length_b   7.13657280
_cell_length_c   4.34765700
_cell_angle_alpha   90.00000000
_cell_angle_beta   90.00000000
_cell_angle_gamma   119.56363913
_symmetry_Int_Tables_number   1
_chemical_formula_structural   Y3Sc2ZnPt3
_chemical_formula_sum   'Y3 Sc2 Zn1 Pt3'
_cell_volume   195.18117716
_cell_formula_units_Z   1
loop_
 _symmetry_equiv_pos_site_id
 _symmetry_equiv_pos_as_xyz
  1  'x, y, z'
loop_
 _atom_site_type_symbol
 _atom_site_label
 _atom_site_symmetry_multiplicity
 _atom_site_fract_x
 _atom_site_fract_y
 _atom_site_fract_z
 _atom_site_occupancy
  Y  Y0  1  0.392542  0.982410  0.500000  1
  Y  Y1  1  0.000000  0.432893  0.500000  1
  Y  Y2  1  0.607457  0.589868  0.500000  1
  Sc  Sc3  1  0.752700  0.995107  0.000000  1
  Sc  Sc4  1  0.247299  0.242407  0.000000  1
  Zn  Zn5  1  0.000000  0.754568  0.000000  1
  Pt  Pt6  1  0.663173  0.323620  0.000000  1
  Pt  Pt7  1  0.336827  0.660445  0.000000  1
  Pt  Pt8  1  0.000000  0.018685  0.500000  1
