# generated using pymatgen
data_NdDy2Co7(P3Rh)2
_symmetry_space_group_name_H-M   'P 1'
_cell_length_a   3.75412000
_cell_length_b   10.69080100
_cell_length_c   12.45155100
_cell_angle_alpha   90.00000000
_cell_angle_beta   90.00000000
_cell_angle_gamma   90.00000000
_symmetry_Int_Tables_number   1
_chemical_formula_structural   NdDy2Co7(P3Rh)2
_chemical_formula_sum   'Nd2 Dy4 Co14 P12 Rh4'
_cell_volume   499.73739432
_cell_formula_units_Z   2
loop_
 _symmetry_equiv_pos_site_id
 _symmetry_equiv_pos_as_xyz
  1  'x, y, z'
loop_
 _atom_site_type_symbol
 _atom_site_label
 _atom_site_symmetry_multiplicity
 _atom_site_fract_x
 _atom_site_fract_y
 _atom_site_fract_z
 _atom_site_occupancy
  Nd  Nd0  1  0.000000  0.500000  0.521592  1
  Nd  Nd1  1  0.500000  0.000000  0.478408  1
  Dy  Dy2  1  0.500000  0.813855  0.205258  1
  Dy  Dy3  1  0.500000  0.186145  0.205258  1
  Dy  Dy4  1  0.000000  0.686145  0.794742  1
  Dy  Dy5  1  0.000000  0.313855  0.794742  1
  Co  Co6  1  0.000000  0.500000  0.988760  1
  Co  Co7  1  0.500000  0.000000  0.011240  1
  Co  Co8  1  0.500000  0.331965  0.993970  1
  Co  Co9  1  0.500000  0.668035  0.993970  1
  Co  Co10  1  0.000000  0.168035  0.006030  1
  Co  Co11  1  0.000000  0.831965  0.006030  1
  Co  Co12  1  0.500000  0.299703  0.428022  1
  Co  Co13  1  0.500000  0.700297  0.428022  1
  Co  Co14  1  0.000000  0.200297  0.571978  1
  Co  Co15  1  0.000000  0.799703  0.571978  1
  Co  Co16  1  0.500000  0.880804  0.712393  1
  Co  Co17  1  0.500000  0.119196  0.712393  1
  Co  Co18  1  0.000000  0.619196  0.287607  1
  Co  Co19  1  0.000000  0.380804  0.287607  1
  P  P20  1  0.500000  0.500000  0.891883  1
  P  P21  1  0.000000  0.000000  0.108117  1
  P  P22  1  0.500000  0.500000  0.345905  1
  P  P23  1  0.000000  0.000000  0.654095  1
  P  P24  1  0.500000  0.299530  0.614239  1
  P  P25  1  0.500000  0.700470  0.614239  1
  P  P26  1  0.000000  0.200470  0.385761  1
  P  P27  1  0.000000  0.799530  0.385761  1
  P  P28  1  0.500000  0.844471  0.895473  1
  P  P29  1  0.500000  0.155529  0.895473  1
  P  P30  1  0.000000  0.655529  0.104527  1
  P  P31  1  0.000000  0.344471  0.104527  1
  Rh  Rh32  1  0.500000  0.500000  0.158184  1
  Rh  Rh33  1  0.000000  0.000000  0.841816  1
  Rh  Rh34  1  0.500000  0.500000  0.707360  1
  Rh  Rh35  1  0.000000  0.000000  0.292640  1
