# generated using pymatgen
data_Pr5Nd4(BiO)5
_symmetry_space_group_name_H-M   'P 1'
_cell_length_a   10.38852800
_cell_length_b   10.38852800
_cell_length_c   9.37900600
_cell_angle_alpha   90.00000000
_cell_angle_beta   90.00000000
_cell_angle_gamma   90.00000000
_symmetry_Int_Tables_number   1
_chemical_formula_structural   Pr5Nd4(BiO)5
_chemical_formula_sum   'Pr10 Nd8 Bi10 O10'
_cell_volume   1012.19652740
_cell_formula_units_Z   2
loop_
 _symmetry_equiv_pos_site_id
 _symmetry_equiv_pos_as_xyz
  1  'x, y, z'
loop_
 _atom_site_type_symbol
 _atom_site_label
 _atom_site_symmetry_multiplicity
 _atom_site_fract_x
 _atom_site_fract_y
 _atom_site_fract_z
 _atom_site_occupancy
  Pr  Pr0  1  0.500000  0.000000  0.671547  1
  Pr  Pr1  1  0.000000  0.500000  0.328453  1
  Pr  Pr2  1  0.104319  0.205007  0.659636  1
  Pr  Pr3  1  0.895681  0.794993  0.659636  1
  Pr  Pr4  1  0.294993  0.604319  0.659636  1
  Pr  Pr5  1  0.705007  0.395681  0.659636  1
  Pr  Pr6  1  0.395681  0.294993  0.340364  1
  Pr  Pr7  1  0.604319  0.705007  0.340364  1
  Pr  Pr8  1  0.205007  0.895681  0.340364  1
  Pr  Pr9  1  0.794993  0.104319  0.340364  1
  Nd  Nd10  1  0.725727  0.917593  0.001412  1
  Nd  Nd11  1  0.274273  0.082407  0.001412  1
  Nd  Nd12  1  0.582407  0.225727  0.001412  1
  Nd  Nd13  1  0.417593  0.774273  0.001412  1
  Nd  Nd14  1  0.774273  0.582407  0.998588  1
  Nd  Nd15  1  0.225727  0.417593  0.998588  1
  Nd  Nd16  1  0.917593  0.274273  0.998588  1
  Nd  Nd17  1  0.082407  0.725727  0.998588  1
  Bi  Bi18  1  0.500000  0.000000  0.312132  1
  Bi  Bi19  1  0.000000  0.500000  0.687868  1
  Bi  Bi20  1  0.403730  0.304061  0.699624  1
  Bi  Bi21  1  0.596270  0.695939  0.699624  1
  Bi  Bi22  1  0.195939  0.903730  0.699624  1
  Bi  Bi23  1  0.804061  0.096270  0.699624  1
  Bi  Bi24  1  0.096270  0.195939  0.300376  1
  Bi  Bi25  1  0.903730  0.804061  0.300376  1
  Bi  Bi26  1  0.304061  0.596270  0.300376  1
  Bi  Bi27  1  0.695939  0.403730  0.300376  1
  O  O28  1  0.500000  0.000000  0.934439  1
  O  O29  1  0.000000  0.500000  0.065561  1
  O  O30  1  0.774589  0.120816  0.085815  1
  O  O31  1  0.225411  0.879184  0.085815  1
  O  O32  1  0.379184  0.274589  0.085815  1
  O  O33  1  0.620816  0.725411  0.085815  1
  O  O34  1  0.725411  0.379184  0.914185  1
  O  O35  1  0.274589  0.620816  0.914185  1
  O  O36  1  0.120816  0.225411  0.914185  1
  O  O37  1  0.879184  0.774589  0.914185  1
