# generated using pymatgen
data_Sc14Al8Ir7
_symmetry_space_group_name_H-M   'P 1'
_cell_length_a   9.11928347
_cell_length_b   9.11928368
_cell_length_c   9.11928300
_cell_angle_alpha   59.99999883
_cell_angle_beta   59.99999809
_cell_angle_gamma   60.00000156
_symmetry_Int_Tables_number   1
_chemical_formula_structural   Sc14Al8Ir7
_chemical_formula_sum   'Sc14 Al8 Ir7'
_cell_volume   536.24978644
_cell_formula_units_Z   1
loop_
 _symmetry_equiv_pos_site_id
 _symmetry_equiv_pos_as_xyz
  1  'x, y, z'
loop_
 _atom_site_type_symbol
 _atom_site_label
 _atom_site_symmetry_multiplicity
 _atom_site_fract_x
 _atom_site_fract_y
 _atom_site_fract_z
 _atom_site_occupancy
  Sc  Sc0  1  0.682506  0.682506  0.317494  1
  Sc  Sc1  1  0.317494  0.682506  0.317494  1
  Sc  Sc2  1  0.682506  0.317494  0.317494  1
  Sc  Sc3  1  0.317494  0.317494  0.682506  1
  Sc  Sc4  1  0.682506  0.317494  0.682506  1
  Sc  Sc5  1  0.317494  0.682506  0.682506  1
  Sc  Sc6  1  0.877264  0.877264  0.368208  1
  Sc  Sc7  1  0.877264  0.368208  0.877264  1
  Sc  Sc8  1  0.368208  0.877264  0.877264  1
  Sc  Sc9  1  0.877264  0.877264  0.877264  1
  Sc  Sc10  1  0.122736  0.122736  0.631792  1
  Sc  Sc11  1  0.122736  0.631792  0.122736  1
  Sc  Sc12  1  0.631792  0.122736  0.122736  1
  Sc  Sc13  1  0.122736  0.122736  0.122736  1
  Al  Al14  1  0.662347  0.662347  0.012957  1
  Al  Al15  1  0.662347  0.012957  0.662347  1
  Al  Al16  1  0.012957  0.662347  0.662347  1
  Al  Al17  1  0.662347  0.662347  0.662347  1
  Al  Al18  1  0.337653  0.337653  0.987043  1
  Al  Al19  1  0.337653  0.987043  0.337653  1
  Al  Al20  1  0.987043  0.337653  0.337653  1
  Al  Al21  1  0.337653  0.337653  0.337653  1
  Ir  Ir22  1  0.000000  0.000000  0.000000  1
  Ir  Ir23  1  0.000000  0.000000  0.500000  1
  Ir  Ir24  1  0.500000  0.000000  0.500000  1
  Ir  Ir25  1  0.000000  0.500000  0.500000  1
  Ir  Ir26  1  0.500000  0.500000  0.000000  1
  Ir  Ir27  1  0.000000  0.500000  0.000000  1
  Ir  Ir28  1  0.500000  0.000000  0.000000  1
