# generated using pymatgen
data_PrDy6FeI12
_symmetry_space_group_name_H-M   'P 1'
_cell_length_a   9.81079282
_cell_length_b   9.76932339
_cell_length_c   9.81420195
_cell_angle_alpha   106.86952953
_cell_angle_beta   106.86486599
_cell_angle_gamma   107.29287752
_symmetry_Int_Tables_number   1
_chemical_formula_structural   PrDy6FeI12
_chemical_formula_sum   'Pr1 Dy6 Fe1 I12'
_cell_volume   783.16872873
_cell_formula_units_Z   1
loop_
 _symmetry_equiv_pos_site_id
 _symmetry_equiv_pos_as_xyz
  1  'x, y, z'
loop_
 _atom_site_type_symbol
 _atom_site_label
 _atom_site_symmetry_multiplicity
 _atom_site_fract_x
 _atom_site_fract_y
 _atom_site_fract_z
 _atom_site_occupancy
  Pr  Pr0  1  0.407279  0.210574  0.477617  1
  Dy  Dy1  1  0.792530  0.523348  0.593753  1
  Dy  Dy2  1  0.523505  0.595278  0.792068  1
  Dy  Dy3  1  0.208086  0.476036  0.406623  1
  Dy  Dy4  1  0.477568  0.408383  0.208959  1
  Dy  Dy5  1  0.000028  0.001334  0.999040  1
  Dy  Dy6  1  0.589413  0.776736  0.521940  1
  Fe  Fe7  1  0.499099  0.496924  0.500260  1
  I  I8  1  0.735759  0.185665  0.577052  1
  I  I9  1  0.960421  0.886245  0.660112  1
  I  I10  1  0.573688  0.727557  0.184341  1
  I  I11  1  0.113768  0.340701  0.037657  1
  I  I12  1  0.661378  0.962772  0.882861  1
  I  I13  1  0.886287  0.662416  0.963125  1
  I  I14  1  0.027675  0.112433  0.333102  1
  I  I15  1  0.819583  0.428417  0.275895  1
  I  I16  1  0.336363  0.035811  0.104721  1
  I  I17  1  0.276858  0.814004  0.426841  1
  I  I18  1  0.180979  0.573380  0.724517  1
  I  I19  1  0.429733  0.281985  0.829518  1
