# generated using pymatgen
data_Sr3Ce(Ir2O7)2
_symmetry_space_group_name_H-M   'P 1'
_cell_length_a   7.41171452
_cell_length_b   7.41171338
_cell_length_c   7.43284017
_cell_angle_alpha   60.09396803
_cell_angle_beta   60.09397705
_cell_angle_gamma   59.99999477
_symmetry_Int_Tables_number   1
_chemical_formula_structural   Sr3Ce(Ir2O7)2
_chemical_formula_sum   'Sr3 Ce1 Ir4 O14'
_cell_volume   289.12955661
_cell_formula_units_Z   1
loop_
 _symmetry_equiv_pos_site_id
 _symmetry_equiv_pos_as_xyz
  1  'x, y, z'
loop_
 _atom_site_type_symbol
 _atom_site_label
 _atom_site_symmetry_multiplicity
 _atom_site_fract_x
 _atom_site_fract_y
 _atom_site_fract_z
 _atom_site_occupancy
  Sr  Sr0  1  0.625000  0.125000  0.125000  1
  Sr  Sr1  1  0.125000  0.625000  0.125000  1
  Sr  Sr2  1  0.125000  0.125000  0.125000  1
  Ce  Ce3  1  0.125000  0.125000  0.625000  1
  Ir  Ir4  1  0.125000  0.625000  0.625000  1
  Ir  Ir5  1  0.625000  0.125000  0.625000  1
  Ir  Ir6  1  0.625000  0.625000  0.125000  1
  Ir  Ir7  1  0.625000  0.625000  0.625000  1
  O  O8  1  0.697610  0.697610  0.303349  1
  O  O9  1  0.299582  0.299582  0.693259  1
  O  O10  1  0.707578  0.299582  0.693259  1
  O  O11  1  0.301432  0.697610  0.303349  1
  O  O12  1  0.299582  0.707578  0.693259  1
  O  O13  1  0.697610  0.301432  0.303349  1
  O  O14  1  0.552390  0.552390  0.946651  1
  O  O15  1  0.950418  0.950418  0.556741  1
  O  O16  1  0.542422  0.950418  0.556741  1
  O  O17  1  0.948568  0.552390  0.946651  1
  O  O18  1  0.950418  0.542422  0.556741  1
  O  O19  1  0.552390  0.948568  0.946651  1
  O  O20  1  0.236788  0.236788  0.289636  1
  O  O21  1  0.013212  0.013212  0.960364  1
