# generated using pymatgen
data_GdAg(S2O7)2
_symmetry_space_group_name_H-M   'P 1'
_cell_length_a   5.49496614
_cell_length_b   7.30091750
_cell_length_c   9.59311300
_cell_angle_alpha   91.40819302
_cell_angle_beta   96.22321320
_cell_angle_gamma   106.35079812
_symmetry_Int_Tables_number   1
_chemical_formula_structural   GdAg(S2O7)2
_chemical_formula_sum   'Gd1 Ag1 S4 O14'
_cell_volume   366.50511730
_cell_formula_units_Z   1
loop_
 _symmetry_equiv_pos_site_id
 _symmetry_equiv_pos_as_xyz
  1  'x, y, z'
loop_
 _atom_site_type_symbol
 _atom_site_label
 _atom_site_symmetry_multiplicity
 _atom_site_fract_x
 _atom_site_fract_y
 _atom_site_fract_z
 _atom_site_occupancy
  Gd  Gd0  1  0.500000  0.000000  0.500000  1
  Ag  Ag1  1  0.000000  0.500000  0.000000  1
  S  S2  1  0.466051  0.637110  0.762054  1
  S  S3  1  0.533949  0.362890  0.237946  1
  S  S4  1  0.132735  0.251288  0.687816  1
  S  S5  1  0.867265  0.748712  0.312184  1
  O  O6  1  0.656755  0.548391  0.816522  1
  O  O7  1  0.343245  0.451609  0.183478  1
  O  O8  1  0.313474  0.696074  0.857916  1
  O  O9  1  0.686526  0.303926  0.142084  1
  O  O10  1  0.554456  0.781023  0.658623  1
  O  O11  1  0.445544  0.218977  0.341377  1
  O  O12  1  0.252238  0.468451  0.645366  1
  O  O13  1  0.747762  0.531549  0.354634  1
  O  O14  1  0.903651  0.189092  0.582940  1
  O  O15  1  0.096349  0.810908  0.417060  1
  O  O16  1  0.319675  0.148879  0.657833  1
  O  O17  1  0.680325  0.851121  0.342167  1
  O  O18  1  0.083437  0.250120  0.831956  1
  O  O19  1  0.916563  0.749880  0.168044  1
