# generated using pymatgen
data_ZrFe3P3Rh2
_symmetry_space_group_name_H-M   'P 1'
_cell_length_a   3.71622700
_cell_length_b   10.22536700
_cell_length_c   12.12053400
_cell_angle_alpha   90.00000000
_cell_angle_beta   90.00000000
_cell_angle_gamma   90.00000000
_symmetry_Int_Tables_number   1
_chemical_formula_structural   ZrFe3P3Rh2
_chemical_formula_sum   'Zr4 Fe12 P12 Rh8'
_cell_volume   460.57768524
_cell_formula_units_Z   4
loop_
 _symmetry_equiv_pos_site_id
 _symmetry_equiv_pos_as_xyz
  1  'x, y, z'
loop_
 _atom_site_type_symbol
 _atom_site_label
 _atom_site_symmetry_multiplicity
 _atom_site_fract_x
 _atom_site_fract_y
 _atom_site_fract_z
 _atom_site_occupancy
  Zr  Zr0  1  0.250000  0.579640  0.715514  1
  Zr  Zr1  1  0.250000  0.920360  0.215514  1
  Zr  Zr2  1  0.750000  0.420360  0.284486  1
  Zr  Zr3  1  0.750000  0.079640  0.784486  1
  Fe  Fe4  1  0.250000  0.226775  0.171682  1
  Fe  Fe5  1  0.250000  0.273225  0.671682  1
  Fe  Fe6  1  0.750000  0.773225  0.828318  1
  Fe  Fe7  1  0.750000  0.726775  0.328318  1
  Fe  Fe8  1  0.250000  0.876953  0.698564  1
  Fe  Fe9  1  0.250000  0.623047  0.198564  1
  Fe  Fe10  1  0.750000  0.123047  0.301436  1
  Fe  Fe11  1  0.750000  0.376953  0.801436  1
  Fe  Fe12  1  0.250000  0.459444  0.932290  1
  Fe  Fe13  1  0.250000  0.040556  0.432290  1
  Fe  Fe14  1  0.750000  0.540556  0.067710  1
  Fe  Fe15  1  0.750000  0.959444  0.567710  1
  P  P16  1  0.250000  0.430096  0.112873  1
  P  P17  1  0.250000  0.069904  0.612873  1
  P  P18  1  0.750000  0.569904  0.887127  1
  P  P19  1  0.750000  0.930096  0.387127  1
  P  P20  1  0.250000  0.269864  0.853110  1
  P  P21  1  0.250000  0.230136  0.353110  1
  P  P22  1  0.750000  0.730136  0.146890  1
  P  P23  1  0.750000  0.769864  0.646890  1
  P  P24  1  0.250000  0.603832  0.376823  1
  P  P25  1  0.250000  0.896168  0.876823  1
  P  P26  1  0.750000  0.396168  0.623177  1
  P  P27  1  0.750000  0.103832  0.123177  1
  Rh  Rh28  1  0.250000  0.710502  0.986478  1
  Rh  Rh29  1  0.250000  0.789498  0.486478  1
  Rh  Rh30  1  0.750000  0.289498  0.013522  1
  Rh  Rh31  1  0.750000  0.210502  0.513522  1
  Rh  Rh32  1  0.250000  0.406281  0.474881  1
  Rh  Rh33  1  0.250000  0.093719  0.974881  1
  Rh  Rh34  1  0.750000  0.593719  0.525119  1
  Rh  Rh35  1  0.750000  0.906281  0.025119  1
