# generated using pymatgen
data_Yb2PuRu3
_symmetry_space_group_name_H-M   'P 1'
_cell_length_a   5.24963542
_cell_length_b   5.24963501
_cell_length_c   5.24963605
_cell_angle_alpha   65.80891330
_cell_angle_beta   65.80889764
_cell_angle_gamma   65.80891228
_symmetry_Int_Tables_number   1
_chemical_formula_structural   Yb2PuRu3
_chemical_formula_sum   'Yb2 Pu1 Ru3'
_cell_volume   115.18182431
_cell_formula_units_Z   1
loop_
 _symmetry_equiv_pos_site_id
 _symmetry_equiv_pos_as_xyz
  1  'x, y, z'
loop_
 _atom_site_type_symbol
 _atom_site_label
 _atom_site_symmetry_multiplicity
 _atom_site_fract_x
 _atom_site_fract_y
 _atom_site_fract_z
 _atom_site_occupancy
  Yb  Yb0  1  0.622387  0.622387  0.622387  1
  Yb  Yb1  1  0.377613  0.377613  0.377613  1
  Pu  Pu2  1  0.000000  0.000000  0.000000  1
  Ru  Ru3  1  0.000000  0.500000  0.000000  1
  Ru  Ru4  1  0.500000  0.000000  0.000000  1
  Ru  Ru5  1  0.000000  0.000000  0.500000  1
