# generated using pymatgen
data_Zr8FeCo6Si14Ru
_symmetry_space_group_name_H-M   'P 1'
_cell_length_a   9.53136284
_cell_length_b   9.53108889
_cell_length_c   9.54710806
_cell_angle_alpha   94.16260958
_cell_angle_beta   94.16413512
_cell_angle_gamma   148.71079278
_symmetry_Int_Tables_number   1
_chemical_formula_structural   Zr8FeCo6Si14Ru
_chemical_formula_sum   'Zr8 Fe1 Co6 Si14 Ru1'
_cell_volume   433.80844336
_cell_formula_units_Z   1
loop_
 _symmetry_equiv_pos_site_id
 _symmetry_equiv_pos_as_xyz
  1  'x, y, z'
loop_
 _atom_site_type_symbol
 _atom_site_label
 _atom_site_symmetry_multiplicity
 _atom_site_fract_x
 _atom_site_fract_y
 _atom_site_fract_z
 _atom_site_occupancy
  Zr  Zr0  1  0.137957  0.137957  0.275915  1
  Zr  Zr1  1  0.862397  0.862397  0.724792  1
  Zr  Zr2  1  0.861606  0.137775  0.001134  1
  Zr  Zr3  1  0.139528  0.863358  0.001134  1
  Zr  Zr4  1  0.500109  0.304383  0.803587  1
  Zr  Zr5  1  0.501624  0.697249  0.197424  1
  Zr  Zr6  1  0.695800  0.500175  0.197424  1
  Zr  Zr7  1  0.303478  0.499205  0.803587  1
  Fe  Fe8  1  0.103683  0.603683  0.207365  1
  Co  Co9  1  0.101436  0.897280  0.499596  1
  Co  Co10  1  0.398160  0.602316  0.499596  1
  Co  Co11  1  0.601153  0.396060  0.498737  1
  Co  Co12  1  0.897585  0.102677  0.498737  1
  Co  Co13  1  0.897737  0.397737  0.795475  1
  Co  Co14  1  0.602046  0.102046  0.204090  1
  Si  Si15  1  0.507952  0.100614  0.588009  1
  Si  Si16  1  0.498566  0.907542  0.406650  1
  Si  Si17  1  0.908084  0.499108  0.406650  1
  Si  Si18  1  0.080056  0.487394  0.588009  1
  Si  Si19  1  0.750036  0.750091  0.000418  1
  Si  Si20  1  0.250382  0.250327  0.000418  1
  Si  Si21  1  0.289222  0.289222  0.578444  1
  Si  Si22  1  0.710936  0.710936  0.421875  1
  Si  Si23  1  0.721838  0.301808  0.004592  1
  Si  Si24  1  0.282754  0.702784  0.004592  1
  Si  Si25  1  0.000815  0.303407  0.302058  1
  Si  Si26  1  0.989785  0.692391  0.696707  1
  Si  Si27  1  0.706922  0.004316  0.696707  1
  Si  Si28  1  0.301244  0.998652  0.302058  1
  Ru  Ru29  1  0.397110  0.897110  0.794222  1
