# generated using pymatgen
data_Ta3Nb3Ga4
_symmetry_space_group_name_H-M   'P 1'
_cell_length_a   6.93899342
_cell_length_b   6.93899342
_cell_length_c   3.52022900
_cell_angle_alpha   90.00000000
_cell_angle_beta   90.00000000
_cell_angle_gamma   89.96021742
_symmetry_Int_Tables_number   1
_chemical_formula_structural   Ta3Nb3Ga4
_chemical_formula_sum   'Ta3 Nb3 Ga4'
_cell_volume   169.49768180
_cell_formula_units_Z   1
loop_
 _symmetry_equiv_pos_site_id
 _symmetry_equiv_pos_as_xyz
  1  'x, y, z'
loop_
 _atom_site_type_symbol
 _atom_site_label
 _atom_site_symmetry_multiplicity
 _atom_site_fract_x
 _atom_site_fract_y
 _atom_site_fract_z
 _atom_site_occupancy
  Ta  Ta0  1  0.175309  0.675310  0.500000  1
  Ta  Ta1  1  0.499642  0.500231  0.000000  1
  Ta  Ta2  1  0.000232  0.999643  0.000000  1
  Nb  Nb3  1  0.324772  0.175311  0.500000  1
  Nb  Nb4  1  0.675312  0.824771  0.500000  1
  Nb  Nb5  1  0.824749  0.324750  0.500000  1
  Ga  Ga6  1  0.125861  0.373880  0.000000  1
  Ga  Ga7  1  0.873880  0.625860  0.000000  1
  Ga  Ga8  1  0.626030  0.126031  0.000000  1
  Ga  Ga9  1  0.374215  0.874215  0.000000  1
