# generated using pymatgen
data_Y5Er5(AlBi)4
_symmetry_space_group_name_H-M   'P 1'
_cell_length_a   8.89022733
_cell_length_b   8.75022268
_cell_length_c   8.07701300
_cell_angle_alpha   90.05148632
_cell_angle_beta   90.03128308
_cell_angle_gamma   125.48538541
_symmetry_Int_Tables_number   1
_chemical_formula_structural   Y5Er5(AlBi)4
_chemical_formula_sum   'Y5 Er5 Al4 Bi4'
_cell_volume   511.61966957
_cell_formula_units_Z   1
loop_
 _symmetry_equiv_pos_site_id
 _symmetry_equiv_pos_as_xyz
  1  'x, y, z'
loop_
 _atom_site_type_symbol
 _atom_site_label
 _atom_site_symmetry_multiplicity
 _atom_site_fract_x
 _atom_site_fract_y
 _atom_site_fract_z
 _atom_site_occupancy
  Y  Y0  1  0.043850  0.306994  0.329965  1
  Y  Y1  1  0.955261  0.692203  0.670479  1
  Y  Y2  1  0.455892  0.192644  0.829169  1
  Y  Y3  1  0.793357  0.536880  0.167232  1
  Y  Y4  1  0.544667  0.808679  0.171172  1
  Er  Er5  1  0.208775  0.462803  0.832985  1
  Er  Er6  1  0.708572  0.961696  0.666899  1
  Er  Er7  1  0.290319  0.037619  0.333099  1
  Er  Er8  1  0.000660  0.000763  0.999440  1
  Er  Er9  1  0.499012  0.499665  0.500289  1
  Al  Al10  1  0.376890  0.378295  0.122215  1
  Al  Al11  1  0.622434  0.622151  0.877648  1
  Al  Al12  1  0.122535  0.121973  0.622376  1
  Al  Al13  1  0.877022  0.878240  0.378131  1
  Bi  Bi14  1  0.800878  0.212915  0.990020  1
  Bi  Bi15  1  0.201718  0.788242  0.007986  1
  Bi  Bi16  1  0.698550  0.284530  0.491977  1
  Bi  Bi17  1  0.299608  0.713708  0.508918  1
