# generated using pymatgen
data_TbHo2Ga8Ag3
_symmetry_space_group_name_H-M   'P 1'
_cell_length_a   4.35747599
_cell_length_b   8.35133604
_cell_length_c   8.35133584
_cell_angle_alpha   69.67431980
_cell_angle_beta   74.87741503
_cell_angle_gamma   74.87740863
_symmetry_Int_Tables_number   1
_chemical_formula_structural   TbHo2Ga8Ag3
_chemical_formula_sum   'Tb1 Ho2 Ga8 Ag3'
_cell_volume   270.20855802
_cell_formula_units_Z   1
loop_
 _symmetry_equiv_pos_site_id
 _symmetry_equiv_pos_as_xyz
  1  'x, y, z'
loop_
 _atom_site_type_symbol
 _atom_site_label
 _atom_site_symmetry_multiplicity
 _atom_site_fract_x
 _atom_site_fract_y
 _atom_site_fract_z
 _atom_site_occupancy
  Tb  Tb0  1  0.500000  0.500000  0.500000  1
  Ho  Ho1  1  0.202120  0.797880  0.797880  1
  Ho  Ho2  1  0.797880  0.202120  0.202120  1
  Ga  Ga3  1  0.356742  0.360978  0.925537  1
  Ga  Ga4  1  0.643258  0.639022  0.074463  1
  Ga  Ga5  1  0.356742  0.925537  0.360978  1
  Ga  Ga6  1  0.643258  0.074463  0.639022  1
  Ga  Ga7  1  0.158175  0.473401  0.210250  1
  Ga  Ga8  1  0.841825  0.526599  0.789750  1
  Ga  Ga9  1  0.158175  0.210250  0.473401  1
  Ga  Ga10  1  0.841825  0.789750  0.526599  1
  Ag  Ag11  1  0.500000  0.000000  0.000000  1
  Ag  Ag12  1  0.000000  0.808814  0.191186  1
  Ag  Ag13  1  0.000000  0.191186  0.808814  1
