# generated using pymatgen
data_Lu3Pa(Al3Co)6
_symmetry_space_group_name_H-M   'P 1'
_cell_length_a   7.35966680
_cell_length_b   7.35725489
_cell_length_c   9.16183000
_cell_angle_alpha   90.00000000
_cell_angle_beta   90.00000000
_cell_angle_gamma   119.09387424
_symmetry_Int_Tables_number   1
_chemical_formula_structural   Lu3Pa(Al3Co)6
_chemical_formula_sum   'Lu3 Pa1 Al18 Co6'
_cell_volume   433.49117364
_cell_formula_units_Z   1
loop_
 _symmetry_equiv_pos_site_id
 _symmetry_equiv_pos_as_xyz
  1  'x, y, z'
loop_
 _atom_site_type_symbol
 _atom_site_label
 _atom_site_symmetry_multiplicity
 _atom_site_fract_x
 _atom_site_fract_y
 _atom_site_fract_z
 _atom_site_occupancy
  Lu  Lu0  1  0.007260  0.325514  0.750000  1
  Lu  Lu1  1  0.675665  0.992748  0.250000  1
  Lu  Lu2  1  0.325324  0.006855  0.750000  1
  Pa  Pa3  1  0.993760  0.674565  0.250000  1
  Al  Al4  1  0.997117  0.332888  0.071605  1
  Al  Al5  1  0.002789  0.663166  0.922681  1
  Al  Al6  1  0.002789  0.663166  0.577319  1
  Al  Al7  1  0.340589  0.000634  0.428352  1
  Al  Al8  1  0.997117  0.332888  0.428395  1
  Al  Al9  1  0.664197  0.004363  0.574024  1
  Al  Al10  1  0.664197  0.004363  0.925976  1
  Al  Al11  1  0.340589  0.000634  0.071648  1
  Al  Al12  1  0.341276  0.555437  0.250000  1
  Al  Al13  1  0.659061  0.440647  0.750000  1
  Al  Al14  1  0.552915  0.339580  0.250000  1
  Al  Al15  1  0.441171  0.660132  0.750000  1
  Al  Al16  1  0.330734  0.330960  0.545619  1
  Al  Al17  1  0.664846  0.668321  0.459481  1
  Al  Al18  1  0.664846  0.668321  0.040519  1
  Al  Al19  1  0.330734  0.330960  0.954381  1
  Al  Al20  1  0.129028  0.129262  0.250000  1
  Al  Al21  1  0.876170  0.877627  0.750000  1
  Co  Co22  1  0.673851  0.331292  0.002309  1
  Co  Co23  1  0.325692  0.671425  0.002129  1
  Co  Co24  1  0.325692  0.671425  0.497871  1
  Co  Co25  1  0.673851  0.331292  0.497691  1
  Co  Co26  1  0.999370  0.995767  0.003865  1
  Co  Co27  1  0.999370  0.995767  0.496135  1
