# generated using pymatgen
data_Nd2Re10Tc7C3
_symmetry_space_group_name_H-M   'P 1'
_cell_length_a   7.04987612
_cell_length_b   7.05429108
_cell_length_c   7.04987665
_cell_angle_alpha   82.82459763
_cell_angle_beta   82.79443296
_cell_angle_gamma   82.82458748
_symmetry_Int_Tables_number   1
_chemical_formula_structural   Nd2Re10Tc7C3
_chemical_formula_sum   'Nd2 Re10 Tc7 C3'
_cell_volume   342.97878618
_cell_formula_units_Z   1
loop_
 _symmetry_equiv_pos_site_id
 _symmetry_equiv_pos_as_xyz
  1  'x, y, z'
loop_
 _atom_site_type_symbol
 _atom_site_label
 _atom_site_symmetry_multiplicity
 _atom_site_fract_x
 _atom_site_fract_y
 _atom_site_fract_z
 _atom_site_occupancy
  Nd  Nd0  1  0.649833  0.650594  0.649833  1
  Nd  Nd1  1  0.349837  0.350625  0.349837  1
  Re  Re2  1  0.998081  0.000496  0.501604  1
  Re  Re3  1  0.501604  0.000496  0.998081  1
  Re  Re4  1  0.000261  0.500536  0.000261  1
  Re  Re5  1  0.721537  0.280019  0.000292  1
  Re  Re6  1  0.999606  0.720664  0.279600  1
  Re  Re7  1  0.278424  0.000050  0.720728  1
  Re  Re8  1  0.000292  0.280019  0.721537  1
  Re  Re9  1  0.720728  0.000050  0.278424  1
  Re  Re10  1  0.279600  0.720664  0.999606  1
  Re  Re11  1  0.346356  0.865536  0.346356  1
  Tc  Tc12  1  0.347370  0.347412  0.867284  1
  Tc  Tc13  1  0.867284  0.347412  0.347370  1
  Tc  Tc14  1  0.652583  0.132158  0.652583  1
  Tc  Tc15  1  0.651066  0.652234  0.135829  1
  Tc  Tc16  1  0.135829  0.652234  0.651066  1
  Tc  Tc17  1  0.903452  0.902628  0.903452  1
  Tc  Tc18  1  0.097473  0.095559  0.097473  1
  C  C19  1  0.500568  0.500178  0.999301  1
  C  C20  1  0.999301  0.500178  0.500568  1
  C  C21  1  0.498915  0.000258  0.498915  1
