# generated using pymatgen
data_NaLiTbReH6
_symmetry_space_group_name_H-M   'P 1'
_cell_length_a   5.11323500
_cell_length_b   5.11320603
_cell_length_c   5.11320200
_cell_angle_alpha   120.00025526
_cell_angle_beta   89.99970866
_cell_angle_gamma   120.00022689
_symmetry_Int_Tables_number   1
_chemical_formula_structural   NaLiTbReH6
_chemical_formula_sum   'Na1 Li1 Tb1 Re1 H6'
_cell_volume   94.52897239
_cell_formula_units_Z   1
loop_
 _symmetry_equiv_pos_site_id
 _symmetry_equiv_pos_as_xyz
  1  'x, y, z'
loop_
 _atom_site_type_symbol
 _atom_site_label
 _atom_site_symmetry_multiplicity
 _atom_site_fract_x
 _atom_site_fract_y
 _atom_site_fract_z
 _atom_site_occupancy
  Na  Na0  1  0.249997  0.499999  0.750000  1
  Li  Li1  1  0.000002  0.000001  0.000001  1
  Tb  Tb2  1  0.749999  0.499995  0.249999  1
  Re  Re3  1  0.499997  0.000001  0.499995  1
  H  H4  1  0.255134  0.000000  0.255134  1
  H  H5  1  0.255135  0.510269  0.255135  1
  H  H6  1  0.744867  0.999999  0.255135  1
  H  H7  1  0.744866  0.489731  0.744867  1
  H  H8  1  0.255133  0.000000  0.744867  1
  H  H9  1  0.744868  0.000000  0.744867  1
