# generated using pymatgen
data_Li4DyTh3Sn4
_symmetry_space_group_name_H-M   'P 1'
_cell_length_a   9.66021300
_cell_length_b   9.66021287
_cell_length_c   7.41659600
_cell_angle_alpha   90.00000000
_cell_angle_beta   90.00000000
_cell_angle_gamma   119.99999703
_symmetry_Int_Tables_number   1
_chemical_formula_structural   Li4DyTh3Sn4
_chemical_formula_sum   'Li8 Dy2 Th6 Sn8'
_cell_volume   599.38885864
_cell_formula_units_Z   2
loop_
 _symmetry_equiv_pos_site_id
 _symmetry_equiv_pos_as_xyz
  1  'x, y, z'
loop_
 _atom_site_type_symbol
 _atom_site_label
 _atom_site_symmetry_multiplicity
 _atom_site_fract_x
 _atom_site_fract_y
 _atom_site_fract_z
 _atom_site_occupancy
  Li  Li0  1  0.164473  0.328946  0.276271  1
  Li  Li1  1  0.164473  0.835527  0.276271  1
  Li  Li2  1  0.671054  0.835527  0.276271  1
  Li  Li3  1  0.835527  0.671054  0.776271  1
  Li  Li4  1  0.835527  0.164473  0.776271  1
  Li  Li5  1  0.328946  0.164473  0.776271  1
  Li  Li6  1  0.333333  0.666667  0.689689  1
  Li  Li7  1  0.666667  0.333333  0.189689  1
  Dy  Dy8  1  0.000000  0.000000  0.501426  1
  Dy  Dy9  1  0.000000  0.000000  0.001426  1
  Th  Th10  1  0.508163  0.016325  0.494139  1
  Th  Th11  1  0.508163  0.491837  0.494139  1
  Th  Th12  1  0.983675  0.491837  0.494139  1
  Th  Th13  1  0.491837  0.983675  0.994139  1
  Th  Th14  1  0.491837  0.508163  0.994139  1
  Th  Th15  1  0.016325  0.508163  0.994139  1
  Sn  Sn16  1  0.164992  0.329984  0.735492  1
  Sn  Sn17  1  0.164992  0.835008  0.735492  1
  Sn  Sn18  1  0.670016  0.835008  0.735492  1
  Sn  Sn19  1  0.835008  0.670016  0.235492  1
  Sn  Sn20  1  0.835008  0.164992  0.235492  1
  Sn  Sn21  1  0.329984  0.164992  0.235492  1
  Sn  Sn22  1  0.333333  0.666667  0.262165  1
  Sn  Sn23  1  0.666667  0.333333  0.762165  1
