# generated using pymatgen
data_Zr7Co16Re(SiP3)3
_symmetry_space_group_name_H-M   'P 1'
_cell_length_a   12.08474180
_cell_length_b   12.09127109
_cell_length_c   3.66259800
_cell_angle_alpha   90.00000000
_cell_angle_beta   90.00000000
_cell_angle_gamma   119.98825395
_symmetry_Int_Tables_number   1
_chemical_formula_structural   Zr7Co16Re(SiP3)3
_chemical_formula_sum   'Zr7 Co16 Re1 Si3 P9'
_cell_volume   463.53294998
_cell_formula_units_Z   1
loop_
 _symmetry_equiv_pos_site_id
 _symmetry_equiv_pos_as_xyz
  1  'x, y, z'
loop_
 _atom_site_type_symbol
 _atom_site_label
 _atom_site_symmetry_multiplicity
 _atom_site_fract_x
 _atom_site_fract_y
 _atom_site_fract_z
 _atom_site_occupancy
  Zr  Zr0  1  0.558147  0.000852  0.000000  1
  Zr  Zr1  1  0.000608  0.554756  0.000000  1
  Zr  Zr2  1  0.667803  0.335868  0.000000  1
  Zr  Zr3  1  0.335161  0.666925  0.000000  1
  Zr  Zr4  1  0.821613  0.820979  0.500000  1
  Zr  Zr5  1  0.173938  0.998781  0.500000  1
  Zr  Zr6  1  0.998574  0.174656  0.500000  1
  Co  Co7  1  0.196775  0.370792  0.000000  1
  Co  Co8  1  0.175828  0.804208  0.000000  1
  Co  Co9  1  0.822621  0.626999  0.000000  1
  Co  Co10  1  0.809472  0.179313  0.000000  1
  Co  Co11  1  0.368170  0.199868  0.000000  1
  Co  Co12  1  0.131887  0.479598  0.500000  1
  Co  Co13  1  0.355163  0.873186  0.500000  1
  Co  Co14  1  0.515158  0.641957  0.500000  1
  Co  Co15  1  0.644517  0.521311  0.500000  1
  Co  Co16  1  0.876099  0.353813  0.500000  1
  Co  Co17  1  0.482177  0.129299  0.500000  1
  Co  Co18  1  0.999436  0.999848  0.000000  1
  Co  Co19  1  0.723445  0.000985  0.500000  1
  Co  Co20  1  0.999445  0.721233  0.500000  1
  Co  Co21  1  0.626566  0.821369  0.000000  1
  Co  Co22  1  0.275577  0.280680  0.500000  1
  Re  Re23  1  0.443577  0.446041  0.000000  1
  Si  Si24  1  0.642173  0.642117  0.000000  1
  Si  Si25  1  0.347589  0.004549  0.000000  1
  Si  Si26  1  0.479930  0.316538  0.500000  1
  P  P27  1  0.004448  0.346977  0.000000  1
  P  P28  1  0.692302  0.175063  0.500000  1
  P  P29  1  0.825430  0.518133  0.500000  1
  P  P30  1  0.518373  0.825649  0.500000  1
  P  P31  1  0.174916  0.692014  0.500000  1
  P  P32  1  0.823306  0.997334  0.000000  1
  P  P33  1  0.998763  0.823749  0.000000  1
  P  P34  1  0.316641  0.479951  0.500000  1
  P  P35  1  0.174372  0.174610  0.000000  1
