# generated using pymatgen
data_Li3Pr3Dy2(P3Ir4)4
_symmetry_space_group_name_H-M   'P 1'
_cell_length_a   12.79236200
_cell_length_b   12.79236110
_cell_length_c   4.00044800
_cell_angle_alpha   90.00000000
_cell_angle_beta   90.00000000
_cell_angle_gamma   119.99999717
_symmetry_Int_Tables_number   1
_chemical_formula_structural   Li3Pr3Dy2(P3Ir4)4
_chemical_formula_sum   'Li3 Pr3 Dy2 P12 Ir16'
_cell_volume   566.94473206
_cell_formula_units_Z   1
loop_
 _symmetry_equiv_pos_site_id
 _symmetry_equiv_pos_as_xyz
  1  'x, y, z'
loop_
 _atom_site_type_symbol
 _atom_site_label
 _atom_site_symmetry_multiplicity
 _atom_site_fract_x
 _atom_site_fract_y
 _atom_site_fract_z
 _atom_site_occupancy
  Li  Li0  1  0.000000  0.441168  0.500000  1
  Li  Li1  1  0.558832  0.558832  0.500000  1
  Li  Li2  1  0.441168  0.000000  0.500000  1
  Pr  Pr3  1  0.000000  0.808289  0.000000  1
  Pr  Pr4  1  0.191711  0.191711  0.000000  1
  Pr  Pr5  1  0.808289  0.000000  0.000000  1
  Dy  Dy6  1  0.333333  0.666667  0.500000  1
  Dy  Dy7  1  0.666667  0.333333  0.500000  1
  P  P8  1  0.000000  0.626442  0.500000  1
  P  P9  1  0.373558  0.373558  0.500000  1
  P  P10  1  0.626442  0.000000  0.500000  1
  P  P11  1  0.515408  0.688192  0.000000  1
  P  P12  1  0.311808  0.827216  0.000000  1
  P  P13  1  0.172784  0.484592  0.000000  1
  P  P14  1  0.484592  0.172784  0.000000  1
  P  P15  1  0.688192  0.515408  0.000000  1
  P  P16  1  0.827216  0.311808  0.000000  1
  P  P17  1  0.000000  0.183483  0.500000  1
  P  P18  1  0.816517  0.816517  0.500000  1
  P  P19  1  0.183483  0.000000  0.500000  1
  Ir  Ir20  1  0.508197  0.867966  0.000000  1
  Ir  Ir21  1  0.132034  0.640232  0.000000  1
  Ir  Ir22  1  0.359768  0.491803  0.000000  1
  Ir  Ir23  1  0.491803  0.359768  0.000000  1
  Ir  Ir24  1  0.867966  0.508197  0.000000  1
  Ir  Ir25  1  0.640232  0.132034  0.000000  1
  Ir  Ir26  1  0.000000  0.283941  0.000000  1
  Ir  Ir27  1  0.716059  0.716059  0.000000  1
  Ir  Ir28  1  0.283941  0.000000  0.000000  1
  Ir  Ir29  1  0.622232  0.802664  0.500000  1
  Ir  Ir30  1  0.197336  0.819568  0.500000  1
  Ir  Ir31  1  0.180432  0.377768  0.500000  1
  Ir  Ir32  1  0.377768  0.180432  0.500000  1
  Ir  Ir33  1  0.802664  0.622232  0.500000  1
  Ir  Ir34  1  0.819568  0.197336  0.500000  1
  Ir  Ir35  1  0.000000  0.000000  0.500000  1
