# generated using pymatgen
data_La2YbEu(CdPt)4
_symmetry_space_group_name_H-M   'P 1'
_cell_length_a   4.27975700
_cell_length_b   7.40930048
_cell_length_c   8.90384029
_cell_angle_alpha   90.35295661
_cell_angle_beta   90.00000000
_cell_angle_gamma   90.00000000
_symmetry_Int_Tables_number   1
_chemical_formula_structural   La2YbEu(CdPt)4
_chemical_formula_sum   'La2 Yb1 Eu1 Cd4 Pt4'
_cell_volume   282.33546803
_cell_formula_units_Z   1
loop_
 _symmetry_equiv_pos_site_id
 _symmetry_equiv_pos_as_xyz
  1  'x, y, z'
loop_
 _atom_site_type_symbol
 _atom_site_label
 _atom_site_symmetry_multiplicity
 _atom_site_fract_x
 _atom_site_fract_y
 _atom_site_fract_z
 _atom_site_occupancy
  La  La0  1  0.250000  0.042188  0.315559  1
  La  La1  1  0.750000  0.956942  0.682068  1
  Yb  Yb2  1  0.250000  0.542049  0.180308  1
  Eu  Eu3  1  0.750000  0.459516  0.823226  1
  Cd  Cd4  1  0.250000  0.142612  0.940737  1
  Cd  Cd5  1  0.250000  0.634316  0.560008  1
  Cd  Cd6  1  0.750000  0.855254  0.062047  1
  Cd  Cd7  1  0.750000  0.367457  0.437131  1
  Pt  Pt8  1  0.250000  0.241124  0.627230  1
  Pt  Pt9  1  0.250000  0.753456  0.868250  1
  Pt  Pt10  1  0.750000  0.753816  0.369519  1
  Pt  Pt11  1  0.750000  0.251269  0.133920  1
