# generated using pymatgen
data_K6ErInSb4
_symmetry_space_group_name_H-M   'P 1'
_cell_length_a   9.88376038
_cell_length_b   9.88375999
_cell_length_c   9.88375865
_cell_angle_alpha   128.91443367
_cell_angle_beta   68.83201061
_cell_angle_gamma   137.13381287
_symmetry_Int_Tables_number   1
_chemical_formula_structural   K6ErInSb4
_chemical_formula_sum   'K6 Er1 In1 Sb4'
_cell_volume   502.00319036
_cell_formula_units_Z   1
loop_
 _symmetry_equiv_pos_site_id
 _symmetry_equiv_pos_as_xyz
  1  'x, y, z'
loop_
 _atom_site_type_symbol
 _atom_site_label
 _atom_site_symmetry_multiplicity
 _atom_site_fract_x
 _atom_site_fract_y
 _atom_site_fract_z
 _atom_site_occupancy
  K  K0  1  0.323677  0.698034  0.005737  1
  K  K1  1  0.176322  0.182059  0.374357  1
  K  K2  1  0.750000  0.250000  0.500000  1
  K  K3  1  0.250000  0.750000  0.500001  1
  K  K4  1  0.807702  0.801966  0.625644  1
  K  K5  1  0.692297  0.317941  0.994263  1
  Er  Er6  1  0.250000  0.250000  0.000000  1
  In  In7  1  0.750001  0.750001  0.000000  1
  Sb  Sb8  1  0.891801  0.194275  0.095381  1
  Sb  Sb9  1  0.608198  0.703581  0.302474  1
  Sb  Sb10  1  0.401105  0.305724  0.697527  1
  Sb  Sb11  1  0.098895  0.796419  0.904618  1
