# generated using pymatgen
data_U2Tl5O4F9
_symmetry_space_group_name_H-M   'P 1'
_cell_length_a   6.25490300
_cell_length_b   10.47169035
_cell_length_c   11.71733600
_cell_angle_alpha   101.18641868
_cell_angle_beta   90.00000000
_cell_angle_gamma   107.37700531
_symmetry_Int_Tables_number   1
_chemical_formula_structural   U2Tl5O4F9
_chemical_formula_sum   'U4 Tl10 O8 F18'
_cell_volume   717.15802792
_cell_formula_units_Z   2
loop_
 _symmetry_equiv_pos_site_id
 _symmetry_equiv_pos_as_xyz
  1  'x, y, z'
loop_
 _atom_site_type_symbol
 _atom_site_label
 _atom_site_symmetry_multiplicity
 _atom_site_fract_x
 _atom_site_fract_y
 _atom_site_fract_z
 _atom_site_occupancy
  U  U0  1  0.150042  0.777234  0.215948  1
  U  U1  1  0.849958  0.222766  0.784052  1
  U  U2  1  0.627191  0.777234  0.715948  1
  U  U3  1  0.372809  0.222766  0.284052  1
  Tl  Tl4  1  0.063916  0.641449  0.863624  1
  Tl  Tl5  1  0.726855  0.949514  0.083411  1
  Tl  Tl6  1  0.273145  0.050486  0.916589  1
  Tl  Tl7  1  0.936084  0.358551  0.136376  1
  Tl  Tl8  1  0.577533  0.641449  0.363624  1
  Tl  Tl9  1  0.777341  0.050486  0.416589  1
  Tl  Tl10  1  0.500000  0.500000  0.000000  1
  Tl  Tl11  1  0.222659  0.949514  0.583411  1
  Tl  Tl12  1  0.422467  0.358551  0.636376  1
  Tl  Tl13  1  0.000000  0.500000  0.500000  1
  O  O14  1  0.621045  0.286317  0.847714  1
  O  O15  1  0.665272  0.286317  0.347714  1
  O  O16  1  0.334728  0.713683  0.652286  1
  O  O17  1  0.922690  0.842015  0.279501  1
  O  O18  1  0.378955  0.713683  0.152286  1
  O  O19  1  0.919326  0.842015  0.779501  1
  O  O20  1  0.077310  0.157985  0.720499  1
  O  O21  1  0.080674  0.157985  0.220499  1
  F  F22  1  0.597110  0.000000  0.750000  1
  F  F23  1  0.884657  0.131661  0.939522  1
  F  F24  1  0.518855  0.174968  0.110706  1
  F  F25  1  0.083352  0.389474  0.916674  1
  F  F26  1  0.402890  0.000000  0.250000  1
  F  F27  1  0.008943  0.598070  0.302326  1
  F  F28  1  0.306123  0.389474  0.416674  1
  F  F29  1  0.693877  0.610526  0.583326  1
  F  F30  1  0.752995  0.868339  0.560478  1
  F  F31  1  0.247005  0.131661  0.439522  1
  F  F32  1  0.656114  0.174968  0.610706  1
  F  F33  1  0.343886  0.825032  0.389294  1
  F  F34  1  0.991057  0.401930  0.697674  1
  F  F35  1  0.916648  0.610526  0.083326  1
  F  F36  1  0.481145  0.825032  0.889294  1
  F  F37  1  0.115343  0.868339  0.060478  1
  F  F38  1  0.410873  0.401930  0.197674  1
  F  F39  1  0.589127  0.598070  0.802326  1
