# generated using pymatgen
data_HoLu9(Cd2Ni)4
_symmetry_space_group_name_H-M   'P 1'
_cell_length_a   7.74980745
_cell_length_b   18.05262505
_cell_length_c   3.51195400
_cell_angle_alpha   90.00000000
_cell_angle_beta   90.00000000
_cell_angle_gamma   89.96086576
_symmetry_Int_Tables_number   1
_chemical_formula_structural   HoLu9(Cd2Ni)4
_chemical_formula_sum   'Ho1 Lu9 Cd8 Ni4'
_cell_volume   491.33759077
_cell_formula_units_Z   1
loop_
 _symmetry_equiv_pos_site_id
 _symmetry_equiv_pos_as_xyz
  1  'x, y, z'
loop_
 _atom_site_type_symbol
 _atom_site_label
 _atom_site_symmetry_multiplicity
 _atom_site_fract_x
 _atom_site_fract_y
 _atom_site_fract_z
 _atom_site_occupancy
  Ho  Ho0  1  0.000000  0.000000  0.000000  1
  Lu  Lu1  1  0.500000  0.500000  0.000000  1
  Lu  Lu2  1  0.760182  0.278727  0.000000  1
  Lu  Lu3  1  0.239818  0.721273  0.000000  1
  Lu  Lu4  1  0.740172  0.778629  0.000000  1
  Lu  Lu5  1  0.259828  0.221371  0.000000  1
  Lu  Lu6  1  0.620981  0.089193  0.000000  1
  Lu  Lu7  1  0.379019  0.910807  0.000000  1
  Lu  Lu8  1  0.878872  0.589177  0.000000  1
  Lu  Lu9  1  0.121128  0.410823  0.000000  1
  Cd  Cd10  1  0.705043  0.930893  0.500000  1
  Cd  Cd11  1  0.294957  0.069107  0.500000  1
  Cd  Cd12  1  0.794039  0.431217  0.500000  1
  Cd  Cd13  1  0.205961  0.568783  0.500000  1
  Cd  Cd14  1  0.561150  0.651362  0.500000  1
  Cd  Cd15  1  0.438850  0.348638  0.500000  1
  Cd  Cd16  1  0.938970  0.151725  0.500000  1
  Cd  Cd17  1  0.061030  0.848275  0.500000  1
  Ni  Ni18  1  0.540075  0.196187  0.500000  1
  Ni  Ni19  1  0.459925  0.803813  0.500000  1
  Ni  Ni20  1  0.959779  0.696173  0.500000  1
  Ni  Ni21  1  0.040221  0.303827  0.500000  1
