# generated using pymatgen
data_PrNd3Mn4(FeO5)4
_symmetry_space_group_name_H-M   'P 1'
_cell_length_a   5.83278700
_cell_length_b   7.58949729
_cell_length_c   8.79444451
_cell_angle_alpha   89.93301510
_cell_angle_beta   90.00000000
_cell_angle_gamma   90.00000000
_symmetry_Int_Tables_number   1
_chemical_formula_structural   PrNd3Mn4(FeO5)4
_chemical_formula_sum   'Pr1 Nd3 Mn4 Fe4 O20'
_cell_volume   389.31150990
_cell_formula_units_Z   1
loop_
 _symmetry_equiv_pos_site_id
 _symmetry_equiv_pos_as_xyz
  1  'x, y, z'
loop_
 _atom_site_type_symbol
 _atom_site_label
 _atom_site_symmetry_multiplicity
 _atom_site_fract_x
 _atom_site_fract_y
 _atom_site_fract_z
 _atom_site_occupancy
  Pr  Pr0  1  0.000000  0.363336  0.670901  1
  Nd  Nd1  1  0.000000  0.637200  0.328760  1
  Nd  Nd2  1  0.000000  0.863192  0.829257  1
  Nd  Nd3  1  0.000000  0.136510  0.170819  1
  Mn  Mn4  1  0.252210  0.500212  0.000506  1
  Mn  Mn5  1  0.747936  0.999293  0.499709  1
  Mn  Mn6  1  0.747790  0.500212  0.000506  1
  Mn  Mn7  1  0.252064  0.999293  0.499709  1
  Fe  Fe8  1  0.500000  0.109410  0.857119  1
  Fe  Fe9  1  0.500000  0.890014  0.143429  1
  Fe  Fe10  1  0.500000  0.610831  0.643242  1
  Fe  Fe11  1  0.500000  0.390112  0.356046  1
  O  O12  1  0.248263  0.901345  0.294981  1
  O  O13  1  0.248814  0.096428  0.704883  1
  O  O14  1  0.751965  0.401465  0.204869  1
  O  O15  1  0.750978  0.599878  0.795720  1
  O  O16  1  0.751186  0.096428  0.704883  1
  O  O17  1  0.751737  0.901345  0.294981  1
  O  O18  1  0.249022  0.599878  0.795720  1
  O  O19  1  0.248035  0.401465  0.204869  1
  O  O20  1  0.500000  0.347005  0.935674  1
  O  O21  1  0.500000  0.653148  0.064579  1
  O  O22  1  0.500000  0.846952  0.563701  1
  O  O23  1  0.500000  0.153042  0.435857  1
  O  O24  1  0.272875  0.000044  0.000250  1
  O  O25  1  0.726228  0.501536  0.498947  1
  O  O26  1  0.727125  0.000044  0.000250  1
  O  O27  1  0.273772  0.501536  0.498947  1
  O  O28  1  0.000000  0.155414  0.446410  1
  O  O29  1  0.000000  0.843058  0.552790  1
  O  O30  1  0.000000  0.656641  0.052991  1
  O  O31  1  0.000000  0.343735  0.948691  1
