# generated using pymatgen
data_Ag3Te4AuO16
_symmetry_space_group_name_H-M   'P 1'
_cell_length_a   4.94921053
_cell_length_b   5.59084000
_cell_length_c   11.56722350
_cell_angle_alpha   91.22947094
_cell_angle_beta   84.74603222
_cell_angle_gamma   90.03616000
_symmetry_Int_Tables_number   1
_chemical_formula_structural   Ag3Te4AuO16
_chemical_formula_sum   'Ag3 Te4 Au1 O16'
_cell_volume   318.64949925
_cell_formula_units_Z   1
loop_
 _symmetry_equiv_pos_site_id
 _symmetry_equiv_pos_as_xyz
  1  'x, y, z'
loop_
 _atom_site_type_symbol
 _atom_site_label
 _atom_site_symmetry_multiplicity
 _atom_site_fract_x
 _atom_site_fract_y
 _atom_site_fract_z
 _atom_site_occupancy
  Ag  Ag0  1  0.000000  0.000000  0.500000  1
  Ag  Ag1  1  0.500000  0.500000  0.500000  1
  Ag  Ag2  1  0.500000  0.500000  0.000000  1
  Te  Te3  1  0.447222  0.182592  0.746733  1
  Te  Te4  1  0.056929  0.311327  0.253866  1
  Te  Te5  1  0.943071  0.688673  0.746134  1
  Te  Te6  1  0.552778  0.817408  0.253267  1
  Au  Au7  1  0.000000  0.000000  0.000000  1
  O  O8  1  0.270616  0.209252  0.905348  1
  O  O9  1  0.729384  0.790748  0.094652  1
  O  O10  1  0.636702  0.202869  0.594079  1
  O  O11  1  0.822328  0.697201  0.592327  1
  O  O12  1  0.789062  0.064805  0.315158  1
  O  O13  1  0.797382  0.567144  0.309397  1
  O  O14  1  0.321914  0.555686  0.189658  1
  O  O15  1  0.686194  0.944829  0.807409  1
  O  O16  1  0.678086  0.444314  0.810342  1
  O  O17  1  0.081638  0.704586  0.897693  1
  O  O18  1  0.210938  0.935195  0.684842  1
  O  O19  1  0.363298  0.797131  0.405921  1
  O  O20  1  0.202618  0.432856  0.690603  1
  O  O21  1  0.177672  0.302799  0.407673  1
  O  O22  1  0.918362  0.295414  0.102307  1
  O  O23  1  0.313806  0.055171  0.192591  1
