# generated using pymatgen
data_Tb5Sc3Ir4
_symmetry_space_group_name_H-M   'P 1'
_cell_length_a   4.35238000
_cell_length_b   7.21821454
_cell_length_c   8.72887832
_cell_angle_alpha   89.53241494
_cell_angle_beta   90.00000000
_cell_angle_gamma   90.00000000
_symmetry_Int_Tables_number   1
_chemical_formula_structural   Tb5Sc3Ir4
_chemical_formula_sum   'Tb5 Sc3 Ir4'
_cell_volume   274.22091072
_cell_formula_units_Z   1
loop_
 _symmetry_equiv_pos_site_id
 _symmetry_equiv_pos_as_xyz
  1  'x, y, z'
loop_
 _atom_site_type_symbol
 _atom_site_label
 _atom_site_symmetry_multiplicity
 _atom_site_fract_x
 _atom_site_fract_y
 _atom_site_fract_z
 _atom_site_occupancy
  Tb  Tb0  1  0.250000  0.997157  0.332122  1
  Tb  Tb1  1  0.750000  0.018540  0.679741  1
  Tb  Tb2  1  0.250000  0.480635  0.160363  1
  Tb  Tb3  1  0.750000  0.518440  0.824408  1
  Tb  Tb4  1  0.750000  0.641984  0.424993  1
  Sc  Sc5  1  0.250000  0.357926  0.571798  1
  Sc  Sc6  1  0.750000  0.136410  0.068829  1
  Sc  Sc7  1  0.250000  0.860647  0.931875  1
  Ir  Ir8  1  0.250000  0.237192  0.900055  1
  Ir  Ir9  1  0.750000  0.757367  0.089041  1
  Ir  Ir10  1  0.250000  0.744595  0.611742  1
  Ir  Ir11  1  0.750000  0.249109  0.405030  1
