# generated using pymatgen
data_Ho4ErTmIr2
_symmetry_space_group_name_H-M   'P 1'
_cell_length_a   6.36982046
_cell_length_b   7.21748300
_cell_length_c   9.12672058
_cell_angle_alpha   90.00000000
_cell_angle_beta   90.20537467
_cell_angle_gamma   90.00000000
_symmetry_Int_Tables_number   1
_chemical_formula_structural   Ho4ErTmIr2
_chemical_formula_sum   'Ho8 Er2 Tm2 Ir4'
_cell_volume   419.58980336
_cell_formula_units_Z   2
loop_
 _symmetry_equiv_pos_site_id
 _symmetry_equiv_pos_as_xyz
  1  'x, y, z'
loop_
 _atom_site_type_symbol
 _atom_site_label
 _atom_site_symmetry_multiplicity
 _atom_site_fract_x
 _atom_site_fract_y
 _atom_site_fract_z
 _atom_site_occupancy
  Ho  Ho0  1  0.672159  0.322606  0.561723  1
  Ho  Ho1  1  0.827841  0.822606  0.938277  1
  Ho  Ho2  1  0.671852  0.322521  0.938208  1
  Ho  Ho3  1  0.828148  0.822521  0.561792  1
  Ho  Ho4  1  0.871594  0.534076  0.250250  1
  Ho  Ho5  1  0.628406  0.034076  0.249750  1
  Ho  Ho6  1  0.129468  0.466104  0.749928  1
  Ho  Ho7  1  0.370532  0.966104  0.750072  1
  Er  Er8  1  0.327739  0.677595  0.062598  1
  Er  Er9  1  0.172261  0.177595  0.437402  1
  Tm  Tm10  1  0.328778  0.676855  0.437352  1
  Tm  Tm11  1  0.171222  0.176855  0.062648  1
  Ir  Ir12  1  0.045465  0.883694  0.250363  1
  Ir  Ir13  1  0.454535  0.383694  0.249637  1
  Ir  Ir14  1  0.956711  0.116549  0.751421  1
  Ir  Ir15  1  0.543289  0.616549  0.748579  1
