# generated using pymatgen
data_SrYb9Si10O
_symmetry_space_group_name_H-M   'P 1'
_cell_length_a   10.72071371
_cell_length_b   10.72071404
_cell_length_c   10.72071291
_cell_angle_alpha   155.28423793
_cell_angle_beta   109.93319290
_cell_angle_gamma   75.56287867
_symmetry_Int_Tables_number   1
_chemical_formula_structural   SrYb9Si10O
_chemical_formula_sum   'Sr1 Yb9 Si10 O1'
_cell_volume   478.57942381
_cell_formula_units_Z   1
loop_
 _symmetry_equiv_pos_site_id
 _symmetry_equiv_pos_as_xyz
  1  'x, y, z'
loop_
 _atom_site_type_symbol
 _atom_site_label
 _atom_site_symmetry_multiplicity
 _atom_site_fract_x
 _atom_site_fract_y
 _atom_site_fract_z
 _atom_site_occupancy
  Sr  Sr0  1  0.500000  0.000000  0.500000  1
  Yb  Yb1  1  0.850643  0.850643  0.000000  1
  Yb  Yb2  1  0.190890  0.000000  0.190890  1
  Yb  Yb3  1  0.477529  0.810558  0.666971  1
  Yb  Yb4  1  0.856413  0.189442  0.666971  1
  Yb  Yb5  1  0.809110  0.000000  0.809110  1
  Yb  Yb6  1  0.000000  0.500000  0.500000  1
  Yb  Yb7  1  0.149357  0.149357  0.000000  1
  Yb  Yb8  1  0.522471  0.189442  0.333029  1
  Yb  Yb9  1  0.143587  0.810558  0.333029  1
  Si  Si10  1  0.412148  0.570013  0.842135  1
  Si  Si11  1  0.272123  0.429987  0.842135  1
  Si  Si12  1  0.587852  0.429987  0.157865  1
  Si  Si13  1  0.727877  0.570013  0.157865  1
  Si  Si14  1  0.693840  0.367095  0.326744  1
  Si  Si15  1  0.650138  0.650138  0.000000  1
  Si  Si16  1  0.306160  0.632905  0.673256  1
  Si  Si17  1  0.349862  0.349862  0.000000  1
  Si  Si18  1  0.040351  0.367095  0.673256  1
  Si  Si19  1  0.959649  0.632905  0.326744  1
  O  O20  1  0.000000  0.000000  0.000000  1
