# generated using pymatgen
data_Li3Yb12Ga9Sb7RuO48
_symmetry_space_group_name_H-M   'P 1'
_cell_length_a   10.63882079
_cell_length_b   10.60482885
_cell_length_c   10.63882200
_cell_angle_alpha   109.40651315
_cell_angle_beta   109.53586398
_cell_angle_gamma   109.40650103
_symmetry_Int_Tables_number   1
_chemical_formula_structural   Li3Yb12Ga9Sb7RuO48
_chemical_formula_sum   'Li3 Yb12 Ga9 Sb7 Ru1 O48'
_cell_volume   924.73010497
_cell_formula_units_Z   1
loop_
 _symmetry_equiv_pos_site_id
 _symmetry_equiv_pos_as_xyz
  1  'x, y, z'
loop_
 _atom_site_type_symbol
 _atom_site_label
 _atom_site_symmetry_multiplicity
 _atom_site_fract_x
 _atom_site_fract_y
 _atom_site_fract_z
 _atom_site_occupancy
  Li  Li0  1  0.753386  0.878074  0.125423  1
  Li  Li1  1  0.872355  0.243021  0.112668  1
  Li  Li2  1  0.615725  0.369557  0.244743  1
  Yb  Yb3  1  0.249919  0.371429  0.127131  1
  Yb  Yb4  1  0.379558  0.752759  0.122473  1
  Yb  Yb5  1  0.381585  0.131372  0.246375  1
  Yb  Yb6  1  0.864065  0.615436  0.241500  1
  Yb  Yb7  1  0.118738  0.247872  0.368159  1
  Yb  Yb8  1  0.745987  0.117702  0.363320  1
  Yb  Yb9  1  0.248827  0.871711  0.627961  1
  Yb  Yb10  1  0.877099  0.750457  0.627557  1
  Yb  Yb11  1  0.125553  0.375909  0.749330  1
  Yb  Yb12  1  0.630562  0.879513  0.761915  1
  Yb  Yb13  1  0.630648  0.252692  0.888789  1
  Yb  Yb14  1  0.749939  0.632994  0.883595  1
  Ga  Ga15  1  0.126008  0.878120  0.251586  1
  Ga  Ga16  1  0.625011  0.746537  0.372195  1
  Ga  Ga17  1  0.245720  0.623473  0.373019  1
  Ga  Ga18  1  0.749352  0.376548  0.625113  1
  Ga  Ga19  1  0.376453  0.250708  0.626665  1
  Ga  Ga20  1  0.875930  0.126033  0.751467  1
  Ga  Ga21  1  0.375544  0.624377  0.750972  1
  Ga  Ga22  1  0.251911  0.126105  0.875060  1
  Ga  Ga23  1  0.126976  0.752331  0.877376  1
  Sb  Sb24  1  0.996357  0.003657  0.003302  1
  Sb  Sb25  1  0.511063  0.004301  0.007065  1
  Sb  Sb26  1  0.507867  0.501553  0.005264  1
  Sb  Sb27  1  0.998395  0.499175  0.003150  1
  Sb  Sb28  1  0.500382  0.999834  0.501215  1
  Sb  Sb29  1  0.997631  0.000943  0.494549  1
  Sb  Sb30  1  0.498433  0.497817  0.495104  1
  Ru  Ru31  1  0.989052  0.492530  0.489322  1
  O  O32  1  0.321197  0.908557  0.025214  1
  O  O33  1  0.202626  0.115563  0.021899  1
  O  O34  1  0.705955  0.677352  0.087159  1
  O  O35  1  0.884032  0.411668  0.088477  1
  O  O36  1  0.976255  0.682967  0.093555  1
  O  O37  1  0.617399  0.410570  0.092209  1
  O  O38  1  0.588829  0.908491  0.118641  1
  O  O39  1  0.033033  0.208395  0.123169  1
  O  O40  1  0.470091  0.594177  0.177593  1
  O  O41  1  0.207415  0.587798  0.179731  1
  O  O42  1  0.126968  0.030274  0.207779  1
  O  O43  1  0.590853  0.178198  0.209007  1
  O  O44  1  0.468340  0.380797  0.295326  1
  O  O45  1  0.323759  0.916747  0.296407  1
  O  O46  1  0.911530  0.035345  0.326635  1
  O  O47  1  0.915537  0.309387  0.326260  1
  O  O48  1  0.291760  0.475855  0.385061  1
  O  O49  1  0.585552  0.906122  0.381808  1
  O  O50  1  0.826285  0.521751  0.413547  1
  O  O51  1  0.085411  0.878127  0.406901  1
  O  O52  1  0.823330  0.793415  0.418415  1
  O  O53  1  0.087373  0.616541  0.413454  1
  O  O54  1  0.595241  0.178857  0.475058  1
  O  O55  1  0.378081  0.293694  0.473610  1
  O  O56  1  0.620957  0.707000  0.527684  1
  O  O57  1  0.403022  0.820119  0.525962  1
  O  O58  1  0.907652  0.382978  0.585070  1
  O  O59  1  0.181786  0.208463  0.589785  1
  O  O60  1  0.914698  0.121645  0.594564  1
  O  O61  1  0.174365  0.477664  0.592209  1
  O  O62  1  0.415142  0.092114  0.621268  1
  O  O63  1  0.706309  0.529269  0.621381  1
  O  O64  1  0.084292  0.696193  0.676451  1
  O  O65  1  0.093569  0.973992  0.675328  1
  O  O66  1  0.678378  0.084163  0.704669  1
  O  O67  1  0.523835  0.617158  0.700845  1
  O  O68  1  0.409162  0.817604  0.793429  1
  O  O69  1  0.882669  0.973036  0.790878  1
  O  O70  1  0.795677  0.415747  0.820920  1
  O  O71  1  0.527486  0.406920  0.819427  1
  O  O72  1  0.975674  0.796977  0.879487  1
  O  O73  1  0.402555  0.079014  0.876607  1
  O  O74  1  0.377139  0.578984  0.903225  1
  O  O75  1  0.028407  0.323464  0.904841  1
  O  O76  1  0.118752  0.592593  0.915323  1
  O  O77  1  0.295612  0.323012  0.915379  1
  O  O78  1  0.674082  0.089049  0.966213  1
  O  O79  1  0.795886  0.877644  0.968763  1
