# generated using pymatgen
data_Tb3Ho13Cd2(InPd2)2
_symmetry_space_group_name_H-M   'P 1'
_cell_length_a   9.68960325
_cell_length_b   9.68495772
_cell_length_c   9.68952800
_cell_angle_alpha   59.98438862
_cell_angle_beta   60.00025690
_cell_angle_gamma   60.04573845
_symmetry_Int_Tables_number   1
_chemical_formula_structural   Tb3Ho13Cd2(InPd2)2
_chemical_formula_sum   'Tb3 Ho13 Cd2 In2 Pd4'
_cell_volume   643.11818146
_cell_formula_units_Z   1
loop_
 _symmetry_equiv_pos_site_id
 _symmetry_equiv_pos_as_xyz
  1  'x, y, z'
loop_
 _atom_site_type_symbol
 _atom_site_label
 _atom_site_symmetry_multiplicity
 _atom_site_fract_x
 _atom_site_fract_y
 _atom_site_fract_z
 _atom_site_occupancy
  Tb  Tb0  1  0.352935  0.353063  0.353169  1
  Tb  Tb1  1  0.352935  0.353063  0.940833  1
  Tb  Tb2  1  0.353568  0.939313  0.353560  1
  Ho  Ho3  1  0.939522  0.353726  0.353377  1
  Ho  Ho4  1  0.810377  0.190019  0.189815  1
  Ho  Ho5  1  0.189994  0.810373  0.810029  1
  Ho  Ho6  1  0.189994  0.810373  0.189603  1
  Ho  Ho7  1  0.810377  0.190019  0.809787  1
  Ho  Ho8  1  0.189141  0.188980  0.810940  1
  Ho  Ho9  1  0.809557  0.809230  0.190607  1
  Ho  Ho10  1  0.935922  0.565724  0.565439  1
  Ho  Ho11  1  0.565741  0.936030  0.932699  1
  Ho  Ho12  1  0.565741  0.936030  0.565530  1
  Ho  Ho13  1  0.935922  0.565724  0.932915  1
  Ho  Ho14  1  0.566031  0.566111  0.933929  1
  Ho  Ho15  1  0.935151  0.935403  0.564723  1
  Cd  Cd16  1  0.582198  0.251309  0.583246  1
  Cd  Cd17  1  0.251285  0.581943  0.583386  1
  In  In18  1  0.582521  0.582013  0.583391  1
  In  In19  1  0.582521  0.582013  0.252075  1
  Pd  Pd20  1  0.143294  0.143906  0.144535  1
  Pd  Pd21  1  0.143294  0.143906  0.568264  1
  Pd  Pd22  1  0.142843  0.568606  0.144275  1
  Pd  Pd23  1  0.569134  0.143122  0.143872  1
