# generated using pymatgen
data_Dy11Ho3(Tm3Sn8)2
_symmetry_space_group_name_H-M   'P 1'
_cell_length_a   7.99358509
_cell_length_b   8.12967308
_cell_length_c   15.38044572
_cell_angle_alpha   90.00947742
_cell_angle_beta   90.00220531
_cell_angle_gamma   90.01334463
_symmetry_Int_Tables_number   1
_chemical_formula_structural   Dy11Ho3(Tm3Sn8)2
_chemical_formula_sum   'Dy11 Ho3 Tm6 Sn16'
_cell_volume   999.50181533
_cell_formula_units_Z   1
loop_
 _symmetry_equiv_pos_site_id
 _symmetry_equiv_pos_as_xyz
  1  'x, y, z'
loop_
 _atom_site_type_symbol
 _atom_site_label
 _atom_site_symmetry_multiplicity
 _atom_site_fract_x
 _atom_site_fract_y
 _atom_site_fract_z
 _atom_site_occupancy
  Dy  Dy0  1  0.132305  0.336799  0.377253  1
  Dy  Dy1  1  0.368067  0.836917  0.622301  1
  Dy  Dy2  1  0.867496  0.663325  0.878323  1
  Dy  Dy3  1  0.521172  0.320341  0.903562  1
  Dy  Dy4  1  0.021279  0.179177  0.597170  1
  Dy  Dy5  1  0.478780  0.679172  0.402571  1
  Dy  Dy6  1  0.978746  0.821046  0.097215  1
  Dy  Dy7  1  0.479567  0.679192  0.096875  1
  Dy  Dy8  1  0.979303  0.821241  0.402780  1
  Dy  Dy9  1  0.520375  0.320970  0.596920  1
  Dy  Dy10  1  0.020896  0.179188  0.903127  1
  Ho  Ho11  1  0.366556  0.837239  0.877253  1
  Ho  Ho12  1  0.866577  0.662733  0.622713  1
  Ho  Ho13  1  0.633351  0.162656  0.377097  1
  Tm  Tm14  1  0.133222  0.337626  0.122512  1
  Tm  Tm15  1  0.632476  0.162522  0.122986  1
  Tm  Tm16  1  0.198213  0.503318  0.750430  1
  Tm  Tm17  1  0.698457  0.996730  0.749905  1
  Tm  Tm18  1  0.801473  0.496326  0.250002  1
  Tm  Tm19  1  0.301588  0.003802  0.249241  1
  Sn  Sn20  1  0.294195  0.038165  0.041645  1
  Sn  Sn21  1  0.792141  0.462974  0.458415  1
  Sn  Sn22  1  0.707926  0.963064  0.541509  1
  Sn  Sn23  1  0.207782  0.536811  0.958695  1
  Sn  Sn24  1  0.704385  0.964100  0.958674  1
  Sn  Sn25  1  0.204728  0.536699  0.542358  1
  Sn  Sn26  1  0.295026  0.036836  0.457455  1
  Sn  Sn27  1  0.794238  0.461099  0.042725  1
  Sn  Sn28  1  0.564272  0.618666  0.750281  1
  Sn  Sn29  1  0.064338  0.881010  0.750024  1
  Sn  Sn30  1  0.436099  0.380322  0.249376  1
  Sn  Sn31  1  0.935373  0.119296  0.249121  1
  Sn  Sn32  1  0.330446  0.148890  0.750306  1
  Sn  Sn33  1  0.830375  0.351488  0.749893  1
  Sn  Sn34  1  0.669297  0.851583  0.249739  1
  Sn  Sn35  1  0.169478  0.648676  0.249546  1
