# generated using pymatgen
data_Pr8Cd2OsPd
_symmetry_space_group_name_H-M   'P 1'
_cell_length_a   10.05520873
_cell_length_b   10.05520969
_cell_length_c   10.14136300
_cell_angle_alpha   59.71616818
_cell_angle_beta   59.71616499
_cell_angle_gamma   59.68017787
_symmetry_Int_Tables_number   1
_chemical_formula_structural   Pr8Cd2OsPd
_chemical_formula_sum   'Pr16 Cd4 Os2 Pd2'
_cell_volume   720.17048305
_cell_formula_units_Z   2
loop_
 _symmetry_equiv_pos_site_id
 _symmetry_equiv_pos_as_xyz
  1  'x, y, z'
loop_
 _atom_site_type_symbol
 _atom_site_label
 _atom_site_symmetry_multiplicity
 _atom_site_fract_x
 _atom_site_fract_y
 _atom_site_fract_z
 _atom_site_occupancy
  Pr  Pr0  1  0.347817  0.347817  0.355617  1
  Pr  Pr1  1  0.347817  0.347817  0.948750  1
  Pr  Pr2  1  0.344064  0.955185  0.350376  1
  Pr  Pr3  1  0.955185  0.344064  0.350376  1
  Pr  Pr4  1  0.815431  0.189640  0.191647  1
  Pr  Pr5  1  0.189640  0.815431  0.803282  1
  Pr  Pr6  1  0.189640  0.815431  0.191647  1
  Pr  Pr7  1  0.815431  0.189640  0.803282  1
  Pr  Pr8  1  0.189225  0.189225  0.810775  1
  Pr  Pr9  1  0.806268  0.806268  0.193732  1
  Pr  Pr10  1  0.937824  0.557126  0.565296  1
  Pr  Pr11  1  0.557126  0.937824  0.939754  1
  Pr  Pr12  1  0.557126  0.937824  0.565296  1
  Pr  Pr13  1  0.937824  0.557126  0.939754  1
  Pr  Pr14  1  0.563055  0.563055  0.936945  1
  Pr  Pr15  1  0.939735  0.939735  0.560265  1
  Cd  Cd16  1  0.579541  0.579541  0.580198  1
  Cd  Cd17  1  0.579541  0.579541  0.260720  1
  Cd  Cd18  1  0.580173  0.259183  0.580321  1
  Cd  Cd19  1  0.259183  0.580173  0.580321  1
  Os  Os20  1  0.144074  0.144074  0.136869  1
  Os  Os21  1  0.144074  0.144074  0.574983  1
  Pd  Pd22  1  0.146504  0.573701  0.139897  1
  Pd  Pd23  1  0.573701  0.146504  0.139897  1
