# generated using pymatgen
data_Hf17Ta3Si15P
_symmetry_space_group_name_H-M   'P 1'
_cell_length_a   6.99883123
_cell_length_b   6.99888694
_cell_length_c   12.80958492
_cell_angle_alpha   90.11708412
_cell_angle_beta   89.96103682
_cell_angle_gamma   89.83760439
_symmetry_Int_Tables_number   1
_chemical_formula_structural   Hf17Ta3Si15P
_chemical_formula_sum   'Hf17 Ta3 Si15 P1'
_cell_volume   627.46109405
_cell_formula_units_Z   1
loop_
 _symmetry_equiv_pos_site_id
 _symmetry_equiv_pos_as_xyz
  1  'x, y, z'
loop_
 _atom_site_type_symbol
 _atom_site_label
 _atom_site_symmetry_multiplicity
 _atom_site_fract_x
 _atom_site_fract_y
 _atom_site_fract_z
 _atom_site_occupancy
  Hf  Hf0  1  0.174205  0.176203  0.000563  1
  Hf  Hf1  1  0.498983  0.152171  0.531869  1
  Hf  Hf2  1  0.504254  0.848355  0.031982  1
  Hf  Hf3  1  0.652779  0.000655  0.283739  1
  Hf  Hf4  1  0.345783  0.996567  0.780771  1
  Hf  Hf5  1  0.847213  0.501797  0.969294  1
  Hf  Hf6  1  0.152765  0.497770  0.467935  1
  Hf  Hf7  1  0.000551  0.653256  0.717631  1
  Hf  Hf8  1  0.997484  0.346859  0.217685  1
  Hf  Hf9  1  0.502560  0.350594  0.126035  1
  Hf  Hf10  1  0.502719  0.645768  0.626270  1
  Hf  Hf11  1  0.851322  0.003457  0.876860  1
  Hf  Hf12  1  0.145553  0.997835  0.376431  1
  Hf  Hf13  1  0.646536  0.501488  0.373430  1
  Hf  Hf14  1  0.354745  0.499989  0.873475  1
  Hf  Hf15  1  0.998344  0.856494  0.124891  1
  Hf  Hf16  1  0.997189  0.145466  0.623308  1
  Ta  Ta17  1  0.675604  0.325053  0.749653  1
  Ta  Ta18  1  0.325376  0.674583  0.250627  1
  Ta  Ta19  1  0.824554  0.824802  0.499863  1
  Si  Si20  1  0.201890  0.852403  0.571914  1
  Si  Si21  1  0.647818  0.702141  0.822522  1
  Si  Si22  1  0.353062  0.297762  0.321899  1
  Si  Si23  1  0.852449  0.201734  0.428357  1
  Si  Si24  1  0.145493  0.796963  0.928095  1
  Si  Si25  1  0.701824  0.646743  0.177768  1
  Si  Si26  1  0.297550  0.353248  0.677342  1
  Si  Si27  1  0.545209  0.198381  0.932255  1
  Si  Si28  1  0.452305  0.800689  0.435508  1
  Si  Si29  1  0.698593  0.952095  0.685527  1
  Si  Si30  1  0.303534  0.044768  0.186518  1
  Si  Si31  1  0.801378  0.452212  0.564421  1
  Si  Si32  1  0.199988  0.550934  0.065879  1
  Si  Si33  1  0.952650  0.698020  0.314812  1
  Si  Si34  1  0.046276  0.303073  0.813269  1
  P  P35  1  0.801464  0.149669  0.071599  1
