# generated using pymatgen
data_Th5GaBi2Pb
_symmetry_space_group_name_H-M   'P 1'
_cell_length_a   9.71276600
_cell_length_b   9.71276543
_cell_length_c   6.56451300
_cell_angle_alpha   90.00000000
_cell_angle_beta   90.00000000
_cell_angle_gamma   120.06930695
_symmetry_Int_Tables_number   1
_chemical_formula_structural   Th5GaBi2Pb
_chemical_formula_sum   'Th10 Ga2 Bi4 Pb2'
_cell_volume   535.93885344
_cell_formula_units_Z   2
loop_
 _symmetry_equiv_pos_site_id
 _symmetry_equiv_pos_as_xyz
  1  'x, y, z'
loop_
 _atom_site_type_symbol
 _atom_site_label
 _atom_site_symmetry_multiplicity
 _atom_site_fract_x
 _atom_site_fract_y
 _atom_site_fract_z
 _atom_site_occupancy
  Th  Th0  1  0.666187  0.332730  0.500308  1
  Th  Th1  1  0.332730  0.666187  0.500308  1
  Th  Th2  1  0.332730  0.666187  0.999692  1
  Th  Th3  1  0.666187  0.332730  0.999692  1
  Th  Th4  1  0.737487  0.737487  0.250000  1
  Th  Th5  1  0.262218  0.000784  0.250000  1
  Th  Th6  1  0.000784  0.262218  0.250000  1
  Th  Th7  1  0.262274  0.262274  0.750000  1
  Th  Th8  1  0.738865  0.001168  0.750000  1
  Th  Th9  1  0.001168  0.738865  0.750000  1
  Ga  Ga10  1  0.999846  0.999846  0.499555  1
  Ga  Ga11  1  0.999846  0.999846  0.000445  1
  Bi  Bi12  1  0.385867  0.385867  0.250000  1
  Bi  Bi13  1  0.613459  0.000321  0.250000  1
  Bi  Bi14  1  0.000321  0.613459  0.250000  1
  Bi  Bi15  1  0.614283  0.614283  0.750000  1
  Pb  Pb16  1  0.385474  0.000274  0.750000  1
  Pb  Pb17  1  0.000274  0.385474  0.750000  1
