# generated using pymatgen
data_DyEr19(Bi2Os)4
_symmetry_space_group_name_H-M   'P 1'
_cell_length_a   7.90086494
_cell_length_b   8.99278800
_cell_length_c   12.40734500
_cell_angle_alpha   90.00000000
_cell_angle_beta   90.05013506
_cell_angle_gamma   90.00000000
_symmetry_Int_Tables_number   1
_chemical_formula_structural   DyEr19(Bi2Os)4
_chemical_formula_sum   'Dy1 Er19 Bi8 Os4'
_cell_volume   881.55149317
_cell_formula_units_Z   1
loop_
 _symmetry_equiv_pos_site_id
 _symmetry_equiv_pos_as_xyz
  1  'x, y, z'
loop_
 _atom_site_type_symbol
 _atom_site_label
 _atom_site_symmetry_multiplicity
 _atom_site_fract_x
 _atom_site_fract_y
 _atom_site_fract_z
 _atom_site_occupancy
  Dy  Dy0  1  0.661834  0.750000  0.709598  1
  Er  Er1  1  0.338548  0.250000  0.290944  1
  Er  Er2  1  0.161010  0.250000  0.791252  1
  Er  Er3  1  0.838672  0.750000  0.208740  1
  Er  Er4  1  0.124111  0.750000  0.809363  1
  Er  Er5  1  0.876672  0.250000  0.190937  1
  Er  Er6  1  0.623706  0.250000  0.690781  1
  Er  Er7  1  0.376477  0.750000  0.309123  1
  Er  Er8  1  0.557799  0.750000  0.996127  1
  Er  Er9  1  0.440970  0.250000  0.004442  1
  Er  Er10  1  0.058752  0.250000  0.503820  1
  Er  Er11  1  0.941945  0.750000  0.495648  1
  Er  Er12  1  0.827125  0.457382  0.935489  1
  Er  Er13  1  0.172651  0.542686  0.064689  1
  Er  Er14  1  0.327105  0.542190  0.564328  1
  Er  Er15  1  0.172651  0.957314  0.064689  1
  Er  Er16  1  0.672833  0.457355  0.435264  1
  Er  Er17  1  0.827125  0.042618  0.935489  1
  Er  Er18  1  0.672833  0.042645  0.435264  1
  Er  Er19  1  0.327105  0.957810  0.564328  1
  Bi  Bi20  1  0.934301  0.007637  0.671674  1
  Bi  Bi21  1  0.066623  0.992641  0.328032  1
  Bi  Bi22  1  0.432748  0.993444  0.828468  1
  Bi  Bi23  1  0.066623  0.507359  0.328032  1
  Bi  Bi24  1  0.566754  0.007273  0.171983  1
  Bi  Bi25  1  0.934301  0.492363  0.671674  1
  Bi  Bi26  1  0.566754  0.492727  0.171983  1
  Bi  Bi27  1  0.432748  0.506556  0.828468  1
  Os  Os28  1  0.923962  0.750000  0.990425  1
  Os  Os29  1  0.075394  0.250000  0.009512  1
  Os  Os30  1  0.424541  0.250000  0.509107  1
  Os  Os31  1  0.575332  0.750000  0.490325  1
