# generated using pymatgen
data_Yb2Os(CN)2
_symmetry_space_group_name_H-M   'P 1'
_cell_length_a   6.59492251
_cell_length_b   6.59492278
_cell_length_c   6.59492391
_cell_angle_alpha   133.37319617
_cell_angle_beta   109.69751643
_cell_angle_gamma   88.63611452
_symmetry_Int_Tables_number   1
_chemical_formula_structural   Yb2Os(CN)2
_chemical_formula_sum   'Yb4 Os2 C4 N4'
_cell_volume   187.04167159
_cell_formula_units_Z   2
loop_
 _symmetry_equiv_pos_site_id
 _symmetry_equiv_pos_as_xyz
  1  'x, y, z'
loop_
 _atom_site_type_symbol
 _atom_site_label
 _atom_site_symmetry_multiplicity
 _atom_site_fract_x
 _atom_site_fract_y
 _atom_site_fract_z
 _atom_site_occupancy
  Yb  Yb0  1  0.202149  0.345381  0.856767  1
  Yb  Yb1  1  0.797851  0.654619  0.143233  1
  Yb  Yb2  1  0.488613  0.845381  0.643233  1
  Yb  Yb3  1  0.511387  0.154619  0.356767  1
  Os  Os4  1  0.000000  0.250000  0.250000  1
  Os  Os5  1  0.000000  0.750000  0.750000  1
  C  C6  1  0.894414  0.074235  0.820178  1
  C  C7  1  0.105586  0.925765  0.179822  1
  C  C8  1  0.254056  0.574235  0.679822  1
  C  C9  1  0.745944  0.425765  0.320178  1
  N  N10  1  0.788112  0.127441  0.660672  1
  N  N11  1  0.211888  0.872559  0.339328  1
  N  N12  1  0.466771  0.627441  0.839328  1
  N  N13  1  0.533229  0.372559  0.160672  1
