# generated using pymatgen
data_La8Zn7HgPt5Rh3
_symmetry_space_group_name_H-M   'P 1'
_cell_length_a   4.08781400
_cell_length_b   7.57611853
_cell_length_c   17.00178858
_cell_angle_alpha   90.46864678
_cell_angle_beta   90.00000000
_cell_angle_gamma   90.00000000
_symmetry_Int_Tables_number   1
_chemical_formula_structural   La8Zn7HgPt5Rh3
_chemical_formula_sum   'La8 Zn7 Hg1 Pt5 Rh3'
_cell_volume   526.52375631
_cell_formula_units_Z   1
loop_
 _symmetry_equiv_pos_site_id
 _symmetry_equiv_pos_as_xyz
  1  'x, y, z'
loop_
 _atom_site_type_symbol
 _atom_site_label
 _atom_site_symmetry_multiplicity
 _atom_site_fract_x
 _atom_site_fract_y
 _atom_site_fract_z
 _atom_site_occupancy
  La  La0  1  0.750000  0.332021  0.442654  1
  La  La1  1  0.250000  0.044358  0.715864  1
  La  La2  1  0.250000  0.553482  0.780317  1
  La  La3  1  0.250000  0.676080  0.559607  1
  La  La4  1  0.750000  0.825674  0.058317  1
  La  La5  1  0.250000  0.174992  0.942393  1
  La  La6  1  0.750000  0.447463  0.214301  1
  La  La7  1  0.750000  0.942251  0.290768  1
  Zn  Zn8  1  0.250000  0.996577  0.440975  1
  Zn  Zn9  1  0.750000  0.875317  0.848778  1
  Zn  Zn10  1  0.750000  0.999398  0.559847  1
  Zn  Zn11  1  0.250000  0.501578  0.059194  1
  Zn  Zn12  1  0.750000  0.379688  0.649530  1
  Zn  Zn13  1  0.750000  0.503765  0.937681  1
  Zn  Zn14  1  0.250000  0.623271  0.352483  1
  Hg  Hg15  1  0.250000  0.118927  0.150448  1
  Pt  Pt16  1  0.750000  0.252350  0.813623  1
  Pt  Pt17  1  0.250000  0.249491  0.320690  1
  Pt  Pt18  1  0.250000  0.743900  0.933232  1
  Pt  Pt19  1  0.250000  0.240677  0.566739  1
  Pt  Pt20  1  0.250000  0.734121  0.186858  1
  Rh  Rh21  1  0.750000  0.760594  0.435419  1
  Rh  Rh22  1  0.750000  0.276067  0.056941  1
  Rh  Rh23  1  0.750000  0.747957  0.683345  1
