# generated using pymatgen
data_Ho3Er5(HfGa5)4
_symmetry_space_group_name_H-M   'P 1'
_cell_length_a   5.92330701
_cell_length_b   9.38816800
_cell_length_c   11.31504802
_cell_angle_alpha   89.99991162
_cell_angle_beta   89.99300446
_cell_angle_gamma   89.99728482
_symmetry_Int_Tables_number   1
_chemical_formula_structural   Ho3Er5(HfGa5)4
_chemical_formula_sum   'Ho3 Er5 Hf4 Ga20'
_cell_volume   629.21851547
_cell_formula_units_Z   1
loop_
 _symmetry_equiv_pos_site_id
 _symmetry_equiv_pos_as_xyz
  1  'x, y, z'
loop_
 _atom_site_type_symbol
 _atom_site_label
 _atom_site_symmetry_multiplicity
 _atom_site_fract_x
 _atom_site_fract_y
 _atom_site_fract_z
 _atom_site_occupancy
  Ho  Ho0  1  0.885464  0.505188  0.352517  1
  Ho  Ho1  1  0.614530  0.994802  0.852580  1
  Ho  Ho2  1  0.114551  0.005180  0.647429  1
  Er  Er3  1  0.385522  0.494809  0.147442  1
  Er  Er4  1  0.114478  0.494826  0.647557  1
  Er  Er5  1  0.385545  0.005186  0.147554  1
  Er  Er6  1  0.885524  0.994825  0.352446  1
  Er  Er7  1  0.614449  0.505178  0.852511  1
  Hf  Hf8  1  0.857102  0.749962  0.073473  1
  Hf  Hf9  1  0.642815  0.750011  0.573439  1
  Hf  Hf10  1  0.142854  0.250022  0.926582  1
  Hf  Hf11  1  0.357181  0.250029  0.426518  1
  Ga  Ga12  1  0.874499  0.052369  0.089226  1
  Ga  Ga13  1  0.625497  0.447659  0.589242  1
  Ga  Ga14  1  0.125544  0.552327  0.910817  1
  Ga  Ga15  1  0.374505  0.947643  0.410770  1
  Ga  Ga16  1  0.125477  0.947595  0.910962  1
  Ga  Ga17  1  0.374514  0.552381  0.410873  1
  Ga  Ga18  1  0.874441  0.447632  0.089071  1
  Ga  Ga19  1  0.625488  0.052396  0.589026  1
  Ga  Ga20  1  0.157104  0.750091  0.254790  1
  Ga  Ga21  1  0.342975  0.749797  0.754857  1
  Ga  Ga22  1  0.842987  0.250199  0.745145  1
  Ga  Ga23  1  0.656931  0.249901  0.245106  1
  Ga  Ga24  1  0.394027  0.749932  0.000284  1
  Ga  Ga25  1  0.105955  0.749919  0.500175  1
  Ga  Ga26  1  0.605887  0.250122  0.999848  1
  Ga  Ga27  1  0.894051  0.249922  0.499821  1
  Ga  Ga28  1  0.606346  0.750132  0.292574  1
  Ga  Ga29  1  0.893623  0.749834  0.792587  1
  Ga  Ga30  1  0.393611  0.250175  0.707403  1
  Ga  Ga31  1  0.106521  0.249957  0.207373  1
