# generated using pymatgen
data_Na4PrUSe6
_symmetry_space_group_name_H-M   'P 1'
_cell_length_a   7.36113183
_cell_length_b   7.36113266
_cell_length_c   7.37226599
_cell_angle_alpha   80.31081013
_cell_angle_beta   80.31081271
_cell_angle_gamma   119.98962770
_symmetry_Int_Tables_number   1
_chemical_formula_structural   Na4PrUSe6
_chemical_formula_sum   'Na4 Pr1 U1 Se6'
_cell_volume   325.80841390
_cell_formula_units_Z   1
loop_
 _symmetry_equiv_pos_site_id
 _symmetry_equiv_pos_as_xyz
  1  'x, y, z'
loop_
 _atom_site_type_symbol
 _atom_site_label
 _atom_site_symmetry_multiplicity
 _atom_site_fract_x
 _atom_site_fract_y
 _atom_site_fract_z
 _atom_site_occupancy
  Na  Na0  1  0.000003  0.999997  0.000000  1
  Na  Na1  1  0.499327  0.500673  0.500000  1
  Na  Na2  1  0.839183  0.160817  0.500000  1
  Na  Na3  1  0.160949  0.839051  0.500000  1
  Pr  Pr4  1  0.667007  0.332993  0.000000  1
  U  U5  1  0.332833  0.667167  0.000000  1
  Se  Se6  1  0.265832  0.284673  0.233000  1
  Se  Se7  1  0.421569  0.058348  0.767358  1
  Se  Se8  1  0.097781  0.441462  0.771042  1
  Se  Se9  1  0.715327  0.734168  0.767000  1
  Se  Se10  1  0.558538  0.902219  0.228958  1
  Se  Se11  1  0.941652  0.578431  0.232642  1
