# generated using pymatgen
data_La7Dy(SiBr6)2
_symmetry_space_group_name_H-M   'P 1'
_cell_length_a   4.29086500
_cell_length_b   13.97221464
_cell_length_c   14.74817425
_cell_angle_alpha   90.68424154
_cell_angle_beta   90.00000000
_cell_angle_gamma   90.00000000
_symmetry_Int_Tables_number   1
_chemical_formula_structural   La7Dy(SiBr6)2
_chemical_formula_sum   'La7 Dy1 Si2 Br12'
_cell_volume   884.13257061
_cell_formula_units_Z   1
loop_
 _symmetry_equiv_pos_site_id
 _symmetry_equiv_pos_as_xyz
  1  'x, y, z'
loop_
 _atom_site_type_symbol
 _atom_site_label
 _atom_site_symmetry_multiplicity
 _atom_site_fract_x
 _atom_site_fract_y
 _atom_site_fract_z
 _atom_site_occupancy
  La  La0  1  0.500000  0.120287  0.340146  1
  La  La1  1  0.500000  0.881707  0.661310  1
  La  La2  1  0.500000  0.618281  0.159234  1
  La  La3  1  0.000000  0.124043  0.583362  1
  La  La4  1  0.000000  0.880158  0.420153  1
  La  La5  1  0.000000  0.618263  0.917724  1
  La  La6  1  0.000000  0.377569  0.076780  1
  Dy  Dy7  1  0.500000  0.383297  0.842765  1
  Si  Si8  1  0.500000  0.002301  0.501544  1
  Si  Si9  1  0.500000  0.497864  0.997197  1
  Br  Br10  1  0.500000  0.241634  0.160641  1
  Br  Br11  1  0.500000  0.756194  0.837166  1
  Br  Br12  1  0.500000  0.741996  0.337618  1
  Br  Br13  1  0.500000  0.261124  0.671060  1
  Br  Br14  1  0.000000  0.255071  0.413262  1
  Br  Br15  1  0.000000  0.746675  0.588129  1
  Br  Br16  1  0.000000  0.752679  0.088145  1
  Br  Br17  1  0.000000  0.254975  0.899734  1
  Br  Br18  1  0.000000  0.001173  0.244864  1
  Br  Br19  1  0.000000  0.999551  0.756956  1
  Br  Br20  1  0.000000  0.500804  0.253798  1
  Br  Br21  1  0.000000  0.484356  0.748415  1
