# generated using pymatgen
data_DyLu15
_symmetry_space_group_name_H-M   'P 1'
_cell_length_a   7.07970100
_cell_length_b   7.07970082
_cell_length_c   10.92841000
_cell_angle_alpha   90.00000000
_cell_angle_beta   90.00000000
_cell_angle_gamma   119.99999616
_symmetry_Int_Tables_number   1
_chemical_formula_structural   DyLu15
_chemical_formula_sum   'Dy1 Lu15'
_cell_volume   474.37025623
_cell_formula_units_Z   1
loop_
 _symmetry_equiv_pos_site_id
 _symmetry_equiv_pos_as_xyz
  1  'x, y, z'
loop_
 _atom_site_type_symbol
 _atom_site_label
 _atom_site_symmetry_multiplicity
 _atom_site_fract_x
 _atom_site_fract_y
 _atom_site_fract_z
 _atom_site_occupancy
  Dy  Dy0  1  0.000000  0.000000  0.500000  1
  Lu  Lu1  1  0.000000  0.000000  0.000000  1
  Lu  Lu2  1  0.002155  0.501077  0.500000  1
  Lu  Lu3  1  0.999467  0.499733  0.000000  1
  Lu  Lu4  1  0.498923  0.501077  0.500000  1
  Lu  Lu5  1  0.500267  0.499733  0.000000  1
  Lu  Lu6  1  0.498923  0.997845  0.500000  1
  Lu  Lu7  1  0.500267  0.000533  0.000000  1
  Lu  Lu8  1  0.167130  0.334260  0.248539  1
  Lu  Lu9  1  0.167130  0.334260  0.751461  1
  Lu  Lu10  1  0.167130  0.832870  0.248539  1
  Lu  Lu11  1  0.167130  0.832870  0.751461  1
  Lu  Lu12  1  0.665740  0.832870  0.248539  1
  Lu  Lu13  1  0.665740  0.832870  0.751461  1
  Lu  Lu14  1  0.666667  0.333333  0.251273  1
  Lu  Lu15  1  0.666667  0.333333  0.748727  1
