# generated using pymatgen
data_Ce8MgSn6Pd
_symmetry_space_group_name_H-M   'P 1'
_cell_length_a   8.96756510
_cell_length_b   8.96756433
_cell_length_c   8.96756566
_cell_angle_alpha   96.50060520
_cell_angle_beta   96.50060334
_cell_angle_gamma   140.67582088
_symmetry_Int_Tables_number   1
_chemical_formula_structural   Ce8MgSn6Pd
_chemical_formula_sum   'Ce8 Mg1 Sn6 Pd1'
_cell_volume   430.35002248
_cell_formula_units_Z   1
loop_
 _symmetry_equiv_pos_site_id
 _symmetry_equiv_pos_as_xyz
  1  'x, y, z'
loop_
 _atom_site_type_symbol
 _atom_site_label
 _atom_site_symmetry_multiplicity
 _atom_site_fract_x
 _atom_site_fract_y
 _atom_site_fract_z
 _atom_site_occupancy
  Ce  Ce0  1  0.098152  0.235506  0.331560  1
  Ce  Ce1  1  0.903944  0.766590  0.668440  1
  Ce  Ce2  1  0.764494  0.096056  0.862646  1
  Ce  Ce3  1  0.401848  0.733410  0.137354  1
  Ce  Ce4  1  0.233410  0.901848  0.137354  1
  Ce  Ce5  1  0.596056  0.264494  0.862646  1
  Ce  Ce6  1  0.735506  0.598152  0.331560  1
  Ce  Ce7  1  0.266590  0.403944  0.668440  1
  Mg  Mg8  1  0.750000  0.250000  0.500000  1
  Sn  Sn9  1  0.152404  0.652404  0.795077  1
  Sn  Sn10  1  0.857327  0.357327  0.204923  1
  Sn  Sn11  1  0.347596  0.142673  0.500000  1
  Sn  Sn12  1  0.642673  0.847596  0.500000  1
  Sn  Sn13  1  0.250000  0.250000  0.000000  1
  Sn  Sn14  1  0.750000  0.750000  0.000000  1
  Pd  Pd15  1  0.250000  0.750000  0.500000  1
