# generated using pymatgen
data_BeCo(B2Mo)2
_symmetry_space_group_name_H-M   'P 1'
_cell_length_a   5.92103100
_cell_length_b   3.03018700
_cell_length_c   7.88046700
_cell_angle_alpha   90.00000000
_cell_angle_beta   90.00000000
_cell_angle_gamma   90.00000000
_symmetry_Int_Tables_number   1
_chemical_formula_structural   BeCo(B2Mo)2
_chemical_formula_sum   'Be2 Co2 B8 Mo4'
_cell_volume   141.39000840
_cell_formula_units_Z   2
loop_
 _symmetry_equiv_pos_site_id
 _symmetry_equiv_pos_as_xyz
  1  'x, y, z'
loop_
 _atom_site_type_symbol
 _atom_site_label
 _atom_site_symmetry_multiplicity
 _atom_site_fract_x
 _atom_site_fract_y
 _atom_site_fract_z
 _atom_site_occupancy
  Be  Be0  1  0.991981  0.250000  0.395298  1
  Be  Be1  1  0.491981  0.250000  0.104702  1
  Co  Co2  1  0.010725  0.750000  0.602081  1
  Co  Co3  1  0.510725  0.750000  0.897919  1
  B  B4  1  0.243126  0.250000  0.579156  1
  B  B5  1  0.743126  0.250000  0.920844  1
  B  B6  1  0.761117  0.750000  0.420730  1
  B  B7  1  0.261117  0.750000  0.079270  1
  B  B8  1  0.165820  0.250000  0.173924  1
  B  B9  1  0.665820  0.250000  0.326076  1
  B  B10  1  0.833835  0.750000  0.821983  1
  B  B11  1  0.333835  0.750000  0.678017  1
  Mo  Mo12  1  0.130539  0.250000  0.874158  1
  Mo  Mo13  1  0.630539  0.250000  0.625842  1
  Mo  Mo14  1  0.862858  0.750000  0.138482  1
  Mo  Mo15  1  0.362858  0.750000  0.361518  1
