# generated using pymatgen
data_TbLu9(TlSb2)2
_symmetry_space_group_name_H-M   'P 1'
_cell_length_a   6.34589300
_cell_length_b   8.78589475
_cell_length_c   8.81204100
_cell_angle_alpha   119.90190464
_cell_angle_beta   89.99987360
_cell_angle_gamma   90.00025865
_symmetry_Int_Tables_number   1
_chemical_formula_structural   TbLu9(TlSb2)2
_chemical_formula_sum   'Tb1 Lu9 Tl2 Sb4'
_cell_volume   425.90655362
_cell_formula_units_Z   1
loop_
 _symmetry_equiv_pos_site_id
 _symmetry_equiv_pos_as_xyz
  1  'x, y, z'
loop_
 _atom_site_type_symbol
 _atom_site_label
 _atom_site_symmetry_multiplicity
 _atom_site_fract_x
 _atom_site_fract_y
 _atom_site_fract_z
 _atom_site_occupancy
  Tb  Tb0  1  0.750000  0.240569  0.000000  1
  Lu  Lu1  1  0.500321  0.332819  0.664677  1
  Lu  Lu2  1  0.500321  0.668142  0.335323  1
  Lu  Lu3  1  0.999689  0.668138  0.335307  1
  Lu  Lu4  1  0.999689  0.332832  0.664693  1
  Lu  Lu5  1  0.750001  0.761343  0.758753  1
  Lu  Lu6  1  0.750001  0.002589  0.241247  1
  Lu  Lu7  1  0.249998  0.763521  0.000000  1
  Lu  Lu8  1  0.249998  0.236982  0.242710  1
  Lu  Lu9  1  0.249998  0.994273  0.757290  1
  Tl  Tl10  1  0.249994  0.605246  0.606376  1
  Tl  Tl11  1  0.249994  0.998870  0.393624  1
  Sb  Sb12  1  0.749989  0.609668  0.000000  1
  Sb  Sb13  1  0.750003  0.394960  0.395677  1
  Sb  Sb14  1  0.750003  0.999282  0.604323  1
  Sb  Sb15  1  0.250004  0.390771  0.000000  1
