# generated using pymatgen
data_Dy2Be2Si2Ir2RuRh
_symmetry_space_group_name_H-M   'P 1'
_cell_length_a   4.06813200
_cell_length_b   4.06813200
_cell_length_c   9.54147600
_cell_angle_alpha   90.00000000
_cell_angle_beta   90.00000000
_cell_angle_gamma   90.00000000
_symmetry_Int_Tables_number   1
_chemical_formula_structural   Dy2Be2Si2Ir2RuRh
_chemical_formula_sum   'Dy2 Be2 Si2 Ir2 Ru1 Rh1'
_cell_volume   157.90854598
_cell_formula_units_Z   1
loop_
 _symmetry_equiv_pos_site_id
 _symmetry_equiv_pos_as_xyz
  1  'x, y, z'
loop_
 _atom_site_type_symbol
 _atom_site_label
 _atom_site_symmetry_multiplicity
 _atom_site_fract_x
 _atom_site_fract_y
 _atom_site_fract_z
 _atom_site_occupancy
  Dy  Dy0  1  0.000000  0.500000  0.259442  1
  Dy  Dy1  1  0.500000  0.000000  0.740558  1
  Be  Be2  1  0.000000  0.000000  0.500000  1
  Be  Be3  1  0.500000  0.500000  0.500000  1
  Si  Si4  1  0.000000  0.500000  0.867202  1
  Si  Si5  1  0.500000  0.000000  0.132798  1
  Ir  Ir6  1  0.000000  0.500000  0.613056  1
  Ir  Ir7  1  0.500000  0.000000  0.386944  1
  Ru  Ru8  1  0.000000  0.000000  0.000000  1
  Rh  Rh9  1  0.500000  0.500000  0.000000  1
