# generated using pymatgen
data_Tb15Dy5(Bi2Te)4
_symmetry_space_group_name_H-M   'P 1'
_cell_length_a   8.20729000
_cell_length_b   9.48827700
_cell_length_c   11.98279400
_cell_angle_alpha   89.99930073
_cell_angle_beta   89.99748587
_cell_angle_gamma   90.00165803
_symmetry_Int_Tables_number   1
_chemical_formula_structural   Tb15Dy5(Bi2Te)4
_chemical_formula_sum   'Tb15 Dy5 Bi8 Te4'
_cell_volume   933.13660705
_cell_formula_units_Z   1
loop_
 _symmetry_equiv_pos_site_id
 _symmetry_equiv_pos_as_xyz
  1  'x, y, z'
loop_
 _atom_site_type_symbol
 _atom_site_label
 _atom_site_symmetry_multiplicity
 _atom_site_fract_x
 _atom_site_fract_y
 _atom_site_fract_z
 _atom_site_occupancy
  Tb  Tb0  1  0.353574  0.749972  0.213087  1
  Tb  Tb1  1  0.853582  0.750062  0.286911  1
  Tb  Tb2  1  0.646489  0.250012  0.786860  1
  Tb  Tb3  1  0.146372  0.250081  0.713063  1
  Tb  Tb4  1  0.689680  0.561921  0.057307  1
  Tb  Tb5  1  0.189639  0.938060  0.442681  1
  Tb  Tb6  1  0.310333  0.061937  0.942681  1
  Tb  Tb7  1  0.476291  0.250026  0.488419  1
  Tb  Tb8  1  0.976204  0.250034  0.011600  1
  Tb  Tb9  1  0.523810  0.749949  0.511610  1
  Tb  Tb10  1  0.023796  0.750024  0.988391  1
  Tb  Tb11  1  0.319195  0.250060  0.217963  1
  Tb  Tb12  1  0.819203  0.249987  0.282096  1
  Tb  Tb13  1  0.680817  0.750046  0.782033  1
  Tb  Tb14  1  0.180817  0.749945  0.717960  1
  Dy  Dy15  1  0.810351  0.437927  0.557311  1
  Dy  Dy16  1  0.310366  0.438002  0.942692  1
  Dy  Dy17  1  0.810349  0.062106  0.557291  1
  Dy  Dy18  1  0.689635  0.938017  0.057302  1
  Dy  Dy19  1  0.189627  0.561987  0.442714  1
  Bi  Bi20  1  0.568597  0.995635  0.325172  1
  Bi  Bi21  1  0.068555  0.504379  0.174841  1
  Bi  Bi22  1  0.431497  0.495631  0.674796  1
  Bi  Bi23  1  0.931425  0.004390  0.825151  1
  Bi  Bi24  1  0.431559  0.004390  0.674816  1
  Bi  Bi25  1  0.931508  0.495646  0.825113  1
  Bi  Bi26  1  0.568481  0.504377  0.325228  1
  Bi  Bi27  1  0.068447  0.995641  0.174828  1
  Te  Te28  1  0.407162  0.749768  0.957296  1
  Te  Te29  1  0.907043  0.749898  0.542743  1
  Te  Te30  1  0.592835  0.249763  0.042699  1
  Te  Te31  1  0.092759  0.250327  0.457341  1
