# generated using pymatgen
data_Ni6PdIO12
_symmetry_space_group_name_H-M   'P 1'
_cell_length_a   5.13186202
_cell_length_b   5.48427519
_cell_length_c   8.94909774
_cell_angle_alpha   104.82801573
_cell_angle_beta   90.57336662
_cell_angle_gamma   118.01588831
_symmetry_Int_Tables_number   1
_chemical_formula_structural   Ni6PdIO12
_chemical_formula_sum   'Ni6 Pd1 I1 O12'
_cell_volume   212.43207481
_cell_formula_units_Z   1
loop_
 _symmetry_equiv_pos_site_id
 _symmetry_equiv_pos_as_xyz
  1  'x, y, z'
loop_
 _atom_site_type_symbol
 _atom_site_label
 _atom_site_symmetry_multiplicity
 _atom_site_fract_x
 _atom_site_fract_y
 _atom_site_fract_z
 _atom_site_occupancy
  Ni  Ni0  1  0.265019  0.546587  0.762153  1
  Ni  Ni1  1  0.761385  0.505973  0.246723  1
  Ni  Ni2  1  0.833423  0.661537  0.620138  1
  Ni  Ni3  1  0.315517  0.648723  0.099195  1
  Ni  Ni4  1  0.016660  0.045911  0.000157  1
  Ni  Ni5  1  0.530451  0.045232  0.516673  1
  Pd  Pd6  1  0.562303  0.131786  0.854195  1
  I  I7  1  0.062375  0.114969  0.352501  1
  O  O8  1  0.706334  0.833539  0.807841  1
  O  O9  1  0.225817  0.853611  0.310101  1
  O  O10  1  0.271736  0.840582  0.658029  1
  O  O11  1  0.779410  0.849088  0.164127  1
  O  O12  1  0.264988  0.852280  0.958249  1
  O  O13  1  0.783385  0.844753  0.454107  1
  O  O14  1  0.324914  0.345607  0.904129  1
  O  O15  1  0.848163  0.323023  0.399173  1
  O  O16  1  0.346871  0.328382  0.538299  1
  O  O17  1  0.866203  0.340946  0.051658  1
  O  O18  1  0.823530  0.346047  0.710586  1
  O  O19  1  0.306198  0.330783  0.223526  1
