# generated using pymatgen
data_Zr5Fe12Co4(P4Ru)3
_symmetry_space_group_name_H-M   'P 1'
_cell_length_a   11.81816500
_cell_length_b   11.81816515
_cell_length_c   3.66534700
_cell_angle_alpha   90.00000000
_cell_angle_beta   90.00000000
_cell_angle_gamma   120.00000238
_symmetry_Int_Tables_number   1
_chemical_formula_structural   Zr5Fe12Co4(P4Ru)3
_chemical_formula_sum   'Zr5 Fe12 Co4 P12 Ru3'
_cell_volume   443.34908937
_cell_formula_units_Z   1
loop_
 _symmetry_equiv_pos_site_id
 _symmetry_equiv_pos_as_xyz
  1  'x, y, z'
loop_
 _atom_site_type_symbol
 _atom_site_label
 _atom_site_symmetry_multiplicity
 _atom_site_fract_x
 _atom_site_fract_y
 _atom_site_fract_z
 _atom_site_occupancy
  Zr  Zr0  1  0.333333  0.666667  0.500000  1
  Zr  Zr1  1  0.666667  0.333333  0.500000  1
  Zr  Zr2  1  0.813547  0.999191  0.000000  1
  Zr  Zr3  1  0.000809  0.814357  0.000000  1
  Zr  Zr4  1  0.185643  0.186453  0.000000  1
  Fe  Fe5  1  0.625503  0.803404  0.500000  1
  Fe  Fe6  1  0.196596  0.822098  0.500000  1
  Fe  Fe7  1  0.177902  0.374497  0.500000  1
  Fe  Fe8  1  0.376992  0.183458  0.500000  1
  Fe  Fe9  1  0.806466  0.623008  0.500000  1
  Fe  Fe10  1  0.816542  0.193534  0.500000  1
  Fe  Fe11  1  0.281195  0.002010  0.000000  1
  Fe  Fe12  1  0.997990  0.279183  0.000000  1
  Fe  Fe13  1  0.720817  0.718805  0.000000  1
  Fe  Fe14  1  0.514235  0.873449  0.000000  1
  Fe  Fe15  1  0.126551  0.640785  0.000000  1
  Fe  Fe16  1  0.359215  0.485765  0.000000  1
  Co  Co17  1  0.487749  0.361136  0.000000  1
  Co  Co18  1  0.873387  0.512251  0.000000  1
  Co  Co19  1  0.638864  0.126613  0.000000  1
  Co  Co20  1  0.000000  0.000000  0.500000  1
  P  P21  1  0.179906  0.001612  0.500000  1
  P  P22  1  0.998388  0.178294  0.500000  1
  P  P23  1  0.821706  0.820094  0.500000  1
  P  P24  1  0.520813  0.689169  0.000000  1
  P  P25  1  0.310831  0.831645  0.000000  1
  P  P26  1  0.168355  0.479187  0.000000  1
  P  P27  1  0.478063  0.169348  0.000000  1
  P  P28  1  0.691285  0.521937  0.000000  1
  P  P29  1  0.830652  0.308715  0.000000  1
  P  P30  1  0.637008  0.996168  0.500000  1
  P  P31  1  0.003832  0.640839  0.500000  1
  P  P32  1  0.359161  0.362992  0.500000  1
  Ru  Ru33  1  0.446648  0.002586  0.500000  1
  Ru  Ru34  1  0.997414  0.444062  0.500000  1
  Ru  Ru35  1  0.555938  0.553352  0.500000  1
