# generated using pymatgen
data_DyZrMn3Ni9P7
_symmetry_space_group_name_H-M   'P 1'
_cell_length_a   9.08112500
_cell_length_b   9.08112443
_cell_length_c   3.64016500
_cell_angle_alpha   90.00000000
_cell_angle_beta   90.00000000
_cell_angle_gamma   120.00000571
_symmetry_Int_Tables_number   1
_chemical_formula_structural   DyZrMn3Ni9P7
_chemical_formula_sum   'Dy1 Zr1 Mn3 Ni9 P7'
_cell_volume   259.97462267
_cell_formula_units_Z   1
loop_
 _symmetry_equiv_pos_site_id
 _symmetry_equiv_pos_as_xyz
  1  'x, y, z'
loop_
 _atom_site_type_symbol
 _atom_site_label
 _atom_site_symmetry_multiplicity
 _atom_site_fract_x
 _atom_site_fract_y
 _atom_site_fract_z
 _atom_site_occupancy
  Dy  Dy0  1  0.333333  0.666667  0.500000  1
  Zr  Zr1  1  0.666667  0.333333  0.000000  1
  Mn  Mn2  1  0.124039  0.902261  0.500000  1
  Mn  Mn3  1  0.097739  0.221778  0.500000  1
  Mn  Mn4  1  0.778222  0.875961  0.500000  1
  Ni  Ni5  1  0.376630  0.940474  0.000000  1
  Ni  Ni6  1  0.059526  0.436156  0.000000  1
  Ni  Ni7  1  0.563844  0.623370  0.000000  1
  Ni  Ni8  1  0.874004  0.720306  0.000000  1
  Ni  Ni9  1  0.279694  0.153698  0.000000  1
  Ni  Ni10  1  0.846302  0.125996  0.000000  1
  Ni  Ni11  1  0.943267  0.562269  0.500000  1
  Ni  Ni12  1  0.437731  0.380998  0.500000  1
  Ni  Ni13  1  0.619002  0.056733  0.500000  1
  P  P14  1  0.114208  0.708702  0.000000  1
  P  P15  1  0.291298  0.405507  0.000000  1
  P  P16  1  0.594493  0.885792  0.000000  1
  P  P17  1  0.706085  0.589177  0.500000  1
  P  P18  1  0.410823  0.116909  0.500000  1
  P  P19  1  0.883091  0.293915  0.500000  1
  P  P20  1  0.000000  0.000000  0.000000  1
