# generated using pymatgen
data_Y3HoTc4F28
_symmetry_space_group_name_H-M   'P 1'
_cell_length_a   5.59499410
_cell_length_b   8.91375979
_cell_length_c   12.03877093
_cell_angle_alpha   62.60866377
_cell_angle_beta   89.98750948
_cell_angle_gamma   89.98768189
_symmetry_Int_Tables_number   1
_chemical_formula_structural   Y3HoTc4F28
_chemical_formula_sum   'Y3 Ho1 Tc4 F28'
_cell_volume   533.08860204
_cell_formula_units_Z   1
loop_
 _symmetry_equiv_pos_site_id
 _symmetry_equiv_pos_as_xyz
  1  'x, y, z'
loop_
 _atom_site_type_symbol
 _atom_site_label
 _atom_site_symmetry_multiplicity
 _atom_site_fract_x
 _atom_site_fract_y
 _atom_site_fract_z
 _atom_site_occupancy
  Y  Y0  1  0.759182  0.813089  0.764693  1
  Y  Y1  1  0.259036  0.186721  0.735183  1
  Y  Y2  1  0.241179  0.185968  0.235256  1
  Ho  Ho3  1  0.740895  0.813346  0.264825  1
  Tc  Tc4  1  0.757627  0.272241  0.957279  1
  Tc  Tc5  1  0.257849  0.727096  0.542272  1
  Tc  Tc6  1  0.241790  0.727212  0.044006  1
  Tc  Tc7  1  0.742172  0.273851  0.456443  1
  F  F8  1  0.445353  0.706840  0.919354  1
  F  F9  1  0.944533  0.293698  0.581630  1
  F  F10  1  0.555370  0.293286  0.081976  1
  F  F11  1  0.053670  0.706954  0.417772  1
  F  F12  1  0.447849  0.278011  0.545363  1
  F  F13  1  0.948634  0.722415  0.954479  1
  F  F14  1  0.551851  0.723061  0.452713  1
  F  F15  1  0.052061  0.277250  0.045809  1
  F  F16  1  0.773763  0.519771  0.859860  1
  F  F17  1  0.274427  0.479766  0.639725  1
  F  F18  1  0.226059  0.479743  0.140870  1
  F  F19  1  0.726841  0.521501  0.359294  1
  F  F20  1  0.756464  0.025822  0.053606  1
  F  F21  1  0.256513  0.973521  0.447211  1
  F  F22  1  0.242959  0.973513  0.947778  1
  F  F23  1  0.743235  0.027406  0.552235  1
  F  F24  1  0.975714  0.728372  0.638821  1
  F  F25  1  0.474636  0.271166  0.861262  1
  F  F26  1  0.024518  0.271457  0.360414  1
  F  F27  1  0.523312  0.729451  0.140821  1
  F  F28  1  0.042251  0.746772  0.172186  1
  F  F29  1  0.545189  0.254521  0.327602  1
  F  F30  1  0.954345  0.253239  0.828183  1
  F  F31  1  0.455580  0.746034  0.671186  1
  F  F32  1  0.420434  0.970058  0.231991  1
  F  F33  1  0.917936  0.027105  0.268057  1
  F  F34  1  0.583294  0.029561  0.768342  1
  F  F35  1  0.083479  0.970181  0.731503  1
