# generated using pymatgen
data_Tm5Hf3(Ta3Ge4)4
_symmetry_space_group_name_H-M   'P 1'
_cell_length_a   6.89668768
_cell_length_b   7.03583552
_cell_length_c   13.38915088
_cell_angle_alpha   90.11453458
_cell_angle_beta   89.89921356
_cell_angle_gamma   90.00636674
_symmetry_Int_Tables_number   1
_chemical_formula_structural   Tm5Hf3(Ta3Ge4)4
_chemical_formula_sum   'Tm5 Hf3 Ta12 Ge16'
_cell_volume   649.69231628
_cell_formula_units_Z   1
loop_
 _symmetry_equiv_pos_site_id
 _symmetry_equiv_pos_as_xyz
  1  'x, y, z'
loop_
 _atom_site_type_symbol
 _atom_site_label
 _atom_site_symmetry_multiplicity
 _atom_site_fract_x
 _atom_site_fract_y
 _atom_site_fract_z
 _atom_site_occupancy
  Tm  Tm0  1  0.491178  0.675431  0.592361  1
  Tm  Tm1  1  0.990824  0.825705  0.908636  1
  Tm  Tm2  1  0.508834  0.325985  0.091611  1
  Tm  Tm3  1  0.007415  0.173238  0.408364  1
  Tm  Tm4  1  0.507197  0.324269  0.406961  1
  Hf  Hf5  1  0.011068  0.176573  0.092936  1
  Hf  Hf6  1  0.488297  0.677840  0.906365  1
  Hf  Hf7  1  0.987813  0.821459  0.594957  1
  Ta  Ta8  1  0.661561  0.163113  0.626512  1
  Ta  Ta9  1  0.159512  0.333900  0.875188  1
  Ta  Ta10  1  0.341030  0.833376  0.123141  1
  Ta  Ta11  1  0.843112  0.668853  0.374497  1
  Ta  Ta12  1  0.339850  0.834430  0.373154  1
  Ta  Ta13  1  0.840993  0.667551  0.125152  1
  Ta  Ta14  1  0.660450  0.165975  0.874508  1
  Ta  Ta15  1  0.160701  0.334837  0.626234  1
  Ta  Ta16  1  0.836466  0.489071  0.750331  1
  Ta  Ta17  1  0.335852  0.010168  0.751494  1
  Ta  Ta18  1  0.164139  0.511528  0.247662  1
  Ta  Ta19  1  0.665794  0.987946  0.248727  1
  Ge  Ge20  1  0.680315  0.959667  0.460040  1
  Ge  Ge21  1  0.179447  0.537763  0.040429  1
  Ge  Ge22  1  0.320949  0.038985  0.958884  1
  Ge  Ge23  1  0.823243  0.461780  0.542382  1
  Ge  Ge24  1  0.314243  0.035845  0.542764  1
  Ge  Ge25  1  0.815430  0.461482  0.959157  1
  Ge  Ge26  1  0.683730  0.961532  0.040551  1
  Ge  Ge27  1  0.177977  0.542579  0.459830  1
  Ge  Ge28  1  0.461077  0.384454  0.750727  1
  Ge  Ge29  1  0.961342  0.114745  0.749722  1
  Ge  Ge30  1  0.540017  0.617437  0.249791  1
  Ge  Ge31  1  0.040332  0.884908  0.248332  1
  Ge  Ge32  1  0.692737  0.849783  0.751265  1
  Ge  Ge33  1  0.193245  0.649096  0.749890  1
  Ge  Ge34  1  0.305197  0.147667  0.248765  1
  Ge  Ge35  1  0.808629  0.351030  0.248678  1
