# generated using pymatgen
data_K3Ce(PPt3)8
_symmetry_space_group_name_H-M   'P 1'
_cell_length_a   8.58442746
_cell_length_b   8.58442746
_cell_length_c   8.58442746
_cell_angle_alpha   90.08258575
_cell_angle_beta   89.91741425
_cell_angle_gamma   89.91741425
_symmetry_Int_Tables_number   1
_chemical_formula_structural   K3Ce(PPt3)8
_chemical_formula_sum   'K3 Ce1 P8 Pt24'
_cell_volume   632.60504473
_cell_formula_units_Z   1
loop_
 _symmetry_equiv_pos_site_id
 _symmetry_equiv_pos_as_xyz
  1  'x, y, z'
loop_
 _atom_site_type_symbol
 _atom_site_label
 _atom_site_symmetry_multiplicity
 _atom_site_fract_x
 _atom_site_fract_y
 _atom_site_fract_z
 _atom_site_occupancy
  K  K0  1  0.500000  0.000000  0.500000  1
  K  K1  1  0.000000  0.500000  0.500000  1
  K  K2  1  0.000000  0.000000  0.000000  1
  Ce  Ce3  1  0.500000  0.500000  0.000000  1
  P  P4  1  0.808223  0.301358  0.195089  1
  P  P5  1  0.194415  0.805585  0.305585  1
  P  P6  1  0.698642  0.695089  0.691777  1
  P  P7  1  0.304911  0.191777  0.801358  1
  P  P8  1  0.191777  0.698642  0.804911  1
  P  P9  1  0.805585  0.194415  0.694415  1
  P  P10  1  0.301358  0.304911  0.308223  1
  P  P11  1  0.695089  0.808223  0.198642  1
  Pt  Pt12  1  0.423244  0.836135  0.151615  1
  Pt  Pt13  1  0.578269  0.347148  0.335933  1
  Pt  Pt14  1  0.076814  0.159546  0.654330  1
  Pt  Pt15  1  0.924279  0.656632  0.845171  1
  Pt  Pt16  1  0.164067  0.421731  0.847148  1
  Pt  Pt17  1  0.348385  0.576756  0.336135  1
  Pt  Pt18  1  0.654829  0.075721  0.156632  1
  Pt  Pt19  1  0.845670  0.923186  0.659546  1
  Pt  Pt20  1  0.840454  0.154330  0.423186  1
  Pt  Pt21  1  0.343368  0.345171  0.575721  1
  Pt  Pt22  1  0.163865  0.651615  0.076756  1
  Pt  Pt23  1  0.652852  0.835933  0.921731  1
  Pt  Pt24  1  0.576756  0.163865  0.848385  1
  Pt  Pt25  1  0.421731  0.652852  0.664067  1
  Pt  Pt26  1  0.923186  0.840454  0.345670  1
  Pt  Pt27  1  0.075721  0.343368  0.154829  1
  Pt  Pt28  1  0.835933  0.578269  0.152852  1
  Pt  Pt29  1  0.651615  0.423244  0.663865  1
  Pt  Pt30  1  0.345171  0.924279  0.843368  1
  Pt  Pt31  1  0.154330  0.076814  0.340454  1
  Pt  Pt32  1  0.159546  0.845670  0.576814  1
  Pt  Pt33  1  0.656632  0.654829  0.424279  1
  Pt  Pt34  1  0.836135  0.348385  0.923244  1
  Pt  Pt35  1  0.347148  0.164067  0.078269  1
