# generated using pymatgen
data_TbDyY3CoBi2
_symmetry_space_group_name_H-M   'P 1'
_cell_length_a   8.10198224
_cell_length_b   8.85324752
_cell_length_c   12.48444008
_cell_angle_alpha   89.98166618
_cell_angle_beta   89.98105026
_cell_angle_gamma   90.00024669
_symmetry_Int_Tables_number   1
_chemical_formula_structural   TbDyY3CoBi2
_chemical_formula_sum   'Tb4 Dy4 Y12 Co4 Bi8'
_cell_volume   895.49448766
_cell_formula_units_Z   4
loop_
 _symmetry_equiv_pos_site_id
 _symmetry_equiv_pos_as_xyz
  1  'x, y, z'
loop_
 _atom_site_type_symbol
 _atom_site_label
 _atom_site_symmetry_multiplicity
 _atom_site_fract_x
 _atom_site_fract_y
 _atom_site_fract_z
 _atom_site_occupancy
  Tb  Tb0  1  0.824008  0.034065  0.062694  1
  Tb  Tb1  1  0.675830  0.465940  0.562539  1
  Tb  Tb2  1  0.823876  0.466074  0.062637  1
  Tb  Tb3  1  0.176144  0.534225  0.937207  1
  Dy  Dy4  1  0.674796  0.034233  0.562544  1
  Dy  Dy5  1  0.325098  0.965955  0.437290  1
  Dy  Dy6  1  0.175077  0.965646  0.937218  1
  Dy  Dy7  1  0.324961  0.533907  0.437346  1
  Y  Y8  1  0.848232  0.750117  0.801444  1
  Y  Y9  1  0.151818  0.249923  0.198618  1
  Y  Y10  1  0.348478  0.249877  0.698186  1
  Y  Y11  1  0.651569  0.750071  0.301629  1
  Y  Y12  1  0.379737  0.750087  0.690558  1
  Y  Y13  1  0.619528  0.249752  0.309760  1
  Y  Y14  1  0.880256  0.249908  0.809140  1
  Y  Y15  1  0.120300  0.750239  0.190958  1
  Y  Y16  1  0.955069  0.750235  0.501999  1
  Y  Y17  1  0.046334  0.249846  0.497970  1
  Y  Y18  1  0.453988  0.249753  0.998047  1
  Y  Y19  1  0.544802  0.750154  0.001969  1
  Co  Co20  1  0.557571  0.750195  0.508016  1
  Co  Co21  1  0.441312  0.249685  0.491808  1
  Co  Co22  1  0.059073  0.249808  0.991627  1
  Co  Co23  1  0.942061  0.750310  0.008242  1
  Bi  Bi24  1  0.571605  0.491938  0.825956  1
  Bi  Bi25  1  0.428443  0.508046  0.174244  1
  Bi  Bi26  1  0.071495  0.508101  0.674003  1
  Bi  Bi27  1  0.428492  0.991906  0.174234  1
  Bi  Bi28  1  0.928891  0.491997  0.326081  1
  Bi  Bi29  1  0.571173  0.007983  0.825877  1
  Bi  Bi30  1  0.928935  0.008048  0.326091  1
  Bi  Bi31  1  0.071049  0.991975  0.674069  1
