# generated using pymatgen
data_LuTh2Tl3
_symmetry_space_group_name_H-M   'P 1'
_cell_length_a   10.65268500
_cell_length_b   9.87712100
_cell_length_c   6.63426700
_cell_angle_alpha   90.00000000
_cell_angle_beta   90.00000000
_cell_angle_gamma   90.00000000
_symmetry_Int_Tables_number   1
_chemical_formula_structural   LuTh2Tl3
_chemical_formula_sum   'Lu4 Th8 Tl12'
_cell_volume   698.04336792
_cell_formula_units_Z   4
loop_
 _symmetry_equiv_pos_site_id
 _symmetry_equiv_pos_as_xyz
  1  'x, y, z'
loop_
 _atom_site_type_symbol
 _atom_site_label
 _atom_site_symmetry_multiplicity
 _atom_site_fract_x
 _atom_site_fract_y
 _atom_site_fract_z
 _atom_site_occupancy
  Lu  Lu0  1  0.610854  0.250000  0.000000  1
  Lu  Lu1  1  0.389145  0.750000  0.000000  1
  Lu  Lu2  1  0.610854  0.250000  0.500001  1
  Lu  Lu3  1  0.389145  0.750000  0.500001  1
  Th  Th4  1  0.316593  0.365358  0.250001  1
  Th  Th5  1  0.882831  0.467567  0.250001  1
  Th  Th6  1  0.683407  0.865357  0.250001  1
  Th  Th7  1  0.117168  0.967566  0.250001  1
  Th  Th8  1  0.882831  0.032434  0.749999  1
  Th  Th9  1  0.316593  0.134643  0.749999  1
  Th  Th10  1  0.117168  0.532433  0.749999  1
  Th  Th11  1  0.683407  0.634642  0.749999  1
  Tl  Tl12  1  0.073819  0.250000  0.000000  1
  Tl  Tl13  1  0.926181  0.750000  0.000000  1
  Tl  Tl14  1  0.418655  0.047484  0.250001  1
  Tl  Tl15  1  0.843952  0.130531  0.250001  1
  Tl  Tl16  1  0.581344  0.547484  0.250001  1
  Tl  Tl17  1  0.156050  0.630530  0.250001  1
  Tl  Tl18  1  0.073819  0.250000  0.500001  1
  Tl  Tl19  1  0.926181  0.750000  0.500001  1
  Tl  Tl20  1  0.843952  0.369470  0.749999  1
  Tl  Tl21  1  0.418655  0.452516  0.749999  1
  Tl  Tl22  1  0.156050  0.869469  0.749999  1
  Tl  Tl23  1  0.581344  0.952516  0.749999  1
