# generated using pymatgen
data_La3Tb2Yb5Ir4
_symmetry_space_group_name_H-M   'P 1'
_cell_length_a   6.57494101
_cell_length_b   7.46487569
_cell_length_c   8.72276269
_cell_angle_alpha   96.82010481
_cell_angle_beta   111.95422236
_cell_angle_gamma   90.34545878
_symmetry_Int_Tables_number   1
_chemical_formula_structural   La3Tb2Yb5Ir4
_chemical_formula_sum   'La3 Tb2 Yb5 Ir4'
_cell_volume   393.67541802
_cell_formula_units_Z   1
loop_
 _symmetry_equiv_pos_site_id
 _symmetry_equiv_pos_as_xyz
  1  'x, y, z'
loop_
 _atom_site_type_symbol
 _atom_site_label
 _atom_site_symmetry_multiplicity
 _atom_site_fract_x
 _atom_site_fract_y
 _atom_site_fract_z
 _atom_site_occupancy
  La  La0  1  0.987050  0.917175  0.191401  1
  La  La1  1  0.798786  0.582175  0.818387  1
  La  La2  1  0.018553  0.084292  0.817190  1
  Tb  Tb3  1  0.426262  0.749571  0.000801  1
  Tb  Tb4  1  0.570525  0.250351  0.002132  1
  Yb  Yb5  1  0.203615  0.420876  0.183499  1
  Yb  Yb6  1  0.635362  0.818805  0.428753  1
  Yb  Yb7  1  0.204490  0.680221  0.569405  1
  Yb  Yb8  1  0.365749  0.182880  0.570031  1
  Yb  Yb9  1  0.793209  0.317894  0.427742  1
  Ir  Ir10  1  0.811186  0.581397  0.201403  1
  Ir  Ir11  1  0.612187  0.920522  0.795961  1
  Ir  Ir12  1  0.184914  0.419895  0.789298  1
  Ir  Ir13  1  0.388114  0.073948  0.203996  1
