# generated using pymatgen
data_Ti5SiSn2
_symmetry_space_group_name_H-M   'P 1'
_cell_length_a   7.87156265
_cell_length_b   7.87156205
_cell_length_c   7.87156223
_cell_angle_alpha   95.97464108
_cell_angle_beta   95.97464044
_cell_angle_gamma   142.35624423
_symmetry_Int_Tables_number   1
_chemical_formula_structural   Ti5SiSn2
_chemical_formula_sum   'Ti10 Si2 Sn4'
_cell_volume   281.95443410
_cell_formula_units_Z   2
loop_
 _symmetry_equiv_pos_site_id
 _symmetry_equiv_pos_as_xyz
  1  'x, y, z'
loop_
 _atom_site_type_symbol
 _atom_site_label
 _atom_site_symmetry_multiplicity
 _atom_site_fract_x
 _atom_site_fract_y
 _atom_site_fract_z
 _atom_site_occupancy
  Ti  Ti0  1  0.428623  0.292223  0.720846  1
  Ti  Ti1  1  0.207777  0.071377  0.279153  1
  Ti  Ti2  1  0.571377  0.707777  0.279153  1
  Ti  Ti3  1  0.250000  0.750000  0.500000  1
  Ti  Ti4  1  0.292223  0.571377  0.863600  1
  Ti  Ti5  1  0.707777  0.428623  0.136400  1
  Ti  Ti6  1  0.750000  0.250000  0.500000  1
  Ti  Ti7  1  0.928623  0.207777  0.136400  1
  Ti  Ti8  1  0.792223  0.928623  0.720847  1
  Ti  Ti9  1  0.071377  0.792223  0.863600  1
  Si  Si10  1  0.250000  0.250000  0.000000  1
  Si  Si11  1  0.750000  0.750000  0.000000  1
  Sn  Sn12  1  0.166156  0.333844  0.500000  1
  Sn  Sn13  1  0.666156  0.166156  0.832312  1
  Sn  Sn14  1  0.833844  0.666156  0.500000  1
  Sn  Sn15  1  0.333844  0.833844  0.167688  1
