# generated using pymatgen
data_Pr3Nd(Al3Rh)6
_symmetry_space_group_name_H-M   'P 1'
_cell_length_a   7.63672498
_cell_length_b   7.63865253
_cell_length_c   9.64388600
_cell_angle_alpha   90.00000000
_cell_angle_beta   90.00000000
_cell_angle_gamma   119.21550255
_symmetry_Int_Tables_number   1
_chemical_formula_structural   Pr3Nd(Al3Rh)6
_chemical_formula_sum   'Pr3 Nd1 Al18 Rh6'
_cell_volume   491.00482240
_cell_formula_units_Z   1
loop_
 _symmetry_equiv_pos_site_id
 _symmetry_equiv_pos_as_xyz
  1  'x, y, z'
loop_
 _atom_site_type_symbol
 _atom_site_label
 _atom_site_symmetry_multiplicity
 _atom_site_fract_x
 _atom_site_fract_y
 _atom_site_fract_z
 _atom_site_occupancy
  Pr  Pr0  1  0.994524  0.670962  0.750000  1
  Pr  Pr1  1  0.005352  0.328961  0.250000  1
  Pr  Pr2  1  0.671047  0.994541  0.750000  1
  Nd  Nd3  1  0.328830  0.005364  0.250000  1
  Al  Al4  1  0.131612  0.131260  0.750000  1
  Al  Al5  1  0.869254  0.868738  0.250000  1
  Al  Al6  1  0.003176  0.335457  0.571914  1
  Al  Al7  1  0.997432  0.664978  0.427512  1
  Al  Al8  1  0.997432  0.664978  0.072488  1
  Al  Al9  1  0.335359  0.002915  0.928679  1
  Al  Al10  1  0.003176  0.335457  0.928086  1
  Al  Al11  1  0.664211  0.997027  0.072519  1
  Al  Al12  1  0.664211  0.997027  0.427481  1
  Al  Al13  1  0.335359  0.002915  0.571321  1
  Al  Al14  1  0.334074  0.333846  0.044685  1
  Al  Al15  1  0.665919  0.665915  0.956501  1
  Al  Al16  1  0.665919  0.665915  0.543499  1
  Al  Al17  1  0.334074  0.333846  0.455315  1
  Al  Al18  1  0.339700  0.547089  0.750000  1
  Al  Al19  1  0.659545  0.452304  0.250000  1
  Al  Al20  1  0.546862  0.339365  0.750000  1
  Al  Al21  1  0.452952  0.661136  0.250000  1
  Rh  Rh22  1  0.671003  0.328742  0.499673  1
  Rh  Rh23  1  0.328829  0.671187  0.499672  1
  Rh  Rh24  1  0.328829  0.671187  0.000328  1
  Rh  Rh25  1  0.671003  0.328742  0.000327  1
  Rh  Rh26  1  0.000157  0.000072  0.499776  1
  Rh  Rh27  1  0.000157  0.000072  0.000224  1
