# generated using pymatgen
data_Ce4YSn3Ge
_symmetry_space_group_name_H-M   'P 1'
_cell_length_a   6.42868414
_cell_length_b   9.52429081
_cell_length_c   9.49938432
_cell_angle_alpha   119.92048228
_cell_angle_beta   90.02257504
_cell_angle_gamma   89.98096050
_symmetry_Int_Tables_number   1
_chemical_formula_structural   Ce4YSn3Ge
_chemical_formula_sum   'Ce8 Y2 Sn6 Ge2'
_cell_volume   504.11337304
_cell_formula_units_Z   2
loop_
 _symmetry_equiv_pos_site_id
 _symmetry_equiv_pos_as_xyz
  1  'x, y, z'
loop_
 _atom_site_type_symbol
 _atom_site_label
 _atom_site_symmetry_multiplicity
 _atom_site_fract_x
 _atom_site_fract_y
 _atom_site_fract_z
 _atom_site_occupancy
  Ce  Ce0  1  0.750000  0.000028  0.261712  1
  Ce  Ce1  1  0.249955  0.740439  0.998808  1
  Ce  Ce2  1  0.249979  0.259510  0.258409  1
  Ce  Ce3  1  0.249983  0.000035  0.739959  1
  Ce  Ce4  1  0.499878  0.333379  0.666133  1
  Ce  Ce5  1  0.499949  0.666535  0.332832  1
  Ce  Ce6  1  0.000062  0.666548  0.332835  1
  Ce  Ce7  1  0.000141  0.333390  0.666142  1
  Y  Y8  1  0.749999  0.258098  0.000407  1
  Y  Y9  1  0.750022  0.741878  0.742351  1
  Sn  Sn10  1  0.749979  0.613573  0.998548  1
  Sn  Sn11  1  0.750001  0.386222  0.384987  1
  Sn  Sn12  1  0.749991  0.000253  0.619464  1
  Sn  Sn13  1  0.250053  0.385135  0.999367  1
  Sn  Sn14  1  0.250049  0.614705  0.614095  1
  Sn  Sn15  1  0.250010  0.000146  0.384012  1
  Ge  Ge16  1  0.502159  0.000054  0.999967  1
  Ge  Ge17  1  0.997792  0.000074  0.999971  1
