# generated using pymatgen
data_Th2MnSiI2
_symmetry_space_group_name_H-M   'P 1'
_cell_length_a   4.19666800
_cell_length_b   4.19666828
_cell_length_c   12.03995100
_cell_angle_alpha   90.00000000
_cell_angle_beta   90.00000000
_cell_angle_gamma   119.99998203
_symmetry_Int_Tables_number   1
_chemical_formula_structural   Th2MnSiI2
_chemical_formula_sum   'Th2 Mn1 Si1 I2'
_cell_volume   183.63890120
_cell_formula_units_Z   1
loop_
 _symmetry_equiv_pos_site_id
 _symmetry_equiv_pos_as_xyz
  1  'x, y, z'
loop_
 _atom_site_type_symbol
 _atom_site_label
 _atom_site_symmetry_multiplicity
 _atom_site_fract_x
 _atom_site_fract_y
 _atom_site_fract_z
 _atom_site_occupancy
  Th  Th0  1  0.000000  0.000000  0.148567  1
  Th  Th1  1  0.000000  0.000000  0.849671  1
  Mn  Mn2  1  0.333333  0.666667  0.005085  1
  Si  Si3  1  0.666667  0.333333  0.995359  1
  I  I4  1  0.333333  0.666667  0.660030  1
  I  I5  1  0.666667  0.333333  0.341288  1
