# generated using pymatgen
data_Cs4Ta3V(CuTe2)8
_symmetry_space_group_name_H-M   'P 1'
_cell_length_a   6.02320404
_cell_length_b   8.35450027
_cell_length_c   21.11123883
_cell_angle_alpha   90.02906171
_cell_angle_beta   90.01374560
_cell_angle_gamma   89.99734556
_symmetry_Int_Tables_number   1
_chemical_formula_structural   Cs4Ta3V(CuTe2)8
_chemical_formula_sum   'Cs4 Ta3 V1 Cu8 Te16'
_cell_volume   1062.33552158
_cell_formula_units_Z   1
loop_
 _symmetry_equiv_pos_site_id
 _symmetry_equiv_pos_as_xyz
  1  'x, y, z'
loop_
 _atom_site_type_symbol
 _atom_site_label
 _atom_site_symmetry_multiplicity
 _atom_site_fract_x
 _atom_site_fract_y
 _atom_site_fract_z
 _atom_site_occupancy
  Cs  Cs0  1  0.014053  0.706629  0.437624  1
  Cs  Cs1  1  0.520195  0.291929  0.559132  1
  Cs  Cs2  1  0.516697  0.793058  0.938639  1
  Cs  Cs3  1  0.016518  0.207136  0.062462  1
  Ta  Ta4  1  0.259846  0.705882  0.149168  1
  Ta  Ta5  1  0.759204  0.293998  0.851582  1
  Ta  Ta6  1  0.759148  0.794016  0.648124  1
  V  V7  1  0.258673  0.206075  0.350493  1
  Cu  Cu8  1  0.266105  0.962727  0.247806  1
  Cu  Cu9  1  0.766903  0.037525  0.752376  1
  Cu  Cu10  1  0.766561  0.537580  0.747347  1
  Cu  Cu11  1  0.266486  0.462409  0.252901  1
  Cu  Cu12  1  0.258984  0.793425  0.647832  1
  Cu  Cu13  1  0.757574  0.207278  0.352348  1
  Cu  Cu14  1  0.759009  0.706527  0.148229  1
  Cu  Cu15  1  0.259274  0.293233  0.852076  1
  Te  Te16  1  0.512126  0.965370  0.145220  1
  Te  Te17  1  0.011526  0.034618  0.855414  1
  Te  Te18  1  0.011533  0.534634  0.644356  1
  Te  Te19  1  0.499596  0.456839  0.356347  1
  Te  Te20  1  0.500970  0.957649  0.350543  1
  Te  Te21  1  0.012429  0.051607  0.650239  1
  Te  Te22  1  0.012397  0.551580  0.849428  1
  Te  Te23  1  0.513433  0.448125  0.151286  1
  Te  Te24  1  0.000869  0.712475  0.251698  1
  Te  Te25  1  0.501626  0.287689  0.748761  1
  Te  Te26  1  0.501815  0.787765  0.750931  1
  Te  Te27  1  0.007960  0.212267  0.251832  1
  Te  Te28  1  0.010263  0.694877  0.047025  1
  Te  Te29  1  0.509299  0.305100  0.953568  1
  Te  Te30  1  0.508360  0.805015  0.546209  1
  Te  Te31  1  0.022172  0.194963  0.449002  1
