# generated using pymatgen
data_Y2Tm2ScOs7
_symmetry_space_group_name_H-M   'P 1'
_cell_length_a   5.39015800
_cell_length_b   5.39028111
_cell_length_c   8.87167900
_cell_angle_alpha   90.00087647
_cell_angle_beta   89.99956661
_cell_angle_gamma   120.00050764
_symmetry_Int_Tables_number   1
_chemical_formula_structural   Y2Tm2ScOs7
_chemical_formula_sum   'Y2 Tm2 Sc1 Os7'
_cell_volume   223.22721478
_cell_formula_units_Z   1
loop_
 _symmetry_equiv_pos_site_id
 _symmetry_equiv_pos_as_xyz
  1  'x, y, z'
loop_
 _atom_site_type_symbol
 _atom_site_label
 _atom_site_symmetry_multiplicity
 _atom_site_fract_x
 _atom_site_fract_y
 _atom_site_fract_z
 _atom_site_occupancy
  Y  Y0  1  0.666667  0.333335  0.577383  1
  Y  Y1  1  0.333333  0.666665  0.422617  1
  Tm  Tm2  1  0.333336  0.666665  0.059666  1
  Tm  Tm3  1  0.666664  0.333335  0.940334  1
  Sc  Sc4  1  0.000000  0.000000  0.500000  1
  Os  Os5  1  0.000000  0.000000  0.000000  1
  Os  Os6  1  0.172521  0.345042  0.756752  1
  Os  Os7  1  0.172511  0.827477  0.756749  1
  Os  Os8  1  0.654964  0.827476  0.756749  1
  Os  Os9  1  0.827479  0.654958  0.243248  1
  Os  Os10  1  0.827489  0.172523  0.243251  1
  Os  Os11  1  0.345036  0.172524  0.243251  1
