# generated using pymatgen
data_TbTl3Bi2(SbO7)2
_symmetry_space_group_name_H-M   'P 1'
_cell_length_a   6.67224060
_cell_length_b   6.49554789
_cell_length_c   7.74405000
_cell_angle_alpha   90.00000000
_cell_angle_beta   90.00000000
_cell_angle_gamma   110.88027554
_symmetry_Int_Tables_number   1
_chemical_formula_structural   TbTl3Bi2(SbO7)2
_chemical_formula_sum   'Tb1 Tl3 Bi2 Sb2 O14'
_cell_volume   313.58453837
_cell_formula_units_Z   1
loop_
 _symmetry_equiv_pos_site_id
 _symmetry_equiv_pos_as_xyz
  1  'x, y, z'
loop_
 _atom_site_type_symbol
 _atom_site_label
 _atom_site_symmetry_multiplicity
 _atom_site_fract_x
 _atom_site_fract_y
 _atom_site_fract_z
 _atom_site_occupancy
  Tb  Tb0  1  0.001333  0.450671  0.750000  1
  Tl  Tl1  1  0.490351  0.996813  0.750000  1
  Tl  Tl2  1  0.007574  0.522985  0.250000  1
  Tl  Tl3  1  0.488420  0.010968  0.250000  1
  Bi  Bi4  1  0.529659  0.525477  0.503103  1
  Bi  Bi5  1  0.529659  0.525477  0.996897  1
  Sb  Sb6  1  0.999245  0.997751  0.498600  1
  Sb  Sb7  1  0.999245  0.997751  0.001400  1
  O  O8  1  0.676756  0.919345  0.484891  1
  O  O9  1  0.919803  0.673906  0.541967  1
  O  O10  1  0.676756  0.919345  0.015109  1
  O  O11  1  0.919803  0.673906  0.958033  1
  O  O12  1  0.316967  0.068444  0.507080  1
  O  O13  1  0.055424  0.318490  0.475226  1
  O  O14  1  0.316967  0.068444  0.992920  1
  O  O15  1  0.055424  0.318490  0.024774  1
  O  O16  1  0.985521  0.079855  0.750000  1
  O  O17  1  0.015365  0.914935  0.250000  1
  O  O18  1  0.368752  0.640920  0.750000  1
  O  O19  1  0.650720  0.377651  0.250000  1
  O  O20  1  0.637136  0.347167  0.750000  1
  O  O21  1  0.359119  0.651210  0.250000  1
