# generated using pymatgen
data_Np3S2O3
_symmetry_space_group_name_H-M   'P 1'
_cell_length_a   3.88021100
_cell_length_b   6.66329200
_cell_length_c   21.12069600
_cell_angle_alpha   90.00000000
_cell_angle_beta   90.00000000
_cell_angle_gamma   90.00000000
_symmetry_Int_Tables_number   1
_chemical_formula_structural   Np3S2O3
_chemical_formula_sum   'Np12 S8 O12'
_cell_volume   546.07514974
_cell_formula_units_Z   4
loop_
 _symmetry_equiv_pos_site_id
 _symmetry_equiv_pos_as_xyz
  1  'x, y, z'
loop_
 _atom_site_type_symbol
 _atom_site_label
 _atom_site_symmetry_multiplicity
 _atom_site_fract_x
 _atom_site_fract_y
 _atom_site_fract_z
 _atom_site_occupancy
  Np  Np0  1  0.750000  0.727304  0.473359  1
  Np  Np1  1  0.250000  0.272696  0.526641  1
  Np  Np2  1  0.750000  0.227304  0.026641  1
  Np  Np3  1  0.250000  0.772696  0.973359  1
  Np  Np4  1  0.750000  0.781967  0.131517  1
  Np  Np5  1  0.250000  0.218033  0.868483  1
  Np  Np6  1  0.750000  0.281967  0.368483  1
  Np  Np7  1  0.250000  0.718033  0.631517  1
  Np  Np8  1  0.750000  0.787628  0.810670  1
  Np  Np9  1  0.250000  0.212372  0.189330  1
  Np  Np10  1  0.750000  0.287628  0.689330  1
  Np  Np11  1  0.250000  0.712372  0.310670  1
  S  S12  1  0.750000  0.506558  0.228575  1
  S  S13  1  0.250000  0.493442  0.771425  1
  S  S14  1  0.750000  0.006558  0.271425  1
  S  S15  1  0.250000  0.993442  0.728575  1
  S  S16  1  0.750000  0.004242  0.578254  1
  S  S17  1  0.250000  0.995758  0.421746  1
  S  S18  1  0.750000  0.504242  0.921746  1
  S  S19  1  0.250000  0.495758  0.078254  1
  O  O20  1  0.750000  0.639042  0.371550  1
  O  O21  1  0.250000  0.360958  0.628450  1
  O  O22  1  0.750000  0.139042  0.128450  1
  O  O23  1  0.250000  0.860958  0.871550  1
  O  O24  1  0.750000  0.873998  0.025108  1
  O  O25  1  0.250000  0.126002  0.974892  1
  O  O26  1  0.750000  0.373998  0.474892  1
  O  O27  1  0.250000  0.626002  0.525108  1
  O  O28  1  0.750000  0.622412  0.666356  1
  O  O29  1  0.250000  0.377588  0.333644  1
  O  O30  1  0.750000  0.122412  0.833644  1
  O  O31  1  0.250000  0.877588  0.166356  1
