# generated using pymatgen
data_Pr3InHg2Rh3
_symmetry_space_group_name_H-M   'P 1'
_cell_length_a   7.60754900
_cell_length_b   7.66292389
_cell_length_c   4.11045800
_cell_angle_alpha   90.00000000
_cell_angle_beta   90.00000000
_cell_angle_gamma   119.76124543
_symmetry_Int_Tables_number   1
_chemical_formula_structural   Pr3InHg2Rh3
_chemical_formula_sum   'Pr3 In1 Hg2 Rh3'
_cell_volume   208.01753458
_cell_formula_units_Z   1
loop_
 _symmetry_equiv_pos_site_id
 _symmetry_equiv_pos_as_xyz
  1  'x, y, z'
loop_
 _atom_site_type_symbol
 _atom_site_label
 _atom_site_symmetry_multiplicity
 _atom_site_fract_x
 _atom_site_fract_y
 _atom_site_fract_z
 _atom_site_occupancy
  Pr  Pr0  1  0.999999  0.592991  0.500000  1
  Pr  Pr1  1  0.407009  0.407009  0.500000  1
  Pr  Pr2  1  0.598156  0.000000  0.500000  1
  In  In3  1  0.251899  0.000000  0.000000  1
  Hg  Hg4  1  0.744668  0.745537  0.000000  1
  Hg  Hg5  1  0.999131  0.254463  0.000000  1
  Rh  Rh6  1  0.328133  0.675224  0.000000  1
  Rh  Rh7  1  0.018093  0.000000  0.500000  1
  Rh  Rh8  1  0.652910  0.324776  0.000000  1
