# generated using pymatgen
data_Eu5TlAg2
_symmetry_space_group_name_H-M   'P 1'
_cell_length_a   9.57208586
_cell_length_b   9.57208587
_cell_length_c   9.57208700
_cell_angle_alpha   128.00924103
_cell_angle_beta   128.00924108
_cell_angle_gamma   76.61005653
_symmetry_Int_Tables_number   1
_chemical_formula_structural   Eu5TlAg2
_chemical_formula_sum   'Eu10 Tl2 Ag4'
_cell_volume   528.85413913
_cell_formula_units_Z   2
loop_
 _symmetry_equiv_pos_site_id
 _symmetry_equiv_pos_as_xyz
  1  'x, y, z'
loop_
 _atom_site_type_symbol
 _atom_site_label
 _atom_site_symmetry_multiplicity
 _atom_site_fract_x
 _atom_site_fract_y
 _atom_site_fract_z
 _atom_site_occupancy
  Eu  Eu0  1  0.500000  0.500000  0.000000  1
  Eu  Eu1  1  0.000000  0.000000  0.000000  1
  Eu  Eu2  1  0.522619  0.022619  0.833999  1
  Eu  Eu3  1  0.188616  0.688616  0.166005  1
  Eu  Eu4  1  0.022616  0.188617  0.500001  1
  Eu  Eu5  1  0.688617  0.522616  0.500001  1
  Eu  Eu6  1  0.477381  0.977381  0.166001  1
  Eu  Eu7  1  0.811384  0.311384  0.833995  1
  Eu  Eu8  1  0.977384  0.811383  0.499999  1
  Eu  Eu9  1  0.311383  0.477384  0.499999  1
  Tl  Tl10  1  0.250006  0.249994  0.000000  1
  Tl  Tl11  1  0.749994  0.750006  0.000000  1
  Ag  Ag12  1  0.124413  0.624413  0.748827  1
  Ag  Ag13  1  0.875587  0.375587  0.251173  1
  Ag  Ag14  1  0.624414  0.875586  0.500000  1
  Ag  Ag15  1  0.375586  0.124414  0.500000  1
