# generated using pymatgen
data_Hf16PaCo5Pd2
_symmetry_space_group_name_H-M   'P 1'
_cell_length_a   8.66491942
_cell_length_b   8.72262609
_cell_length_c   8.68198600
_cell_angle_alpha   60.15401198
_cell_angle_beta   59.93483179
_cell_angle_gamma   59.86016441
_symmetry_Int_Tables_number   1
_chemical_formula_structural   Hf16PaCo5Pd2
_chemical_formula_sum   'Hf16 Pa1 Co5 Pd2'
_cell_volume   463.81230905
_cell_formula_units_Z   1
loop_
 _symmetry_equiv_pos_site_id
 _symmetry_equiv_pos_as_xyz
  1  'x, y, z'
loop_
 _atom_site_type_symbol
 _atom_site_label
 _atom_site_symmetry_multiplicity
 _atom_site_fract_x
 _atom_site_fract_y
 _atom_site_fract_z
 _atom_site_occupancy
  Hf  Hf0  1  0.205094  0.602153  0.596376  1
  Hf  Hf1  1  0.608572  0.171313  0.610057  1
  Hf  Hf2  1  0.594456  0.601252  0.206953  1
  Hf  Hf3  1  0.594456  0.601252  0.597339  1
  Hf  Hf4  1  0.813870  0.814920  0.185605  1
  Hf  Hf5  1  0.183671  0.192582  0.811873  1
  Hf  Hf6  1  0.813453  0.199215  0.812360  1
  Hf  Hf7  1  0.196240  0.815574  0.175433  1
  Hf  Hf8  1  0.196240  0.815574  0.812753  1
  Hf  Hf9  1  0.813453  0.199215  0.174972  1
  Hf  Hf10  1  0.438749  0.435715  0.062768  1
  Hf  Hf11  1  0.057499  0.055468  0.443516  1
  Hf  Hf12  1  0.444059  0.053808  0.446270  1
  Hf  Hf13  1  0.064726  0.432184  0.064371  1
  Hf  Hf14  1  0.064726  0.432184  0.438719  1
  Hf  Hf15  1  0.444059  0.053808  0.055863  1
  Pa  Pa16  1  0.813228  0.543918  0.821427  1
  Co  Co17  1  0.820001  0.382230  0.398883  1
  Co  Co18  1  0.391473  0.826673  0.390926  1
  Co  Co19  1  0.397537  0.382016  0.819766  1
  Co  Co20  1  0.397537  0.382016  0.400679  1
  Co  Co21  1  0.463697  0.829301  0.853501  1
  Pd  Pd22  1  0.841602  0.838813  0.477443  1
  Pd  Pd23  1  0.841602  0.838813  0.842142  1
