# generated using pymatgen
data_Yb4TmPa3(Pt2Pb)4
_symmetry_space_group_name_H-M   'P 1'
_cell_length_a   7.94271382
_cell_length_b   7.94271393
_cell_length_c   7.18345100
_cell_angle_alpha   90.00000000
_cell_angle_beta   90.00000000
_cell_angle_gamma   90.59044257
_symmetry_Int_Tables_number   1
_chemical_formula_structural   Yb4TmPa3(Pt2Pb)4
_chemical_formula_sum   'Yb4 Tm1 Pa3 Pt8 Pb4'
_cell_volume   453.15618185
_cell_formula_units_Z   1
loop_
 _symmetry_equiv_pos_site_id
 _symmetry_equiv_pos_as_xyz
  1  'x, y, z'
loop_
 _atom_site_type_symbol
 _atom_site_label
 _atom_site_symmetry_multiplicity
 _atom_site_fract_x
 _atom_site_fract_y
 _atom_site_fract_z
 _atom_site_occupancy
  Yb  Yb0  1  0.342137  0.344551  0.500000  1
  Yb  Yb1  1  0.655449  0.657863  0.500000  1
  Yb  Yb2  1  0.176244  0.823756  0.500000  1
  Yb  Yb3  1  0.158755  0.841245  0.000000  1
  Tm  Tm4  1  0.842875  0.157125  0.000000  1
  Pa  Pa5  1  0.676975  0.676003  0.000000  1
  Pa  Pa6  1  0.826779  0.173221  0.500000  1
  Pa  Pa7  1  0.323997  0.323025  0.000000  1
  Pt  Pt8  1  0.862455  0.875174  0.738676  1
  Pt  Pt9  1  0.124826  0.137545  0.738676  1
  Pt  Pt10  1  0.637100  0.362900  0.769948  1
  Pt  Pt11  1  0.637100  0.362900  0.230052  1
  Pt  Pt12  1  0.380849  0.619151  0.217600  1
  Pt  Pt13  1  0.124826  0.137545  0.261324  1
  Pt  Pt14  1  0.862455  0.875174  0.261324  1
  Pt  Pt15  1  0.380849  0.619151  0.782400  1
  Pb  Pb16  1  0.490748  0.997583  0.744280  1
  Pb  Pb17  1  0.490748  0.997583  0.255720  1
  Pb  Pb18  1  0.002417  0.509252  0.744280  1
  Pb  Pb19  1  0.002417  0.509252  0.255720  1
