# generated using pymatgen
data_Dy5YMn16(CoP6)2
_symmetry_space_group_name_H-M   'P 1'
_cell_length_a   3.64450900
_cell_length_b   10.86673000
_cell_length_c   12.65372700
_cell_angle_alpha   90.00000000
_cell_angle_beta   90.00000000
_cell_angle_gamma   90.00000000
_symmetry_Int_Tables_number   1
_chemical_formula_structural   Dy5YMn16(CoP6)2
_chemical_formula_sum   'Dy5 Y1 Mn16 Co2 P12'
_cell_volume   501.13687908
_cell_formula_units_Z   1
loop_
 _symmetry_equiv_pos_site_id
 _symmetry_equiv_pos_as_xyz
  1  'x, y, z'
loop_
 _atom_site_type_symbol
 _atom_site_label
 _atom_site_symmetry_multiplicity
 _atom_site_fract_x
 _atom_site_fract_y
 _atom_site_fract_z
 _atom_site_occupancy
  Dy  Dy0  1  0.000000  0.500000  0.532162  1
  Dy  Dy1  1  0.500000  0.822884  0.206395  1
  Dy  Dy2  1  0.500000  0.177116  0.206395  1
  Dy  Dy3  1  0.000000  0.676926  0.793646  1
  Dy  Dy4  1  0.000000  0.323074  0.793646  1
  Y  Y5  1  0.500000  0.000000  0.467864  1
  Mn  Mn6  1  0.500000  0.500000  0.166592  1
  Mn  Mn7  1  0.000000  0.000000  0.833747  1
  Mn  Mn8  1  0.000000  0.500000  0.992683  1
  Mn  Mn9  1  0.500000  0.000000  0.007239  1
  Mn  Mn10  1  0.500000  0.332651  0.997433  1
  Mn  Mn11  1  0.500000  0.667349  0.997433  1
  Mn  Mn12  1  0.000000  0.167580  0.002681  1
  Mn  Mn13  1  0.000000  0.832420  0.002681  1
  Mn  Mn14  1  0.500000  0.298171  0.432438  1
  Mn  Mn15  1  0.500000  0.701829  0.432438  1
  Mn  Mn16  1  0.000000  0.202219  0.567421  1
  Mn  Mn17  1  0.000000  0.797781  0.567421  1
  Mn  Mn18  1  0.500000  0.881445  0.702355  1
  Mn  Mn19  1  0.500000  0.118555  0.702355  1
  Mn  Mn20  1  0.000000  0.618353  0.297664  1
  Mn  Mn21  1  0.000000  0.381647  0.297664  1
  Co  Co22  1  0.500000  0.500000  0.705856  1
  Co  Co23  1  0.000000  0.000000  0.293823  1
  P  P24  1  0.500000  0.500000  0.881547  1
  P  P25  1  0.000000  0.000000  0.118379  1
  P  P26  1  0.500000  0.500000  0.359345  1
  P  P27  1  0.000000  0.000000  0.640944  1
  P  P28  1  0.500000  0.317881  0.618795  1
  P  P29  1  0.500000  0.682119  0.618795  1
  P  P30  1  0.000000  0.182505  0.380923  1
  P  P31  1  0.000000  0.817495  0.380923  1
  P  P32  1  0.500000  0.845490  0.885054  1
  P  P33  1  0.500000  0.154510  0.885054  1
  P  P34  1  0.000000  0.654269  0.115104  1
  P  P35  1  0.000000  0.345731  0.115104  1
