# generated using pymatgen
data_Tm2ThAl7Cu2
_symmetry_space_group_name_H-M   'P 1'
_cell_length_a   9.07668492
_cell_length_b   9.07668537
_cell_length_c   9.07668500
_cell_angle_alpha   35.26411167
_cell_angle_beta   35.26410764
_cell_angle_gamma   35.26411209
_symmetry_Int_Tables_number   1
_chemical_formula_structural   Tm2ThAl7Cu2
_chemical_formula_sum   'Tm2 Th1 Al7 Cu2'
_cell_volume   222.66124688
_cell_formula_units_Z   1
loop_
 _symmetry_equiv_pos_site_id
 _symmetry_equiv_pos_as_xyz
  1  'x, y, z'
loop_
 _atom_site_type_symbol
 _atom_site_label
 _atom_site_symmetry_multiplicity
 _atom_site_fract_x
 _atom_site_fract_y
 _atom_site_fract_z
 _atom_site_occupancy
  Tm  Tm0  1  0.858561  0.858561  0.858561  1
  Tm  Tm1  1  0.141439  0.141439  0.141439  1
  Th  Th2  1  0.000000  0.000000  0.000000  1
  Al  Al3  1  0.417058  0.417058  0.926411  1
  Al  Al4  1  0.926411  0.417058  0.417058  1
  Al  Al5  1  0.417058  0.926411  0.417058  1
  Al  Al6  1  0.500000  0.500000  0.500000  1
  Al  Al7  1  0.582942  0.073589  0.582942  1
  Al  Al8  1  0.073589  0.582942  0.582942  1
  Al  Al9  1  0.582942  0.582942  0.073589  1
  Cu  Cu10  1  0.664641  0.664641  0.664641  1
  Cu  Cu11  1  0.335359  0.335359  0.335359  1
