# generated using pymatgen
data_Tm5Lu15Sn16
_symmetry_space_group_name_H-M   'P 1'
_cell_length_a   7.91200622
_cell_length_b   8.02934805
_cell_length_c   15.17905439
_cell_angle_alpha   90.00629004
_cell_angle_beta   89.97481830
_cell_angle_gamma   89.98961359
_symmetry_Int_Tables_number   1
_chemical_formula_structural   Tm5Lu15Sn16
_chemical_formula_sum   'Tm5 Lu15 Sn16'
_cell_volume   964.29867308
_cell_formula_units_Z   1
loop_
 _symmetry_equiv_pos_site_id
 _symmetry_equiv_pos_as_xyz
  1  'x, y, z'
loop_
 _atom_site_type_symbol
 _atom_site_label
 _atom_site_symmetry_multiplicity
 _atom_site_fract_x
 _atom_site_fract_y
 _atom_site_fract_z
 _atom_site_occupancy
  Tm  Tm0  1  0.977883  0.820399  0.096987  1
  Tm  Tm1  1  0.477857  0.679533  0.096864  1
  Tm  Tm2  1  0.977831  0.820376  0.403083  1
  Tm  Tm3  1  0.522144  0.320439  0.596873  1
  Tm  Tm4  1  0.022071  0.179604  0.903112  1
  Lu  Lu5  1  0.368162  0.836715  0.877283  1
  Lu  Lu6  1  0.868253  0.663325  0.622731  1
  Lu  Lu7  1  0.631677  0.163397  0.377321  1
  Lu  Lu8  1  0.131726  0.336619  0.122698  1
  Lu  Lu9  1  0.631687  0.163475  0.122638  1
  Lu  Lu10  1  0.131695  0.336612  0.377393  1
  Lu  Lu11  1  0.368305  0.836660  0.622661  1
  Lu  Lu12  1  0.868194  0.663269  0.877249  1
  Lu  Lu13  1  0.522238  0.320434  0.902957  1
  Lu  Lu14  1  0.022252  0.179558  0.597029  1
  Lu  Lu15  1  0.477727  0.679544  0.402973  1
  Lu  Lu16  1  0.198009  0.503846  0.750028  1
  Lu  Lu17  1  0.697974  0.996174  0.749961  1
  Lu  Lu18  1  0.801881  0.496081  0.250109  1
  Lu  Lu19  1  0.302087  0.003946  0.250032  1
  Sn  Sn20  1  0.292514  0.036351  0.041436  1
  Sn  Sn21  1  0.791873  0.464054  0.458486  1
  Sn  Sn22  1  0.708108  0.964038  0.541533  1
  Sn  Sn23  1  0.208102  0.535909  0.958483  1
  Sn  Sn24  1  0.707138  0.963847  0.958552  1
  Sn  Sn25  1  0.207509  0.536338  0.541257  1
  Sn  Sn26  1  0.292425  0.036298  0.458770  1
  Sn  Sn27  1  0.792261  0.463392  0.041166  1
  Sn  Sn28  1  0.564127  0.620014  0.749958  1
  Sn  Sn29  1  0.064137  0.879931  0.750028  1
  Sn  Sn30  1  0.435802  0.379999  0.249956  1
  Sn  Sn31  1  0.935795  0.120202  0.250061  1
  Sn  Sn32  1  0.332313  0.149565  0.750185  1
  Sn  Sn33  1  0.832384  0.350402  0.749791  1
  Sn  Sn34  1  0.667689  0.850603  0.250254  1
  Sn  Sn35  1  0.168170  0.649050  0.250102  1
