# generated using pymatgen
data_HfNp3BiSb4
_symmetry_space_group_name_H-M   'P 1'
_cell_length_a   9.40340200
_cell_length_b   9.29546209
_cell_length_c   6.22203100
_cell_angle_alpha   90.00000000
_cell_angle_beta   90.00000000
_cell_angle_gamma   120.38488179
_symmetry_Int_Tables_number   1
_chemical_formula_structural   HfNp3BiSb4
_chemical_formula_sum   'Hf2 Np6 Bi2 Sb8'
_cell_volume   469.16040847
_cell_formula_units_Z   2
loop_
 _symmetry_equiv_pos_site_id
 _symmetry_equiv_pos_as_xyz
  1  'x, y, z'
loop_
 _atom_site_type_symbol
 _atom_site_label
 _atom_site_symmetry_multiplicity
 _atom_site_fract_x
 _atom_site_fract_y
 _atom_site_fract_z
 _atom_site_occupancy
  Hf  Hf0  1  0.000000  0.000000  0.000000  1
  Hf  Hf1  1  0.000000  0.000000  0.500000  1
  Np  Np2  1  0.621027  0.000000  0.250000  1
  Np  Np3  1  0.378973  0.000000  0.750000  1
  Np  Np4  1  0.993230  0.606400  0.250000  1
  Np  Np5  1  0.006770  0.393600  0.750000  1
  Np  Np6  1  0.386830  0.393600  0.250000  1
  Np  Np7  1  0.613170  0.606400  0.750000  1
  Bi  Bi8  1  0.271364  0.000000  0.250000  1
  Bi  Bi9  1  0.728636  0.000000  0.750000  1
  Sb  Sb10  1  0.002401  0.269122  0.250000  1
  Sb  Sb11  1  0.997599  0.730878  0.750000  1
  Sb  Sb12  1  0.733279  0.730878  0.250000  1
  Sb  Sb13  1  0.266721  0.269122  0.750000  1
  Sb  Sb14  1  0.335057  0.670116  0.000000  1
  Sb  Sb15  1  0.664943  0.329884  0.000000  1
  Sb  Sb16  1  0.664943  0.329884  0.500000  1
  Sb  Sb17  1  0.335057  0.670116  0.500000  1
