# generated using pymatgen
data_TbDy3Al18AgRh5
_symmetry_space_group_name_H-M   'P 1'
_cell_length_a   7.56585978
_cell_length_b   7.56634292
_cell_length_c   9.44136600
_cell_angle_alpha   90.06359348
_cell_angle_beta   90.07084484
_cell_angle_gamma   119.57673404
_symmetry_Int_Tables_number   1
_chemical_formula_structural   TbDy3Al18AgRh5
_chemical_formula_sum   'Tb1 Dy3 Al18 Ag1 Rh5'
_cell_volume   470.05118263
_cell_formula_units_Z   1
loop_
 _symmetry_equiv_pos_site_id
 _symmetry_equiv_pos_as_xyz
  1  'x, y, z'
loop_
 _atom_site_type_symbol
 _atom_site_label
 _atom_site_symmetry_multiplicity
 _atom_site_fract_x
 _atom_site_fract_y
 _atom_site_fract_z
 _atom_site_occupancy
  Tb  Tb0  1  0.995416  0.674667  0.750437  1
  Dy  Dy1  1  0.004524  0.325303  0.249471  1
  Dy  Dy2  1  0.674620  0.995475  0.750537  1
  Dy  Dy3  1  0.325357  0.004588  0.249475  1
  Al  Al4  1  0.136225  0.136430  0.757303  1
  Al  Al5  1  0.863716  0.863841  0.242720  1
  Al  Al6  1  0.001901  0.344694  0.579756  1
  Al  Al7  1  0.998000  0.654767  0.419488  1
  Al  Al8  1  0.000427  0.663597  0.074884  1
  Al  Al9  1  0.336600  0.999884  0.925729  1
  Al  Al10  1  0.999786  0.336322  0.925735  1
  Al  Al11  1  0.663518  0.000324  0.074648  1
  Al  Al12  1  0.655029  0.998162  0.419854  1
  Al  Al13  1  0.345331  0.002128  0.579880  1
  Al  Al14  1  0.332920  0.332910  0.050462  1
  Al  Al15  1  0.666989  0.667096  0.950186  1
  Al  Al16  1  0.657723  0.657986  0.556535  1
  Al  Al17  1  0.341861  0.341930  0.442844  1
  Al  Al18  1  0.340378  0.552366  0.751456  1
  Al  Al19  1  0.659780  0.447606  0.248506  1
  Al  Al20  1  0.552041  0.339916  0.751502  1
  Al  Al21  1  0.447623  0.659928  0.248563  1
  Ag  Ag22  1  0.000148  0.999871  0.499888  1
  Rh  Rh23  1  0.671964  0.327884  0.499881  1
  Rh  Rh24  1  0.327876  0.672047  0.499835  1
  Rh  Rh25  1  0.327983  0.672275  0.000136  1
  Rh  Rh26  1  0.672231  0.327731  0.000134  1
  Rh  Rh27  1  0.000033  0.000273  0.000154  1
