# generated using pymatgen
data_Na2Ho2P7Ir8
_symmetry_space_group_name_H-M   'P 1'
_cell_length_a   3.94798500
_cell_length_b   12.62036364
_cell_length_c   13.17177080
_cell_angle_alpha   80.29709475
_cell_angle_beta   90.00000000
_cell_angle_gamma   90.00000000
_symmetry_Int_Tables_number   1
_chemical_formula_structural   Na2Ho2P7Ir8
_chemical_formula_sum   'Na4 Ho4 P14 Ir16'
_cell_volume   646.89537765
_cell_formula_units_Z   2
loop_
 _symmetry_equiv_pos_site_id
 _symmetry_equiv_pos_as_xyz
  1  'x, y, z'
loop_
 _atom_site_type_symbol
 _atom_site_label
 _atom_site_symmetry_multiplicity
 _atom_site_fract_x
 _atom_site_fract_y
 _atom_site_fract_z
 _atom_site_occupancy
  Na  Na0  1  0.750000  0.713194  0.892432  1
  Na  Na1  1  0.250000  0.098532  0.797095  1
  Na  Na2  1  0.750000  0.901468  0.202905  1
  Na  Na3  1  0.250000  0.286806  0.107568  1
  Ho  Ho4  1  0.750000  0.787922  0.564100  1
  Ho  Ho5  1  0.250000  0.212078  0.435900  1
  Ho  Ho6  1  0.750000  0.479868  0.706593  1
  Ho  Ho7  1  0.250000  0.520132  0.293407  1
  P  P8  1  0.250000  0.909383  0.412339  1
  P  P9  1  0.750000  0.474310  0.127481  1
  P  P10  1  0.250000  0.525690  0.872519  1
  P  P11  1  0.750000  0.090617  0.587661  1
  P  P12  1  0.250000  0.742824  0.080804  1
  P  P13  1  0.750000  0.257176  0.919196  1
  P  P14  1  0.750000  0.158695  0.281102  1
  P  P15  1  0.250000  0.841305  0.718898  1
  P  P16  1  0.250000  0.059896  0.097358  1
  P  P17  1  0.750000  0.940104  0.902642  1
  P  P18  1  0.250000  0.302953  0.689999  1
  P  P19  1  0.750000  0.697047  0.310001  1
  P  P20  1  0.250000  0.608698  0.562934  1
  P  P21  1  0.750000  0.391302  0.437066  1
  Ir  Ir22  1  0.250000  0.982539  0.575347  1
  Ir  Ir23  1  0.750000  0.017461  0.424653  1
  Ir  Ir24  1  0.250000  0.657202  0.724615  1
  Ir  Ir25  1  0.750000  0.342798  0.275385  1
  Ir  Ir26  1  0.250000  0.555811  0.047779  1
  Ir  Ir27  1  0.750000  0.444189  0.952221  1
  Ir  Ir28  1  0.250000  0.065708  0.270449  1
  Ir  Ir29  1  0.750000  0.934292  0.729551  1
  Ir  Ir30  1  0.250000  0.422813  0.527611  1
  Ir  Ir31  1  0.750000  0.577187  0.472389  1
  Ir  Ir32  1  0.250000  0.918104  0.000674  1
  Ir  Ir33  1  0.750000  0.081896  0.999326  1
  Ir  Ir34  1  0.250000  0.728880  0.398779  1
  Ir  Ir35  1  0.750000  0.271120  0.601221  1
  Ir  Ir36  1  0.250000  0.339714  0.857392  1
  Ir  Ir37  1  0.750000  0.660286  0.142608  1
