# generated using pymatgen
data_DyEr7Os2(RuC4)2
_symmetry_space_group_name_H-M   'P 1'
_cell_length_a   5.07422500
_cell_length_b   6.42119620
_cell_length_c   9.72767368
_cell_angle_alpha   89.70658879
_cell_angle_beta   90.00000000
_cell_angle_gamma   90.00000000
_symmetry_Int_Tables_number   1
_chemical_formula_structural   DyEr7Os2(RuC4)2
_chemical_formula_sum   'Dy1 Er7 Os2 Ru2 C8'
_cell_volume   316.94868885
_cell_formula_units_Z   1
loop_
 _symmetry_equiv_pos_site_id
 _symmetry_equiv_pos_as_xyz
  1  'x, y, z'
loop_
 _atom_site_type_symbol
 _atom_site_label
 _atom_site_symmetry_multiplicity
 _atom_site_fract_x
 _atom_site_fract_y
 _atom_site_fract_z
 _atom_site_occupancy
  Dy  Dy0  1  0.250000  0.025811  0.280707  1
  Er  Er1  1  0.250000  0.682477  0.554114  1
  Er  Er2  1  0.750000  0.317814  0.446366  1
  Er  Er3  1  0.750000  0.821949  0.053876  1
  Er  Er4  1  0.250000  0.177678  0.945658  1
  Er  Er5  1  0.250000  0.526809  0.217534  1
  Er  Er6  1  0.750000  0.472990  0.782443  1
  Er  Er7  1  0.750000  0.974289  0.719739  1
  Os  Os8  1  0.750000  0.776683  0.366458  1
  Os  Os9  1  0.250000  0.223044  0.633721  1
  Ru  Ru10  1  0.250000  0.721244  0.866402  1
  Ru  Ru11  1  0.750000  0.278670  0.133168  1
  C  C12  1  0.250000  0.457625  0.756218  1
  C  C13  1  0.750000  0.542174  0.243879  1
  C  C14  1  0.750000  0.041031  0.259206  1
  C  C15  1  0.250000  0.958678  0.740584  1
  C  C16  1  0.250000  0.827025  0.055173  1
  C  C17  1  0.750000  0.172251  0.944097  1
  C  C18  1  0.750000  0.674625  0.555668  1
  C  C19  1  0.250000  0.327132  0.444988  1
