# generated using pymatgen
data_Rb2AsAuS4
_symmetry_space_group_name_H-M   'P 1'
_cell_length_a   7.18110500
_cell_length_b   7.02908818
_cell_length_c   10.00466451
_cell_angle_alpha   85.54039813
_cell_angle_beta   90.00000000
_cell_angle_gamma   90.00000000
_symmetry_Int_Tables_number   1
_chemical_formula_structural   Rb2AsAuS4
_chemical_formula_sum   'Rb4 As2 Au2 S8'
_cell_volume   503.47271139
_cell_formula_units_Z   2
loop_
 _symmetry_equiv_pos_site_id
 _symmetry_equiv_pos_as_xyz
  1  'x, y, z'
loop_
 _atom_site_type_symbol
 _atom_site_label
 _atom_site_symmetry_multiplicity
 _atom_site_fract_x
 _atom_site_fract_y
 _atom_site_fract_z
 _atom_site_occupancy
  Rb  Rb0  1  0.250000  0.799056  0.534447  1
  Rb  Rb1  1  0.750000  0.528291  0.837413  1
  Rb  Rb2  1  0.750000  0.200944  0.465553  1
  Rb  Rb3  1  0.250000  0.471709  0.162587  1
  As  As4  1  0.750000  0.733716  0.275436  1
  As  As5  1  0.250000  0.266284  0.724564  1
  Au  Au6  1  0.000000  0.000000  0.000000  1
  Au  Au7  1  0.500000  0.000000  0.000000  1
  S  S8  1  0.250000  0.301845  0.508208  1
  S  S9  1  0.750000  0.698155  0.491792  1
  S  S10  1  0.250000  0.528507  0.823650  1
  S  S11  1  0.750000  0.471493  0.176350  1
  S  S12  1  0.507794  0.094630  0.772971  1
  S  S13  1  0.992206  0.094630  0.772971  1
  S  S14  1  0.492206  0.905370  0.227029  1
  S  S15  1  0.007794  0.905370  0.227029  1
