# generated using pymatgen
data_EuDy2Ga3(Ni3Sn)3
_symmetry_space_group_name_H-M   'P 1'
_cell_length_a   4.05797400
_cell_length_b   9.13578057
_cell_length_c   9.13578000
_cell_angle_alpha   60.05291102
_cell_angle_beta   90.00000000
_cell_angle_gamma   90.00000000
_symmetry_Int_Tables_number   1
_chemical_formula_structural   EuDy2Ga3(Ni3Sn)3
_chemical_formula_sum   'Eu1 Dy2 Ga3 Ni9 Sn3'
_cell_volume   293.46917343
_cell_formula_units_Z   1
loop_
 _symmetry_equiv_pos_site_id
 _symmetry_equiv_pos_as_xyz
  1  'x, y, z'
loop_
 _atom_site_type_symbol
 _atom_site_label
 _atom_site_symmetry_multiplicity
 _atom_site_fract_x
 _atom_site_fract_y
 _atom_site_fract_z
 _atom_site_occupancy
  Eu  Eu0  1  0.500000  0.332938  0.333638  1
  Dy  Dy1  1  0.500000  0.666362  0.667062  1
  Dy  Dy2  1  0.000000  0.000613  0.999387  1
  Ga  Ga3  1  0.500000  0.257424  0.742576  1
  Ga  Ga4  1  0.500000  0.742749  0.999965  1
  Ga  Ga5  1  0.500000  0.000035  0.257251  1
  Ni  Ni6  1  0.000000  0.161469  0.205340  1
  Ni  Ni7  1  0.000000  0.205115  0.633088  1
  Ni  Ni8  1  0.000000  0.634115  0.161530  1
  Ni  Ni9  1  0.000000  0.794660  0.838531  1
  Ni  Ni10  1  0.000000  0.366912  0.794885  1
  Ni  Ni11  1  0.000000  0.838470  0.365885  1
  Ni  Ni12  1  0.500000  0.719621  0.280379  1
  Ni  Ni13  1  0.500000  0.280222  0.000089  1
  Ni  Ni14  1  0.500000  0.999911  0.719778  1
  Sn  Sn15  1  0.000000  0.528359  0.471641  1
  Sn  Sn16  1  0.000000  0.471376  0.000452  1
  Sn  Sn17  1  0.000000  0.999548  0.528624  1
