# generated using pymatgen
data_Tm3HfAs6Ru7
_symmetry_space_group_name_H-M   'P 1'
_cell_length_a   7.15585461
_cell_length_b   7.16156086
_cell_length_c   7.15585375
_cell_angle_alpha   109.48738178
_cell_angle_beta   109.45505825
_cell_angle_gamma   109.48738404
_symmetry_Int_Tables_number   1
_chemical_formula_structural   Tm3HfAs6Ru7
_chemical_formula_sum   'Tm3 Hf1 As6 Ru7'
_cell_volume   282.24227856
_cell_formula_units_Z   1
loop_
 _symmetry_equiv_pos_site_id
 _symmetry_equiv_pos_as_xyz
  1  'x, y, z'
loop_
 _atom_site_type_symbol
 _atom_site_label
 _atom_site_symmetry_multiplicity
 _atom_site_fract_x
 _atom_site_fract_y
 _atom_site_fract_z
 _atom_site_occupancy
  Tm  Tm0  1  0.000000  0.000000  0.500000  1
  Tm  Tm1  1  0.500000  0.000000  0.000000  1
  Tm  Tm2  1  0.500000  0.500000  0.500000  1
  Hf  Hf3  1  0.000000  0.500000  0.000000  1
  As  As4  1  0.313333  0.998213  0.313333  1
  As  As5  1  0.000000  0.315120  0.313333  1
  As  As6  1  0.000000  0.684880  0.686667  1
  As  As7  1  0.313333  0.315120  0.000000  1
  As  As8  1  0.686667  0.684880  0.000000  1
  As  As9  1  0.686667  0.001787  0.686667  1
  Ru  Ru10  1  0.754530  0.500000  0.245470  1
  Ru  Ru11  1  0.490941  0.745470  0.245470  1
  Ru  Ru12  1  0.509059  0.254530  0.754530  1
  Ru  Ru13  1  0.754530  0.254530  0.509059  1
  Ru  Ru14  1  0.245470  0.745470  0.490941  1
  Ru  Ru15  1  0.245470  0.500000  0.754530  1
  Ru  Ru16  1  0.000000  0.000000  0.000000  1
