# generated using pymatgen
data_Er3Tm13Cd4Co3Ni
_symmetry_space_group_name_H-M   'P 1'
_cell_length_a   9.41273318
_cell_length_b   9.38455237
_cell_length_c   9.38455200
_cell_angle_alpha   60.00000130
_cell_angle_beta   60.09898948
_cell_angle_gamma   60.09899112
_symmetry_Int_Tables_number   1
_chemical_formula_structural   Er3Tm13Cd4Co3Ni
_chemical_formula_sum   'Er3 Tm13 Cd4 Co3 Ni1'
_cell_volume   587.05129651
_cell_formula_units_Z   1
loop_
 _symmetry_equiv_pos_site_id
 _symmetry_equiv_pos_as_xyz
  1  'x, y, z'
loop_
 _atom_site_type_symbol
 _atom_site_label
 _atom_site_symmetry_multiplicity
 _atom_site_fract_x
 _atom_site_fract_y
 _atom_site_fract_z
 _atom_site_occupancy
  Er  Er0  1  0.344924  0.348481  0.348481  1
  Er  Er1  1  0.344924  0.348481  0.958115  1
  Er  Er2  1  0.344924  0.958115  0.348481  1
  Tm  Tm3  1  0.961989  0.346004  0.346004  1
  Tm  Tm4  1  0.815391  0.188004  0.188004  1
  Tm  Tm5  1  0.186943  0.812603  0.812603  1
  Tm  Tm6  1  0.186943  0.812603  0.187851  1
  Tm  Tm7  1  0.815391  0.188004  0.808599  1
  Tm  Tm8  1  0.186943  0.187851  0.812603  1
  Tm  Tm9  1  0.815391  0.808599  0.188004  1
  Tm  Tm10  1  0.937002  0.562350  0.562350  1
  Tm  Tm11  1  0.560944  0.937616  0.937616  1
  Tm  Tm12  1  0.560944  0.937616  0.563824  1
  Tm  Tm13  1  0.937002  0.562350  0.938297  1
  Tm  Tm14  1  0.560944  0.563824  0.937616  1
  Tm  Tm15  1  0.937002  0.938297  0.562350  1
  Cd  Cd16  1  0.581229  0.580580  0.580580  1
  Cd  Cd17  1  0.581229  0.580580  0.257612  1
  Cd  Cd18  1  0.581229  0.257612  0.580580  1
  Cd  Cd19  1  0.256685  0.581106  0.581106  1
  Co  Co20  1  0.142131  0.141164  0.141164  1
  Co  Co21  1  0.142131  0.141164  0.575542  1
  Co  Co22  1  0.142131  0.575542  0.141164  1
  Ni  Ni23  1  0.575637  0.141455  0.141455  1
