# generated using pymatgen
data_Cs4LaCeBr10
_symmetry_space_group_name_H-M   'P 1'
_cell_length_a   9.11070856
_cell_length_b   9.71541200
_cell_length_c   14.73213131
_cell_angle_alpha   90.00000000
_cell_angle_beta   90.57682055
_cell_angle_gamma   90.00000000
_symmetry_Int_Tables_number   1
_chemical_formula_structural   Cs4LaCeBr10
_chemical_formula_sum   'Cs8 La2 Ce2 Br20'
_cell_volume   1303.93802197
_cell_formula_units_Z   2
loop_
 _symmetry_equiv_pos_site_id
 _symmetry_equiv_pos_as_xyz
  1  'x, y, z'
loop_
 _atom_site_type_symbol
 _atom_site_label
 _atom_site_symmetry_multiplicity
 _atom_site_fract_x
 _atom_site_fract_y
 _atom_site_fract_z
 _atom_site_occupancy
  Cs  Cs0  1  0.945009  0.004772  0.826405  1
  Cs  Cs1  1  0.054991  0.995228  0.173595  1
  Cs  Cs2  1  0.444790  0.994973  0.670596  1
  Cs  Cs3  1  0.054991  0.504772  0.173595  1
  Cs  Cs4  1  0.555210  0.005027  0.329404  1
  Cs  Cs5  1  0.945009  0.495228  0.826405  1
  Cs  Cs6  1  0.555210  0.494973  0.329404  1
  Cs  Cs7  1  0.444790  0.505027  0.670596  1
  La  La8  1  0.430018  0.250000  0.996469  1
  La  La9  1  0.569982  0.750000  0.003531  1
  Ce  Ce10  1  0.931469  0.750000  0.502806  1
  Ce  Ce11  1  0.068531  0.250000  0.497194  1
  Br  Br12  1  0.113214  0.750000  0.669424  1
  Br  Br13  1  0.886786  0.250000  0.330576  1
  Br  Br14  1  0.613779  0.250000  0.830769  1
  Br  Br15  1  0.386221  0.750000  0.169231  1
  Br  Br16  1  0.843021  0.042187  0.567888  1
  Br  Br17  1  0.156979  0.957813  0.432112  1
  Br  Br18  1  0.343676  0.959230  0.928098  1
  Br  Br19  1  0.156979  0.542187  0.432112  1
  Br  Br20  1  0.656324  0.040770  0.071902  1
  Br  Br21  1  0.843021  0.457813  0.567888  1
  Br  Br22  1  0.656324  0.459230  0.071902  1
  Br  Br23  1  0.343676  0.540770  0.928098  1
  Br  Br24  1  0.603696  0.750000  0.512892  1
  Br  Br25  1  0.396304  0.250000  0.487108  1
  Br  Br26  1  0.099445  0.250000  0.988449  1
  Br  Br27  1  0.900555  0.750000  0.011551  1
  Br  Br28  1  0.651406  0.750000  0.808109  1
  Br  Br29  1  0.348594  0.250000  0.191891  1
  Br  Br30  1  0.152884  0.250000  0.691326  1
  Br  Br31  1  0.847116  0.750000  0.308674  1
