# generated using pymatgen
data_Rb4HfS4
_symmetry_space_group_name_H-M   'P 1'
_cell_length_a   9.00443938
_cell_length_b   9.00443816
_cell_length_c   7.89256170
_cell_angle_alpha   99.53413997
_cell_angle_beta   99.53413464
_cell_angle_gamma   89.13876224
_symmetry_Int_Tables_number   1
_chemical_formula_structural   Rb4HfS4
_chemical_formula_sum   'Rb8 Hf2 S8'
_cell_volume   622.32118297
_cell_formula_units_Z   2
loop_
 _symmetry_equiv_pos_site_id
 _symmetry_equiv_pos_as_xyz
  1  'x, y, z'
loop_
 _atom_site_type_symbol
 _atom_site_label
 _atom_site_symmetry_multiplicity
 _atom_site_fract_x
 _atom_site_fract_y
 _atom_site_fract_z
 _atom_site_occupancy
  Rb  Rb0  1  0.589588  0.384808  0.008955  1
  Rb  Rb1  1  0.222760  0.953783  0.406729  1
  Rb  Rb2  1  0.792027  0.778871  0.416232  1
  Rb  Rb3  1  0.027996  0.395193  0.446186  1
  Rb  Rb4  1  0.384807  0.589588  0.508954  1
  Rb  Rb5  1  0.953784  0.222761  0.906730  1
  Rb  Rb6  1  0.778871  0.792028  0.916232  1
  Rb  Rb7  1  0.395193  0.027996  0.946186  1
  Hf  Hf8  1  0.622690  0.206816  0.461103  1
  Hf  Hf9  1  0.206816  0.622690  0.961104  1
  S  S10  1  0.444762  0.717187  0.127817  1
  S  S11  1  0.029677  0.618146  0.158150  1
  S  S12  1  0.788442  0.118590  0.252715  1
  S  S13  1  0.376777  0.243491  0.308814  1
  S  S14  1  0.717186  0.444761  0.627816  1
  S  S15  1  0.618146  0.029677  0.658150  1
  S  S16  1  0.118589  0.788442  0.752714  1
  S  S17  1  0.243490  0.376777  0.808815  1
