# generated using pymatgen
data_Tc(S8Cl)3
_symmetry_space_group_name_H-M   'P 1'
_cell_length_a   5.05180553
_cell_length_b   15.39844547
_cell_length_c   15.27369516
_cell_angle_alpha   123.17642886
_cell_angle_beta   93.68924585
_cell_angle_gamma   95.72843496
_symmetry_Int_Tables_number   1
_chemical_formula_structural   Tc(S8Cl)3
_chemical_formula_sum   'Tc1 S24 Cl3'
_cell_volume   979.34697416
_cell_formula_units_Z   1
loop_
 _symmetry_equiv_pos_site_id
 _symmetry_equiv_pos_as_xyz
  1  'x, y, z'
loop_
 _atom_site_type_symbol
 _atom_site_label
 _atom_site_symmetry_multiplicity
 _atom_site_fract_x
 _atom_site_fract_y
 _atom_site_fract_z
 _atom_site_occupancy
  Tc  Tc0  1  0.719062  0.080122  0.076070  1
  S  S1  1  0.341384  0.398017  0.987671  1
  S  S2  1  0.578259  0.713625  0.002850  1
  S  S3  1  0.275103  0.524787  0.130512  1
  S  S4  1  0.434135  0.746683  0.139265  1
  S  S5  1  0.572547  0.651358  0.182039  1
  S  S6  1  0.652993  0.356467  0.233867  1
  S  S7  1  0.852742  0.254313  0.256259  1
  S  S8  1  0.879107  0.502328  0.326630  1
  S  S9  1  0.125461  0.865591  0.388868  1
  S  S10  1  0.673022  0.231284  0.364418  1
  S  S11  1  0.362942  0.988285  0.398814  1
  S  S12  1  0.345538  0.810277  0.461809  1
  S  S13  1  0.723076  0.589018  0.467318  1
  S  S14  1  0.283052  0.128008  0.525530  1
  S  S15  1  0.905058  0.332636  0.507825  1
  S  S16  1  0.939568  0.583722  0.582623  1
  S  S17  1  0.252607  0.874301  0.612973  1
  S  S18  1  0.735857  0.468270  0.593491  1
  S  S19  1  0.561941  0.180906  0.656152  1
  S  S20  1  0.538623  0.002774  0.718975  1
  S  S21  1  0.400489  0.137030  0.749657  1
  S  S22  1  0.350668  0.460472  0.808608  1
  S  S23  1  0.285063  0.613548  0.875646  1
  S  S24  1  0.113492  0.391764  0.866895  1
  Cl  Cl25  1  0.010824  0.161695  0.021504  1
  Cl  Cl26  1  0.363743  0.033222  0.140724  1
  Cl  Cl27  1  0.676560  0.919500  0.923009  1
