# generated using pymatgen
data_Mg5Co16(TcP4)3
_symmetry_space_group_name_H-M   'P 1'
_cell_length_a   11.88171600
_cell_length_b   11.88171696
_cell_length_c   3.61050300
_cell_angle_alpha   90.00000000
_cell_angle_beta   90.00000000
_cell_angle_gamma   119.99999734
_symmetry_Int_Tables_number   1
_chemical_formula_structural   Mg5Co16(TcP4)3
_chemical_formula_sum   'Mg5 Co16 Tc3 P12'
_cell_volume   441.42479453
_cell_formula_units_Z   1
loop_
 _symmetry_equiv_pos_site_id
 _symmetry_equiv_pos_as_xyz
  1  'x, y, z'
loop_
 _atom_site_type_symbol
 _atom_site_label
 _atom_site_symmetry_multiplicity
 _atom_site_fract_x
 _atom_site_fract_y
 _atom_site_fract_z
 _atom_site_occupancy
  Mg  Mg0  1  0.666667  0.333333  0.000000  1
  Mg  Mg1  1  0.333333  0.666667  0.000000  1
  Mg  Mg2  1  0.819644  0.819644  0.500000  1
  Mg  Mg3  1  0.180356  0.000000  0.500000  1
  Mg  Mg4  1  0.000000  0.180356  0.500000  1
  Co  Co5  1  0.195859  0.373996  0.000000  1
  Co  Co6  1  0.178138  0.804141  0.000000  1
  Co  Co7  1  0.821862  0.626004  0.000000  1
  Co  Co8  1  0.804141  0.178138  0.000000  1
  Co  Co9  1  0.373996  0.195859  0.000000  1
  Co  Co10  1  0.130336  0.481972  0.500000  1
  Co  Co11  1  0.351635  0.869664  0.500000  1
  Co  Co12  1  0.518028  0.648365  0.500000  1
  Co  Co13  1  0.648365  0.518028  0.500000  1
  Co  Co14  1  0.869664  0.351635  0.500000  1
  Co  Co15  1  0.481972  0.130336  0.500000  1
  Co  Co16  1  0.000000  0.000000  0.000000  1
  Co  Co17  1  0.719678  0.000000  0.500000  1
  Co  Co18  1  0.000000  0.719678  0.500000  1
  Co  Co19  1  0.626004  0.821862  0.000000  1
  Co  Co20  1  0.280322  0.280322  0.500000  1
  Tc  Tc21  1  0.448714  0.448714  0.000000  1
  Tc  Tc22  1  0.551286  0.000000  0.000000  1
  Tc  Tc23  1  0.000000  0.551286  0.000000  1
  P  P24  1  0.642954  0.642954  0.000000  1
  P  P25  1  0.357046  0.000000  0.000000  1
  P  P26  1  0.000000  0.357046  0.000000  1
  P  P27  1  0.483365  0.318013  0.500000  1
  P  P28  1  0.681987  0.165353  0.500000  1
  P  P29  1  0.834647  0.516635  0.500000  1
  P  P30  1  0.516635  0.834647  0.500000  1
  P  P31  1  0.165353  0.681987  0.500000  1
  P  P32  1  0.823524  0.000000  0.000000  1
  P  P33  1  0.000000  0.823524  0.000000  1
  P  P34  1  0.318013  0.483365  0.500000  1
  P  P35  1  0.176476  0.176476  0.000000  1
