# generated using pymatgen
data_Pu6GaGe3Rh4
_symmetry_space_group_name_H-M   'P 1'
_cell_length_a   5.58644100
_cell_length_b   7.96223000
_cell_length_c   13.14781900
_cell_angle_alpha   90.00000000
_cell_angle_beta   90.00000000
_cell_angle_gamma   90.00000000
_symmetry_Int_Tables_number   1
_chemical_formula_structural   Pu6GaGe3Rh4
_chemical_formula_sum   'Pu12 Ga2 Ge6 Rh8'
_cell_volume   584.82193279
_cell_formula_units_Z   2
loop_
 _symmetry_equiv_pos_site_id
 _symmetry_equiv_pos_as_xyz
  1  'x, y, z'
loop_
 _atom_site_type_symbol
 _atom_site_label
 _atom_site_symmetry_multiplicity
 _atom_site_fract_x
 _atom_site_fract_y
 _atom_site_fract_z
 _atom_site_occupancy
  Pu  Pu0  1  0.364973  0.741205  0.749426  1
  Pu  Pu1  1  0.364973  0.758795  0.250574  1
  Pu  Pu2  1  0.635027  0.241205  0.750574  1
  Pu  Pu3  1  0.635027  0.258795  0.249426  1
  Pu  Pu4  1  0.159591  0.395424  0.401572  1
  Pu  Pu5  1  0.159591  0.104576  0.598428  1
  Pu  Pu6  1  0.840409  0.895424  0.098428  1
  Pu  Pu7  1  0.840409  0.604576  0.901572  1
  Pu  Pu8  1  0.856433  0.606214  0.595944  1
  Pu  Pu9  1  0.856433  0.893786  0.404056  1
  Pu  Pu10  1  0.143567  0.106214  0.904056  1
  Pu  Pu11  1  0.143567  0.393786  0.095944  1
  Ga  Ga12  1  0.667607  0.250000  0.500000  1
  Ga  Ga13  1  0.332393  0.750000  0.000000  1
  Ge  Ge14  1  0.334945  0.750000  0.500000  1
  Ge  Ge15  1  0.665055  0.250000  0.000000  1
  Ge  Ge16  1  0.874959  0.890735  0.748764  1
  Ge  Ge17  1  0.874959  0.609265  0.251236  1
  Ge  Ge18  1  0.125041  0.390735  0.751236  1
  Ge  Ge19  1  0.125041  0.109265  0.248764  1
  Rh  Rh20  1  0.379950  0.037934  0.402112  1
  Rh  Rh21  1  0.379950  0.462066  0.597888  1
  Rh  Rh22  1  0.620050  0.537934  0.097888  1
  Rh  Rh23  1  0.620050  0.962066  0.902112  1
  Rh  Rh24  1  0.372928  0.041437  0.092583  1
  Rh  Rh25  1  0.372928  0.458563  0.907417  1
  Rh  Rh26  1  0.627072  0.541437  0.407417  1
  Rh  Rh27  1  0.627072  0.958563  0.592583  1
