# generated using pymatgen
data_Zr10Zn2SnSb5
_symmetry_space_group_name_H-M   'P 1'
_cell_length_a   8.67789710
_cell_length_b   8.66519748
_cell_length_c   5.86718600
_cell_angle_alpha   90.00000000
_cell_angle_beta   90.00000000
_cell_angle_gamma   119.95160567
_symmetry_Int_Tables_number   1
_chemical_formula_structural   Zr10Zn2SnSb5
_chemical_formula_sum   'Zr10 Zn2 Sn1 Sb5'
_cell_volume   382.26543254
_cell_formula_units_Z   1
loop_
 _symmetry_equiv_pos_site_id
 _symmetry_equiv_pos_as_xyz
  1  'x, y, z'
loop_
 _atom_site_type_symbol
 _atom_site_label
 _atom_site_symmetry_multiplicity
 _atom_site_fract_x
 _atom_site_fract_y
 _atom_site_fract_z
 _atom_site_occupancy
  Zr  Zr0  1  0.666060  0.333130  0.000377  1
  Zr  Zr1  1  0.333940  0.667071  0.000377  1
  Zr  Zr2  1  0.333940  0.667071  0.499623  1
  Zr  Zr3  1  0.666060  0.333130  0.499623  1
  Zr  Zr4  1  0.730099  0.730319  0.750000  1
  Zr  Zr5  1  0.269901  0.000220  0.750000  1
  Zr  Zr6  1  0.000000  0.269005  0.750000  1
  Zr  Zr7  1  0.270222  0.269847  0.250000  1
  Zr  Zr8  1  0.729778  0.999625  0.250000  1
  Zr  Zr9  1  0.000000  0.731002  0.250000  1
  Zn  Zn10  1  0.000000  0.000538  0.000135  1
  Zn  Zn11  1  0.000000  0.000538  0.499865  1
  Sn  Sn12  1  0.000000  0.383962  0.250000  1
  Sb  Sb13  1  0.384497  0.384972  0.750000  1
  Sb  Sb14  1  0.615503  0.000475  0.750000  1
  Sb  Sb15  1  0.000000  0.614119  0.750000  1
  Sb  Sb16  1  0.615008  0.614992  0.250000  1
  Sb  Sb17  1  0.384992  0.999985  0.250000  1
