# generated using pymatgen
data_ErTm(Mn2P)4
_symmetry_space_group_name_H-M   'P 1'
_cell_length_a   6.90463200
_cell_length_b   6.90463122
_cell_length_c   3.67470500
_cell_angle_alpha   90.00000000
_cell_angle_beta   90.00000000
_cell_angle_gamma   89.56585237
_symmetry_Int_Tables_number   1
_chemical_formula_structural   ErTm(Mn2P)4
_chemical_formula_sum   'Er1 Tm1 Mn8 P4'
_cell_volume   175.18262779
_cell_formula_units_Z   1
loop_
 _symmetry_equiv_pos_site_id
 _symmetry_equiv_pos_as_xyz
  1  'x, y, z'
loop_
 _atom_site_type_symbol
 _atom_site_label
 _atom_site_symmetry_multiplicity
 _atom_site_fract_x
 _atom_site_fract_y
 _atom_site_fract_z
 _atom_site_occupancy
  Er  Er0  1  0.500000  0.500000  0.000000  1
  Tm  Tm1  1  0.000000  0.000000  0.500000  1
  Mn  Mn2  1  0.085382  0.344002  0.000000  1
  Mn  Mn3  1  0.846073  0.413382  0.500000  1
  Mn  Mn4  1  0.153927  0.586618  0.500000  1
  Mn  Mn5  1  0.914618  0.655998  0.000000  1
  Mn  Mn6  1  0.413382  0.846073  0.500000  1
  Mn  Mn7  1  0.586618  0.153927  0.500000  1
  Mn  Mn8  1  0.344002  0.085382  0.000000  1
  Mn  Mn9  1  0.655998  0.914618  0.000000  1
  P  P10  1  0.785615  0.214385  0.000000  1
  P  P11  1  0.715985  0.715985  0.500000  1
  P  P12  1  0.284015  0.284015  0.500000  1
  P  P13  1  0.214385  0.785615  0.000000  1
