# generated using pymatgen
data_Rb2SrTa3(NbBr6)3
_symmetry_space_group_name_H-M   'P 1'
_cell_length_a   10.99054620
_cell_length_b   10.99498746
_cell_length_c   10.99192170
_cell_angle_alpha   54.83388926
_cell_angle_beta   54.83400209
_cell_angle_gamma   54.82396529
_symmetry_Int_Tables_number   1
_chemical_formula_structural   Rb2SrTa3(NbBr6)3
_chemical_formula_sum   'Rb2 Sr1 Ta3 Nb3 Br18'
_cell_volume   826.18685116
_cell_formula_units_Z   1
loop_
 _symmetry_equiv_pos_site_id
 _symmetry_equiv_pos_as_xyz
  1  'x, y, z'
loop_
 _atom_site_type_symbol
 _atom_site_label
 _atom_site_symmetry_multiplicity
 _atom_site_fract_x
 _atom_site_fract_y
 _atom_site_fract_z
 _atom_site_occupancy
  Rb  Rb0  1  0.221591  0.220834  0.221119  1
  Rb  Rb1  1  0.778452  0.779137  0.778499  1
  Sr  Sr2  1  0.500187  0.499549  0.499881  1
  Ta  Ta3  1  0.929041  0.804714  0.137540  1
  Ta  Ta4  1  0.070914  0.195315  0.862575  1
  Ta  Ta5  1  0.137131  0.929325  0.805269  1
  Nb  Nb6  1  0.861658  0.071382  0.196474  1
  Nb  Nb7  1  0.803913  0.137964  0.928820  1
  Nb  Nb8  1  0.196068  0.862055  0.071227  1
  Br  Br9  1  0.165772  0.468619  0.675209  1
  Br  Br10  1  0.929593  0.080612  0.669727  1
  Br  Br11  1  0.328515  0.074163  0.917114  1
  Br  Br12  1  0.671406  0.925852  0.082963  1
  Br  Br13  1  0.588527  0.259239  0.153249  1
  Br  Br14  1  0.081785  0.671524  0.927763  1
  Br  Br15  1  0.673976  0.166571  0.470573  1
  Br  Br16  1  0.741913  0.845863  0.409533  1
  Br  Br17  1  0.410167  0.741571  0.845516  1
  Br  Br18  1  0.324500  0.834272  0.531755  1
  Br  Br19  1  0.258225  0.152340  0.590797  1
  Br  Br20  1  0.848710  0.410650  0.741082  1
  Br  Br21  1  0.072417  0.918171  0.330179  1
  Br  Br22  1  0.529640  0.325856  0.833159  1
  Br  Br23  1  0.151260  0.589371  0.259005  1
  Br  Br24  1  0.919364  0.329638  0.070457  1
  Br  Br25  1  0.834648  0.531229  0.324253  1
  Br  Br26  1  0.470628  0.674184  0.166262  1
