# generated using pymatgen
data_Ce12Co6Si5Tc
_symmetry_space_group_name_H-M   'P 1'
_cell_length_a   7.39176600
_cell_length_b   7.39176452
_cell_length_c   9.64109800
_cell_angle_alpha   90.00000000
_cell_angle_beta   90.00000000
_cell_angle_gamma   119.99999769
_symmetry_Int_Tables_number   1
_chemical_formula_structural   Ce12Co6Si5Tc
_chemical_formula_sum   'Ce12 Co6 Si5 Tc1'
_cell_volume   456.19810002
_cell_formula_units_Z   1
loop_
 _symmetry_equiv_pos_site_id
 _symmetry_equiv_pos_as_xyz
  1  'x, y, z'
loop_
 _atom_site_type_symbol
 _atom_site_label
 _atom_site_symmetry_multiplicity
 _atom_site_fract_x
 _atom_site_fract_y
 _atom_site_fract_z
 _atom_site_occupancy
  Ce  Ce0  1  0.000000  0.589041  0.504391  1
  Ce  Ce1  1  0.589041  0.000000  0.504391  1
  Ce  Ce2  1  0.410959  0.410959  0.504391  1
  Ce  Ce3  1  0.000000  0.403698  0.007443  1
  Ce  Ce4  1  0.403698  0.000000  0.007443  1
  Ce  Ce5  1  0.596302  0.596302  0.007443  1
  Ce  Ce6  1  0.000000  0.742134  0.162653  1
  Ce  Ce7  1  0.742134  0.000000  0.162653  1
  Ce  Ce8  1  0.257866  0.257866  0.162653  1
  Ce  Ce9  1  0.000000  0.255463  0.675242  1
  Ce  Ce10  1  0.255463  0.000000  0.675242  1
  Ce  Ce11  1  0.744537  0.744537  0.675242  1
  Co  Co12  1  0.000000  0.338454  0.339058  1
  Co  Co13  1  0.338454  0.000000  0.339058  1
  Co  Co14  1  0.661546  0.661546  0.339058  1
  Co  Co15  1  0.000000  0.639052  0.837732  1
  Co  Co16  1  0.639052  0.000000  0.837732  1
  Co  Co17  1  0.360948  0.360948  0.837732  1
  Si  Si18  1  0.666667  0.333333  0.281463  1
  Si  Si19  1  0.333333  0.666667  0.281463  1
  Si  Si20  1  0.333333  0.666667  0.780540  1
  Si  Si21  1  0.666667  0.333333  0.780540  1
  Si  Si22  1  0.000000  0.000000  0.411057  1
  Tc  Tc23  1  0.000000  0.000000  0.914632  1
