# generated using pymatgen
data_Pa4Zn4Pd3Pt
_symmetry_space_group_name_H-M   'P 1'
_cell_length_a   4.59647500
_cell_length_b   6.30406094
_cell_length_c   8.00467843
_cell_angle_alpha   90.08217246
_cell_angle_beta   90.00000000
_cell_angle_gamma   90.00000000
_symmetry_Int_Tables_number   1
_chemical_formula_structural   Pa4Zn4Pd3Pt
_chemical_formula_sum   'Pa4 Zn4 Pd3 Pt1'
_cell_volume   231.94699405
_cell_formula_units_Z   1
loop_
 _symmetry_equiv_pos_site_id
 _symmetry_equiv_pos_as_xyz
  1  'x, y, z'
loop_
 _atom_site_type_symbol
 _atom_site_label
 _atom_site_symmetry_multiplicity
 _atom_site_fract_x
 _atom_site_fract_y
 _atom_site_fract_z
 _atom_site_occupancy
  Pa  Pa0  1  0.250000  0.008173  0.276493  1
  Pa  Pa1  1  0.250000  0.509909  0.227869  1
  Pa  Pa2  1  0.750000  0.993747  0.723694  1
  Pa  Pa3  1  0.750000  0.490095  0.771535  1
  Zn  Zn4  1  0.250000  0.707260  0.582557  1
  Zn  Zn5  1  0.250000  0.206228  0.920670  1
  Zn  Zn6  1  0.750000  0.293072  0.416269  1
  Zn  Zn7  1  0.750000  0.793833  0.080502  1
  Pd  Pd8  1  0.250000  0.755641  0.915561  1
  Pd  Pd9  1  0.750000  0.743338  0.413390  1
  Pd  Pd10  1  0.750000  0.245192  0.085343  1
  Pt  Pt11  1  0.250000  0.253512  0.586117  1
