# generated using pymatgen
data_Lu5SiTcTe2
_symmetry_space_group_name_H-M   'P 1'
_cell_length_a   8.68133623
_cell_length_b   8.68133728
_cell_length_c   7.67945200
_cell_angle_alpha   88.21233062
_cell_angle_beta   88.21233040
_cell_angle_gamma   127.05937265
_symmetry_Int_Tables_number   1
_chemical_formula_structural   Lu5SiTcTe2
_chemical_formula_sum   'Lu10 Si2 Tc2 Te4'
_cell_volume   460.72981355
_cell_formula_units_Z   2
loop_
 _symmetry_equiv_pos_site_id
 _symmetry_equiv_pos_as_xyz
  1  'x, y, z'
loop_
 _atom_site_type_symbol
 _atom_site_label
 _atom_site_symmetry_multiplicity
 _atom_site_fract_x
 _atom_site_fract_y
 _atom_site_fract_z
 _atom_site_occupancy
  Lu  Lu0  1  0.000000  0.000000  0.000000  1
  Lu  Lu1  1  0.500000  0.500000  0.500000  1
  Lu  Lu2  1  0.779214  0.534212  0.156085  1
  Lu  Lu3  1  0.465788  0.220786  0.843915  1
  Lu  Lu4  1  0.937823  0.709733  0.675154  1
  Lu  Lu5  1  0.290267  0.062177  0.324846  1
  Lu  Lu6  1  0.220786  0.465788  0.843915  1
  Lu  Lu7  1  0.534212  0.779214  0.156085  1
  Lu  Lu8  1  0.062177  0.290267  0.324846  1
  Lu  Lu9  1  0.709733  0.937823  0.675154  1
  Si  Si10  1  0.859917  0.859917  0.361094  1
  Si  Si11  1  0.140083  0.140083  0.638906  1
  Tc  Tc12  1  0.617356  0.617356  0.883257  1
  Tc  Tc13  1  0.382644  0.382644  0.116743  1
  Te  Te14  1  0.204798  0.795202  0.000000  1
  Te  Te15  1  0.710700  0.289300  0.500000  1
  Te  Te16  1  0.795202  0.204798  0.000000  1
  Te  Te17  1  0.289300  0.710700  0.500000  1
