# generated using pymatgen
data_Er2Tc3Ni9As7
_symmetry_space_group_name_H-M   'P 1'
_cell_length_a   3.83179800
_cell_length_b   9.44604654
_cell_length_c   9.44604800
_cell_angle_alpha   120.00000324
_cell_angle_beta   90.00000000
_cell_angle_gamma   90.00000000
_symmetry_Int_Tables_number   1
_chemical_formula_structural   Er2Tc3Ni9As7
_chemical_formula_sum   'Er2 Tc3 Ni9 As7'
_cell_volume   296.09662208
_cell_formula_units_Z   1
loop_
 _symmetry_equiv_pos_site_id
 _symmetry_equiv_pos_as_xyz
  1  'x, y, z'
loop_
 _atom_site_type_symbol
 _atom_site_label
 _atom_site_symmetry_multiplicity
 _atom_site_fract_x
 _atom_site_fract_y
 _atom_site_fract_z
 _atom_site_occupancy
  Er  Er0  1  0.000000  0.666667  0.333333  1
  Er  Er1  1  0.500000  0.333333  0.666667  1
  Tc  Tc2  1  0.500000  0.786750  0.900957  1
  Tc  Tc3  1  0.500000  0.114208  0.213250  1
  Tc  Tc4  1  0.500000  0.099043  0.885792  1
  Ni  Ni5  1  0.000000  0.564974  0.939237  1
  Ni  Ni6  1  0.000000  0.374263  0.435026  1
  Ni  Ni7  1  0.000000  0.060763  0.625737  1
  Ni  Ni8  1  0.000000  0.872997  0.157743  1
  Ni  Ni9  1  0.000000  0.284745  0.127003  1
  Ni  Ni10  1  0.000000  0.842257  0.715255  1
  Ni  Ni11  1  0.500000  0.943901  0.382314  1
  Ni  Ni12  1  0.500000  0.438412  0.056099  1
  Ni  Ni13  1  0.500000  0.617686  0.561588  1
  As  As14  1  0.000000  0.000000  0.000000  1
  As  As15  1  0.500000  0.707850  0.116487  1
  As  As16  1  0.500000  0.408638  0.292150  1
  As  As17  1  0.500000  0.883513  0.591362  1
  As  As18  1  0.000000  0.590089  0.706284  1
  As  As19  1  0.000000  0.116195  0.409911  1
  As  As20  1  0.000000  0.293716  0.883805  1
