# generated using pymatgen
data_Tm16In4OsRu2Rh
_symmetry_space_group_name_H-M   'P 1'
_cell_length_a   9.54173950
_cell_length_b   9.48896060
_cell_length_c   9.55030992
_cell_angle_alpha   59.89660100
_cell_angle_beta   60.02968465
_cell_angle_gamma   59.81583393
_symmetry_Int_Tables_number   1
_chemical_formula_structural   Tm16In4OsRu2Rh
_chemical_formula_sum   'Tm16 In4 Os1 Ru2 Rh1'
_cell_volume   610.23607515
_cell_formula_units_Z   1
loop_
 _symmetry_equiv_pos_site_id
 _symmetry_equiv_pos_as_xyz
  1  'x, y, z'
loop_
 _atom_site_type_symbol
 _atom_site_label
 _atom_site_symmetry_multiplicity
 _atom_site_fract_x
 _atom_site_fract_y
 _atom_site_fract_z
 _atom_site_occupancy
  Tm  Tm0  1  0.056060  0.057808  0.441684  1
  Tm  Tm1  1  0.444449  0.057808  0.441684  1
  Tm  Tm2  1  0.059923  0.442000  0.060597  1
  Tm  Tm3  1  0.046918  0.650885  0.651896  1
  Tm  Tm4  1  0.437481  0.442000  0.060597  1
  Tm  Tm5  1  0.651959  0.043999  0.652083  1
  Tm  Tm6  1  0.191949  0.810251  0.191342  1
  Tm  Tm7  1  0.193237  0.190048  0.809085  1
  Tm  Tm8  1  0.806459  0.810251  0.191342  1
  Tm  Tm9  1  0.442066  0.058846  0.057022  1
  Tm  Tm10  1  0.808096  0.189599  0.194210  1
  Tm  Tm11  1  0.057953  0.447530  0.436566  1
  Tm  Tm12  1  0.807631  0.190048  0.809085  1
  Tm  Tm13  1  0.190955  0.809372  0.808718  1
  Tm  Tm14  1  0.651872  0.651673  0.044584  1
  Tm  Tm15  1  0.650302  0.650885  0.651896  1
  In  In16  1  0.417110  0.417820  0.416096  1
  In  In17  1  0.748974  0.417820  0.416096  1
  In  In18  1  0.416891  0.750402  0.415817  1
  In  In19  1  0.416659  0.417866  0.748816  1
  Os  Os20  1  0.860869  0.855011  0.423250  1
  Ru  Ru21  1  0.862284  0.858982  0.859322  1
  Ru  Ru22  1  0.419413  0.858982  0.859322  1
  Rh  Rh23  1  0.860494  0.420118  0.858895  1
