# generated using pymatgen
data_Tm3GaCo2Ir
_symmetry_space_group_name_H-M   'P 1'
_cell_length_a   5.37965168
_cell_length_b   5.37965160
_cell_length_c   13.01373600
_cell_angle_alpha   90.00000000
_cell_angle_beta   90.00000000
_cell_angle_gamma   135.56519144
_symmetry_Int_Tables_number   1
_chemical_formula_structural   Tm3GaCo2Ir
_chemical_formula_sum   'Tm6 Ga2 Co4 Ir2'
_cell_volume   263.67483580
_cell_formula_units_Z   2
loop_
 _symmetry_equiv_pos_site_id
 _symmetry_equiv_pos_as_xyz
  1  'x, y, z'
loop_
 _atom_site_type_symbol
 _atom_site_label
 _atom_site_symmetry_multiplicity
 _atom_site_fract_x
 _atom_site_fract_y
 _atom_site_fract_z
 _atom_site_occupancy
  Tm  Tm0  1  0.793811  0.206189  0.396584  1
  Tm  Tm1  1  0.206189  0.793811  0.603416  1
  Tm  Tm2  1  0.793811  0.206189  0.103416  1
  Tm  Tm3  1  0.206189  0.793811  0.896584  1
  Tm  Tm4  1  0.506747  0.493253  0.250000  1
  Tm  Tm5  1  0.493253  0.506747  0.750000  1
  Ga  Ga6  1  0.500000  0.500000  0.500000  1
  Ga  Ga7  1  0.500000  0.500000  0.000000  1
  Co  Co8  1  0.080536  0.919464  0.411937  1
  Co  Co9  1  0.919464  0.080536  0.588063  1
  Co  Co10  1  0.080536  0.919464  0.088063  1
  Co  Co11  1  0.919464  0.080536  0.911937  1
  Ir  Ir12  1  0.214568  0.785432  0.250000  1
  Ir  Ir13  1  0.785432  0.214568  0.750000  1
