# generated using pymatgen
data_Sc6Ti4Al12Os4Ru3
_symmetry_space_group_name_H-M   'P 1'
_cell_length_a   8.82551322
_cell_length_b   8.82551369
_cell_length_c   8.83927918
_cell_angle_alpha   60.05150763
_cell_angle_beta   60.05149980
_cell_angle_gamma   60.00000074
_symmetry_Int_Tables_number   1
_chemical_formula_structural   Sc6Ti4Al12Os4Ru3
_chemical_formula_sum   'Sc6 Ti4 Al12 Os4 Ru3'
_cell_volume   487.21367450
_cell_formula_units_Z   1
loop_
 _symmetry_equiv_pos_site_id
 _symmetry_equiv_pos_as_xyz
  1  'x, y, z'
loop_
 _atom_site_type_symbol
 _atom_site_label
 _atom_site_symmetry_multiplicity
 _atom_site_fract_x
 _atom_site_fract_y
 _atom_site_fract_z
 _atom_site_occupancy
  Sc  Sc0  1  0.709107  0.709107  0.292390  1
  Sc  Sc1  1  0.289397  0.709107  0.292390  1
  Sc  Sc2  1  0.709107  0.289397  0.292390  1
  Sc  Sc3  1  0.290679  0.290679  0.707392  1
  Sc  Sc4  1  0.711248  0.290679  0.707392  1
  Sc  Sc5  1  0.290679  0.711248  0.707392  1
  Ti  Ti6  1  0.879764  0.879764  0.360709  1
  Ti  Ti7  1  0.880520  0.360228  0.878732  1
  Ti  Ti8  1  0.360228  0.880520  0.878732  1
  Ti  Ti9  1  0.880520  0.880520  0.878732  1
  Al  Al10  1  0.119776  0.119776  0.640672  1
  Al  Al11  1  0.118889  0.641130  0.121093  1
  Al  Al12  1  0.641130  0.118889  0.121093  1
  Al  Al13  1  0.118889  0.118889  0.121093  1
  Al  Al14  1  0.666264  0.666264  0.001207  1
  Al  Al15  1  0.665757  0.001668  0.666816  1
  Al  Al16  1  0.001668  0.665757  0.666816  1
  Al  Al17  1  0.665757  0.665757  0.666816  1
  Al  Al18  1  0.334681  0.334681  0.995956  1
  Al  Al19  1  0.335187  0.995955  0.333669  1
  Al  Al20  1  0.995955  0.335187  0.333669  1
  Al  Al21  1  0.335187  0.335187  0.333669  1
  Os  Os22  1  0.999966  0.999966  0.000103  1
  Os  Os23  1  0.998973  0.998973  0.501614  1
  Os  Os24  1  0.500439  0.998973  0.501614  1
  Os  Os25  1  0.998973  0.500439  0.501614  1
  Ru  Ru26  1  0.501010  0.501010  0.998743  1
  Ru  Ru27  1  0.999237  0.501010  0.998743  1
  Ru  Ru28  1  0.501010  0.999237  0.998743  1
