# generated using pymatgen
data_Yb2Ho2LuRu2
_symmetry_space_group_name_H-M   'P 1'
_cell_length_a   6.37928346
_cell_length_b   7.21541449
_cell_length_c   8.46337596
_cell_angle_alpha   97.44250889
_cell_angle_beta   112.14030644
_cell_angle_gamma   89.99999641
_symmetry_Int_Tables_number   1
_chemical_formula_structural   Yb2Ho2LuRu2
_chemical_formula_sum   'Yb4 Ho4 Lu2 Ru4'
_cell_volume   357.29165811
_cell_formula_units_Z   2
loop_
 _symmetry_equiv_pos_site_id
 _symmetry_equiv_pos_as_xyz
  1  'x, y, z'
loop_
 _atom_site_type_symbol
 _atom_site_label
 _atom_site_symmetry_multiplicity
 _atom_site_fract_x
 _atom_site_fract_y
 _atom_site_fract_z
 _atom_site_occupancy
  Yb  Yb0  1  0.523339  0.079562  0.816450  1
  Yb  Yb1  1  0.476661  0.920438  0.183550  1
  Yb  Yb2  1  0.706888  0.420438  0.183550  1
  Yb  Yb3  1  0.293112  0.579562  0.816450  1
  Ho  Ho4  1  0.303092  0.315397  0.432555  1
  Ho  Ho5  1  0.696908  0.684603  0.567445  1
  Ho  Ho6  1  0.870538  0.184603  0.567445  1
  Ho  Ho7  1  0.129462  0.815397  0.432555  1
  Lu  Lu8  1  0.069882  0.250000  0.000000  1
  Lu  Lu9  1  0.930118  0.750000  0.000000  1
  Ru  Ru10  1  0.313850  0.575137  0.229361  1
  Ru  Ru11  1  0.686150  0.424863  0.770639  1
  Ru  Ru12  1  0.084489  0.924863  0.770639  1
  Ru  Ru13  1  0.915511  0.075137  0.229361  1
