# generated using pymatgen
data_Nd(Dy3Bi2)3
_symmetry_space_group_name_H-M   'P 1'
_cell_length_a   6.41193700
_cell_length_b   9.24093362
_cell_length_c   9.17936421
_cell_angle_alpha   119.43661792
_cell_angle_beta   90.00010346
_cell_angle_gamma   89.99990059
_symmetry_Int_Tables_number   1
_chemical_formula_structural   Nd(Dy3Bi2)3
_chemical_formula_sum   'Nd1 Dy9 Bi6'
_cell_volume   473.68096983
_cell_formula_units_Z   1
loop_
 _symmetry_equiv_pos_site_id
 _symmetry_equiv_pos_as_xyz
  1  'x, y, z'
loop_
 _atom_site_type_symbol
 _atom_site_label
 _atom_site_symmetry_multiplicity
 _atom_site_fract_x
 _atom_site_fract_y
 _atom_site_fract_z
 _atom_site_occupancy
  Nd  Nd0  1  0.250001  0.000669  0.757956  1
  Dy  Dy1  1  0.500082  0.331681  0.666449  1
  Dy  Dy2  1  0.499989  0.668301  0.334950  1
  Dy  Dy3  1  0.000011  0.668303  0.334953  1
  Dy  Dy4  1  0.999913  0.331676  0.666449  1
  Dy  Dy5  1  0.750000  0.246225  0.000085  1
  Dy  Dy6  1  0.750001  0.753891  0.754178  1
  Dy  Dy7  1  0.750000  0.999450  0.241263  1
  Dy  Dy8  1  0.250000  0.754382  0.999997  1
  Dy  Dy9  1  0.250000  0.245763  0.245161  1
  Bi  Bi10  1  0.749999  0.610774  0.999476  1
  Bi  Bi11  1  0.750001  0.387377  0.387528  1
  Bi  Bi12  1  0.750000  0.999434  0.609925  1
  Bi  Bi13  1  0.249999  0.394573  0.004439  1
  Bi  Bi14  1  0.250000  0.606939  0.611029  1
  Bi  Bi15  1  0.250000  0.000563  0.386165  1
