# generated using pymatgen
data_Al3Ga3Ni2Pt7Rh
_symmetry_space_group_name_H-M   'P 1'
_cell_length_a   4.00704700
_cell_length_b   5.37628859
_cell_length_c   10.73847230
_cell_angle_alpha   96.53606934
_cell_angle_beta   90.00000000
_cell_angle_gamma   90.00000000
_symmetry_Int_Tables_number   1
_chemical_formula_structural   Al3Ga3Ni2Pt7Rh
_chemical_formula_sum   'Al3 Ga3 Ni2 Pt7 Rh1'
_cell_volume   229.83573500
_cell_formula_units_Z   1
loop_
 _symmetry_equiv_pos_site_id
 _symmetry_equiv_pos_as_xyz
  1  'x, y, z'
loop_
 _atom_site_type_symbol
 _atom_site_label
 _atom_site_symmetry_multiplicity
 _atom_site_fract_x
 _atom_site_fract_y
 _atom_site_fract_z
 _atom_site_occupancy
  Al  Al0  1  0.500000  0.289379  0.356930  1
  Al  Al1  1  0.500000  0.289814  0.855332  1
  Al  Al2  1  0.500000  0.714953  0.148843  1
  Ga  Ga3  1  0.500000  0.706825  0.641843  1
  Ga  Ga4  1  0.000000  0.001773  0.002296  1
  Ga  Ga5  1  0.000000  0.992280  0.494977  1
  Ni  Ni6  1  0.000000  0.499847  0.250008  1
  Ni  Ni7  1  0.000000  0.504412  0.748165  1
  Pt  Pt8  1  0.500000  0.776176  0.890585  1
  Pt  Pt9  1  0.500000  0.229875  0.112644  1
  Pt  Pt10  1  0.500000  0.213094  0.609864  1
  Pt  Pt11  1  0.000000  0.999418  0.247963  1
  Pt  Pt12  1  0.000000  0.010152  0.755822  1
  Pt  Pt13  1  0.000000  0.500420  0.999625  1
  Pt  Pt14  1  0.000000  0.493208  0.496533  1
  Rh  Rh15  1  0.500000  0.778372  0.388568  1
