# generated using pymatgen
data_Dy4PSe4
_symmetry_space_group_name_H-M   'P 1'
_cell_length_a   4.02815443
_cell_length_b   9.94719184
_cell_length_c   8.95733200
_cell_angle_alpha   43.21452776
_cell_angle_beta   103.01460443
_cell_angle_gamma   89.88363491
_symmetry_Int_Tables_number   1
_chemical_formula_structural   Dy4PSe4
_chemical_formula_sum   'Dy4 P1 Se4'
_cell_volume   231.89911000
_cell_formula_units_Z   1
loop_
 _symmetry_equiv_pos_site_id
 _symmetry_equiv_pos_as_xyz
  1  'x, y, z'
loop_
 _atom_site_type_symbol
 _atom_site_label
 _atom_site_symmetry_multiplicity
 _atom_site_fract_x
 _atom_site_fract_y
 _atom_site_fract_z
 _atom_site_occupancy
  Dy  Dy0  1  0.937764  0.970938  0.848745  1
  Dy  Dy1  1  0.142057  0.357233  0.261327  1
  Dy  Dy2  1  0.544165  0.151608  0.065000  1
  Dy  Dy3  1  0.749893  0.537912  0.477783  1
  P  P4  1  0.343755  0.254416  0.663161  1
  Se  Se5  1  0.740528  0.061746  0.457537  1
  Se  Se6  1  0.538709  0.663053  0.053497  1
  Se  Se7  1  0.945258  0.447126  0.868878  1
  Se  Se8  1  0.148470  0.845777  0.273284  1
