# generated using pymatgen
data_Zr4ZnSiH2
_symmetry_space_group_name_H-M   'P 1'
_cell_length_a   5.49404700
_cell_length_b   5.49404769
_cell_length_c   5.49404617
_cell_angle_alpha   104.50344011
_cell_angle_beta   104.50344819
_cell_angle_gamma   119.94203934
_symmetry_Int_Tables_number   1
_chemical_formula_structural   Zr4ZnSiH2
_chemical_formula_sum   'Zr4 Zn1 Si1 H2'
_cell_volume   124.41272362
_cell_formula_units_Z   1
loop_
 _symmetry_equiv_pos_site_id
 _symmetry_equiv_pos_as_xyz
  1  'x, y, z'
loop_
 _atom_site_type_symbol
 _atom_site_label
 _atom_site_symmetry_multiplicity
 _atom_site_fract_x
 _atom_site_fract_y
 _atom_site_fract_z
 _atom_site_occupancy
  Zr  Zr0  1  0.162776  0.662776  0.825552  1
  Zr  Zr1  1  0.837224  0.337224  0.174448  1
  Zr  Zr2  1  0.337224  0.162776  0.500000  1
  Zr  Zr3  1  0.662776  0.837224  0.500000  1
  Zn  Zn4  1  0.250000  0.250000  0.000000  1
  Si  Si5  1  0.750000  0.750000  0.000000  1
  H  H6  1  0.750000  0.250000  0.500000  1
  H  H7  1  0.250000  0.750000  0.500000  1
