# generated using pymatgen
data_Ho4Al15(ZnPd2)3
_symmetry_space_group_name_H-M   'P 1'
_cell_length_a   7.58425687
_cell_length_b   7.59575738
_cell_length_c   9.48508200
_cell_angle_alpha   90.00000000
_cell_angle_beta   90.00000000
_cell_angle_gamma   119.16286237
_symmetry_Int_Tables_number   1
_chemical_formula_structural   Ho4Al15(ZnPd2)3
_chemical_formula_sum   'Ho4 Al15 Zn3 Pd6'
_cell_volume   477.15325349
_cell_formula_units_Z   1
loop_
 _symmetry_equiv_pos_site_id
 _symmetry_equiv_pos_as_xyz
  1  'x, y, z'
loop_
 _atom_site_type_symbol
 _atom_site_label
 _atom_site_symmetry_multiplicity
 _atom_site_fract_x
 _atom_site_fract_y
 _atom_site_fract_z
 _atom_site_occupancy
  Ho  Ho0  1  0.995817  0.673365  0.250000  1
  Ho  Ho1  1  0.005552  0.327567  0.750000  1
  Ho  Ho2  1  0.671982  0.994139  0.250000  1
  Ho  Ho3  1  0.327433  0.005401  0.750000  1
  Al  Al4  1  0.005966  0.335948  0.081365  1
  Al  Al5  1  0.996823  0.666516  0.921245  1
  Al  Al6  1  0.996823  0.666516  0.578755  1
  Al  Al7  1  0.333298  0.001587  0.420624  1
  Al  Al8  1  0.005966  0.335948  0.418635  1
  Al  Al9  1  0.667092  0.998032  0.579173  1
  Al  Al10  1  0.667092  0.998032  0.920827  1
  Al  Al11  1  0.333298  0.001587  0.079376  1
  Al  Al12  1  0.332480  0.332726  0.554467  1
  Al  Al13  1  0.663723  0.665833  0.443224  1
  Al  Al14  1  0.663723  0.665833  0.056776  1
  Al  Al15  1  0.332480  0.332726  0.945533  1
  Al  Al16  1  0.660379  0.452667  0.750000  1
  Al  Al17  1  0.545116  0.341467  0.250000  1
  Al  Al18  1  0.454267  0.659626  0.750000  1
  Zn  Zn19  1  0.140510  0.139443  0.250000  1
  Zn  Zn20  1  0.861975  0.861218  0.750000  1
  Zn  Zn21  1  0.341501  0.543134  0.250000  1
  Pd  Pd22  1  0.673312  0.326494  0.000201  1
  Pd  Pd23  1  0.326051  0.674529  0.995114  1
  Pd  Pd24  1  0.326051  0.674529  0.504886  1
  Pd  Pd25  1  0.673312  0.326494  0.499799  1
  Pd  Pd26  1  0.998990  0.999322  0.000658  1
  Pd  Pd27  1  0.998990  0.999322  0.499342  1
