# generated using pymatgen
data_Dy9Y7Cd4NiIr3
_symmetry_space_group_name_H-M   'P 1'
_cell_length_a   9.60882291
_cell_length_b   9.65278548
_cell_length_c   9.65495200
_cell_angle_alpha   59.99257514
_cell_angle_beta   59.84106660
_cell_angle_gamma   59.87431867
_symmetry_Int_Tables_number   1
_chemical_formula_structural   Dy9Y7Cd4NiIr3
_chemical_formula_sum   'Dy9 Y7 Cd4 Ni1 Ir3'
_cell_volume   631.82398546
_cell_formula_units_Z   1
loop_
 _symmetry_equiv_pos_site_id
 _symmetry_equiv_pos_as_xyz
  1  'x, y, z'
loop_
 _atom_site_type_symbol
 _atom_site_label
 _atom_site_symmetry_multiplicity
 _atom_site_fract_x
 _atom_site_fract_y
 _atom_site_fract_z
 _atom_site_occupancy
  Dy  Dy0  1  0.601382  0.597396  0.596628  1
  Dy  Dy1  1  0.601382  0.597396  0.204594  1
  Dy  Dy2  1  0.601960  0.203180  0.597430  1
  Dy  Dy3  1  0.202221  0.599627  0.599076  1
  Dy  Dy4  1  0.058899  0.438951  0.439678  1
  Dy  Dy5  1  0.438217  0.060008  0.061058  1
  Dy  Dy6  1  0.438217  0.060008  0.440716  1
  Dy  Dy7  1  0.058899  0.438951  0.062471  1
  Dy  Dy8  1  0.439013  0.440269  0.060359  1
  Y  Y9  1  0.058983  0.062150  0.439433  1
  Y  Y10  1  0.188956  0.811485  0.812019  1
  Y  Y11  1  0.810691  0.187567  0.186091  1
  Y  Y12  1  0.810691  0.187567  0.815651  1
  Y  Y13  1  0.188956  0.811485  0.187540  1
  Y  Y14  1  0.811013  0.815329  0.186829  1
  Y  Y15  1  0.188729  0.188363  0.811454  1
  Cd  Cd16  1  0.830042  0.830975  0.831218  1
  Cd  Cd17  1  0.830042  0.830975  0.507763  1
  Cd  Cd18  1  0.830307  0.506502  0.831594  1
  Cd  Cd19  1  0.506461  0.830997  0.831271  1
  Ni  Ni20  1  0.824243  0.393151  0.391304  1
  Ir  Ir21  1  0.393082  0.392322  0.391242  1
  Ir  Ir22  1  0.393082  0.392322  0.823355  1
  Ir  Ir23  1  0.394534  0.823022  0.391222  1
