# generated using pymatgen
data_Mg4SiP3Ru4
_symmetry_space_group_name_H-M   'P 1'
_cell_length_a   3.91656100
_cell_length_b   6.57335324
_cell_length_c   7.01994379
_cell_angle_alpha   89.91507527
_cell_angle_beta   90.00000000
_cell_angle_gamma   90.00000000
_symmetry_Int_Tables_number   1
_chemical_formula_structural   Mg4SiP3Ru4
_chemical_formula_sum   'Mg4 Si1 P3 Ru4'
_cell_volume   180.72782563
_cell_formula_units_Z   1
loop_
 _symmetry_equiv_pos_site_id
 _symmetry_equiv_pos_as_xyz
  1  'x, y, z'
loop_
 _atom_site_type_symbol
 _atom_site_label
 _atom_site_symmetry_multiplicity
 _atom_site_fract_x
 _atom_site_fract_y
 _atom_site_fract_z
 _atom_site_occupancy
  Mg  Mg0  1  0.250000  0.016007  0.832757  1
  Mg  Mg1  1  0.250000  0.514525  0.665369  1
  Mg  Mg2  1  0.750000  0.982751  0.166622  1
  Mg  Mg3  1  0.750000  0.486193  0.334341  1
  Si  Si4  1  0.250000  0.794048  0.368087  1
  P  P5  1  0.250000  0.292828  0.131299  1
  P  P6  1  0.750000  0.205670  0.631046  1
  P  P7  1  0.750000  0.703962  0.867545  1
  Ru  Ru8  1  0.250000  0.158542  0.450175  1
  Ru  Ru9  1  0.250000  0.648710  0.043405  1
  Ru  Ru10  1  0.750000  0.849575  0.557605  1
  Ru  Ru11  1  0.750000  0.347191  0.951750  1
