# generated using pymatgen
data_Yb7Hg(GeN)2
_symmetry_space_group_name_H-M   'P 1'
_cell_length_a   11.84781751
_cell_length_b   11.84781784
_cell_length_c   4.73975500
_cell_angle_alpha   90.00000000
_cell_angle_beta   90.00000000
_cell_angle_gamma   156.63752677
_symmetry_Int_Tables_number   1
_chemical_formula_structural   Yb7Hg(GeN)2
_chemical_formula_sum   'Yb7 Hg1 Ge2 N2'
_cell_volume   263.83169428
_cell_formula_units_Z   1
loop_
 _symmetry_equiv_pos_site_id
 _symmetry_equiv_pos_as_xyz
  1  'x, y, z'
loop_
 _atom_site_type_symbol
 _atom_site_label
 _atom_site_symmetry_multiplicity
 _atom_site_fract_x
 _atom_site_fract_y
 _atom_site_fract_z
 _atom_site_occupancy
  Yb  Yb0  1  0.998841  0.001159  0.000000  1
  Yb  Yb1  1  0.800957  0.199044  0.000000  1
  Yb  Yb2  1  0.592492  0.407509  0.000000  1
  Yb  Yb3  1  0.401186  0.598815  0.000000  1
  Yb  Yb4  1  0.203453  0.796548  0.000000  1
  Yb  Yb5  1  0.899694  0.100307  0.500000  1
  Yb  Yb6  1  0.096696  0.903305  0.500000  1
  Hg  Hg7  1  0.702753  0.297248  0.500000  1
  Ge  Ge8  1  0.499431  0.500569  0.500000  1
  Ge  Ge9  1  0.301081  0.698920  0.500000  1
  N  N10  1  0.896619  0.103382  0.000000  1
  N  N11  1  0.106802  0.893199  0.000000  1
