# generated using pymatgen
data_Hf17Zr(Re4Ir)2
_symmetry_space_group_name_H-M   'P 1'
_cell_length_a   8.56628000
_cell_length_b   8.67822188
_cell_length_c   8.66638563
_cell_angle_alpha   120.04595457
_cell_angle_beta   90.00000000
_cell_angle_gamma   90.00000000
_symmetry_Int_Tables_number   1
_chemical_formula_structural   Hf17Zr(Re4Ir)2
_chemical_formula_sum   'Hf17 Zr1 Re8 Ir2'
_cell_volume   557.68679712
_cell_formula_units_Z   1
loop_
 _symmetry_equiv_pos_site_id
 _symmetry_equiv_pos_as_xyz
  1  'x, y, z'
loop_
 _atom_site_type_symbol
 _atom_site_label
 _atom_site_symmetry_multiplicity
 _atom_site_fract_x
 _atom_site_fract_y
 _atom_site_fract_z
 _atom_site_occupancy
  Hf  Hf0  1  0.554785  0.804576  0.609145  1
  Hf  Hf1  1  0.554401  0.805339  0.195946  1
  Hf  Hf2  1  0.554408  0.390609  0.195947  1
  Hf  Hf3  1  0.445196  0.195382  0.390771  1
  Hf  Hf4  1  0.444679  0.194707  0.804474  1
  Hf  Hf5  1  0.444673  0.609768  0.804474  1
  Hf  Hf6  1  0.054804  0.195382  0.390771  1
  Hf  Hf7  1  0.055321  0.194707  0.804474  1
  Hf  Hf8  1  0.055327  0.609768  0.804474  1
  Hf  Hf9  1  0.945215  0.804576  0.609145  1
  Hf  Hf10  1  0.945599  0.805339  0.195946  1
  Hf  Hf11  1  0.945592  0.390609  0.195947  1
  Hf  Hf12  1  0.750000  0.458200  0.541033  1
  Hf  Hf13  1  0.750000  0.082834  0.541025  1
  Hf  Hf14  1  0.250000  0.541797  0.083607  1
  Hf  Hf15  1  0.250000  0.542003  0.458086  1
  Hf  Hf16  1  0.250000  0.916085  0.458094  1
  Zr  Zr17  1  0.750000  0.457485  0.914948  1
  Re  Re18  1  0.750000  0.110269  0.220552  1
  Re  Re19  1  0.750000  0.108529  0.889930  1
  Re  Re20  1  0.750000  0.781403  0.889933  1
  Re  Re21  1  0.250000  0.890004  0.780012  1
  Re  Re22  1  0.250000  0.890150  0.110090  1
  Re  Re23  1  0.250000  0.219935  0.110095  1
  Re  Re24  1  0.499849  0.999990  0.999986  1
  Re  Re25  1  0.000151  0.999990  0.999986  1
  Ir  Ir26  1  0.750000  0.667072  0.334107  1
  Ir  Ir27  1  0.250000  0.333490  0.667000  1
