# generated using pymatgen
data_Pr3(In2Ir)2
_symmetry_space_group_name_H-M   'P 1'
_cell_length_a   7.90232900
_cell_length_b   7.90233041
_cell_length_c   4.12014900
_cell_angle_alpha   90.00000000
_cell_angle_beta   90.00000000
_cell_angle_gamma   119.99999829
_symmetry_Int_Tables_number   1
_chemical_formula_structural   Pr3(In2Ir)2
_chemical_formula_sum   'Pr3 In4 Ir2'
_cell_volume   222.81983702
_cell_formula_units_Z   1
loop_
 _symmetry_equiv_pos_site_id
 _symmetry_equiv_pos_as_xyz
  1  'x, y, z'
loop_
 _atom_site_type_symbol
 _atom_site_label
 _atom_site_symmetry_multiplicity
 _atom_site_fract_x
 _atom_site_fract_y
 _atom_site_fract_z
 _atom_site_occupancy
  Pr  Pr0  1  0.696773  0.948319  0.500000  1
  Pr  Pr1  1  0.251546  0.303227  0.500000  1
  Pr  Pr2  1  0.051681  0.748454  0.500000  1
  In  In3  1  0.913442  0.332513  0.000000  1
  In  In4  1  0.419072  0.086558  0.000000  1
  In  In5  1  0.667487  0.580928  0.000000  1
  In  In6  1  0.333333  0.666667  0.000000  1
  Ir  Ir7  1  0.666667  0.333333  0.500000  1
  Ir  Ir8  1  0.000000  0.000000  0.000000  1
