# generated using pymatgen
data_Tm2Lu6B24OsW3
_symmetry_space_group_name_H-M   'P 1'
_cell_length_a   3.55800900
_cell_length_b   9.18005420
_cell_length_c   11.56134802
_cell_angle_alpha   89.92208024
_cell_angle_beta   90.00000000
_cell_angle_gamma   90.00000000
_symmetry_Int_Tables_number   1
_chemical_formula_structural   Tm2Lu6B24OsW3
_chemical_formula_sum   'Tm2 Lu6 B24 Os1 W3'
_cell_volume   377.62467163
_cell_formula_units_Z   1
loop_
 _symmetry_equiv_pos_site_id
 _symmetry_equiv_pos_as_xyz
  1  'x, y, z'
loop_
 _atom_site_type_symbol
 _atom_site_label
 _atom_site_symmetry_multiplicity
 _atom_site_fract_x
 _atom_site_fract_y
 _atom_site_fract_z
 _atom_site_occupancy
  Tm  Tm0  1  0.000000  0.320573  0.413246  1
  Tm  Tm1  1  0.000000  0.678880  0.586018  1
  Lu  Lu2  1  0.000000  0.820676  0.085541  1
  Lu  Lu3  1  0.000000  0.178600  0.913467  1
  Lu  Lu4  1  0.000000  0.944111  0.373039  1
  Lu  Lu5  1  0.000000  0.054539  0.629639  1
  Lu  Lu6  1  0.000000  0.445507  0.126411  1
  Lu  Lu7  1  0.000000  0.558571  0.871637  1
  B  B8  1  0.500000  0.550951  0.435170  1
  B  B9  1  0.500000  0.448124  0.565393  1
  B  B10  1  0.500000  0.049910  0.062702  1
  B  B11  1  0.500000  0.945252  0.932494  1
  B  B12  1  0.500000  0.752502  0.422585  1
  B  B13  1  0.500000  0.246839  0.578650  1
  B  B14  1  0.500000  0.253498  0.076588  1
  B  B15  1  0.500000  0.750992  0.918983  1
  B  B16  1  0.500000  0.795912  0.263941  1
  B  B17  1  0.500000  0.203185  0.738127  1
  B  B18  1  0.500000  0.295194  0.235595  1
  B  B19  1  0.500000  0.708903  0.765581  1
  B  B20  1  0.500000  0.631952  0.181731  1
  B  B21  1  0.500000  0.369374  0.818897  1
  B  B22  1  0.500000  0.130153  0.317054  1
  B  B23  1  0.500000  0.869321  0.685877  1
  B  B24  1  0.500000  0.977242  0.212327  1
  B  B25  1  0.500000  0.016863  0.788335  1
  B  B26  1  0.500000  0.477930  0.286436  1
  B  B27  1  0.500000  0.523284  0.713211  1
  B  B28  1  0.500000  0.603094  0.026922  1
  B  B29  1  0.500000  0.400858  0.971639  1
  B  B30  1  0.500000  0.099783  0.472853  1
  B  B31  1  0.500000  0.898720  0.529745  1
  Os  Os32  1  0.000000  0.861109  0.820846  1
  W  W33  1  0.000000  0.639223  0.320196  1
  W  W34  1  0.000000  0.360012  0.681243  1
  W  W35  1  0.000000  0.138364  0.177881  1
