# generated using pymatgen
data_Ho10OsRu2Rh3
_symmetry_space_group_name_H-M   'P 1'
_cell_length_a   10.81007963
_cell_length_b   10.81049800
_cell_length_c   6.39941200
_cell_angle_alpha   90.00000000
_cell_angle_beta   90.01949950
_cell_angle_gamma   90.00000000
_symmetry_Int_Tables_number   1
_chemical_formula_structural   Ho10OsRu2Rh3
_chemical_formula_sum   'Ho20 Os2 Ru4 Rh6'
_cell_volume   747.85024437
_cell_formula_units_Z   2
loop_
 _symmetry_equiv_pos_site_id
 _symmetry_equiv_pos_as_xyz
  1  'x, y, z'
loop_
 _atom_site_type_symbol
 _atom_site_label
 _atom_site_symmetry_multiplicity
 _atom_site_fract_x
 _atom_site_fract_y
 _atom_site_fract_z
 _atom_site_occupancy
  Ho  Ho0  1  0.294280  0.088841  0.376690  1
  Ho  Ho1  1  0.294280  0.911159  0.876690  1
  Ho  Ho2  1  0.705342  0.086402  0.876537  1
  Ho  Ho3  1  0.705342  0.913598  0.376537  1
  Ho  Ho4  1  0.583850  0.792695  0.876279  1
  Ho  Ho5  1  0.583850  0.207305  0.376279  1
  Ho  Ho6  1  0.412202  0.792921  0.378587  1
  Ho  Ho7  1  0.412202  0.207079  0.878587  1
  Ho  Ho8  1  0.209081  0.414927  0.622077  1
  Ho  Ho9  1  0.209081  0.585073  0.122077  1
  Ho  Ho10  1  0.794688  0.413251  0.123020  1
  Ho  Ho11  1  0.794688  0.586749  0.623020  1
  Ho  Ho12  1  0.913594  0.705541  0.123246  1
  Ho  Ho13  1  0.913594  0.294459  0.623246  1
  Ho  Ho14  1  0.088973  0.705620  0.623521  1
  Ho  Ho15  1  0.088973  0.294380  0.123521  1
  Ho  Ho16  1  0.999697  0.999832  0.499973  1
  Ho  Ho17  1  0.999697  0.000168  0.999973  1
  Ho  Ho18  1  0.498594  0.499839  0.999855  1
  Ho  Ho19  1  0.498594  0.500161  0.499855  1
  Os  Os20  1  0.347179  0.346134  0.250080  1
  Os  Os21  1  0.347179  0.653866  0.750080  1
  Ru  Ru22  1  0.501147  0.000421  0.122870  1
  Ru  Ru23  1  0.501147  0.999579  0.622870  1
  Ru  Ru24  1  0.997893  0.500159  0.877142  1
  Ru  Ru25  1  0.997893  0.499841  0.377142  1
  Rh  Rh26  1  0.847953  0.152200  0.249166  1
  Rh  Rh27  1  0.847953  0.847800  0.749166  1
  Rh  Rh28  1  0.151236  0.151037  0.750766  1
  Rh  Rh29  1  0.151236  0.848963  0.250766  1
  Rh  Rh30  1  0.654289  0.347201  0.750193  1
  Rh  Rh31  1  0.654289  0.652799  0.250193  1
