# generated using pymatgen
data_Yb4In7RhO16
_symmetry_space_group_name_H-M   'P 1'
_cell_length_a   3.20747101
_cell_length_b   9.60558630
_cell_length_c   11.31235900
_cell_angle_alpha   90.56876274
_cell_angle_beta   89.99637377
_cell_angle_gamma   89.99545500
_symmetry_Int_Tables_number   1
_chemical_formula_structural   Yb4In7RhO16
_chemical_formula_sum   'Yb4 In7 Rh1 O16'
_cell_volume   348.51252938
_cell_formula_units_Z   1
loop_
 _symmetry_equiv_pos_site_id
 _symmetry_equiv_pos_as_xyz
  1  'x, y, z'
loop_
 _atom_site_type_symbol
 _atom_site_label
 _atom_site_symmetry_multiplicity
 _atom_site_fract_x
 _atom_site_fract_y
 _atom_site_fract_z
 _atom_site_occupancy
  Yb  Yb0  1  0.750111  0.242372  0.347095  1
  Yb  Yb1  1  0.250064  0.769226  0.639977  1
  Yb  Yb2  1  0.750055  0.749603  0.161464  1
  Yb  Yb3  1  0.249908  0.259322  0.848470  1
  In  In4  1  0.749992  0.069155  0.114595  1
  In  In5  1  0.249747  0.929420  0.884767  1
  In  In6  1  0.749735  0.586563  0.897072  1
  In  In7  1  0.249928  0.417542  0.107465  1
  In  In8  1  0.750277  0.574591  0.390123  1
  In  In9  1  0.250053  0.433677  0.615850  1
  In  In10  1  0.750016  0.084574  0.600713  1
  Rh  Rh11  1  0.250125  0.916673  0.394879  1
  O  O12  1  0.749895  0.791441  0.814162  1
  O  O13  1  0.249995  0.205851  0.185126  1
  O  O14  1  0.750017  0.290747  0.680138  1
  O  O15  1  0.250180  0.712280  0.321900  1
  O  O16  1  0.750095  0.875050  0.512527  1
  O  O17  1  0.250071  0.120166  0.462915  1
  O  O18  1  0.749884  0.369788  0.975432  1
  O  O19  1  0.249856  0.631533  0.031487  1
  O  O20  1  0.749883  0.475638  0.220982  1
  O  O21  1  0.249825  0.510865  0.791054  1
  O  O22  1  0.750113  0.962636  0.286521  1
  O  O23  1  0.250013  0.014499  0.709072  1
  O  O24  1  0.750067  0.596060  0.579495  1
  O  O25  1  0.250167  0.408880  0.427670  1
  O  O26  1  0.749913  0.089693  0.922568  1
  O  O27  1  0.250015  0.912153  0.076478  1
