# generated using pymatgen
data_Y8Sc12Si15Hg
_symmetry_space_group_name_H-M   'P 1'
_cell_length_a   7.14711528
_cell_length_b   7.40890888
_cell_length_c   14.10189323
_cell_angle_alpha   90.05907965
_cell_angle_beta   90.41315281
_cell_angle_gamma   90.13105519
_symmetry_Int_Tables_number   1
_chemical_formula_structural   Y8Sc12Si15Hg
_chemical_formula_sum   'Y8 Sc12 Si15 Hg1'
_cell_volume   746.70626863
_cell_formula_units_Z   1
loop_
 _symmetry_equiv_pos_site_id
 _symmetry_equiv_pos_as_xyz
  1  'x, y, z'
loop_
 _atom_site_type_symbol
 _atom_site_label
 _atom_site_symmetry_multiplicity
 _atom_site_fract_x
 _atom_site_fract_y
 _atom_site_fract_z
 _atom_site_occupancy
  Y  Y0  1  0.510139  0.671208  0.601543  1
  Y  Y1  1  0.013883  0.823801  0.903044  1
  Y  Y2  1  0.485532  0.325092  0.096126  1
  Y  Y3  1  0.994329  0.180875  0.400043  1
  Y  Y4  1  0.486124  0.331198  0.401614  1
  Y  Y5  1  0.985706  0.176582  0.096592  1
  Y  Y6  1  0.514180  0.675475  0.902479  1
  Y  Y7  1  0.013577  0.822861  0.600893  1
  Sc  Sc8  1  0.670035  0.177754  0.628938  1
  Sc  Sc9  1  0.172206  0.324076  0.875314  1
  Sc  Sc10  1  0.327596  0.823077  0.124092  1
  Sc  Sc11  1  0.838107  0.668391  0.371279  1
  Sc  Sc12  1  0.322706  0.824787  0.373782  1
  Sc  Sc13  1  0.826574  0.674740  0.124240  1
  Sc  Sc14  1  0.671677  0.176454  0.874892  1
  Sc  Sc15  1  0.167881  0.324879  0.627033  1
  Sc  Sc16  1  0.841005  0.500712  0.751024  1
  Sc  Sc17  1  0.340304  0.998984  0.749778  1
  Sc  Sc18  1  0.161139  0.497418  0.248600  1
  Sc  Sc19  1  0.659378  0.000947  0.246014  1
  Si  Si20  1  0.154221  0.534977  0.039714  1
  Si  Si21  1  0.345548  0.035464  0.960755  1
  Si  Si22  1  0.842175  0.462833  0.540502  1
  Si  Si23  1  0.334029  0.038687  0.541330  1
  Si  Si24  1  0.845176  0.464838  0.959939  1
  Si  Si25  1  0.654452  0.963900  0.038313  1
  Si  Si26  1  0.156624  0.537107  0.461828  1
  Si  Si27  1  0.468079  0.382915  0.751737  1
  Si  Si28  1  0.969253  0.116744  0.751846  1
  Si  Si29  1  0.531905  0.620690  0.248632  1
  Si  Si30  1  0.030668  0.884648  0.248143  1
  Si  Si31  1  0.716130  0.872314  0.751585  1
  Si  Si32  1  0.215833  0.627135  0.751775  1
  Si  Si33  1  0.285688  0.127195  0.247715  1
  Si  Si34  1  0.781895  0.372580  0.248633  1
  Hg  Hg35  1  0.666247  0.958663  0.460231  1
