# generated using pymatgen
data_Ti12Mo6IrPt5
_symmetry_space_group_name_H-M   'P 1'
_cell_length_a   4.43616900
_cell_length_b   6.27634800
_cell_length_c   13.34163100
_cell_angle_alpha   90.00000000
_cell_angle_beta   89.99997420
_cell_angle_gamma   90.00000000
_symmetry_Int_Tables_number   1
_chemical_formula_structural   Ti12Mo6IrPt5
_chemical_formula_sum   'Ti12 Mo6 Ir1 Pt5'
_cell_volume   371.47023718
_cell_formula_units_Z   1
loop_
 _symmetry_equiv_pos_site_id
 _symmetry_equiv_pos_as_xyz
  1  'x, y, z'
loop_
 _atom_site_type_symbol
 _atom_site_label
 _atom_site_symmetry_multiplicity
 _atom_site_fract_x
 _atom_site_fract_y
 _atom_site_fract_z
 _atom_site_occupancy
  Ti  Ti0  1  0.499995  0.248039  0.997793  1
  Ti  Ti1  1  0.499995  0.751962  0.997793  1
  Ti  Ti2  1  0.000083  0.249769  0.166495  1
  Ti  Ti3  1  0.000083  0.750231  0.166495  1
  Ti  Ti4  1  0.500112  0.250417  0.333333  1
  Ti  Ti5  1  0.500112  0.749581  0.333333  1
  Ti  Ti6  1  0.000000  0.249771  0.500173  1
  Ti  Ti7  1  0.000000  0.750228  0.500173  1
  Ti  Ti8  1  0.499884  0.248036  0.668869  1
  Ti  Ti9  1  0.499884  0.751962  0.668869  1
  Ti  Ti10  1  0.999925  0.245079  0.833331  1
  Ti  Ti11  1  0.999925  0.754921  0.833331  1
  Mo  Mo12  1  0.999994  0.000000  0.001019  1
  Mo  Mo13  1  0.500090  0.499999  0.166978  1
  Mo  Mo14  1  0.000110  0.000000  0.333296  1
  Mo  Mo15  1  0.500001  0.499999  0.499645  1
  Mo  Mo16  1  0.999884  0.000000  0.665683  1
  Mo  Mo17  1  0.499916  0.499999  0.833379  1
  Ir  Ir18  1  0.499881  0.000000  0.833351  1
  Pt  Pt19  1  0.000000  0.499999  0.000029  1
  Pt  Pt20  1  0.500125  0.000000  0.166761  1
  Pt  Pt21  1  0.000152  0.499999  0.333333  1
  Pt  Pt22  1  0.500000  0.000000  0.499899  1
  Pt  Pt23  1  0.999850  0.499999  0.666639  1
