# generated using pymatgen
data_Hf4Ti2Ga5Bi
_symmetry_space_group_name_H-M   'P 1'
_cell_length_a   5.57029600
_cell_length_b   8.67838383
_cell_length_c   9.19967651
_cell_angle_alpha   89.23928249
_cell_angle_beta   90.00000000
_cell_angle_gamma   90.00000000
_symmetry_Int_Tables_number   1
_chemical_formula_structural   Hf4Ti2Ga5Bi
_chemical_formula_sum   'Hf8 Ti4 Ga10 Bi2'
_cell_volume   444.68389919
_cell_formula_units_Z   2
loop_
 _symmetry_equiv_pos_site_id
 _symmetry_equiv_pos_as_xyz
  1  'x, y, z'
loop_
 _atom_site_type_symbol
 _atom_site_label
 _atom_site_symmetry_multiplicity
 _atom_site_fract_x
 _atom_site_fract_y
 _atom_site_fract_z
 _atom_site_occupancy
  Hf  Hf0  1  0.750000  0.473037  0.621632  1
  Hf  Hf1  1  0.250000  0.526963  0.378368  1
  Hf  Hf2  1  0.750000  0.973040  0.399773  1
  Hf  Hf3  1  0.250000  0.026960  0.600227  1
  Hf  Hf4  1  0.750000  0.384473  0.188202  1
  Hf  Hf5  1  0.250000  0.615527  0.811798  1
  Hf  Hf6  1  0.750000  0.857474  0.798405  1
  Hf  Hf7  1  0.250000  0.142526  0.201595  1
  Ti  Ti8  1  0.000072  0.729568  0.111310  1
  Ti  Ti9  1  0.500072  0.270432  0.888690  1
  Ti  Ti10  1  0.999928  0.270432  0.888690  1
  Ti  Ti11  1  0.499928  0.729568  0.111310  1
  Ga  Ga12  1  0.008415  0.744084  0.567644  1
  Ga  Ga13  1  0.508415  0.255916  0.432356  1
  Ga  Ga14  1  0.991585  0.255916  0.432356  1
  Ga  Ga15  1  0.491585  0.744084  0.567644  1
  Ga  Ga16  1  0.750000  0.548573  0.919137  1
  Ga  Ga17  1  0.250000  0.451427  0.080863  1
  Ga  Ga18  1  0.750000  0.141907  0.663776  1
  Ga  Ga19  1  0.250000  0.858093  0.336224  1
  Ga  Ga20  1  0.750000  0.642253  0.348127  1
  Ga  Ga21  1  0.250000  0.357747  0.651873  1
  Bi  Bi22  1  0.750000  0.048131  0.085221  1
  Bi  Bi23  1  0.250000  0.951869  0.914779  1
