# generated using pymatgen
data_YEr2Pa(Al3Rh)6
_symmetry_space_group_name_H-M   'P 1'
_cell_length_a   7.56879741
_cell_length_b   7.56267583
_cell_length_c   9.41726000
_cell_angle_alpha   90.00000000
_cell_angle_beta   90.00000000
_cell_angle_gamma   119.48795211
_symmetry_Int_Tables_number   1
_chemical_formula_structural   YEr2Pa(Al3Rh)6
_chemical_formula_sum   'Y1 Er2 Pa1 Al18 Rh6'
_cell_volume   469.21874951
_cell_formula_units_Z   1
loop_
 _symmetry_equiv_pos_site_id
 _symmetry_equiv_pos_as_xyz
  1  'x, y, z'
loop_
 _atom_site_type_symbol
 _atom_site_label
 _atom_site_symmetry_multiplicity
 _atom_site_fract_x
 _atom_site_fract_y
 _atom_site_fract_z
 _atom_site_occupancy
  Y  Y0  1  0.672786  0.994710  0.750000  1
  Er  Er1  1  0.005518  0.328734  0.250000  1
  Er  Er2  1  0.328544  0.004651  0.250000  1
  Pa  Pa3  1  0.995558  0.671666  0.750000  1
  Al  Al4  1  0.131804  0.130086  0.750000  1
  Al  Al5  1  0.873731  0.874995  0.250000  1
  Al  Al6  1  0.000885  0.333149  0.574453  1
  Al  Al7  1  0.999468  0.664337  0.420167  1
  Al  Al8  1  0.999468  0.664337  0.079833  1
  Al  Al9  1  0.338401  0.003265  0.925209  1
  Al  Al10  1  0.000885  0.333149  0.925547  1
  Al  Al11  1  0.664773  0.000680  0.077512  1
  Al  Al12  1  0.664773  0.000680  0.422488  1
  Al  Al13  1  0.338401  0.003265  0.574791  1
  Al  Al14  1  0.332046  0.332097  0.055305  1
  Al  Al15  1  0.663669  0.665807  0.950874  1
  Al  Al16  1  0.663669  0.665807  0.549126  1
  Al  Al17  1  0.332046  0.332097  0.444695  1
  Al  Al18  1  0.338774  0.548083  0.750000  1
  Al  Al19  1  0.659005  0.447878  0.250000  1
  Al  Al20  1  0.548332  0.342313  0.750000  1
  Al  Al21  1  0.449292  0.660354  0.250000  1
  Rh  Rh22  1  0.673432  0.329306  0.501441  1
  Rh  Rh23  1  0.325993  0.671979  0.501484  1
  Rh  Rh24  1  0.325993  0.671979  0.998516  1
  Rh  Rh25  1  0.673432  0.329306  0.998559  1
  Rh  Rh26  1  0.999659  0.997646  0.502215  1
  Rh  Rh27  1  0.999659  0.997646  0.997785  1
