# generated using pymatgen
data_Li4In3SnAu8
_symmetry_space_group_name_H-M   'P 1'
_cell_length_a   4.82124500
_cell_length_b   5.05405000
_cell_length_c   12.00094400
_cell_angle_alpha   90.00000000
_cell_angle_beta   90.00000000
_cell_angle_gamma   90.00000000
_symmetry_Int_Tables_number   1
_chemical_formula_structural   Li4In3SnAu8
_chemical_formula_sum   'Li4 In3 Sn1 Au8'
_cell_volume   292.42476178
_cell_formula_units_Z   1
loop_
 _symmetry_equiv_pos_site_id
 _symmetry_equiv_pos_as_xyz
  1  'x, y, z'
loop_
 _atom_site_type_symbol
 _atom_site_label
 _atom_site_symmetry_multiplicity
 _atom_site_fract_x
 _atom_site_fract_y
 _atom_site_fract_z
 _atom_site_occupancy
  Li  Li0  1  0.000000  0.297035  0.000000  1
  Li  Li1  1  0.000000  0.301415  0.500000  1
  Li  Li2  1  0.500000  0.701181  0.750559  1
  Li  Li3  1  0.500000  0.701181  0.249441  1
  In  In4  1  0.500000  0.680083  0.500000  1
  In  In5  1  0.000000  0.321273  0.748786  1
  In  In6  1  0.000000  0.321273  0.251214  1
  Sn  Sn7  1  0.500000  0.678241  0.000000  1
  Au  Au8  1  0.500000  0.187220  0.623996  1
  Au  Au9  1  0.500000  0.182842  0.127373  1
  Au  Au10  1  0.500000  0.182842  0.872627  1
  Au  Au11  1  0.500000  0.187220  0.376004  1
  Au  Au12  1  0.000000  0.816019  0.623645  1
  Au  Au13  1  0.000000  0.813078  0.127007  1
  Au  Au14  1  0.000000  0.813078  0.872993  1
  Au  Au15  1  0.000000  0.816019  0.376355  1
