# generated using pymatgen
data_RbS2BrO8
_symmetry_space_group_name_H-M   'P 1'
_cell_length_a   4.37096543
_cell_length_b   5.25241344
_cell_length_c   9.06457038
_cell_angle_alpha   79.67046396
_cell_angle_beta   89.27779918
_cell_angle_gamma   76.10311646
_symmetry_Int_Tables_number   1
_chemical_formula_structural   RbS2BrO8
_chemical_formula_sum   'Rb1 S2 Br1 O8'
_cell_volume   198.63890975
_cell_formula_units_Z   1
loop_
 _symmetry_equiv_pos_site_id
 _symmetry_equiv_pos_as_xyz
  1  'x, y, z'
loop_
 _atom_site_type_symbol
 _atom_site_label
 _atom_site_symmetry_multiplicity
 _atom_site_fract_x
 _atom_site_fract_y
 _atom_site_fract_z
 _atom_site_occupancy
  Rb  Rb0  1  0.000000  0.500001  0.000000  1
  S  S1  1  0.537914  0.895542  0.260132  1
  S  S2  1  0.462086  0.104459  0.739868  1
  Br  Br3  1  0.000000  0.000000  0.500000  1
  O  O4  1  0.670110  0.058885  0.142434  1
  O  O5  1  0.443048  0.669974  0.220758  1
  O  O6  1  0.255174  0.098340  0.314745  1
  O  O7  1  0.772668  0.772352  0.396372  1
  O  O8  1  0.227333  0.227648  0.603628  1
  O  O9  1  0.744827  0.901658  0.685255  1
  O  O10  1  0.556953  0.330027  0.779242  1
  O  O11  1  0.329890  0.941116  0.857566  1
