# generated using pymatgen
data_ErPaBRh6
_symmetry_space_group_name_H-M   'P 1'
_cell_length_a   5.82092172
_cell_length_b   5.82092113
_cell_length_c   5.82092100
_cell_angle_alpha   59.99999505
_cell_angle_beta   59.99999840
_cell_angle_gamma   59.99999886
_symmetry_Int_Tables_number   1
_chemical_formula_structural   ErPaBRh6
_chemical_formula_sum   'Er1 Pa1 B1 Rh6'
_cell_volume   139.46337013
_cell_formula_units_Z   1
loop_
 _symmetry_equiv_pos_site_id
 _symmetry_equiv_pos_as_xyz
  1  'x, y, z'
loop_
 _atom_site_type_symbol
 _atom_site_label
 _atom_site_symmetry_multiplicity
 _atom_site_fract_x
 _atom_site_fract_y
 _atom_site_fract_z
 _atom_site_occupancy
  Er  Er0  1  0.750000  0.750000  0.750000  1
  Pa  Pa1  1  0.250000  0.250000  0.250000  1
  B  B2  1  0.499999  0.499999  0.499999  1
  Rh  Rh3  1  0.755781  0.244218  0.244218  1
  Rh  Rh4  1  0.244218  0.755781  0.244218  1
  Rh  Rh5  1  0.755781  0.755781  0.244218  1
  Rh  Rh6  1  0.244218  0.244218  0.755781  1
  Rh  Rh7  1  0.755781  0.244218  0.755781  1
  Rh  Rh8  1  0.244218  0.755781  0.755781  1
