# generated using pymatgen
data_Nd8DySc11Sn16
_symmetry_space_group_name_H-M   'P 1'
_cell_length_a   7.88521157
_cell_length_b   8.08028613
_cell_length_c   15.17542000
_cell_angle_alpha   90.14007201
_cell_angle_beta   90.09382163
_cell_angle_gamma   90.16097312
_symmetry_Int_Tables_number   1
_chemical_formula_structural   Nd8DySc11Sn16
_chemical_formula_sum   'Nd8 Dy1 Sc11 Sn16'
_cell_volume   966.89031672
_cell_formula_units_Z   1
loop_
 _symmetry_equiv_pos_site_id
 _symmetry_equiv_pos_as_xyz
  1  'x, y, z'
loop_
 _atom_site_type_symbol
 _atom_site_label
 _atom_site_symmetry_multiplicity
 _atom_site_fract_x
 _atom_site_fract_y
 _atom_site_fract_z
 _atom_site_occupancy
  Nd  Nd0  1  0.510910  0.326482  0.903623  1
  Nd  Nd1  1  0.011382  0.173432  0.593477  1
  Nd  Nd2  1  0.489918  0.673521  0.404916  1
  Nd  Nd3  1  0.989936  0.825335  0.097658  1
  Nd  Nd4  1  0.490411  0.672509  0.097113  1
  Nd  Nd5  1  0.989564  0.826425  0.404093  1
  Nd  Nd6  1  0.509739  0.324911  0.594132  1
  Nd  Nd7  1  0.010029  0.174678  0.904388  1
  Dy  Dy8  1  0.847848  0.664917  0.876495  1
  Sc  Sc9  1  0.347416  0.835127  0.872290  1
  Sc  Sc10  1  0.847472  0.663558  0.625564  1
  Sc  Sc11  1  0.652421  0.162800  0.373722  1
  Sc  Sc12  1  0.152527  0.336694  0.126893  1
  Sc  Sc13  1  0.649929  0.162995  0.129793  1
  Sc  Sc14  1  0.152003  0.336210  0.373678  1
  Sc  Sc15  1  0.347580  0.838715  0.623697  1
  Sc  Sc16  1  0.180656  0.504909  0.749169  1
  Sc  Sc17  1  0.679237  0.995962  0.748253  1
  Sc  Sc18  1  0.819874  0.493955  0.251272  1
  Sc  Sc19  1  0.319739  0.005319  0.250182  1
  Sn  Sn20  1  0.319290  0.044484  0.043155  1
  Sn  Sn21  1  0.820286  0.455529  0.456737  1
  Sn  Sn22  1  0.682097  0.954863  0.542345  1
  Sn  Sn23  1  0.190411  0.543956  0.958466  1
  Sn  Sn24  1  0.674186  0.962610  0.959502  1
  Sn  Sn25  1  0.179421  0.544794  0.542586  1
  Sn  Sn26  1  0.319212  0.044799  0.455440  1
  Sn  Sn27  1  0.817519  0.450053  0.048038  1
  Sn  Sn28  1  0.540229  0.632594  0.745798  1
  Sn  Sn29  1  0.046302  0.872013  0.746946  1
  Sn  Sn30  1  0.455377  0.367830  0.251791  1
  Sn  Sn31  1  0.956691  0.132180  0.250244  1
  Sn  Sn32  1  0.318798  0.141662  0.748876  1
  Sn  Sn33  1  0.818531  0.355527  0.747825  1
  Sn  Sn34  1  0.681329  0.858551  0.251259  1
  Sn  Sn35  1  0.181736  0.640098  0.250580  1
