# generated using pymatgen
data_Rb2BaU2O7
_symmetry_space_group_name_H-M   'P 1'
_cell_length_a   4.28545229
_cell_length_b   4.28545251
_cell_length_c   12.21163600
_cell_angle_alpha   99.93965964
_cell_angle_beta   99.93966016
_cell_angle_gamma   89.93236584
_symmetry_Int_Tables_number   1
_chemical_formula_structural   Rb2BaU2O7
_chemical_formula_sum   'Rb2 Ba1 U2 O7'
_cell_volume   217.49133269
_cell_formula_units_Z   1
loop_
 _symmetry_equiv_pos_site_id
 _symmetry_equiv_pos_as_xyz
  1  'x, y, z'
loop_
 _atom_site_type_symbol
 _atom_site_label
 _atom_site_symmetry_multiplicity
 _atom_site_fract_x
 _atom_site_fract_y
 _atom_site_fract_z
 _atom_site_occupancy
  Rb  Rb0  1  0.195739  0.195739  0.390018  1
  Rb  Rb1  1  0.804261  0.804261  0.609982  1
  Ba  Ba2  1  0.000000  0.000000  0.000000  1
  U  U3  1  0.594902  0.594902  0.191105  1
  U  U4  1  0.405098  0.405098  0.808895  1
  O  O5  1  0.500001  0.500001  0.000000  1
  O  O6  1  0.585523  0.085470  0.172645  1
  O  O7  1  0.085470  0.585523  0.172645  1
  O  O8  1  0.679521  0.679521  0.361300  1
  O  O9  1  0.320479  0.320479  0.638701  1
  O  O10  1  0.914532  0.414478  0.827354  1
  O  O11  1  0.414478  0.914532  0.827354  1
