# generated using pymatgen
data_LiHf6Os3Ru2
_symmetry_space_group_name_H-M   'P 1'
_cell_length_a   4.61169100
_cell_length_b   6.48201500
_cell_length_c   13.89868400
_cell_angle_alpha   90.00007246
_cell_angle_beta   90.00103711
_cell_angle_gamma   90.00059871
_symmetry_Int_Tables_number   1
_chemical_formula_structural   LiHf6Os3Ru2
_chemical_formula_sum   'Li2 Hf12 Os6 Ru4'
_cell_volume   415.47405900
_cell_formula_units_Z   2
loop_
 _symmetry_equiv_pos_site_id
 _symmetry_equiv_pos_as_xyz
  1  'x, y, z'
loop_
 _atom_site_type_symbol
 _atom_site_label
 _atom_site_symmetry_multiplicity
 _atom_site_fract_x
 _atom_site_fract_y
 _atom_site_fract_z
 _atom_site_occupancy
  Li  Li0  1  0.000003  0.000000  0.000171  1
  Li  Li1  1  0.499925  0.500000  0.166498  1
  Hf  Hf2  1  0.499973  0.250404  0.999113  1
  Hf  Hf3  1  0.500041  0.749595  0.999113  1
  Hf  Hf4  1  0.999991  0.249605  0.167555  1
  Hf  Hf5  1  0.999927  0.750397  0.167556  1
  Hf  Hf6  1  0.499980  0.249383  0.334449  1
  Hf  Hf7  1  0.499966  0.750619  0.334450  1
  Hf  Hf8  1  0.999976  0.249790  0.500248  1
  Hf  Hf9  1  0.000030  0.750210  0.500248  1
  Hf  Hf10  1  0.500062  0.250210  0.666415  1
  Hf  Hf11  1  0.500004  0.749793  0.666415  1
  Hf  Hf12  1  0.000032  0.250611  0.832218  1
  Hf  Hf13  1  0.000043  0.749391  0.832218  1
  Os  Os14  1  0.000013  0.499999  0.001768  1
  Os  Os15  1  0.499960  0.999998  0.164897  1
  Os  Os16  1  0.999973  0.500000  0.330643  1
  Os  Os17  1  0.500002  0.000000  0.499418  1
  Os  Os18  1  0.000031  0.500000  0.667246  1
  Os  Os19  1  0.500040  0.999999  0.836025  1
  Ru  Ru20  1  0.999963  0.999999  0.334341  1
  Ru  Ru21  1  0.500005  0.500000  0.500237  1
  Ru  Ru22  1  0.000033  0.000001  0.666431  1
  Ru  Ru23  1  0.500025  0.500000  0.832323  1
