# generated using pymatgen
data_Li2Mn2AlCuO8
_symmetry_space_group_name_H-M   'P 1'
_cell_length_a   5.97822243
_cell_length_b   5.66196654
_cell_length_c   5.97822209
_cell_angle_alpha   59.68239346
_cell_angle_beta   57.63971779
_cell_angle_gamma   59.68238299
_symmetry_Int_Tables_number   1
_chemical_formula_structural   Li2Mn2AlCuO8
_chemical_formula_sum   'Li2 Mn2 Al1 Cu1 O8'
_cell_volume   139.70635058
_cell_formula_units_Z   1
loop_
 _symmetry_equiv_pos_site_id
 _symmetry_equiv_pos_as_xyz
  1  'x, y, z'
loop_
 _atom_site_type_symbol
 _atom_site_label
 _atom_site_symmetry_multiplicity
 _atom_site_fract_x
 _atom_site_fract_y
 _atom_site_fract_z
 _atom_site_occupancy
  Li  Li0  1  0.511870  0.473812  0.511870  1
  Li  Li1  1  0.738130  0.776188  0.738130  1
  Mn  Mn2  1  0.625000  0.125000  0.125000  1
  Mn  Mn3  1  0.125000  0.125000  0.625000  1
  Al  Al4  1  0.125000  0.625000  0.125000  1
  Cu  Cu5  1  0.125000  0.125000  0.125000  1
  O  O6  1  0.928385  0.346669  0.366434  1
  O  O7  1  0.400530  0.883623  0.400530  1
  O  O8  1  0.366434  0.346669  0.928385  1
  O  O9  1  0.352571  0.381391  0.352571  1
  O  O10  1  0.321615  0.903331  0.883566  1
  O  O11  1  0.849470  0.366377  0.849470  1
  O  O12  1  0.883566  0.903331  0.321615  1
  O  O13  1  0.897429  0.868609  0.897429  1
