# generated using pymatgen
data_Na3Gd16HoSn16
_symmetry_space_group_name_H-M   'P 1'
_cell_length_a   8.03117100
_cell_length_b   8.19266802
_cell_length_c   15.49778600
_cell_angle_alpha   90.00000000
_cell_angle_beta   90.00000000
_cell_angle_gamma   90.00430103
_symmetry_Int_Tables_number   1
_chemical_formula_structural   Na3Gd16HoSn16
_chemical_formula_sum   'Na3 Gd16 Ho1 Sn16'
_cell_volume   1019.70344971
_cell_formula_units_Z   1
loop_
 _symmetry_equiv_pos_site_id
 _symmetry_equiv_pos_as_xyz
  1  'x, y, z'
loop_
 _atom_site_type_symbol
 _atom_site_label
 _atom_site_symmetry_multiplicity
 _atom_site_fract_x
 _atom_site_fract_y
 _atom_site_fract_z
 _atom_site_occupancy
  Na  Na0  1  0.694410  0.000194  0.750000  1
  Na  Na1  1  0.806973  0.499361  0.250000  1
  Na  Na2  1  0.306859  0.000741  0.250000  1
  Gd  Gd3  1  0.368598  0.837455  0.876637  1
  Gd  Gd4  1  0.862831  0.666888  0.622480  1
  Gd  Gd5  1  0.632428  0.167743  0.375443  1
  Gd  Gd6  1  0.132547  0.336279  0.122584  1
  Gd  Gd7  1  0.632428  0.167743  0.124557  1
  Gd  Gd8  1  0.132547  0.336279  0.377416  1
  Gd  Gd9  1  0.368598  0.837455  0.623363  1
  Gd  Gd10  1  0.862831  0.666888  0.877520  1
  Gd  Gd11  1  0.518259  0.316168  0.904251  1
  Gd  Gd12  1  0.011770  0.180253  0.594647  1
  Gd  Gd13  1  0.486963  0.684300  0.404891  1
  Gd  Gd14  1  0.985336  0.815786  0.095821  1
  Gd  Gd15  1  0.486963  0.684300  0.095109  1
  Gd  Gd16  1  0.985336  0.815786  0.404179  1
  Gd  Gd17  1  0.518259  0.316168  0.595749  1
  Gd  Gd18  1  0.011770  0.180253  0.905353  1
  Ho  Ho19  1  0.192546  0.501208  0.750000  1
  Sn  Sn20  1  0.298354  0.037750  0.039768  1
  Sn  Sn21  1  0.795507  0.462020  0.460255  1
  Sn  Sn22  1  0.700611  0.961481  0.537233  1
  Sn  Sn23  1  0.202548  0.534283  0.956763  1
  Sn  Sn24  1  0.700611  0.961481  0.962767  1
  Sn  Sn25  1  0.202548  0.534283  0.543237  1
  Sn  Sn26  1  0.298354  0.037750  0.460232  1
  Sn  Sn27  1  0.795507  0.462020  0.039745  1
  Sn  Sn28  1  0.560950  0.603529  0.750000  1
  Sn  Sn29  1  0.060628  0.889476  0.750000  1
  Sn  Sn30  1  0.437823  0.396956  0.250000  1
  Sn  Sn31  1  0.940407  0.104247  0.250000  1
  Sn  Sn32  1  0.316392  0.145524  0.750000  1
  Sn  Sn33  1  0.825938  0.358124  0.750000  1
  Sn  Sn34  1  0.683557  0.857338  0.250000  1
  Sn  Sn35  1  0.182016  0.642490  0.250000  1
