# generated using pymatgen
data_Ca5NpNbCdO12
_symmetry_space_group_name_H-M   'P 1'
_cell_length_a   5.92612708
_cell_length_b   5.64834378
_cell_length_c   10.04693887
_cell_angle_alpha   55.92892542
_cell_angle_beta   91.02579398
_cell_angle_gamma   90.02172856
_symmetry_Int_Tables_number   1
_chemical_formula_structural   Ca5NpNbCdO12
_chemical_formula_sum   'Ca5 Np1 Nb1 Cd1 O12'
_cell_volume   278.50762940
_cell_formula_units_Z   1
loop_
 _symmetry_equiv_pos_site_id
 _symmetry_equiv_pos_as_xyz
  1  'x, y, z'
loop_
 _atom_site_type_symbol
 _atom_site_label
 _atom_site_symmetry_multiplicity
 _atom_site_fract_x
 _atom_site_fract_y
 _atom_site_fract_z
 _atom_site_occupancy
  Ca  Ca0  1  0.053307  0.712334  0.784534  1
  Ca  Ca1  1  0.946693  0.287666  0.215466  1
  Ca  Ca2  1  0.561119  0.253218  0.771381  1
  Ca  Ca3  1  0.438881  0.746782  0.228619  1
  Ca  Ca4  1  0.000000  0.500000  0.500000  1
  Np  Np5  1  0.500000  0.000000  0.500000  1
  Nb  Nb6  1  0.000000  0.000000  0.000000  1
  Cd  Cd7  1  0.500000  0.500000  0.000000  1
  O  O8  1  0.432613  0.915736  0.721433  1
  O  O9  1  0.567387  0.084264  0.278567  1
  O  O10  1  0.940302  0.120505  0.770215  1
  O  O11  1  0.059698  0.879495  0.229785  1
  O  O12  1  0.782819  0.748914  0.587895  1
  O  O13  1  0.217181  0.251086  0.412105  1
  O  O14  1  0.283812  0.241276  0.935843  1
  O  O15  1  0.716188  0.758724  0.064157  1
  O  O16  1  0.327539  0.646264  0.565112  1
  O  O17  1  0.672461  0.353736  0.434888  1
  O  O18  1  0.818032  0.340251  0.955357  1
  O  O19  1  0.181968  0.659749  0.044643  1
