# generated using pymatgen
data_DyTm3ReB12Ir
_symmetry_space_group_name_H-M   'P 1'
_cell_length_a   3.64108600
_cell_length_b   9.10036549
_cell_length_c   11.49104902
_cell_angle_alpha   90.30573530
_cell_angle_beta   90.00000000
_cell_angle_gamma   90.00000000
_symmetry_Int_Tables_number   1
_chemical_formula_structural   DyTm3ReB12Ir
_chemical_formula_sum   'Dy2 Tm6 Re2 B24 Ir2'
_cell_volume   380.75294072
_cell_formula_units_Z   2
loop_
 _symmetry_equiv_pos_site_id
 _symmetry_equiv_pos_as_xyz
  1  'x, y, z'
loop_
 _atom_site_type_symbol
 _atom_site_label
 _atom_site_symmetry_multiplicity
 _atom_site_fract_x
 _atom_site_fract_y
 _atom_site_fract_z
 _atom_site_occupancy
  Dy  Dy0  1  0.000000  0.316954  0.409933  1
  Dy  Dy1  1  0.000000  0.683046  0.590067  1
  Tm  Tm2  1  0.000000  0.826394  0.081948  1
  Tm  Tm3  1  0.000000  0.173606  0.918052  1
  Tm  Tm4  1  0.000000  0.946226  0.372139  1
  Tm  Tm5  1  0.000000  0.053774  0.627861  1
  Tm  Tm6  1  0.000000  0.441573  0.125427  1
  Tm  Tm7  1  0.000000  0.558427  0.874573  1
  Re  Re8  1  0.000000  0.137803  0.179470  1
  Re  Re9  1  0.000000  0.862197  0.820530  1
  B  B10  1  0.500000  0.554334  0.433762  1
  B  B11  1  0.500000  0.445666  0.566238  1
  B  B12  1  0.500000  0.052941  0.066720  1
  B  B13  1  0.500000  0.947059  0.933280  1
  B  B14  1  0.500000  0.750221  0.420900  1
  B  B15  1  0.500000  0.249779  0.579100  1
  B  B16  1  0.500000  0.248327  0.080066  1
  B  B17  1  0.500000  0.751673  0.919934  1
  B  B18  1  0.500000  0.791669  0.265429  1
  B  B19  1  0.500000  0.208331  0.734571  1
  B  B20  1  0.500000  0.292524  0.233955  1
  B  B21  1  0.500000  0.707476  0.766045  1
  B  B22  1  0.500000  0.631660  0.183295  1
  B  B23  1  0.500000  0.368340  0.816705  1
  B  B24  1  0.500000  0.130926  0.314777  1
  B  B25  1  0.500000  0.869074  0.685223  1
  B  B26  1  0.500000  0.981706  0.212966  1
  B  B27  1  0.500000  0.018294  0.787034  1
  B  B28  1  0.500000  0.482211  0.286676  1
  B  B29  1  0.500000  0.517789  0.713324  1
  B  B30  1  0.500000  0.606127  0.029753  1
  B  B31  1  0.500000  0.393873  0.970247  1
  B  B32  1  0.500000  0.105471  0.471402  1
  B  B33  1  0.500000  0.894529  0.528598  1
  Ir  Ir34  1  0.000000  0.637324  0.321288  1
  Ir  Ir35  1  0.000000  0.362676  0.678712  1
