# generated using pymatgen
data_LiUAsN
_symmetry_space_group_name_H-M   'P 1'
_cell_length_a   3.82169978
_cell_length_b   3.82169976
_cell_length_c   8.78620900
_cell_angle_alpha   90.00000000
_cell_angle_beta   90.00000000
_cell_angle_gamma   90.00025487
_symmetry_Int_Tables_number   1
_chemical_formula_structural   LiUAsN
_chemical_formula_sum   'Li2 U2 As2 N2'
_cell_volume   128.32600140
_cell_formula_units_Z   2
loop_
 _symmetry_equiv_pos_site_id
 _symmetry_equiv_pos_as_xyz
  1  'x, y, z'
loop_
 _atom_site_type_symbol
 _atom_site_label
 _atom_site_symmetry_multiplicity
 _atom_site_fract_x
 _atom_site_fract_y
 _atom_site_fract_z
 _atom_site_occupancy
  Li  Li0  1  0.749999  0.249999  0.500001  1
  Li  Li1  1  0.249999  0.749999  0.500001  1
  U  U2  1  0.250000  0.250000  0.135254  1
  U  U3  1  0.749999  0.749999  0.864746  1
  As  As4  1  0.749999  0.749999  0.304727  1
  As  As5  1  0.250000  0.250000  0.695272  1
  N  N6  1  0.749999  0.249999  0.000000  1
  N  N7  1  0.249999  0.749999  0.000000  1
