# generated using pymatgen
data_Np4Ga10Ge2Rh
_symmetry_space_group_name_H-M   'P 1'
_cell_length_a   7.46581614
_cell_length_b   7.46959298
_cell_length_c   7.46581720
_cell_angle_alpha   109.93783081
_cell_angle_beta   110.13510842
_cell_angle_gamma   108.32658691
_symmetry_Int_Tables_number   1
_chemical_formula_structural   Np4Ga10Ge2Rh
_chemical_formula_sum   'Np4 Ga10 Ge2 Rh1'
_cell_volume   320.48535637
_cell_formula_units_Z   1
loop_
 _symmetry_equiv_pos_site_id
 _symmetry_equiv_pos_as_xyz
  1  'x, y, z'
loop_
 _atom_site_type_symbol
 _atom_site_label
 _atom_site_symmetry_multiplicity
 _atom_site_fract_x
 _atom_site_fract_y
 _atom_site_fract_z
 _atom_site_occupancy
  Np  Np0  1  0.509442  0.499791  0.503779  1
  Np  Np1  1  0.996011  0.499791  0.990349  1
  Np  Np2  1  0.996964  0.001900  0.503645  1
  Np  Np3  1  0.498254  0.001900  0.004936  1
  Ga  Ga4  1  0.286424  0.997266  0.295596  1
  Ga  Ga5  1  0.496476  0.247048  0.750572  1
  Ga  Ga6  1  0.752301  0.500052  0.245515  1
  Ga  Ga7  1  0.250917  0.747437  0.496521  1
  Ga  Ga8  1  0.254537  0.500052  0.747750  1
  Ga  Ga9  1  0.701670  0.997266  0.710842  1
  Ga  Ga10  1  0.497002  0.747299  0.250297  1
  Ga  Ga11  1  0.709749  0.713102  0.003353  1
  Ga  Ga12  1  0.290304  0.293163  0.002859  1
  Ga  Ga13  1  0.005596  0.295817  0.290222  1
  Ge  Ge14  1  0.747743  0.244619  0.496876  1
  Ge  Ge15  1  0.006576  0.715622  0.709045  1
  Rh  Rh16  1  0.000033  0.997876  0.997844  1
