# generated using pymatgen
data_Pr3Dy(TmBi)6
_symmetry_space_group_name_H-M   'P 1'
_cell_length_a   8.33716900
_cell_length_b   9.48757000
_cell_length_c   12.26466100
_cell_angle_alpha   90.00000000
_cell_angle_beta   90.00000000
_cell_angle_gamma   90.00000000
_symmetry_Int_Tables_number   1
_chemical_formula_structural   Pr3Dy(TmBi)6
_chemical_formula_sum   'Pr6 Dy2 Tm12 Bi12'
_cell_volume   970.12823989
_cell_formula_units_Z   2
loop_
 _symmetry_equiv_pos_site_id
 _symmetry_equiv_pos_as_xyz
  1  'x, y, z'
loop_
 _atom_site_type_symbol
 _atom_site_label
 _atom_site_symmetry_multiplicity
 _atom_site_fract_x
 _atom_site_fract_y
 _atom_site_fract_z
 _atom_site_occupancy
  Pr  Pr0  1  0.185554  0.750000  0.720320  1
  Pr  Pr1  1  0.685554  0.750000  0.779680  1
  Pr  Pr2  1  0.816421  0.250000  0.280130  1
  Pr  Pr3  1  0.316421  0.250000  0.219870  1
  Pr  Pr4  1  0.352764  0.750000  0.215860  1
  Pr  Pr5  1  0.852764  0.750000  0.284140  1
  Dy  Dy6  1  0.646876  0.250000  0.782832  1
  Dy  Dy7  1  0.146876  0.250000  0.717168  1
  Tm  Tm8  1  0.024524  0.750000  0.986781  1
  Tm  Tm9  1  0.524524  0.750000  0.513219  1
  Tm  Tm10  1  0.975414  0.250000  0.009873  1
  Tm  Tm11  1  0.475414  0.250000  0.490127  1
  Tm  Tm12  1  0.307983  0.433698  0.939111  1
  Tm  Tm13  1  0.807983  0.066302  0.560889  1
  Tm  Tm14  1  0.691788  0.934050  0.057714  1
  Tm  Tm15  1  0.191788  0.565950  0.442286  1
  Tm  Tm16  1  0.691788  0.565950  0.057714  1
  Tm  Tm17  1  0.191788  0.934050  0.442286  1
  Tm  Tm18  1  0.307983  0.066302  0.939111  1
  Tm  Tm19  1  0.807983  0.433698  0.560889  1
  Bi  Bi20  1  0.435056  0.009192  0.670345  1
  Bi  Bi21  1  0.935056  0.490808  0.829655  1
  Bi  Bi22  1  0.564544  0.504204  0.333588  1
  Bi  Bi23  1  0.064544  0.995796  0.166412  1
  Bi  Bi24  1  0.564544  0.995796  0.333588  1
  Bi  Bi25  1  0.064544  0.504204  0.166412  1
  Bi  Bi26  1  0.435056  0.490808  0.670345  1
  Bi  Bi27  1  0.935056  0.009192  0.829655  1
  Bi  Bi28  1  0.404953  0.750000  0.957183  1
  Bi  Bi29  1  0.904953  0.750000  0.542817  1
  Bi  Bi30  1  0.594752  0.250000  0.037301  1
  Bi  Bi31  1  0.094752  0.250000  0.462699  1
