# generated using pymatgen
data_Lu12InSi4Os
_symmetry_space_group_name_H-M   'P 1'
_cell_length_a   8.27420654
_cell_length_b   8.27420704
_cell_length_c   8.27420700
_cell_angle_alpha   111.50963812
_cell_angle_beta   112.55175059
_cell_angle_gamma   104.46713196
_symmetry_Int_Tables_number   1
_chemical_formula_structural   Lu12InSi4Os
_chemical_formula_sum   'Lu12 In1 Si4 Os1'
_cell_volume   433.56584595
_cell_formula_units_Z   1
loop_
 _symmetry_equiv_pos_site_id
 _symmetry_equiv_pos_as_xyz
  1  'x, y, z'
loop_
 _atom_site_type_symbol
 _atom_site_label
 _atom_site_symmetry_multiplicity
 _atom_site_fract_x
 _atom_site_fract_y
 _atom_site_fract_z
 _atom_site_occupancy
  Lu  Lu0  1  0.424539  0.233425  0.191114  1
  Lu  Lu1  1  0.575461  0.766575  0.808886  1
  Lu  Lu2  1  0.042311  0.233425  0.808886  1
  Lu  Lu3  1  0.957689  0.766575  0.191114  1
  Lu  Lu4  1  0.176407  0.264204  0.440612  1
  Lu  Lu5  1  0.823593  0.735796  0.559388  1
  Lu  Lu6  1  0.176407  0.735796  0.912204  1
  Lu  Lu7  1  0.823593  0.264204  0.087796  1
  Lu  Lu8  1  0.319620  0.618147  0.298525  1
  Lu  Lu9  1  0.680380  0.381853  0.701475  1
  Lu  Lu10  1  0.319620  0.021095  0.701475  1
  Lu  Lu11  1  0.680380  0.978905  0.298525  1
  In  In12  1  0.500000  0.500000  0.000000  1
  Si  Si13  1  0.360622  0.000000  0.360622  1
  Si  Si14  1  0.639378  0.000000  0.639378  1
  Si  Si15  1  0.118413  0.618413  0.500000  1
  Si  Si16  1  0.881587  0.381587  0.500000  1
  Os  Os17  1  0.000000  0.000000  0.000000  1
