# generated using pymatgen
data_CdRhIO6
_symmetry_space_group_name_H-M   'P 1'
_cell_length_a   5.26145100
_cell_length_b   5.26145242
_cell_length_c   4.88656900
_cell_angle_alpha   90.00000000
_cell_angle_beta   90.00000000
_cell_angle_gamma   120.00000994
_symmetry_Int_Tables_number   1
_chemical_formula_structural   CdRhIO6
_chemical_formula_sum   'Cd1 Rh1 I1 O6'
_cell_volume   117.15094636
_cell_formula_units_Z   1
loop_
 _symmetry_equiv_pos_site_id
 _symmetry_equiv_pos_as_xyz
  1  'x, y, z'
loop_
 _atom_site_type_symbol
 _atom_site_label
 _atom_site_symmetry_multiplicity
 _atom_site_fract_x
 _atom_site_fract_y
 _atom_site_fract_z
 _atom_site_occupancy
  Cd  Cd0  1  0.333333  0.666667  0.000000  1
  Rh  Rh1  1  0.666667  0.333333  0.500000  1
  I  I2  1  0.000000  0.000000  0.500000  1
  O  O3  1  0.323059  0.025601  0.720696  1
  O  O4  1  0.974399  0.676941  0.279304  1
  O  O5  1  0.323059  0.297457  0.279304  1
  O  O6  1  0.702543  0.025601  0.279304  1
  O  O7  1  0.974399  0.297457  0.720696  1
  O  O8  1  0.702543  0.676941  0.720696  1
