# generated using pymatgen
data_SrYb(S2O7)2
_symmetry_space_group_name_H-M   'P 1'
_cell_length_a   5.49502346
_cell_length_b   7.35931536
_cell_length_c   9.48803351
_cell_angle_alpha   92.85226078
_cell_angle_beta   96.49216298
_cell_angle_gamma   108.51960769
_symmetry_Int_Tables_number   1
_chemical_formula_structural   SrYb(S2O7)2
_chemical_formula_sum   'Sr1 Yb1 S4 O14'
_cell_volume   359.99204073
_cell_formula_units_Z   1
loop_
 _symmetry_equiv_pos_site_id
 _symmetry_equiv_pos_as_xyz
  1  'x, y, z'
loop_
 _atom_site_type_symbol
 _atom_site_label
 _atom_site_symmetry_multiplicity
 _atom_site_fract_x
 _atom_site_fract_y
 _atom_site_fract_z
 _atom_site_occupancy
  Sr  Sr0  1  0.000000  0.500000  0.000000  1
  Yb  Yb1  1  0.500000  0.000000  0.500000  1
  S  S2  1  0.500875  0.645361  0.758880  1
  S  S3  1  0.499125  0.354639  0.241120  1
  S  S4  1  0.145571  0.251677  0.683232  1
  S  S5  1  0.854429  0.748323  0.316768  1
  O  O6  1  0.707267  0.567281  0.802780  1
  O  O7  1  0.292733  0.432719  0.197220  1
  O  O8  1  0.367220  0.684918  0.875073  1
  O  O9  1  0.632780  0.315082  0.124927  1
  O  O10  1  0.572311  0.799911  0.666664  1
  O  O11  1  0.427689  0.200089  0.333336  1
  O  O12  1  0.281335  0.477248  0.645922  1
  O  O13  1  0.718665  0.522752  0.354078  1
  O  O14  1  0.922168  0.190957  0.573263  1
  O  O15  1  0.077832  0.809043  0.426737  1
  O  O16  1  0.336875  0.156242  0.666618  1
  O  O17  1  0.663125  0.843758  0.333382  1
  O  O18  1  0.083698  0.261799  0.828153  1
  O  O19  1  0.916302  0.738201  0.171847  1
