# generated using pymatgen
data_NaCa(GdB12)2
_symmetry_space_group_name_H-M   'P 1'
_cell_length_a   7.14120016
_cell_length_b   7.14120085
_cell_length_c   5.85306100
_cell_angle_alpha   90.00000000
_cell_angle_beta   90.00000000
_cell_angle_gamma   109.34918968
_symmetry_Int_Tables_number   1
_chemical_formula_structural   NaCa(GdB12)2
_chemical_formula_sum   'Na1 Ca1 Gd2 B24'
_cell_volume   281.62756800
_cell_formula_units_Z   1
loop_
 _symmetry_equiv_pos_site_id
 _symmetry_equiv_pos_as_xyz
  1  'x, y, z'
loop_
 _atom_site_type_symbol
 _atom_site_label
 _atom_site_symmetry_multiplicity
 _atom_site_fract_x
 _atom_site_fract_y
 _atom_site_fract_z
 _atom_site_occupancy
  Na  Na0  1  0.000000  0.000000  0.000000  1
  Ca  Ca1  1  0.500000  0.500000  0.000000  1
  Gd  Gd2  1  0.752552  0.247448  0.500000  1
  Gd  Gd3  1  0.247448  0.752552  0.500000  1
  B  B4  1  0.175710  0.325140  0.649913  1
  B  B5  1  0.924453  0.574939  0.148811  1
  B  B6  1  0.674860  0.824290  0.649913  1
  B  B7  1  0.425061  0.075547  0.148811  1
  B  B8  1  0.175710  0.325140  0.350087  1
  B  B9  1  0.924453  0.574939  0.851189  1
  B  B10  1  0.674860  0.824290  0.350087  1
  B  B11  1  0.425061  0.075547  0.851189  1
  B  B12  1  0.399822  0.399822  0.500000  1
  B  B13  1  0.148776  0.650504  0.000000  1
  B  B14  1  0.899344  0.899344  0.500000  1
  B  B15  1  0.650504  0.148776  0.000000  1
  B  B16  1  0.325140  0.175710  0.649913  1
  B  B17  1  0.075547  0.425061  0.148811  1
  B  B18  1  0.824290  0.674860  0.649913  1
  B  B19  1  0.574939  0.924453  0.148811  1
  B  B20  1  0.100656  0.100656  0.500000  1
  B  B21  1  0.851224  0.349496  0.000000  1
  B  B22  1  0.600178  0.600178  0.500000  1
  B  B23  1  0.349496  0.851224  0.000000  1
  B  B24  1  0.325140  0.175710  0.350087  1
  B  B25  1  0.075547  0.425061  0.851189  1
  B  B26  1  0.824290  0.674860  0.350087  1
  B  B27  1  0.574939  0.924453  0.851189  1
