# generated using pymatgen
data_TbDy(AgTe2)2
_symmetry_space_group_name_H-M   'P 1'
_cell_length_a   7.11953900
_cell_length_b   7.11953900
_cell_length_c   4.75189200
_cell_angle_alpha   90.00000000
_cell_angle_beta   90.00000000
_cell_angle_gamma   90.00362146
_symmetry_Int_Tables_number   1
_chemical_formula_structural   TbDy(AgTe2)2
_chemical_formula_sum   'Tb1 Dy1 Ag2 Te4'
_cell_volume   240.86312011
_cell_formula_units_Z   1
loop_
 _symmetry_equiv_pos_site_id
 _symmetry_equiv_pos_as_xyz
  1  'x, y, z'
loop_
 _atom_site_type_symbol
 _atom_site_label
 _atom_site_symmetry_multiplicity
 _atom_site_fract_x
 _atom_site_fract_y
 _atom_site_fract_z
 _atom_site_occupancy
  Tb  Tb0  1  0.500000  0.000000  0.187955  1
  Dy  Dy1  1  0.000000  0.500000  0.811846  1
  Ag  Ag2  1  0.000000  0.000000  0.000126  1
  Ag  Ag3  1  0.500000  0.500000  0.000126  1
  Te  Te4  1  0.201500  0.298500  0.291321  1
  Te  Te5  1  0.703047  0.203047  0.708652  1
  Te  Te6  1  0.798500  0.701500  0.291321  1
  Te  Te7  1  0.296953  0.796953  0.708652  1
