# generated using pymatgen
data_Sr20Ag3Au13
_symmetry_space_group_name_H-M   'P 1'
_cell_length_a   8.40304914
_cell_length_b   8.56260214
_cell_length_c   16.37292300
_cell_angle_alpha   90.00000000
_cell_angle_beta   90.00000000
_cell_angle_gamma   90.02084405
_symmetry_Int_Tables_number   1
_chemical_formula_structural   Sr20Ag3Au13
_chemical_formula_sum   'Sr20 Ag3 Au13'
_cell_volume   1178.06393013
_cell_formula_units_Z   1
loop_
 _symmetry_equiv_pos_site_id
 _symmetry_equiv_pos_as_xyz
  1  'x, y, z'
loop_
 _atom_site_type_symbol
 _atom_site_label
 _atom_site_symmetry_multiplicity
 _atom_site_fract_x
 _atom_site_fract_y
 _atom_site_fract_z
 _atom_site_occupancy
  Sr  Sr0  1  0.322443  0.828634  0.879972  1
  Sr  Sr1  1  0.823347  0.673651  0.619281  1
  Sr  Sr2  1  0.676536  0.174196  0.381554  1
  Sr  Sr3  1  0.176716  0.325742  0.118697  1
  Sr  Sr4  1  0.676536  0.174196  0.118446  1
  Sr  Sr5  1  0.176716  0.325742  0.381303  1
  Sr  Sr6  1  0.322443  0.828634  0.620028  1
  Sr  Sr7  1  0.823347  0.673651  0.880719  1
  Sr  Sr8  1  0.476327  0.321551  0.900252  1
  Sr  Sr9  1  0.981059  0.175171  0.599408  1
  Sr  Sr10  1  0.520733  0.675669  0.402635  1
  Sr  Sr11  1  0.020711  0.824227  0.097345  1
  Sr  Sr12  1  0.520733  0.675669  0.097365  1
  Sr  Sr13  1  0.020711  0.824227  0.402655  1
  Sr  Sr14  1  0.476327  0.321551  0.599748  1
  Sr  Sr15  1  0.981059  0.175171  0.900592  1
  Sr  Sr16  1  0.159032  0.488743  0.750000  1
  Sr  Sr17  1  0.652818  0.008371  0.750000  1
  Sr  Sr18  1  0.842732  0.506218  0.250000  1
  Sr  Sr19  1  0.343376  0.992954  0.250000  1
  Ag  Ag20  1  0.772276  0.374512  0.750000  1
  Ag  Ag21  1  0.727692  0.873762  0.250000  1
  Ag  Ag22  1  0.227595  0.626318  0.250000  1
  Au  Au23  1  0.345698  0.015271  0.049440  1
  Au  Au24  1  0.846430  0.485357  0.450613  1
  Au  Au25  1  0.655619  0.984816  0.549395  1
  Au  Au26  1  0.154471  0.516609  0.950653  1
  Au  Au27  1  0.655619  0.984816  0.950605  1
  Au  Au28  1  0.154471  0.516609  0.549347  1
  Au  Au29  1  0.345698  0.015271  0.450560  1
  Au  Au30  1  0.846430  0.485357  0.049387  1
  Au  Au31  1  0.528999  0.608752  0.750000  1
  Au  Au32  1  0.026899  0.891432  0.750000  1
  Au  Au33  1  0.471229  0.391795  0.250000  1
  Au  Au34  1  0.970691  0.108557  0.250000  1
  Au  Au35  1  0.276485  0.126799  0.750000  1
