# generated using pymatgen
data_Y5P12Pd3Ru16
_symmetry_space_group_name_H-M   'P 1'
_cell_length_a   12.60717200
_cell_length_b   12.60717354
_cell_length_c   3.97837200
_cell_angle_alpha   90.00000000
_cell_angle_beta   90.00000000
_cell_angle_gamma   119.99999596
_symmetry_Int_Tables_number   1
_chemical_formula_structural   Y5P12Pd3Ru16
_chemical_formula_sum   'Y5 P12 Pd3 Ru16'
_cell_volume   547.61009803
_cell_formula_units_Z   1
loop_
 _symmetry_equiv_pos_site_id
 _symmetry_equiv_pos_as_xyz
  1  'x, y, z'
loop_
 _atom_site_type_symbol
 _atom_site_label
 _atom_site_symmetry_multiplicity
 _atom_site_fract_x
 _atom_site_fract_y
 _atom_site_fract_z
 _atom_site_occupancy
  Y  Y0  1  0.000000  0.181278  0.500000  1
  Y  Y1  1  0.818722  0.818722  0.500000  1
  Y  Y2  1  0.181278  0.000000  0.500000  1
  Y  Y3  1  0.666667  0.333333  0.000000  1
  Y  Y4  1  0.333333  0.666667  0.000000  1
  P  P5  1  0.000000  0.814226  0.000000  1
  P  P6  1  0.185774  0.185774  0.000000  1
  P  P7  1  0.814226  0.000000  0.000000  1
  P  P8  1  0.699092  0.179088  0.500000  1
  P  P9  1  0.820912  0.520004  0.500000  1
  P  P10  1  0.479996  0.300908  0.500000  1
  P  P11  1  0.179088  0.699092  0.500000  1
  P  P12  1  0.520004  0.820912  0.500000  1
  P  P13  1  0.300908  0.479996  0.500000  1
  P  P14  1  0.000000  0.366660  0.000000  1
  P  P15  1  0.633340  0.633340  0.000000  1
  P  P16  1  0.366660  0.000000  0.000000  1
  Pd  Pd17  1  0.000000  0.553430  0.000000  1
  Pd  Pd18  1  0.446570  0.446570  0.000000  1
  Pd  Pd19  1  0.553430  0.000000  0.000000  1
  Ru  Ru20  1  0.000000  0.712657  0.500000  1
  Ru  Ru21  1  0.287343  0.287343  0.500000  1
  Ru  Ru22  1  0.712657  0.000000  0.500000  1
  Ru  Ru23  1  0.807133  0.185738  0.000000  1
  Ru  Ru24  1  0.814262  0.621396  0.000000  1
  Ru  Ru25  1  0.378604  0.192867  0.000000  1
  Ru  Ru26  1  0.185738  0.807133  0.000000  1
  Ru  Ru27  1  0.621396  0.814262  0.000000  1
  Ru  Ru28  1  0.192867  0.378604  0.000000  1
  Ru  Ru29  1  0.875979  0.368860  0.500000  1
  Ru  Ru30  1  0.631140  0.507119  0.500000  1
  Ru  Ru31  1  0.492881  0.124021  0.500000  1
  Ru  Ru32  1  0.368860  0.875979  0.500000  1
  Ru  Ru33  1  0.507119  0.631140  0.500000  1
  Ru  Ru34  1  0.124021  0.492881  0.500000  1
  Ru  Ru35  1  0.000000  0.000000  0.000000  1
