# generated using pymatgen
data_Y3ErV4(WO6)4
_symmetry_space_group_name_H-M   'P 1'
_cell_length_a   5.23870616
_cell_length_b   7.43800572
_cell_length_c   11.18044124
_cell_angle_alpha   89.95151273
_cell_angle_beta   89.97618782
_cell_angle_gamma   90.01481739
_symmetry_Int_Tables_number   1
_chemical_formula_structural   Y3ErV4(WO6)4
_chemical_formula_sum   'Y3 Er1 V4 W4 O24'
_cell_volume   435.65157020
_cell_formula_units_Z   1
loop_
 _symmetry_equiv_pos_site_id
 _symmetry_equiv_pos_as_xyz
  1  'x, y, z'
loop_
 _atom_site_type_symbol
 _atom_site_label
 _atom_site_symmetry_multiplicity
 _atom_site_fract_x
 _atom_site_fract_y
 _atom_site_fract_z
 _atom_site_occupancy
  Y  Y0  1  0.543960  0.250816  0.045403  1
  Y  Y1  1  0.044623  0.750678  0.454455  1
  Y  Y2  1  0.955682  0.250682  0.545557  1
  Er  Er3  1  0.454187  0.750914  0.954222  1
  V  V4  1  0.050886  0.997215  0.133931  1
  V  V5  1  0.550730  0.498287  0.365655  1
  V  V6  1  0.449144  0.997895  0.634657  1
  V  V7  1  0.948768  0.498474  0.865672  1
  W  W8  1  0.056319  0.506558  0.142828  1
  W  W9  1  0.556577  0.006223  0.356551  1
  W  W10  1  0.443524  0.506257  0.643861  1
  W  W11  1  0.942829  0.005092  0.857001  1
  O  O12  1  0.755477  0.957714  0.019858  1
  O  O13  1  0.763314  0.548287  0.029305  1
  O  O14  1  0.182877  0.749424  0.114724  1
  O  O15  1  0.935387  0.258236  0.142474  1
  O  O16  1  0.374234  0.433634  0.206370  1
  O  O17  1  0.391329  0.068166  0.214009  1
  O  O18  1  0.892197  0.568609  0.285619  1
  O  O19  1  0.875006  0.933496  0.293575  1
  O  O20  1  0.435217  0.758127  0.356803  1
  O  O21  1  0.679633  0.249496  0.383709  1
  O  O22  1  0.265079  0.046408  0.470666  1
  O  O23  1  0.256967  0.459931  0.480197  1
  O  O24  1  0.743011  0.959797  0.520189  1
  O  O25  1  0.734807  0.546483  0.529449  1
  O  O26  1  0.320583  0.749422  0.616167  1
  O  O27  1  0.564890  0.258175  0.643528  1
  O  O28  1  0.124885  0.433573  0.706431  1
  O  O29  1  0.107574  0.067701  0.714137  1
  O  O30  1  0.607156  0.569257  0.786853  1
  O  O31  1  0.624046  0.931738  0.794725  1
  O  O32  1  0.068634  0.758049  0.857168  1
  O  O33  1  0.821070  0.249028  0.884086  1
  O  O34  1  0.235583  0.045221  0.970611  1
  O  O35  1  0.243813  0.461337  0.979555  1
