# generated using pymatgen
data_LaTb6Nd3Ir4
_symmetry_space_group_name_H-M   'P 1'
_cell_length_a   6.57578222
_cell_length_b   7.24425677
_cell_length_c   8.82580455
_cell_angle_alpha   96.78072088
_cell_angle_beta   111.77689173
_cell_angle_gamma   90.35355700
_symmetry_Int_Tables_number   1
_chemical_formula_structural   LaTb6Nd3Ir4
_chemical_formula_sum   'La1 Tb6 Nd3 Ir4'
_cell_volume   387.12724802
_cell_formula_units_Z   1
loop_
 _symmetry_equiv_pos_site_id
 _symmetry_equiv_pos_as_xyz
  1  'x, y, z'
loop_
 _atom_site_type_symbol
 _atom_site_label
 _atom_site_symmetry_multiplicity
 _atom_site_fract_x
 _atom_site_fract_y
 _atom_site_fract_z
 _atom_site_occupancy
  La  La0  1  0.977808  0.917890  0.190240  1
  Tb  Tb1  1  0.643129  0.814289  0.435805  1
  Tb  Tb2  1  0.208740  0.683383  0.564295  1
  Tb  Tb3  1  0.356771  0.186309  0.566265  1
  Tb  Tb4  1  0.791089  0.316487  0.436980  1
  Tb  Tb5  1  0.429304  0.749880  0.998920  1
  Tb  Tb6  1  0.569313  0.250062  0.999893  1
  Nd  Nd7  1  0.785468  0.577889  0.808587  1
  Nd  Nd8  1  0.022895  0.078953  0.808404  1
  Nd  Nd9  1  0.214709  0.421418  0.190201  1
  Ir  Ir10  1  0.815995  0.575512  0.226078  1
  Ir  Ir11  1  0.588513  0.927406  0.774594  1
  Ir  Ir12  1  0.185243  0.427072  0.773711  1
  Ir  Ir13  1  0.411022  0.073448  0.226027  1
