# generated using pymatgen
data_Ce3Sm(Rh2Au)2
_symmetry_space_group_name_H-M   'P 1'
_cell_length_a   7.55956639
_cell_length_b   7.55956681
_cell_length_c   3.70308900
_cell_angle_alpha   90.00000000
_cell_angle_beta   90.00000000
_cell_angle_gamma   88.13907635
_symmetry_Int_Tables_number   1
_chemical_formula_structural   Ce3Sm(Rh2Au)2
_chemical_formula_sum   'Ce3 Sm1 Rh4 Au2'
_cell_volume   211.50899232
_cell_formula_units_Z   1
loop_
 _symmetry_equiv_pos_site_id
 _symmetry_equiv_pos_as_xyz
  1  'x, y, z'
loop_
 _atom_site_type_symbol
 _atom_site_label
 _atom_site_symmetry_multiplicity
 _atom_site_fract_x
 _atom_site_fract_y
 _atom_site_fract_z
 _atom_site_occupancy
  Ce  Ce0  1  0.327879  0.827879  0.500000  1
  Ce  Ce1  1  0.169832  0.326560  0.500000  1
  Ce  Ce2  1  0.826560  0.669832  0.500000  1
  Sm  Sm3  1  0.672162  0.172162  0.500000  1
  Rh  Rh4  1  0.143630  0.643630  0.000000  1
  Rh  Rh5  1  0.880217  0.380217  0.000000  1
  Rh  Rh6  1  0.632827  0.854051  0.000000  1
  Rh  Rh7  1  0.354051  0.132827  0.000000  1
  Au  Au8  1  0.990915  0.001925  0.000000  1
  Au  Au9  1  0.501925  0.490915  0.000000  1
