# generated using pymatgen
data_Y6Ho(TmSn2)3
_symmetry_space_group_name_H-M   'P 1'
_cell_length_a   6.50918000
_cell_length_b   8.94776161
_cell_length_c   8.94839800
_cell_angle_alpha   119.99789783
_cell_angle_beta   90.00066979
_cell_angle_gamma   89.99905543
_symmetry_Int_Tables_number   1
_chemical_formula_structural   Y6Ho(TmSn2)3
_chemical_formula_sum   'Y6 Ho1 Tm3 Sn6'
_cell_volume   451.36284826
_cell_formula_units_Z   1
loop_
 _symmetry_equiv_pos_site_id
 _symmetry_equiv_pos_as_xyz
  1  'x, y, z'
loop_
 _atom_site_type_symbol
 _atom_site_label
 _atom_site_symmetry_multiplicity
 _atom_site_fract_x
 _atom_site_fract_y
 _atom_site_fract_z
 _atom_site_occupancy
  Y  Y0  1  0.750167  0.239757  0.000086  1
  Y  Y1  1  0.750158  0.760244  0.760208  1
  Y  Y2  1  0.750160  0.999864  0.239704  1
  Y  Y3  1  0.249839  0.760331  0.000084  1
  Y  Y4  1  0.249837  0.239839  0.239702  1
  Y  Y5  1  0.249836  0.999965  0.760210  1
  Ho  Ho6  1  0.500002  0.333343  0.666703  1
  Tm  Tm7  1  0.500000  0.666638  0.333290  1
  Tm  Tm8  1  0.000001  0.666652  0.333288  1
  Tm  Tm9  1  0.000003  0.333361  0.666709  1
  Sn  Sn10  1  0.750526  0.604908  0.000551  1
  Sn  Sn11  1  0.750536  0.395562  0.395012  1
  Sn  Sn12  1  0.750531  0.999456  0.604447  1
  Sn  Sn13  1  0.249469  0.395643  0.000551  1
  Sn  Sn14  1  0.249469  0.604991  0.604445  1
  Sn  Sn15  1  0.249466  0.999446  0.395009  1
