# generated using pymatgen
data_La4TbSm3(SiBr6)2
_symmetry_space_group_name_H-M   'P 1'
_cell_length_a   4.21881900
_cell_length_b   13.71245659
_cell_length_c   14.57874011
_cell_angle_alpha   89.77205694
_cell_angle_beta   90.00000000
_cell_angle_gamma   90.00000000
_symmetry_Int_Tables_number   1
_chemical_formula_structural   La4TbSm3(SiBr6)2
_chemical_formula_sum   'La4 Tb1 Sm3 Si2 Br12'
_cell_volume   843.37887045
_cell_formula_units_Z   1
loop_
 _symmetry_equiv_pos_site_id
 _symmetry_equiv_pos_as_xyz
  1  'x, y, z'
loop_
 _atom_site_type_symbol
 _atom_site_label
 _atom_site_symmetry_multiplicity
 _atom_site_fract_x
 _atom_site_fract_y
 _atom_site_fract_z
 _atom_site_occupancy
  La  La0  1  0.500000  0.122367  0.336615  1
  La  La1  1  0.500000  0.878324  0.662503  1
  La  La2  1  0.500000  0.620356  0.162423  1
  La  La3  1  0.500000  0.378097  0.838557  1
  Tb  Tb4  1  0.000000  0.384656  0.076046  1
  Sm  Sm5  1  0.000000  0.117112  0.576654  1
  Sm  Sm6  1  0.000000  0.883337  0.422656  1
  Sm  Sm7  1  0.000000  0.615854  0.923533  1
  Si  Si8  1  0.500000  0.000346  0.499488  1
  Si  Si9  1  0.500000  0.498589  0.000911  1
  Br  Br10  1  0.500000  0.253332  0.157772  1
  Br  Br11  1  0.500000  0.750876  0.841212  1
  Br  Br12  1  0.500000  0.748413  0.340865  1
  Br  Br13  1  0.500000  0.251199  0.659547  1
  Br  Br14  1  0.000000  0.257293  0.415731  1
  Br  Br15  1  0.000000  0.743149  0.583738  1
  Br  Br16  1  0.000000  0.756111  0.083667  1
  Br  Br17  1  0.000000  0.244036  0.920564  1
  Br  Br18  1  0.000000  0.997024  0.243983  1
  Br  Br19  1  0.000000  0.003774  0.755302  1
  Br  Br20  1  0.000000  0.492209  0.253015  1
  Br  Br21  1  0.000000  0.503544  0.745218  1
