# generated using pymatgen
data_Y4HoPd9
_symmetry_space_group_name_H-M   'P 1'
_cell_length_a   9.79501000
_cell_length_b   9.79501000
_cell_length_c   5.78649400
_cell_angle_alpha   90.00000000
_cell_angle_beta   90.00000000
_cell_angle_gamma   90.00000000
_symmetry_Int_Tables_number   1
_chemical_formula_structural   Y4HoPd9
_chemical_formula_sum   'Y8 Ho2 Pd18'
_cell_volume   555.16908559
_cell_formula_units_Z   2
loop_
 _symmetry_equiv_pos_site_id
 _symmetry_equiv_pos_as_xyz
  1  'x, y, z'
loop_
 _atom_site_type_symbol
 _atom_site_label
 _atom_site_symmetry_multiplicity
 _atom_site_fract_x
 _atom_site_fract_y
 _atom_site_fract_z
 _atom_site_occupancy
  Y  Y0  1  0.453957  0.808101  0.000000  1
  Y  Y1  1  0.546043  0.191899  0.000000  1
  Y  Y2  1  0.191899  0.546043  0.000000  1
  Y  Y3  1  0.808101  0.453957  0.000000  1
  Y  Y4  1  0.308101  0.046043  0.500000  1
  Y  Y5  1  0.691899  0.953957  0.500000  1
  Y  Y6  1  0.953957  0.691899  0.500000  1
  Y  Y7  1  0.046043  0.308101  0.500000  1
  Ho  Ho8  1  0.500000  0.500000  0.500000  1
  Ho  Ho9  1  0.000000  0.000000  0.000000  1
  Pd  Pd10  1  0.190818  0.809182  0.249598  1
  Pd  Pd11  1  0.809182  0.190818  0.750402  1
  Pd  Pd12  1  0.809182  0.190818  0.249598  1
  Pd  Pd13  1  0.190818  0.809182  0.750402  1
  Pd  Pd14  1  0.439183  0.778905  0.500000  1
  Pd  Pd15  1  0.560817  0.221095  0.500000  1
  Pd  Pd16  1  0.221095  0.560817  0.500000  1
  Pd  Pd17  1  0.778905  0.439183  0.500000  1
  Pd  Pd18  1  0.309182  0.309182  0.250402  1
  Pd  Pd19  1  0.690818  0.690818  0.749598  1
  Pd  Pd20  1  0.690818  0.690818  0.250402  1
  Pd  Pd21  1  0.309182  0.309182  0.749598  1
  Pd  Pd22  1  0.278905  0.060817  0.000000  1
  Pd  Pd23  1  0.721095  0.939183  0.000000  1
  Pd  Pd24  1  0.939183  0.721095  0.000000  1
  Pd  Pd25  1  0.060817  0.278905  0.000000  1
  Pd  Pd26  1  0.000000  0.000000  0.500000  1
  Pd  Pd27  1  0.500000  0.500000  0.000000  1
