# generated using pymatgen
data_Y5HoCo2(P3Ir4)4
_symmetry_space_group_name_H-M   'P 1'
_cell_length_a   3.93490400
_cell_length_b   11.11099800
_cell_length_c   12.79557100
_cell_angle_alpha   90.00238364
_cell_angle_beta   89.99976261
_cell_angle_gamma   90.00003003
_symmetry_Int_Tables_number   1
_chemical_formula_structural   Y5HoCo2(P3Ir4)4
_chemical_formula_sum   'Y5 Ho1 Co2 P12 Ir16'
_cell_volume   559.43145480
_cell_formula_units_Z   1
loop_
 _symmetry_equiv_pos_site_id
 _symmetry_equiv_pos_as_xyz
  1  'x, y, z'
loop_
 _atom_site_type_symbol
 _atom_site_label
 _atom_site_symmetry_multiplicity
 _atom_site_fract_x
 _atom_site_fract_y
 _atom_site_fract_z
 _atom_site_occupancy
  Y  Y0  1  0.000000  0.499955  0.522368  1
  Y  Y1  1  0.500001  0.999880  0.477511  1
  Y  Y2  1  0.500000  0.184149  0.200497  1
  Y  Y3  1  0.000000  0.684216  0.799523  1
  Y  Y4  1  0.000001  0.315936  0.799634  1
  Ho  Ho5  1  0.499999  0.815768  0.200471  1
  Co  Co6  1  0.999998  0.500163  0.977519  1
  Co  Co7  1  0.500000  0.999729  0.023133  1
  P  P8  1  0.499999  0.500080  0.880445  1
  P  P9  1  0.999999  0.999651  0.119800  1
  P  P10  1  0.500001  0.499743  0.357700  1
  P  P11  1  0.000000  0.999906  0.642303  1
  P  P12  1  0.500000  0.315451  0.619295  1
  P  P13  1  0.499999  0.684438  0.619073  1
  P  P14  1  0.000000  0.184342  0.380766  1
  P  P15  1  0.000001  0.815411  0.380375  1
  P  P16  1  0.499999  0.852546  0.896601  1
  P  P17  1  0.500000  0.147690  0.896807  1
  P  P18  1  0.999999  0.648519  0.103261  1
  P  P19  1  0.000001  0.352358  0.103457  1
  Ir  Ir20  1  0.500006  0.500320  0.178040  1
  Ir  Ir21  1  0.999997  0.999643  0.822027  1
  Ir  Ir22  1  0.499999  0.500021  0.702565  1
  Ir  Ir23  1  0.000000  0.999616  0.297234  1
  Ir  Ir24  1  0.500000  0.339270  0.997821  1
  Ir  Ir25  1  0.499996  0.660924  0.997852  1
  Ir  Ir26  1  0.000000  0.160541  0.002310  1
  Ir  Ir27  1  0.000002  0.839229  0.002700  1
  Ir  Ir28  1  0.500000  0.292748  0.429463  1
  Ir  Ir29  1  0.500001  0.706978  0.429062  1
  Ir  Ir30  1  0.000002  0.206818  0.570590  1
  Ir  Ir31  1  0.000000  0.792909  0.570332  1
  Ir  Ir32  1  0.499997  0.870497  0.714585  1
  Ir  Ir33  1  0.499998  0.129445  0.714956  1
  Ir  Ir34  1  0.000004  0.630323  0.284561  1
  Ir  Ir35  1  0.000003  0.370786  0.285360  1
