# generated using pymatgen
data_Tb11In9(CuPt)2
_symmetry_space_group_name_H-M   'P 1'
_cell_length_a   3.68774900
_cell_length_b   13.15771985
_cell_length_c   13.12759000
_cell_angle_alpha   110.76585080
_cell_angle_beta   90.00000000
_cell_angle_gamma   90.00000000
_symmetry_Int_Tables_number   1
_chemical_formula_structural   Tb11In9(CuPt)2
_chemical_formula_sum   'Tb11 In9 Cu2 Pt2'
_cell_volume   595.60161189
_cell_formula_units_Z   1
loop_
 _symmetry_equiv_pos_site_id
 _symmetry_equiv_pos_as_xyz
  1  'x, y, z'
loop_
 _atom_site_type_symbol
 _atom_site_label
 _atom_site_symmetry_multiplicity
 _atom_site_fract_x
 _atom_site_fract_y
 _atom_site_fract_z
 _atom_site_occupancy
  Tb  Tb0  1  0.000000  0.926640  0.581507  1
  Tb  Tb1  1  0.000000  0.073360  0.418493  1
  Tb  Tb2  1  0.000000  0.582959  0.927427  1
  Tb  Tb3  1  0.000000  0.417041  0.072573  1
  Tb  Tb4  1  0.000000  0.158193  0.840947  1
  Tb  Tb5  1  0.000000  0.841807  0.159053  1
  Tb  Tb6  1  0.000000  0.373805  0.630377  1
  Tb  Tb7  1  0.000000  0.626195  0.369623  1
  Tb  Tb8  1  0.000000  0.690745  0.690405  1
  Tb  Tb9  1  0.000000  0.309255  0.309595  1
  Tb  Tb10  1  0.000000  0.000000  0.000000  1
  In  In11  1  0.500000  0.158366  0.632286  1
  In  In12  1  0.500000  0.841634  0.367714  1
  In  In13  1  0.500000  0.633633  0.156422  1
  In  In14  1  0.500000  0.366367  0.843578  1
  In  In15  1  0.500000  0.926679  0.780643  1
  In  In16  1  0.500000  0.073321  0.219357  1
  In  In17  1  0.500000  0.783276  0.926091  1
  In  In18  1  0.500000  0.216724  0.073909  1
  In  In19  1  0.500000  0.500000  0.500000  1
  Cu  Cu20  1  0.500000  0.750197  0.546928  1
  Cu  Cu21  1  0.500000  0.249803  0.453072  1
  Pt  Pt22  1  0.500000  0.548500  0.749795  1
  Pt  Pt23  1  0.500000  0.451500  0.250205  1
