# generated using pymatgen
data_Cr2(WN2)3
_symmetry_space_group_name_H-M   'P 1'
_cell_length_a   5.02822100
_cell_length_b   5.02822064
_cell_length_c   10.35076600
_cell_angle_alpha   90.00000000
_cell_angle_beta   90.00000000
_cell_angle_gamma   119.99999576
_symmetry_Int_Tables_number   1
_chemical_formula_structural   Cr2(WN2)3
_chemical_formula_sum   'Cr4 W6 N12'
_cell_volume   226.63752831
_cell_formula_units_Z   2
loop_
 _symmetry_equiv_pos_site_id
 _symmetry_equiv_pos_as_xyz
  1  'x, y, z'
loop_
 _atom_site_type_symbol
 _atom_site_label
 _atom_site_symmetry_multiplicity
 _atom_site_fract_x
 _atom_site_fract_y
 _atom_site_fract_z
 _atom_site_occupancy
  Cr  Cr0  1  0.666667  0.333334  0.000000  1
  Cr  Cr1  1  0.333334  0.666668  0.000000  1
  Cr  Cr2  1  0.666667  0.333334  0.500000  1
  Cr  Cr3  1  0.333334  0.666668  0.500000  1
  W  W4  1  0.325970  0.000000  0.250000  1
  W  W5  1  0.000000  0.325969  0.250000  1
  W  W6  1  0.674029  0.674030  0.250000  1
  W  W7  1  0.674031  0.000000  0.750000  1
  W  W8  1  0.325970  0.325969  0.750000  1
  W  W9  1  0.000000  0.674030  0.750000  1
  N  N10  1  0.650928  0.000000  0.124801  1
  N  N11  1  0.349072  0.349072  0.124801  1
  N  N12  1  0.000000  0.650929  0.124801  1
  N  N13  1  0.650928  0.000000  0.375199  1
  N  N14  1  0.349072  0.349072  0.375199  1
  N  N15  1  0.000000  0.650929  0.375199  1
  N  N16  1  0.349072  0.000000  0.624801  1
  N  N17  1  0.000000  0.349072  0.624801  1
  N  N18  1  0.650929  0.650929  0.624801  1
  N  N19  1  0.349072  0.000000  0.875198  1
  N  N20  1  0.000000  0.349072  0.875198  1
  N  N21  1  0.650929  0.650929  0.875198  1
