# generated using pymatgen
data_Ho7ErSi8Pd7Pt
_symmetry_space_group_name_H-M   'P 1'
_cell_length_a   4.31873100
_cell_length_b   7.48050200
_cell_length_c   13.89284500
_cell_angle_alpha   89.99833676
_cell_angle_beta   90.00005540
_cell_angle_gamma   90.00015619
_symmetry_Int_Tables_number   1
_chemical_formula_structural   Ho7ErSi8Pd7Pt
_chemical_formula_sum   'Ho7 Er1 Si8 Pd7 Pt1'
_cell_volume   448.82608329
_cell_formula_units_Z   1
loop_
 _symmetry_equiv_pos_site_id
 _symmetry_equiv_pos_as_xyz
  1  'x, y, z'
loop_
 _atom_site_type_symbol
 _atom_site_label
 _atom_site_symmetry_multiplicity
 _atom_site_fract_x
 _atom_site_fract_y
 _atom_site_fract_z
 _atom_site_occupancy
  Ho  Ho0  1  0.000002  0.299384  0.999756  1
  Ho  Ho1  1  0.499999  0.701481  0.499986  1
  Ho  Ho2  1  0.999998  0.290479  0.500334  1
  Ho  Ho3  1  0.500002  0.709357  0.999881  1
  Ho  Ho4  1  0.999999  0.209866  0.249034  1
  Ho  Ho5  1  0.500001  0.790083  0.250889  1
  Ho  Ho6  1  0.999998  0.208525  0.750389  1
  Er  Er7  1  0.499997  0.790330  0.748942  1
  Si  Si8  1  0.999998  0.910302  0.593164  1
  Si  Si9  1  0.500002  0.091057  0.906647  1
  Si  Si10  1  0.000001  0.908319  0.405982  1
  Si  Si11  1  0.499999  0.091128  0.093341  1
  Si  Si12  1  0.999999  0.591606  0.144181  1
  Si  Si13  1  0.500001  0.408612  0.355877  1
  Si  Si14  1  0.000002  0.592013  0.855803  1
  Si  Si15  1  0.499998  0.407198  0.643691  1
  Pd  Pd16  1  0.000003  0.923573  0.891284  1
  Pd  Pd17  1  0.500003  0.076297  0.391794  1
  Pd  Pd18  1  0.999997  0.923839  0.108524  1
  Pd  Pd19  1  0.499996  0.420499  0.156483  1
  Pd  Pd20  1  0.000005  0.579453  0.343412  1
  Pd  Pd21  1  0.500006  0.421288  0.843431  1
  Pd  Pd22  1  0.999998  0.580327  0.656897  1
  Pt  Pt23  1  0.499994  0.074981  0.610276  1
