# generated using pymatgen
data_Ca3Nd(Ga3Pt)6
_symmetry_space_group_name_H-M   'P 1'
_cell_length_a   7.70533400
_cell_length_b   7.70653765
_cell_length_c   9.65745800
_cell_angle_alpha   90.00000000
_cell_angle_beta   90.00000000
_cell_angle_gamma   119.53675745
_symmetry_Int_Tables_number   1
_chemical_formula_structural   Ca3Nd(Ga3Pt)6
_chemical_formula_sum   'Ca3 Nd1 Ga18 Pt6'
_cell_volume   498.94494332
_cell_formula_units_Z   1
loop_
 _symmetry_equiv_pos_site_id
 _symmetry_equiv_pos_as_xyz
  1  'x, y, z'
loop_
 _atom_site_type_symbol
 _atom_site_label
 _atom_site_symmetry_multiplicity
 _atom_site_fract_x
 _atom_site_fract_y
 _atom_site_fract_z
 _atom_site_occupancy
  Ca  Ca0  1  0.002174  0.328122  0.750000  1
  Ca  Ca1  1  0.670288  0.996854  0.250000  1
  Ca  Ca2  1  0.329607  0.003965  0.750000  1
  Nd  Nd3  1  0.998639  0.669519  0.250000  1
  Ga  Ga4  1  0.131223  0.130539  0.250000  1
  Ga  Ga5  1  0.867421  0.868592  0.750000  1
  Ga  Ga6  1  0.997013  0.331624  0.078795  1
  Ga  Ga7  1  0.002573  0.664815  0.917697  1
  Ga  Ga8  1  0.002573  0.664815  0.582303  1
  Ga  Ga9  1  0.338220  0.000838  0.420764  1
  Ga  Ga10  1  0.997013  0.331624  0.421205  1
  Ga  Ga11  1  0.664702  0.002117  0.579683  1
  Ga  Ga12  1  0.664702  0.002117  0.920317  1
  Ga  Ga13  1  0.338220  0.000838  0.079236  1
  Ga  Ga14  1  0.330806  0.330985  0.565672  1
  Ga  Ga15  1  0.668204  0.670552  0.433789  1
  Ga  Ga16  1  0.668204  0.670552  0.066211  1
  Ga  Ga17  1  0.330806  0.330985  0.934328  1
  Ga  Ga18  1  0.338989  0.543258  0.250000  1
  Ga  Ga19  1  0.656982  0.455031  0.750000  1
  Ga  Ga20  1  0.544227  0.341969  0.250000  1
  Ga  Ga21  1  0.453858  0.658100  0.750000  1
  Pt  Pt22  1  0.670515  0.331827  0.999863  1
  Pt  Pt23  1  0.330271  0.669649  0.000322  1
  Pt  Pt24  1  0.330271  0.669649  0.499678  1
  Pt  Pt25  1  0.670515  0.331827  0.500137  1
  Pt  Pt26  1  0.000994  0.999618  0.999510  1
  Pt  Pt27  1  0.000994  0.999618  0.500490  1
