# generated using pymatgen
data_Li2(CaGa3)3
_symmetry_space_group_name_H-M   'P 1'
_cell_length_a   4.36165369
_cell_length_b   8.28433367
_cell_length_c   8.28433400
_cell_angle_alpha   70.98420851
_cell_angle_beta   74.73716090
_cell_angle_gamma   74.73717242
_symmetry_Int_Tables_number   1
_chemical_formula_structural   Li2(CaGa3)3
_chemical_formula_sum   'Li2 Ca3 Ga9'
_cell_volume   267.80519290
_cell_formula_units_Z   1
loop_
 _symmetry_equiv_pos_site_id
 _symmetry_equiv_pos_as_xyz
  1  'x, y, z'
loop_
 _atom_site_type_symbol
 _atom_site_label
 _atom_site_symmetry_multiplicity
 _atom_site_fract_x
 _atom_site_fract_y
 _atom_site_fract_z
 _atom_site_occupancy
  Li  Li0  1  0.000000  0.812807  0.187193  1
  Li  Li1  1  0.000000  0.187193  0.812807  1
  Ca  Ca2  1  0.500000  0.500000  0.500000  1
  Ca  Ca3  1  0.196400  0.803600  0.803600  1
  Ca  Ca4  1  0.803600  0.196400  0.196400  1
  Ga  Ga5  1  0.500000  0.000000  0.000000  1
  Ga  Ga6  1  0.359541  0.359758  0.921159  1
  Ga  Ga7  1  0.640459  0.640242  0.078841  1
  Ga  Ga8  1  0.359541  0.921159  0.359758  1
  Ga  Ga9  1  0.640459  0.078841  0.640242  1
  Ga  Ga10  1  0.159122  0.475590  0.206168  1
  Ga  Ga11  1  0.840878  0.524410  0.793832  1
  Ga  Ga12  1  0.159122  0.206168  0.475590  1
  Ga  Ga13  1  0.840878  0.793832  0.524410  1
