# generated using pymatgen
data_LaNd9Al4(Os2Ru)2
_symmetry_space_group_name_H-M   'P 1'
_cell_length_a   8.62459524
_cell_length_b   8.55072850
_cell_length_c   8.55205926
_cell_angle_alpha   109.10694277
_cell_angle_beta   109.94057727
_cell_angle_gamma   109.29215099
_symmetry_Int_Tables_number   1
_chemical_formula_structural   LaNd9Al4(Os2Ru)2
_chemical_formula_sum   'La1 Nd9 Al4 Os4 Ru2'
_cell_volume   485.92309616
_cell_formula_units_Z   1
loop_
 _symmetry_equiv_pos_site_id
 _symmetry_equiv_pos_as_xyz
  1  'x, y, z'
loop_
 _atom_site_type_symbol
 _atom_site_label
 _atom_site_symmetry_multiplicity
 _atom_site_fract_x
 _atom_site_fract_y
 _atom_site_fract_z
 _atom_site_occupancy
  La  La0  1  0.249746  0.685517  0.440192  1
  Nd  Nd1  1  0.750357  0.818398  0.065723  1
  Nd  Nd2  1  0.433697  0.250546  0.682840  1
  Nd  Nd3  1  0.680678  0.433293  0.250362  1
  Nd  Nd4  1  0.066253  0.751458  0.820873  1
  Nd  Nd5  1  0.819569  0.068053  0.749486  1
  Nd  Nd6  1  0.213538  0.213134  0.215756  1
  Nd  Nd7  1  0.501594  0.999751  0.287212  1
  Nd  Nd8  1  0.287084  0.501280  0.000244  1
  Nd  Nd9  1  0.997164  0.284847  0.497740  1
  Al  Al10  1  0.591847  0.589601  0.589446  1
  Al  Al11  1  0.500077  0.003185  0.912964  1
  Al  Al12  1  0.909389  0.497926  0.000127  1
  Al  Al13  1  0.001478  0.912295  0.500612  1
  Os  Os14  1  0.249951  0.118388  0.868103  1
  Os  Os15  1  0.749777  0.381339  0.631864  1
  Os  Os16  1  0.863176  0.245273  0.114795  1
  Os  Os17  1  0.119826  0.862471  0.251848  1
  Ru  Ru18  1  0.636543  0.750913  0.381302  1
  Ru  Ru19  1  0.378251  0.632330  0.738512  1
