# generated using pymatgen
data_HoTm11(CoTc)2
_symmetry_space_group_name_H-M   'P 1'
_cell_length_a   6.24192100
_cell_length_b   7.15497500
_cell_length_c   9.09635700
_cell_angle_alpha   90.00000000
_cell_angle_beta   90.00000000
_cell_angle_gamma   90.00012031
_symmetry_Int_Tables_number   1
_chemical_formula_structural   HoTm11(CoTc)2
_chemical_formula_sum   'Ho1 Tm11 Co2 Tc2'
_cell_volume   406.25047798
_cell_formula_units_Z   1
loop_
 _symmetry_equiv_pos_site_id
 _symmetry_equiv_pos_as_xyz
  1  'x, y, z'
loop_
 _atom_site_type_symbol
 _atom_site_label
 _atom_site_symmetry_multiplicity
 _atom_site_fract_x
 _atom_site_fract_y
 _atom_site_fract_z
 _atom_site_occupancy
  Ho  Ho0  1  0.643512  0.459518  0.750000  1
  Tm  Tm1  1  0.667942  0.172881  0.063582  1
  Tm  Tm2  1  0.371195  0.546992  0.250000  1
  Tm  Tm3  1  0.143585  0.040687  0.250000  1
  Tm  Tm4  1  0.823710  0.681784  0.433636  1
  Tm  Tm5  1  0.323337  0.818516  0.933967  1
  Tm  Tm6  1  0.167559  0.326694  0.563200  1
  Tm  Tm7  1  0.667942  0.172881  0.436418  1
  Tm  Tm8  1  0.167559  0.326694  0.936800  1
  Tm  Tm9  1  0.323337  0.818516  0.566033  1
  Tm  Tm10  1  0.871462  0.953246  0.750000  1
  Tm  Tm11  1  0.823710  0.681784  0.066364  1
  Co  Co12  1  0.539251  0.885565  0.250000  1
  Co  Co13  1  0.040065  0.614746  0.750000  1
  Tc  Tc14  1  0.963170  0.390844  0.250000  1
  Tc  Tc15  1  0.462663  0.108652  0.750000  1
