# generated using pymatgen
data_Sr7Nd(Si3Pt)4
_symmetry_space_group_name_H-M   'P 1'
_cell_length_a   8.34490800
_cell_length_b   8.34491032
_cell_length_c   9.07195300
_cell_angle_alpha   90.00000000
_cell_angle_beta   90.00000000
_cell_angle_gamma   119.99999080
_symmetry_Int_Tables_number   1
_chemical_formula_structural   Sr7Nd(Si3Pt)4
_chemical_formula_sum   'Sr7 Nd1 Si12 Pt4'
_cell_volume   547.11004741
_cell_formula_units_Z   1
loop_
 _symmetry_equiv_pos_site_id
 _symmetry_equiv_pos_as_xyz
  1  'x, y, z'
loop_
 _atom_site_type_symbol
 _atom_site_label
 _atom_site_symmetry_multiplicity
 _atom_site_fract_x
 _atom_site_fract_y
 _atom_site_fract_z
 _atom_site_occupancy
  Sr  Sr0  1  0.499694  0.500306  0.750000  1
  Sr  Sr1  1  0.500226  0.499774  0.250000  1
  Sr  Sr2  1  0.000613  0.500306  0.750000  1
  Sr  Sr3  1  0.999547  0.499774  0.250000  1
  Sr  Sr4  1  0.499694  0.999387  0.750000  1
  Sr  Sr5  1  0.500226  0.000453  0.250000  1
  Sr  Sr6  1  0.000000  0.000000  0.750000  1
  Nd  Nd7  1  0.000000  0.000000  0.250000  1
  Si  Si8  1  0.834250  0.165750  0.005334  1
  Si  Si9  1  0.165785  0.834215  0.006393  1
  Si  Si10  1  0.331500  0.165750  0.005334  1
  Si  Si11  1  0.165785  0.834215  0.493607  1
  Si  Si12  1  0.668429  0.834215  0.006393  1
  Si  Si13  1  0.834250  0.165750  0.494666  1
  Si  Si14  1  0.834250  0.668500  0.005334  1
  Si  Si15  1  0.668429  0.834215  0.493607  1
  Si  Si16  1  0.165785  0.331571  0.006393  1
  Si  Si17  1  0.331500  0.165750  0.494666  1
  Si  Si18  1  0.165785  0.331571  0.493607  1
  Si  Si19  1  0.834250  0.668500  0.494666  1
  Pt  Pt20  1  0.666667  0.333333  0.999749  1
  Pt  Pt21  1  0.333333  0.666667  0.000826  1
  Pt  Pt22  1  0.333333  0.666667  0.499174  1
  Pt  Pt23  1  0.666667  0.333333  0.500251  1
