# generated using pymatgen
data_Dy16In4Os3Pt
_symmetry_space_group_name_H-M   'P 1'
_cell_length_a   9.71111860
_cell_length_b   9.63486029
_cell_length_c   9.71111700
_cell_angle_alpha   59.73782742
_cell_angle_beta   59.99999522
_cell_angle_gamma   59.73782505
_symmetry_Int_Tables_number   1
_chemical_formula_structural   Dy16In4Os3Pt
_chemical_formula_sum   'Dy16 In4 Os3 Pt1'
_cell_volume   639.93584242
_cell_formula_units_Z   1
loop_
 _symmetry_equiv_pos_site_id
 _symmetry_equiv_pos_as_xyz
  1  'x, y, z'
loop_
 _atom_site_type_symbol
 _atom_site_label
 _atom_site_symmetry_multiplicity
 _atom_site_fract_x
 _atom_site_fract_y
 _atom_site_fract_z
 _atom_site_occupancy
  Dy  Dy0  1  0.690998  0.311693  0.306311  1
  Dy  Dy1  1  0.696240  0.687188  0.308285  1
  Dy  Dy2  1  0.308285  0.687188  0.308285  1
  Dy  Dy3  1  0.934780  0.945035  0.560093  1
  Dy  Dy4  1  0.149727  0.151912  0.548634  1
  Dy  Dy5  1  0.560093  0.945035  0.560093  1
  Dy  Dy6  1  0.149727  0.151912  0.149727  1
  Dy  Dy7  1  0.306311  0.311693  0.690998  1
  Dy  Dy8  1  0.941235  0.560098  0.557431  1
  Dy  Dy9  1  0.557431  0.560098  0.941235  1
  Dy  Dy10  1  0.560093  0.945035  0.934780  1
  Dy  Dy11  1  0.941235  0.560098  0.941235  1
  Dy  Dy12  1  0.153099  0.540700  0.153099  1
  Dy  Dy13  1  0.308285  0.687188  0.696240  1
  Dy  Dy14  1  0.690998  0.311693  0.690998  1
  Dy  Dy15  1  0.548634  0.151912  0.149727  1
  In  In16  1  0.917369  0.918454  0.246809  1
  In  In17  1  0.246809  0.918454  0.917369  1
  In  In18  1  0.917168  0.248496  0.917168  1
  In  In19  1  0.917369  0.918454  0.917369  1
  Os  Os20  1  0.361611  0.355197  0.361611  1
  Os  Os21  1  0.921582  0.355197  0.361611  1
  Os  Os22  1  0.361611  0.355197  0.921582  1
  Pt  Pt23  1  0.359309  0.922073  0.359309  1
