# generated using pymatgen
data_Yb3DyAs6Rh7
_symmetry_space_group_name_H-M   'P 1'
_cell_length_a   7.24495714
_cell_length_b   7.24639406
_cell_length_c   7.24639502
_cell_angle_alpha   109.47523570
_cell_angle_beta   109.46720638
_cell_angle_gamma   109.46719865
_symmetry_Int_Tables_number   1
_chemical_formula_structural   Yb3DyAs6Rh7
_chemical_formula_sum   'Yb3 Dy1 As6 Rh7'
_cell_volume   292.87306388
_cell_formula_units_Z   1
loop_
 _symmetry_equiv_pos_site_id
 _symmetry_equiv_pos_as_xyz
  1  'x, y, z'
loop_
 _atom_site_type_symbol
 _atom_site_label
 _atom_site_symmetry_multiplicity
 _atom_site_fract_x
 _atom_site_fract_y
 _atom_site_fract_z
 _atom_site_occupancy
  Yb  Yb0  1  0.500000  0.500000  0.500000  1
  Yb  Yb1  1  0.000000  0.500000  0.000000  1
  Yb  Yb2  1  0.000000  0.000000  0.500000  1
  Dy  Dy3  1  0.500000  0.000000  0.000000  1
  As  As4  1  0.681514  0.000000  0.678735  1
  As  As5  1  0.681514  0.678735  0.000000  1
  As  As6  1  0.318486  0.321265  0.000000  1
  As  As7  1  0.997221  0.678735  0.678735  1
  As  As8  1  0.002779  0.321265  0.321265  1
  As  As9  1  0.318486  0.000000  0.321265  1
  Rh  Rh10  1  0.500000  0.750120  0.249880  1
  Rh  Rh11  1  0.749880  0.249880  0.499760  1
  Rh  Rh12  1  0.250120  0.750120  0.500240  1
  Rh  Rh13  1  0.250120  0.500240  0.750120  1
  Rh  Rh14  1  0.000000  0.000000  0.000000  1
  Rh  Rh15  1  0.500000  0.249880  0.750120  1
  Rh  Rh16  1  0.749880  0.499760  0.249880  1
