# generated using pymatgen
data_NdDy2Cr(Co4P3)2
_symmetry_space_group_name_H-M   'P 1'
_cell_length_a   3.71221700
_cell_length_b   10.57596200
_cell_length_c   12.24189300
_cell_angle_alpha   90.00000000
_cell_angle_beta   90.00000000
_cell_angle_gamma   90.00000000
_symmetry_Int_Tables_number   1
_chemical_formula_structural   NdDy2Cr(Co4P3)2
_chemical_formula_sum   'Nd2 Dy4 Cr2 Co16 P12'
_cell_volume   480.61997464
_cell_formula_units_Z   2
loop_
 _symmetry_equiv_pos_site_id
 _symmetry_equiv_pos_as_xyz
  1  'x, y, z'
loop_
 _atom_site_type_symbol
 _atom_site_label
 _atom_site_symmetry_multiplicity
 _atom_site_fract_x
 _atom_site_fract_y
 _atom_site_fract_z
 _atom_site_occupancy
  Nd  Nd0  1  0.000000  0.500000  0.522769  1
  Nd  Nd1  1  0.500000  0.000000  0.477231  1
  Dy  Dy2  1  0.500000  0.817816  0.203554  1
  Dy  Dy3  1  0.500000  0.182184  0.203554  1
  Dy  Dy4  1  0.000000  0.682184  0.796446  1
  Dy  Dy5  1  0.000000  0.317816  0.796446  1
  Cr  Cr6  1  0.500000  0.500000  0.152981  1
  Cr  Cr7  1  0.000000  0.000000  0.847019  1
  Co  Co8  1  0.500000  0.500000  0.705298  1
  Co  Co9  1  0.000000  0.000000  0.294702  1
  Co  Co10  1  0.000000  0.500000  0.987102  1
  Co  Co11  1  0.500000  0.000000  0.012898  1
  Co  Co12  1  0.500000  0.332517  0.992715  1
  Co  Co13  1  0.500000  0.667483  0.992715  1
  Co  Co14  1  0.000000  0.167483  0.007285  1
  Co  Co15  1  0.000000  0.832517  0.007285  1
  Co  Co16  1  0.500000  0.295482  0.429302  1
  Co  Co17  1  0.500000  0.704518  0.429302  1
  Co  Co18  1  0.000000  0.204518  0.570698  1
  Co  Co19  1  0.000000  0.795482  0.570698  1
  Co  Co20  1  0.500000  0.879882  0.711646  1
  Co  Co21  1  0.500000  0.120118  0.711646  1
  Co  Co22  1  0.000000  0.620118  0.288354  1
  Co  Co23  1  0.000000  0.379882  0.288354  1
  P  P24  1  0.500000  0.500000  0.883347  1
  P  P25  1  0.000000  0.000000  0.116653  1
  P  P26  1  0.500000  0.500000  0.339372  1
  P  P27  1  0.000000  0.000000  0.660628  1
  P  P28  1  0.500000  0.308160  0.617601  1
  P  P29  1  0.500000  0.691840  0.617601  1
  P  P30  1  0.000000  0.191840  0.382399  1
  P  P31  1  0.000000  0.808160  0.382399  1
  P  P32  1  0.500000  0.847558  0.893319  1
  P  P33  1  0.500000  0.152442  0.893319  1
  P  P34  1  0.000000  0.652442  0.106681  1
  P  P35  1  0.000000  0.347558  0.106681  1
