# generated using pymatgen
data_Tb7Dy3(ReO6)4
_symmetry_space_group_name_H-M   'P 1'
_cell_length_a   5.69106900
_cell_length_b   7.58702700
_cell_length_c   12.47897330
_cell_angle_alpha   107.45622711
_cell_angle_beta   90.00000000
_cell_angle_gamma   90.00000000
_symmetry_Int_Tables_number   1
_chemical_formula_structural   Tb7Dy3(ReO6)4
_chemical_formula_sum   'Tb7 Dy3 Re4 O24'
_cell_volume   514.00614633
_cell_formula_units_Z   1
loop_
 _symmetry_equiv_pos_site_id
 _symmetry_equiv_pos_as_xyz
  1  'x, y, z'
loop_
 _atom_site_type_symbol
 _atom_site_label
 _atom_site_symmetry_multiplicity
 _atom_site_fract_x
 _atom_site_fract_y
 _atom_site_fract_z
 _atom_site_occupancy
  Tb  Tb0  1  0.250000  0.611162  0.435988  1
  Tb  Tb1  1  0.750000  0.388944  0.564160  1
  Tb  Tb2  1  0.250000  0.088246  0.445689  1
  Tb  Tb3  1  0.750000  0.911741  0.554322  1
  Tb  Tb4  1  0.250000  0.889384  0.064553  1
  Tb  Tb5  1  0.750000  0.110584  0.935288  1
  Tb  Tb6  1  0.250000  0.412960  0.053347  1
  Dy  Dy7  1  0.750000  0.587294  0.946688  1
  Dy  Dy8  1  0.250000  0.247648  0.749818  1
  Dy  Dy9  1  0.750000  0.752464  0.250108  1
  Re  Re10  1  0.463972  0.747589  0.750680  1
  Re  Re11  1  0.963956  0.252316  0.249471  1
  Re  Re12  1  0.536044  0.252316  0.249471  1
  Re  Re13  1  0.036028  0.747589  0.750680  1
  O  O14  1  0.250000  0.955326  0.753015  1
  O  O15  1  0.750000  0.044709  0.247098  1
  O  O16  1  0.502029  0.329946  0.903276  1
  O  O17  1  0.000597  0.670761  0.096271  1
  O  O18  1  0.499403  0.670761  0.096271  1
  O  O19  1  0.997971  0.329946  0.903276  1
  O  O20  1  0.250000  0.540524  0.748654  1
  O  O21  1  0.750000  0.459455  0.251323  1
  O  O22  1  0.250000  0.077563  0.250434  1
  O  O23  1  0.750000  0.922332  0.749571  1
  O  O24  1  0.503039  0.827626  0.915073  1
  O  O25  1  0.002520  0.171667  0.084951  1
  O  O26  1  0.497480  0.171667  0.084951  1
  O  O27  1  0.996961  0.827626  0.915073  1
  O  O28  1  0.501159  0.169483  0.596029  1
  O  O29  1  0.001179  0.830504  0.403932  1
  O  O30  1  0.498821  0.830504  0.403932  1
  O  O31  1  0.998841  0.169483  0.596029  1
  O  O32  1  0.502148  0.668700  0.586060  1
  O  O33  1  0.002072  0.331294  0.414002  1
  O  O34  1  0.497928  0.331294  0.414002  1
  O  O35  1  0.997852  0.668700  0.586060  1
  O  O36  1  0.250000  0.427324  0.248932  1
  O  O37  1  0.750000  0.572570  0.751522  1
