# generated using pymatgen
data_YbDy11(Si3Ir)4
_symmetry_space_group_name_H-M   'P 1'
_cell_length_a   4.24543900
_cell_length_b   10.64653340
_cell_length_c   12.31478106
_cell_angle_alpha   90.07959280
_cell_angle_beta   90.00000000
_cell_angle_gamma   90.00000000
_symmetry_Int_Tables_number   1
_chemical_formula_structural   YbDy11(Si3Ir)4
_chemical_formula_sum   'Yb1 Dy11 Si12 Ir4'
_cell_volume   556.61781493
_cell_formula_units_Z   1
loop_
 _symmetry_equiv_pos_site_id
 _symmetry_equiv_pos_as_xyz
  1  'x, y, z'
loop_
 _atom_site_type_symbol
 _atom_site_label
 _atom_site_symmetry_multiplicity
 _atom_site_fract_x
 _atom_site_fract_y
 _atom_site_fract_z
 _atom_site_occupancy
  Yb  Yb0  1  0.750000  0.159896  0.698309  1
  Dy  Dy1  1  0.250000  0.880875  0.021008  1
  Dy  Dy2  1  0.250000  0.619117  0.520183  1
  Dy  Dy3  1  0.750000  0.118948  0.976738  1
  Dy  Dy4  1  0.750000  0.378642  0.480635  1
  Dy  Dy5  1  0.250000  0.919065  0.604822  1
  Dy  Dy6  1  0.250000  0.581471  0.104046  1
  Dy  Dy7  1  0.750000  0.081360  0.395732  1
  Dy  Dy8  1  0.750000  0.418264  0.895395  1
  Dy  Dy9  1  0.250000  0.659398  0.801172  1
  Dy  Dy10  1  0.250000  0.841510  0.301264  1
  Dy  Dy11  1  0.750000  0.339643  0.198780  1
  Si  Si12  1  0.250000  0.009444  0.820862  1
  Si  Si13  1  0.250000  0.489455  0.320617  1
  Si  Si14  1  0.750000  0.991506  0.178683  1
  Si  Si15  1  0.750000  0.510035  0.679331  1
  Si  Si16  1  0.250000  0.246595  0.841047  1
  Si  Si17  1  0.250000  0.253877  0.341182  1
  Si  Si18  1  0.750000  0.754420  0.159442  1
  Si  Si19  1  0.750000  0.747426  0.659124  1
  Si  Si20  1  0.250000  0.200762  0.541830  1
  Si  Si21  1  0.250000  0.298446  0.043441  1
  Si  Si22  1  0.750000  0.798211  0.457169  1
  Si  Si23  1  0.750000  0.701832  0.956817  1
  Ir  Ir24  1  0.250000  0.391149  0.681631  1
  Ir  Ir25  1  0.250000  0.110935  0.181421  1
  Ir  Ir26  1  0.750000  0.610774  0.318859  1
  Ir  Ir27  1  0.750000  0.886946  0.820460  1
