# generated using pymatgen
data_NaTeAsO5
_symmetry_space_group_name_H-M   'P 1'
_cell_length_a   6.18310820
_cell_length_b   11.15021200
_cell_length_c   6.80463149
_cell_angle_alpha   90.00000000
_cell_angle_beta   106.19883402
_cell_angle_gamma   90.00000000
_symmetry_Int_Tables_number   1
_chemical_formula_structural   NaTeAsO5
_chemical_formula_sum   'Na4 Te4 As4 O20'
_cell_volume   450.50666676
_cell_formula_units_Z   4
loop_
 _symmetry_equiv_pos_site_id
 _symmetry_equiv_pos_as_xyz
  1  'x, y, z'
loop_
 _atom_site_type_symbol
 _atom_site_label
 _atom_site_symmetry_multiplicity
 _atom_site_fract_x
 _atom_site_fract_y
 _atom_site_fract_z
 _atom_site_occupancy
  Na  Na0  1  0.190808  0.691734  0.160526  1
  Na  Na1  1  0.809202  0.191728  0.339470  1
  Na  Na2  1  0.190809  0.808267  0.660526  1
  Na  Na3  1  0.809204  0.308271  0.839472  1
  Te  Te4  1  0.221725  0.074311  0.088697  1
  Te  Te5  1  0.778273  0.574308  0.411305  1
  Te  Te6  1  0.221726  0.425691  0.588698  1
  Te  Te7  1  0.778272  0.925692  0.911305  1
  As  As8  1  0.348099  0.369228  0.091206  1
  As  As9  1  0.651903  0.869227  0.408795  1
  As  As10  1  0.348099  0.130773  0.591207  1
  As  As11  1  0.651903  0.630773  0.908796  1
  O  O12  1  0.113729  0.904955  0.024685  1
  O  O13  1  0.559212  0.289491  0.045751  1
  O  O14  1  0.824006  0.556725  0.136612  1
  O  O15  1  0.150100  0.278650  0.153537  1
  O  O16  1  0.582604  0.987052  0.238387  1
  O  O17  1  0.417397  0.487051  0.261618  1
  O  O18  1  0.849901  0.778650  0.346460  1
  O  O19  1  0.175989  0.056724  0.363390  1
  O  O20  1  0.440783  0.789488  0.454241  1
  O  O21  1  0.886268  0.404954  0.475317  1
  O  O22  1  0.113728  0.595044  0.524686  1
  O  O23  1  0.559214  0.210508  0.545750  1
  O  O24  1  0.824005  0.943275  0.636612  1
  O  O25  1  0.150099  0.221351  0.653538  1
  O  O26  1  0.582603  0.512949  0.738386  1
  O  O27  1  0.417396  0.012950  0.761617  1
  O  O28  1  0.849901  0.721350  0.846460  1
  O  O29  1  0.175990  0.443276  0.863391  1
  O  O30  1  0.440786  0.710512  0.954242  1
  O  O31  1  0.886268  0.095046  0.975316  1
