# generated using pymatgen
data_Tm4SiI6
_symmetry_space_group_name_H-M   'P 1'
_cell_length_a   4.16978700
_cell_length_b   13.79543400
_cell_length_c   14.59970400
_cell_angle_alpha   90.00000000
_cell_angle_beta   90.00000000
_cell_angle_gamma   90.00000000
_symmetry_Int_Tables_number   1
_chemical_formula_structural   Tm4SiI6
_chemical_formula_sum   'Tm8 Si2 I12'
_cell_volume   839.83368464
_cell_formula_units_Z   2
loop_
 _symmetry_equiv_pos_site_id
 _symmetry_equiv_pos_as_xyz
  1  'x, y, z'
loop_
 _atom_site_type_symbol
 _atom_site_label
 _atom_site_symmetry_multiplicity
 _atom_site_fract_x
 _atom_site_fract_y
 _atom_site_fract_z
 _atom_site_occupancy
  Tm  Tm0  1  0.500000  0.113294  0.348092  1
  Tm  Tm1  1  0.500000  0.886706  0.651908  1
  Tm  Tm2  1  0.500000  0.613294  0.151908  1
  Tm  Tm3  1  0.500000  0.386706  0.848092  1
  Tm  Tm4  1  0.000000  0.109803  0.573317  1
  Tm  Tm5  1  0.000000  0.890197  0.426683  1
  Tm  Tm6  1  0.000000  0.609803  0.926683  1
  Tm  Tm7  1  0.000000  0.390197  0.073317  1
  Si  Si8  1  0.500000  0.000000  0.500000  1
  Si  Si9  1  0.500000  0.500000  0.000000  1
  I  I10  1  0.500000  0.247355  0.161772  1
  I  I11  1  0.500000  0.752645  0.838228  1
  I  I12  1  0.500000  0.747355  0.338228  1
  I  I13  1  0.500000  0.252645  0.661772  1
  I  I14  1  0.000000  0.258635  0.414281  1
  I  I15  1  0.000000  0.741365  0.585719  1
  I  I16  1  0.000000  0.758635  0.085719  1
  I  I17  1  0.000000  0.241365  0.914281  1
  I  I18  1  0.000000  0.999289  0.240410  1
  I  I19  1  0.000000  0.000711  0.759590  1
  I  I20  1  0.000000  0.499289  0.259590  1
  I  I21  1  0.000000  0.500711  0.740410  1
