# generated using pymatgen
data_Cs2SbTe3
_symmetry_space_group_name_H-M   'P 1'
_cell_length_a   8.86345148
_cell_length_b   8.86345120
_cell_length_c   11.52960503
_cell_angle_alpha   119.30526002
_cell_angle_beta   119.30525843
_cell_angle_gamma   54.15051316
_symmetry_Int_Tables_number   1
_chemical_formula_structural   Cs2SbTe3
_chemical_formula_sum   'Cs4 Sb2 Te6'
_cell_volume   613.30640269
_cell_formula_units_Z   2
loop_
 _symmetry_equiv_pos_site_id
 _symmetry_equiv_pos_as_xyz
  1  'x, y, z'
loop_
 _atom_site_type_symbol
 _atom_site_label
 _atom_site_symmetry_multiplicity
 _atom_site_fract_x
 _atom_site_fract_y
 _atom_site_fract_z
 _atom_site_occupancy
  Cs  Cs0  1  0.905504  0.905504  0.120901  1
  Cs  Cs1  1  0.692762  0.692762  0.326062  1
  Cs  Cs2  1  0.307238  0.307238  0.673938  1
  Cs  Cs3  1  0.094497  0.094497  0.879099  1
  Sb  Sb4  1  0.388343  0.388343  0.325080  1
  Sb  Sb5  1  0.611657  0.611657  0.674920  1
  Te  Te6  1  0.388825  0.388825  0.086376  1
  Te  Te7  1  0.194809  0.194809  0.269530  1
  Te  Te8  1  0.801072  0.198928  0.500000  1
  Te  Te9  1  0.198928  0.801072  0.500000  1
  Te  Te10  1  0.805191  0.805191  0.730469  1
  Te  Te11  1  0.611175  0.611175  0.913624  1
