# generated using pymatgen
data_La13Nd2Y(CdRu)4
_symmetry_space_group_name_H-M   'P 1'
_cell_length_a   10.02986643
_cell_length_b   10.08866999
_cell_length_c   10.00210999
_cell_angle_alpha   59.89594477
_cell_angle_beta   60.19706825
_cell_angle_gamma   59.62357225
_symmetry_Int_Tables_number   1
_chemical_formula_structural   La13Nd2Y(CdRu)4
_chemical_formula_sum   'La13 Nd2 Y1 Cd4 Ru4'
_cell_volume   714.08857083
_cell_formula_units_Z   1
loop_
 _symmetry_equiv_pos_site_id
 _symmetry_equiv_pos_as_xyz
  1  'x, y, z'
loop_
 _atom_site_type_symbol
 _atom_site_label
 _atom_site_symmetry_multiplicity
 _atom_site_fract_x
 _atom_site_fract_y
 _atom_site_fract_z
 _atom_site_occupancy
  La  La0  1  0.440712  0.061092  0.059321  1
  La  La1  1  0.845518  0.850134  0.844600  1
  La  La2  1  0.689782  0.309945  0.314626  1
  La  La3  1  0.059321  0.438876  0.440712  1
  La  La4  1  0.314626  0.685646  0.689782  1
  La  La5  1  0.315042  0.309913  0.689714  1
  La  La6  1  0.847300  0.846890  0.460287  1
  La  La7  1  0.689714  0.685331  0.315042  1
  La  La8  1  0.460287  0.845522  0.847300  1
  La  La9  1  0.059306  0.440694  0.059306  1
  La  La10  1  0.844600  0.459746  0.845518  1
  La  La11  1  0.440933  0.059067  0.440933  1
  La  La12  1  0.311385  0.688615  0.311385  1
  Nd  Nd13  1  0.440489  0.438701  0.058984  1
  Nd  Nd14  1  0.058984  0.061826  0.440489  1
  Y  Y15  1  0.690633  0.309367  0.690633  1
  Cd  Cd16  1  0.079833  0.762181  0.078936  1
  Cd  Cd17  1  0.076741  0.080254  0.761726  1
  Cd  Cd18  1  0.761726  0.081279  0.076741  1
  Cd  Cd19  1  0.078936  0.079051  0.079833  1
  Ru  Ru20  1  0.633477  0.087786  0.634868  1
  Ru  Ru21  1  0.634868  0.643869  0.633477  1
  Ru  Ru22  1  0.636014  0.637653  0.089772  1
  Ru  Ru23  1  0.089772  0.636561  0.636014  1
