# generated using pymatgen
data_Rb8La3NdCl20
_symmetry_space_group_name_H-M   'P 1'
_cell_length_a   8.44836868
_cell_length_b   8.99977400
_cell_length_c   13.50283600
_cell_angle_alpha   90.00000000
_cell_angle_beta   89.53462263
_cell_angle_gamma   90.00000000
_symmetry_Int_Tables_number   1
_chemical_formula_structural   Rb8La3NdCl20
_chemical_formula_sum   'Rb8 La3 Nd1 Cl20'
_cell_volume   1026.63278351
_cell_formula_units_Z   1
loop_
 _symmetry_equiv_pos_site_id
 _symmetry_equiv_pos_as_xyz
  1  'x, y, z'
loop_
 _atom_site_type_symbol
 _atom_site_label
 _atom_site_symmetry_multiplicity
 _atom_site_fract_x
 _atom_site_fract_y
 _atom_site_fract_z
 _atom_site_occupancy
  Rb  Rb0  1  0.945425  0.003487  0.829235  1
  Rb  Rb1  1  0.053763  0.995034  0.170745  1
  Rb  Rb2  1  0.446571  0.995449  0.673381  1
  Rb  Rb3  1  0.053763  0.504966  0.170745  1
  Rb  Rb4  1  0.553687  0.003560  0.326680  1
  Rb  Rb5  1  0.945425  0.496513  0.829235  1
  Rb  Rb6  1  0.553687  0.496440  0.326680  1
  Rb  Rb7  1  0.446571  0.504551  0.673381  1
  La  La8  1  0.927573  0.750000  0.504649  1
  La  La9  1  0.073473  0.250000  0.495356  1
  La  La10  1  0.428554  0.250000  0.995423  1
  Nd  Nd11  1  0.571508  0.750000  0.003749  1
  Cl  Cl12  1  0.118950  0.750000  0.675045  1
  Cl  Cl13  1  0.881161  0.250000  0.325034  1
  Cl  Cl14  1  0.620711  0.250000  0.824035  1
  Cl  Cl15  1  0.383392  0.750000  0.173246  1
  Cl  Cl16  1  0.840029  0.042284  0.574799  1
  Cl  Cl17  1  0.161020  0.957625  0.424844  1
  Cl  Cl18  1  0.340023  0.954848  0.928330  1
  Cl  Cl19  1  0.161020  0.542375  0.424844  1
  Cl  Cl20  1  0.659180  0.039632  0.071894  1
  Cl  Cl21  1  0.840029  0.457716  0.574799  1
  Cl  Cl22  1  0.659180  0.460368  0.071894  1
  Cl  Cl23  1  0.340023  0.545152  0.928330  1
  Cl  Cl24  1  0.590478  0.750000  0.510819  1
  Cl  Cl25  1  0.410264  0.250000  0.489952  1
  Cl  Cl26  1  0.092565  0.250000  0.989027  1
  Cl  Cl27  1  0.903113  0.750000  0.011626  1
  Cl  Cl28  1  0.655626  0.750000  0.803674  1
  Cl  Cl29  1  0.342522  0.250000  0.197947  1
  Cl  Cl30  1  0.156692  0.250000  0.697970  1
  Cl  Cl31  1  0.844020  0.750000  0.302631  1
