# generated using pymatgen
data_Na3Hg2Bi
_symmetry_space_group_name_H-M   'P 1'
_cell_length_a   5.43383850
_cell_length_b   5.43384052
_cell_length_c   6.47402854
_cell_angle_alpha   90.17935096
_cell_angle_beta   90.17934256
_cell_angle_gamma   59.93231255
_symmetry_Int_Tables_number   1
_chemical_formula_structural   Na3Hg2Bi
_chemical_formula_sum   'Na3 Hg2 Bi1'
_cell_volume   165.43195404
_cell_formula_units_Z   1
loop_
 _symmetry_equiv_pos_site_id
 _symmetry_equiv_pos_as_xyz
  1  'x, y, z'
loop_
 _atom_site_type_symbol
 _atom_site_label
 _atom_site_symmetry_multiplicity
 _atom_site_fract_x
 _atom_site_fract_y
 _atom_site_fract_z
 _atom_site_occupancy
  Na  Na0  1  0.833475  0.833475  0.166502  1
  Na  Na1  1  0.500000  0.500000  0.500001  1
  Na  Na2  1  0.166526  0.166526  0.833497  1
  Hg  Hg3  1  0.167132  0.167132  0.335079  1
  Hg  Hg4  1  0.832868  0.832868  0.664921  1
  Bi  Bi5  1  0.500000  0.500000  0.000000  1
