# generated using pymatgen
data_SrPr4Y2CoI12
_symmetry_space_group_name_H-M   'P 1'
_cell_length_a   9.92731541
_cell_length_b   10.08291767
_cell_length_c   9.98215313
_cell_angle_alpha   105.84389023
_cell_angle_beta   106.52688135
_cell_angle_gamma   106.54713568
_symmetry_Int_Tables_number   1
_chemical_formula_structural   SrPr4Y2CoI12
_chemical_formula_sum   'Sr1 Pr4 Y2 Co1 I12'
_cell_volume   847.35234629
_cell_formula_units_Z   1
loop_
 _symmetry_equiv_pos_site_id
 _symmetry_equiv_pos_as_xyz
  1  'x, y, z'
loop_
 _atom_site_type_symbol
 _atom_site_label
 _atom_site_symmetry_multiplicity
 _atom_site_fract_x
 _atom_site_fract_y
 _atom_site_fract_z
 _atom_site_occupancy
  Sr  Sr0  1  0.500000  0.500000  0.500000  1
  Pr  Pr1  1  0.096850  0.299465  0.017726  1
  Pr  Pr2  1  0.285807  0.021110  0.091344  1
  Pr  Pr3  1  0.903150  0.700535  0.982274  1
  Pr  Pr4  1  0.714193  0.978890  0.908656  1
  Y  Y5  1  0.978214  0.905322  0.705404  1
  Y  Y6  1  0.021786  0.094678  0.294596  1
  Co  Co7  1  0.000000  0.000000  0.000000  1
  I  I8  1  0.541575  0.627706  0.855908  1
  I  I9  1  0.458425  0.372294  0.144092  1
  I  I10  1  0.312873  0.924251  0.768477  1
  I  I11  1  0.366735  0.143423  0.453583  1
  I  I12  1  0.932242  0.787408  0.331638  1
  I  I13  1  0.687127  0.075749  0.231523  1
  I  I14  1  0.067758  0.212592  0.668362  1
  I  I15  1  0.769439  0.319082  0.923166  1
  I  I16  1  0.230561  0.680918  0.076834  1
  I  I17  1  0.864616  0.557959  0.629056  1
  I  I18  1  0.135384  0.442041  0.370944  1
  I  I19  1  0.633265  0.856577  0.546417  1
