# generated using pymatgen
data_Dy12GaCo4Bi
_symmetry_space_group_name_H-M   'P 1'
_cell_length_a   8.36988020
_cell_length_b   8.36987973
_cell_length_c   8.36987976
_cell_angle_alpha   107.09242970
_cell_angle_beta   109.05176603
_cell_angle_gamma   112.31284860
_symmetry_Int_Tables_number   1
_chemical_formula_structural   Dy12GaCo4Bi
_chemical_formula_sum   'Dy12 Ga1 Co4 Bi1'
_cell_volume   450.41095238
_cell_formula_units_Z   1
loop_
 _symmetry_equiv_pos_site_id
 _symmetry_equiv_pos_as_xyz
  1  'x, y, z'
loop_
 _atom_site_type_symbol
 _atom_site_label
 _atom_site_symmetry_multiplicity
 _atom_site_fract_x
 _atom_site_fract_y
 _atom_site_fract_z
 _atom_site_occupancy
  Dy  Dy0  1  0.296135  0.272197  0.568331  1
  Dy  Dy1  1  0.703865  0.727803  0.431669  1
  Dy  Dy2  1  0.296135  0.727803  0.023937  1
  Dy  Dy3  1  0.703865  0.272197  0.976063  1
  Dy  Dy4  1  0.184444  0.507321  0.322876  1
  Dy  Dy5  1  0.184444  0.861568  0.677124  1
  Dy  Dy6  1  0.815556  0.492679  0.677124  1
  Dy  Dy7  1  0.815556  0.138432  0.322876  1
  Dy  Dy8  1  0.398233  0.218437  0.179796  1
  Dy  Dy9  1  0.038641  0.218437  0.820204  1
  Dy  Dy10  1  0.961359  0.781563  0.179796  1
  Dy  Dy11  1  0.601767  0.781563  0.820204  1
  Ga  Ga12  1  0.500000  0.500000  0.000000  1
  Co  Co13  1  0.153881  0.500000  0.653881  1
  Co  Co14  1  0.846119  0.500000  0.346119  1
  Co  Co15  1  0.000000  0.112961  0.112961  1
  Co  Co16  1  0.000000  0.887039  0.887039  1
  Bi  Bi17  1  0.500000  0.000000  0.500000  1
