# generated using pymatgen
data_Er4ZnPd3Pb2
_symmetry_space_group_name_H-M   'P 1'
_cell_length_a   7.91816324
_cell_length_b   7.91816324
_cell_length_c   3.60864700
_cell_angle_alpha   90.00000000
_cell_angle_beta   90.00000000
_cell_angle_gamma   90.14385159
_symmetry_Int_Tables_number   1
_chemical_formula_structural   Er4ZnPd3Pb2
_chemical_formula_sum   'Er4 Zn1 Pd3 Pb2'
_cell_volume   226.25174323
_cell_formula_units_Z   1
loop_
 _symmetry_equiv_pos_site_id
 _symmetry_equiv_pos_as_xyz
  1  'x, y, z'
loop_
 _atom_site_type_symbol
 _atom_site_label
 _atom_site_symmetry_multiplicity
 _atom_site_fract_x
 _atom_site_fract_y
 _atom_site_fract_z
 _atom_site_occupancy
  Er  Er0  1  0.683656  0.165154  0.500000  1
  Er  Er1  1  0.159338  0.340662  0.500000  1
  Er  Er2  1  0.827290  0.672710  0.500000  1
  Er  Er3  1  0.334846  0.816344  0.500000  1
  Zn  Zn4  1  0.377977  0.122023  0.000000  1
  Pd  Pd5  1  0.122693  0.628305  0.000000  1
  Pd  Pd6  1  0.616187  0.883813  0.000000  1
  Pd  Pd7  1  0.871695  0.377307  0.000000  1
  Pb  Pb8  1  0.005226  0.998908  0.000000  1
  Pb  Pb9  1  0.501092  0.494774  0.000000  1
