# generated using pymatgen
data_Ta4Ti3NbRe8
_symmetry_space_group_name_H-M   'P 1'
_cell_length_a   6.35874700
_cell_length_b   4.49283600
_cell_length_c   8.97297400
_cell_angle_alpha   90.00000000
_cell_angle_beta   89.99691394
_cell_angle_gamma   90.00000000
_symmetry_Int_Tables_number   1
_chemical_formula_structural   Ta4Ti3NbRe8
_chemical_formula_sum   'Ta4 Ti3 Nb1 Re8'
_cell_volume   256.34716615
_cell_formula_units_Z   1
loop_
 _symmetry_equiv_pos_site_id
 _symmetry_equiv_pos_as_xyz
  1  'x, y, z'
loop_
 _atom_site_type_symbol
 _atom_site_label
 _atom_site_symmetry_multiplicity
 _atom_site_fract_x
 _atom_site_fract_y
 _atom_site_fract_z
 _atom_site_occupancy
  Ta  Ta0  1  0.750020  0.250001  0.125002  1
  Ta  Ta1  1  0.250018  0.750001  0.377455  1
  Ta  Ta2  1  0.749987  0.250001  0.625002  1
  Ta  Ta3  1  0.249993  0.750001  0.872546  1
  Ti  Ti4  1  0.750017  0.750001  0.375486  1
  Ti  Ti5  1  0.249991  0.250001  0.624998  1
  Ti  Ti6  1  0.749992  0.750001  0.874532  1
  Nb  Nb7  1  0.249999  0.250001  0.124993  1
  Re  Re8  1  0.502190  0.750001  0.125004  1
  Re  Re9  1  0.997817  0.750001  0.124998  1
  Re  Re10  1  0.500794  0.250001  0.375524  1
  Re  Re11  1  0.999202  0.250001  0.375524  1
  Re  Re12  1  0.999735  0.750001  0.625010  1
  Re  Re13  1  0.500252  0.750001  0.625023  1
  Re  Re14  1  0.999189  0.250001  0.874460  1
  Re  Re15  1  0.500804  0.250001  0.874442  1
