# generated using pymatgen
data_NaU2VF11
_symmetry_space_group_name_H-M   'P 1'
_cell_length_a   6.04258981
_cell_length_b   6.04259067
_cell_length_c   8.59767600
_cell_angle_alpha   68.59121138
_cell_angle_beta   68.59120817
_cell_angle_gamma   72.17478659
_symmetry_Int_Tables_number   1
_chemical_formula_structural   NaU2VF11
_chemical_formula_sum   'Na1 U2 V1 F11'
_cell_volume   266.63178436
_cell_formula_units_Z   1
loop_
 _symmetry_equiv_pos_site_id
 _symmetry_equiv_pos_as_xyz
  1  'x, y, z'
loop_
 _atom_site_type_symbol
 _atom_site_label
 _atom_site_symmetry_multiplicity
 _atom_site_fract_x
 _atom_site_fract_y
 _atom_site_fract_z
 _atom_site_occupancy
  Na  Na0  1  0.000000  0.000000  0.000000  1
  U  U1  1  0.504865  0.504865  0.762955  1
  U  U2  1  0.495135  0.495135  0.237045  1
  V  V3  1  0.000000  0.000000  0.500000  1
  F  F4  1  0.208771  0.813205  0.682676  1
  F  F5  1  0.186795  0.791230  0.317324  1
  F  F6  1  0.791230  0.186795  0.317324  1
  F  F7  1  0.813205  0.208770  0.682676  1
  F  F8  1  0.500000  0.500000  0.500000  1
  F  F9  1  0.677003  0.322997  0.000000  1
  F  F10  1  0.322997  0.677003  0.000000  1
  F  F11  1  0.245181  0.245181  0.359365  1
  F  F12  1  0.754819  0.754819  0.640635  1
  F  F13  1  0.262342  0.262342  0.887533  1
  F  F14  1  0.737658  0.737658  0.112467  1
