# generated using pymatgen
data_Hf4Ti3Re5
_symmetry_space_group_name_H-M   'P 1'
_cell_length_a   5.28745400
_cell_length_b   5.30620317
_cell_length_c   8.73163500
_cell_angle_alpha   90.00000000
_cell_angle_beta   90.00000000
_cell_angle_gamma   119.88317085
_symmetry_Int_Tables_number   1
_chemical_formula_structural   Hf4Ti3Re5
_chemical_formula_sum   'Hf4 Ti3 Re5'
_cell_volume   212.40598553
_cell_formula_units_Z   1
loop_
 _symmetry_equiv_pos_site_id
 _symmetry_equiv_pos_as_xyz
  1  'x, y, z'
loop_
 _atom_site_type_symbol
 _atom_site_label
 _atom_site_symmetry_multiplicity
 _atom_site_fract_x
 _atom_site_fract_y
 _atom_site_fract_z
 _atom_site_occupancy
  Hf  Hf0  1  0.333114  0.666229  0.058578  1
  Hf  Hf1  1  0.664971  0.329940  0.566309  1
  Hf  Hf2  1  0.664971  0.329940  0.933691  1
  Hf  Hf3  1  0.333114  0.666229  0.441422  1
  Ti  Ti4  1  0.001658  0.003315  0.999391  1
  Ti  Ti5  1  0.001658  0.003315  0.500609  1
  Ti  Ti6  1  0.831043  0.662087  0.250000  1
  Re  Re7  1  0.168555  0.830540  0.750000  1
  Re  Re8  1  0.661986  0.830540  0.750000  1
  Re  Re9  1  0.340918  0.169329  0.250000  1
  Re  Re10  1  0.828410  0.169329  0.250000  1
  Re  Re11  1  0.169604  0.339206  0.750000  1
