# generated using pymatgen
data_Sc2Mn2ReSi4
_symmetry_space_group_name_H-M   'P 1'
_cell_length_a   6.52285900
_cell_length_b   6.52285900
_cell_length_c   12.08041300
_cell_angle_alpha   90.00000000
_cell_angle_beta   90.00000000
_cell_angle_gamma   90.00000000
_symmetry_Int_Tables_number   1
_chemical_formula_structural   Sc2Mn2ReSi4
_chemical_formula_sum   'Sc8 Mn8 Re4 Si16'
_cell_volume   513.99366177
_cell_formula_units_Z   4
loop_
 _symmetry_equiv_pos_site_id
 _symmetry_equiv_pos_as_xyz
  1  'x, y, z'
loop_
 _atom_site_type_symbol
 _atom_site_label
 _atom_site_symmetry_multiplicity
 _atom_site_fract_x
 _atom_site_fract_y
 _atom_site_fract_z
 _atom_site_occupancy
  Sc  Sc0  1  0.005928  0.661714  0.029687  1
  Sc  Sc1  1  0.994072  0.338286  0.529687  1
  Sc  Sc2  1  0.338286  0.994072  0.470313  1
  Sc  Sc3  1  0.161714  0.494072  0.779687  1
  Sc  Sc4  1  0.838286  0.505928  0.279687  1
  Sc  Sc5  1  0.494072  0.161714  0.220313  1
  Sc  Sc6  1  0.505928  0.838286  0.720313  1
  Sc  Sc7  1  0.661714  0.005928  0.970313  1
  Mn  Mn8  1  0.022420  0.815069  0.631233  1
  Mn  Mn9  1  0.977580  0.184931  0.131233  1
  Mn  Mn10  1  0.815069  0.022420  0.368767  1
  Mn  Mn11  1  0.315069  0.477580  0.381233  1
  Mn  Mn12  1  0.684931  0.522420  0.881233  1
  Mn  Mn13  1  0.477580  0.315069  0.618767  1
  Mn  Mn14  1  0.522420  0.684931  0.118767  1
  Mn  Mn15  1  0.184931  0.977580  0.868767  1
  Re  Re16  1  0.664432  0.664432  0.500000  1
  Re  Re17  1  0.164432  0.835568  0.250000  1
  Re  Re18  1  0.335568  0.335568  0.000000  1
  Re  Re19  1  0.835568  0.164432  0.750000  1
  Si  Si20  1  0.025644  0.725027  0.437863  1
  Si  Si21  1  0.612777  0.300562  0.432218  1
  Si  Si22  1  0.387223  0.699438  0.932218  1
  Si  Si23  1  0.199438  0.112777  0.682218  1
  Si  Si24  1  0.300562  0.612777  0.567782  1
  Si  Si25  1  0.699438  0.387223  0.067782  1
  Si  Si26  1  0.800562  0.887223  0.182218  1
  Si  Si27  1  0.112777  0.199438  0.317782  1
  Si  Si28  1  0.974356  0.274973  0.937863  1
  Si  Si29  1  0.725027  0.025644  0.562137  1
  Si  Si30  1  0.225027  0.474356  0.187863  1
  Si  Si31  1  0.774973  0.525644  0.687863  1
  Si  Si32  1  0.474356  0.225027  0.812137  1
  Si  Si33  1  0.525644  0.774973  0.312137  1
  Si  Si34  1  0.274973  0.974356  0.062137  1
  Si  Si35  1  0.887223  0.800562  0.817782  1
