# generated using pymatgen
data_ErMgCu3Ir
_symmetry_space_group_name_H-M   'P 1'
_cell_length_a   5.20782845
_cell_length_b   5.20782915
_cell_length_c   5.20783093
_cell_angle_alpha   57.57185187
_cell_angle_beta   57.57184729
_cell_angle_gamma   57.57184934
_symmetry_Int_Tables_number   1
_chemical_formula_structural   ErMgCu3Ir
_chemical_formula_sum   'Er1 Mg1 Cu3 Ir1'
_cell_volume   94.29911101
_cell_formula_units_Z   1
loop_
 _symmetry_equiv_pos_site_id
 _symmetry_equiv_pos_as_xyz
  1  'x, y, z'
loop_
 _atom_site_type_symbol
 _atom_site_label
 _atom_site_symmetry_multiplicity
 _atom_site_fract_x
 _atom_site_fract_y
 _atom_site_fract_z
 _atom_site_occupancy
  Er  Er0  1  0.251987  0.251987  0.251987  1
  Mg  Mg1  1  0.999091  0.999091  0.999091  1
  Cu  Cu2  1  0.624530  0.624530  0.124135  1
  Cu  Cu3  1  0.624530  0.124135  0.624530  1
  Cu  Cu4  1  0.124135  0.624530  0.624530  1
  Ir  Ir5  1  0.625726  0.625726  0.625726  1
