# generated using pymatgen
data_Hf8Ti2MnFeSb4
_symmetry_space_group_name_H-M   'P 1'
_cell_length_a   5.39997470
_cell_length_b   8.16011680
_cell_length_c   8.16011662
_cell_angle_alpha   83.71471722
_cell_angle_beta   70.67803797
_cell_angle_gamma   70.67804571
_symmetry_Int_Tables_number   1
_chemical_formula_structural   Hf8Ti2MnFeSb4
_chemical_formula_sum   'Hf8 Ti2 Mn1 Fe1 Sb4'
_cell_volume   320.20539390
_cell_formula_units_Z   1
loop_
 _symmetry_equiv_pos_site_id
 _symmetry_equiv_pos_as_xyz
  1  'x, y, z'
loop_
 _atom_site_type_symbol
 _atom_site_label
 _atom_site_symmetry_multiplicity
 _atom_site_fract_x
 _atom_site_fract_y
 _atom_site_fract_z
 _atom_site_occupancy
  Hf  Hf0  1  0.075097  0.126614  0.723002  1
  Hf  Hf1  1  0.924713  0.873386  0.276998  1
  Hf  Hf2  1  0.798100  0.276998  0.126614  1
  Hf  Hf3  1  0.424903  0.276998  0.873386  1
  Hf  Hf4  1  0.201711  0.723002  0.873386  1
  Hf  Hf5  1  0.575287  0.723002  0.126614  1
  Hf  Hf6  1  0.701900  0.873386  0.723002  1
  Hf  Hf7  1  0.298289  0.126614  0.276998  1
  Ti  Ti8  1  0.250000  0.500000  0.500000  1
  Ti  Ti9  1  0.750000  0.500000  0.500000  1
  Mn  Mn10  1  0.750000  0.000000  0.000000  1
  Fe  Fe11  1  0.250000  0.000000  0.000000  1
  Sb  Sb12  1  0.157333  0.500000  0.185336  1
  Sb  Sb13  1  0.842667  0.500000  0.814664  1
  Sb  Sb14  1  0.342667  0.814664  0.500000  1
  Sb  Sb15  1  0.657333  0.185336  0.500000  1
