# generated using pymatgen
data_Nd3HoMgAl17Pd6
_symmetry_space_group_name_H-M   'P 1'
_cell_length_a   7.71395790
_cell_length_b   7.73450247
_cell_length_c   9.58195825
_cell_angle_alpha   90.08911698
_cell_angle_beta   89.93503884
_cell_angle_gamma   119.56078650
_symmetry_Int_Tables_number   1
_chemical_formula_structural   Nd3HoMgAl17Pd6
_chemical_formula_sum   'Nd3 Ho1 Mg1 Al17 Pd6'
_cell_volume   497.27786536
_cell_formula_units_Z   1
loop_
 _symmetry_equiv_pos_site_id
 _symmetry_equiv_pos_as_xyz
  1  'x, y, z'
loop_
 _atom_site_type_symbol
 _atom_site_label
 _atom_site_symmetry_multiplicity
 _atom_site_fract_x
 _atom_site_fract_y
 _atom_site_fract_z
 _atom_site_occupancy
  Nd  Nd0  1  0.995445  0.674700  0.251870  1
  Nd  Nd1  1  0.004717  0.330489  0.748373  1
  Nd  Nd2  1  0.665866  0.988100  0.251804  1
  Ho  Ho3  1  0.330016  0.006093  0.749787  1
  Mg  Mg4  1  0.997449  0.334428  0.078000  1
  Al  Al5  1  0.134141  0.129684  0.250949  1
  Al  Al6  1  0.869458  0.868378  0.750918  1
  Al  Al7  1  0.000958  0.666203  0.922917  1
  Al  Al8  1  0.000348  0.667837  0.577945  1
  Al  Al9  1  0.335439  0.003192  0.428380  1
  Al  Al10  1  0.003287  0.334733  0.420522  1
  Al  Al11  1  0.662880  0.997836  0.578213  1
  Al  Al12  1  0.664678  0.999724  0.923067  1
  Al  Al13  1  0.335056  0.002816  0.071498  1
  Al  Al14  1  0.334314  0.332862  0.557953  1
  Al  Al15  1  0.665102  0.664529  0.449247  1
  Al  Al16  1  0.665181  0.664344  0.048843  1
  Al  Al17  1  0.331603  0.332659  0.941964  1
  Al  Al18  1  0.343058  0.544670  0.250671  1
  Al  Al19  1  0.658233  0.454778  0.748991  1
  Al  Al20  1  0.548549  0.337478  0.248926  1
  Al  Al21  1  0.454193  0.663925  0.750993  1
  Pd  Pd22  1  0.659898  0.326465  0.993975  1
  Pd  Pd23  1  0.335322  0.678481  0.998872  1
  Pd  Pd24  1  0.329447  0.671945  0.502399  1
  Pd  Pd25  1  0.671139  0.328543  0.501863  1
  Pd  Pd26  1  0.002497  0.994493  0.997235  1
  Pd  Pd27  1  0.001727  0.000615  0.503825  1
