# generated using pymatgen
data_Ta10Ga4Au
_symmetry_space_group_name_H-M   'P 1'
_cell_length_a   9.93665800
_cell_length_b   9.93665800
_cell_length_c   5.22486000
_cell_angle_alpha   90.00000000
_cell_angle_beta   90.00000000
_cell_angle_gamma   90.00000000
_symmetry_Int_Tables_number   1
_chemical_formula_structural   Ta10Ga4Au
_chemical_formula_sum   'Ta20 Ga8 Au2'
_cell_volume   515.88790159
_cell_formula_units_Z   2
loop_
 _symmetry_equiv_pos_site_id
 _symmetry_equiv_pos_as_xyz
  1  'x, y, z'
loop_
 _atom_site_type_symbol
 _atom_site_label
 _atom_site_symmetry_multiplicity
 _atom_site_fract_x
 _atom_site_fract_y
 _atom_site_fract_z
 _atom_site_occupancy
  Ta  Ta0  1  0.898671  0.101329  0.500000  1
  Ta  Ta1  1  0.101329  0.898671  0.500000  1
  Ta  Ta2  1  0.398671  0.398671  0.000000  1
  Ta  Ta3  1  0.601329  0.601329  0.000000  1
  Ta  Ta4  1  0.963955  0.369110  0.500000  1
  Ta  Ta5  1  0.036045  0.630890  0.500000  1
  Ta  Ta6  1  0.463955  0.130890  0.000000  1
  Ta  Ta7  1  0.536045  0.869110  0.000000  1
  Ta  Ta8  1  0.369110  0.963955  0.500000  1
  Ta  Ta9  1  0.630890  0.036045  0.500000  1
  Ta  Ta10  1  0.130890  0.463955  0.000000  1
  Ta  Ta11  1  0.869110  0.536045  0.000000  1
  Ta  Ta12  1  0.684251  0.315749  0.248554  1
  Ta  Ta13  1  0.315749  0.684251  0.248554  1
  Ta  Ta14  1  0.184251  0.184251  0.748554  1
  Ta  Ta15  1  0.815749  0.815749  0.748554  1
  Ta  Ta16  1  0.315749  0.684251  0.751446  1
  Ta  Ta17  1  0.684251  0.315749  0.751446  1
  Ta  Ta18  1  0.815749  0.815749  0.251446  1
  Ta  Ta19  1  0.184251  0.184251  0.251446  1
  Ga  Ga20  1  0.235781  0.434514  0.500000  1
  Ga  Ga21  1  0.764219  0.565486  0.500000  1
  Ga  Ga22  1  0.735781  0.065486  0.000000  1
  Ga  Ga23  1  0.264219  0.934514  0.000000  1
  Ga  Ga24  1  0.434514  0.235781  0.500000  1
  Ga  Ga25  1  0.565486  0.764219  0.500000  1
  Ga  Ga26  1  0.065486  0.735781  0.000000  1
  Ga  Ga27  1  0.934514  0.264219  0.000000  1
  Au  Au28  1  0.500000  0.500000  0.500000  1
  Au  Au29  1  0.000000  0.000000  0.000000  1
