# generated using pymatgen
data_Ho8Lu4InGa(NiOs)2
_symmetry_space_group_name_H-M   'P 1'
_cell_length_a   8.28586595
_cell_length_b   8.28586495
_cell_length_c   8.28586600
_cell_angle_alpha   113.20068116
_cell_angle_beta   110.49769364
_cell_angle_gamma   104.82558060
_symmetry_Int_Tables_number   1
_chemical_formula_structural   Ho8Lu4InGa(NiOs)2
_chemical_formula_sum   'Ho8 Lu4 In1 Ga1 Ni2 Os2'
_cell_volume   435.51599150
_cell_formula_units_Z   1
loop_
 _symmetry_equiv_pos_site_id
 _symmetry_equiv_pos_as_xyz
  1  'x, y, z'
loop_
 _atom_site_type_symbol
 _atom_site_label
 _atom_site_symmetry_multiplicity
 _atom_site_fract_x
 _atom_site_fract_y
 _atom_site_fract_z
 _atom_site_occupancy
  Ho  Ho0  1  0.434412  0.240524  0.193915  1
  Ho  Ho1  1  0.565588  0.759476  0.806085  1
  Ho  Ho2  1  0.046609  0.240524  0.806112  1
  Ho  Ho3  1  0.953391  0.759476  0.193888  1
  Ho  Ho4  1  0.179062  0.279376  0.458445  1
  Ho  Ho5  1  0.820938  0.720624  0.541555  1
  Ho  Ho6  1  0.179069  0.720624  0.899687  1
  Ho  Ho7  1  0.820931  0.279376  0.100313  1
  Lu  Lu8  1  0.331533  0.647643  0.316111  1
  Lu  Lu9  1  0.668467  0.352357  0.683889  1
  Lu  Lu10  1  0.331548  0.015427  0.683880  1
  Lu  Lu11  1  0.668452  0.984573  0.316120  1
  In  In12  1  0.500000  0.500000  0.000000  1
  Ga  Ga13  1  0.000000  0.000000  0.000000  1
  Ni  Ni14  1  0.120683  0.620680  0.499997  1
  Ni  Ni15  1  0.879317  0.379320  0.500003  1
  Os  Os16  1  0.330103  0.000000  0.330103  1
  Os  Os17  1  0.669897  0.000000  0.669897  1
