# generated using pymatgen
data_Sc9Tc4O3
_symmetry_space_group_name_H-M   'P 1'
_cell_length_a   8.53514600
_cell_length_b   8.53514577
_cell_length_c   8.36185300
_cell_angle_alpha   90.00000000
_cell_angle_beta   90.00000000
_cell_angle_gamma   120.00000088
_symmetry_Int_Tables_number   1
_chemical_formula_structural   Sc9Tc4O3
_chemical_formula_sum   'Sc18 Tc8 O6'
_cell_volume   527.53958542
_cell_formula_units_Z   2
loop_
 _symmetry_equiv_pos_site_id
 _symmetry_equiv_pos_as_xyz
  1  'x, y, z'
loop_
 _atom_site_type_symbol
 _atom_site_label
 _atom_site_symmetry_multiplicity
 _atom_site_fract_x
 _atom_site_fract_y
 _atom_site_fract_z
 _atom_site_occupancy
  Sc  Sc0  1  0.456429  0.912858  0.250000  1
  Sc  Sc1  1  0.543571  0.087142  0.750000  1
  Sc  Sc2  1  0.087142  0.543571  0.250000  1
  Sc  Sc3  1  0.912858  0.456429  0.750000  1
  Sc  Sc4  1  0.456429  0.543571  0.250000  1
  Sc  Sc5  1  0.543571  0.456429  0.750000  1
  Sc  Sc6  1  0.202834  0.405667  0.549938  1
  Sc  Sc7  1  0.797166  0.594333  0.450062  1
  Sc  Sc8  1  0.594333  0.797166  0.549938  1
  Sc  Sc9  1  0.797166  0.594333  0.049938  1
  Sc  Sc10  1  0.405667  0.202834  0.450062  1
  Sc  Sc11  1  0.202834  0.405667  0.950062  1
  Sc  Sc12  1  0.202834  0.797166  0.549938  1
  Sc  Sc13  1  0.405667  0.202834  0.049938  1
  Sc  Sc14  1  0.797166  0.202834  0.450062  1
  Sc  Sc15  1  0.594333  0.797166  0.950062  1
  Sc  Sc16  1  0.797166  0.202834  0.049938  1
  Sc  Sc17  1  0.202834  0.797166  0.950062  1
  Tc  Tc18  1  0.106137  0.212273  0.250000  1
  Tc  Tc19  1  0.893863  0.787727  0.750000  1
  Tc  Tc20  1  0.787727  0.893863  0.250000  1
  Tc  Tc21  1  0.212273  0.106137  0.750000  1
  Tc  Tc22  1  0.106137  0.893863  0.250000  1
  Tc  Tc23  1  0.893863  0.106137  0.750000  1
  Tc  Tc24  1  0.000000  0.000000  0.000000  1
  Tc  Tc25  1  0.000000  0.000000  0.500000  1
  O  O26  1  0.500000  0.000000  0.000000  1
  O  O27  1  0.000000  0.500000  0.000000  1
  O  O28  1  0.500000  0.000000  0.500000  1
  O  O29  1  0.500000  0.500000  0.000000  1
  O  O30  1  0.000000  0.500000  0.500000  1
  O  O31  1  0.500000  0.500000  0.500000  1
