# generated using pymatgen
data_Dy12Zn11AgC4
_symmetry_space_group_name_H-M   'P 1'
_cell_length_a   9.19766639
_cell_length_b   9.19766652
_cell_length_c   9.19766663
_cell_angle_alpha   59.92924705
_cell_angle_beta   59.92924690
_cell_angle_gamma   59.92925318
_symmetry_Int_Tables_number   1
_chemical_formula_structural   Dy12Zn11AgC4
_chemical_formula_sum   'Dy12 Zn11 Ag1 C4'
_cell_volume   549.31373421
_cell_formula_units_Z   1
loop_
 _symmetry_equiv_pos_site_id
 _symmetry_equiv_pos_as_xyz
  1  'x, y, z'
loop_
 _atom_site_type_symbol
 _atom_site_label
 _atom_site_symmetry_multiplicity
 _atom_site_fract_x
 _atom_site_fract_y
 _atom_site_fract_z
 _atom_site_occupancy
  Dy  Dy0  1  0.446035  0.446035  0.054634  1
  Dy  Dy1  1  0.053363  0.446457  0.053363  1
  Dy  Dy2  1  0.446457  0.053363  0.053363  1
  Dy  Dy3  1  0.053363  0.053363  0.446457  1
  Dy  Dy4  1  0.446035  0.054634  0.446035  1
  Dy  Dy5  1  0.054634  0.446035  0.446035  1
  Dy  Dy6  1  0.803965  0.803965  0.195366  1
  Dy  Dy7  1  0.196637  0.803543  0.196637  1
  Dy  Dy8  1  0.803543  0.196637  0.196637  1
  Dy  Dy9  1  0.196637  0.196637  0.803543  1
  Dy  Dy10  1  0.803965  0.195366  0.803965  1
  Dy  Dy11  1  0.195366  0.803965  0.803965  1
  Zn  Zn12  1  0.827943  0.827943  0.521392  1
  Zn  Zn13  1  0.827943  0.521392  0.827943  1
  Zn  Zn14  1  0.521392  0.827943  0.827943  1
  Zn  Zn15  1  0.826534  0.826534  0.826534  1
  Zn  Zn16  1  0.422057  0.422057  0.728608  1
  Zn  Zn17  1  0.422057  0.728608  0.422057  1
  Zn  Zn18  1  0.728608  0.422057  0.422057  1
  Zn  Zn19  1  0.423466  0.423466  0.423466  1
  Zn  Zn20  1  0.625000  0.625000  0.125000  1
  Zn  Zn21  1  0.625000  0.125000  0.625000  1
  Zn  Zn22  1  0.125000  0.625000  0.625000  1
  Ag  Ag23  1  0.625000  0.625000  0.625000  1
  C  C24  1  0.125000  0.125000  0.625000  1
  C  C25  1  0.125000  0.625000  0.125000  1
  C  C26  1  0.625000  0.125000  0.125000  1
  C  C27  1  0.125000  0.125000  0.125000  1
