# generated using pymatgen
data_Ca2(TlAu2)3
_symmetry_space_group_name_H-M   'P 1'
_cell_length_a   16.33601811
_cell_length_b   16.33601797
_cell_length_c   3.98157600
_cell_angle_alpha   90.00000000
_cell_angle_beta   90.00000000
_cell_angle_gamma   165.32185829
_symmetry_Int_Tables_number   1
_chemical_formula_structural   Ca2(TlAu2)3
_chemical_formula_sum   'Ca2 Tl3 Au6'
_cell_volume   269.23717760
_cell_formula_units_Z   1
loop_
 _symmetry_equiv_pos_site_id
 _symmetry_equiv_pos_as_xyz
  1  'x, y, z'
loop_
 _atom_site_type_symbol
 _atom_site_label
 _atom_site_symmetry_multiplicity
 _atom_site_fract_x
 _atom_site_fract_y
 _atom_site_fract_z
 _atom_site_occupancy
  Ca  Ca0  1  0.999142  0.000858  0.000000  1
  Ca  Ca1  1  0.194482  0.805517  0.500000  1
  Tl  Tl2  1  0.625593  0.374407  0.000000  1
  Tl  Tl3  1  0.374224  0.625776  0.000000  1
  Tl  Tl4  1  0.808030  0.191969  0.500000  1
  Au  Au5  1  0.718238  0.281762  0.000000  1
  Au  Au6  1  0.276867  0.723133  0.000000  1
  Au  Au7  1  0.902452  0.097548  0.500000  1
  Au  Au8  1  0.542104  0.457895  0.500000  1
  Au  Au9  1  0.459155  0.540844  0.500000  1
  Au  Au10  1  0.099711  0.900289  0.500000  1
