# generated using pymatgen
data_TbCeAlRu2
_symmetry_space_group_name_H-M   'P 1'
_cell_length_a   5.79213346
_cell_length_b   5.79213351
_cell_length_c   6.97792539
_cell_angle_alpha   86.61788650
_cell_angle_beta   93.38211351
_cell_angle_gamma   118.48037471
_symmetry_Int_Tables_number   1
_chemical_formula_structural   TbCeAlRu2
_chemical_formula_sum   'Tb2 Ce2 Al2 Ru4'
_cell_volume   205.28480451
_cell_formula_units_Z   2
loop_
 _symmetry_equiv_pos_site_id
 _symmetry_equiv_pos_as_xyz
  1  'x, y, z'
loop_
 _atom_site_type_symbol
 _atom_site_label
 _atom_site_symmetry_multiplicity
 _atom_site_fract_x
 _atom_site_fract_y
 _atom_site_fract_z
 _atom_site_occupancy
  Tb  Tb0  1  0.344412  0.655588  0.085063  1
  Tb  Tb1  1  0.655588  0.344412  0.914937  1
  Ce  Ce2  1  0.166568  0.833432  0.578513  1
  Ce  Ce3  1  0.833432  0.166568  0.421487  1
  Al  Al4  1  0.000000  0.000000  0.000000  1
  Al  Al5  1  0.500000  0.500000  0.500000  1
  Ru  Ru6  1  0.868446  0.638255  0.265344  1
  Ru  Ru7  1  0.638255  0.868446  0.734656  1
  Ru  Ru8  1  0.131554  0.361745  0.734656  1
  Ru  Ru9  1  0.361745  0.131554  0.265344  1
