# generated using pymatgen
data_Er5Tm5(In2Bi)2
_symmetry_space_group_name_H-M   'P 1'
_cell_length_a   6.56159200
_cell_length_b   8.94245368
_cell_length_c   8.91282854
_cell_angle_alpha   119.74968477
_cell_angle_beta   90.00062843
_cell_angle_gamma   89.99902912
_symmetry_Int_Tables_number   1
_chemical_formula_structural   Er5Tm5(In2Bi)2
_chemical_formula_sum   'Er5 Tm5 In4 Bi2'
_cell_volume   454.04827285
_cell_formula_units_Z   1
loop_
 _symmetry_equiv_pos_site_id
 _symmetry_equiv_pos_as_xyz
  1  'x, y, z'
loop_
 _atom_site_type_symbol
 _atom_site_label
 _atom_site_symmetry_multiplicity
 _atom_site_fract_x
 _atom_site_fract_y
 _atom_site_fract_z
 _atom_site_occupancy
  Er  Er0  1  0.749956  0.228304  0.990836  1
  Er  Er1  1  0.749981  0.771359  0.761765  1
  Er  Er2  1  0.750004  0.999883  0.238588  1
  Er  Er3  1  0.250023  0.765175  0.000386  1
  Er  Er4  1  0.250025  0.234568  0.234925  1
  Tm  Tm5  1  0.492565  0.328631  0.667318  1
  Tm  Tm6  1  0.492726  0.671434  0.338867  1
  Tm  Tm7  1  0.007270  0.671417  0.338848  1
  Tm  Tm8  1  0.007435  0.328617  0.667324  1
  Tm  Tm9  1  0.250000  0.000167  0.763363  1
  In  In10  1  0.749998  0.000148  0.595508  1
  In  In11  1  0.250012  0.398167  0.003334  1
  In  In12  1  0.249999  0.601451  0.604454  1
  In  In13  1  0.250005  0.000175  0.398274  1
  Bi  Bi14  1  0.749998  0.603833  0.999812  1
  Bi  Bi15  1  0.750001  0.396672  0.396401  1
