# generated using pymatgen
data_Tm12Si12Pt3Rh
_symmetry_space_group_name_H-M   'P 1'
_cell_length_a   4.21114300
_cell_length_b   10.56737456
_cell_length_c   12.18373681
_cell_angle_alpha   90.00782132
_cell_angle_beta   90.00000000
_cell_angle_gamma   90.00000000
_symmetry_Int_Tables_number   1
_chemical_formula_structural   Tm12Si12Pt3Rh
_chemical_formula_sum   'Tm12 Si12 Pt3 Rh1'
_cell_volume   542.18512123
_cell_formula_units_Z   1
loop_
 _symmetry_equiv_pos_site_id
 _symmetry_equiv_pos_as_xyz
  1  'x, y, z'
loop_
 _atom_site_type_symbol
 _atom_site_label
 _atom_site_symmetry_multiplicity
 _atom_site_fract_x
 _atom_site_fract_y
 _atom_site_fract_z
 _atom_site_occupancy
  Tm  Tm0  1  0.250000  0.877804  0.020440  1
  Tm  Tm1  1  0.250000  0.620951  0.521969  1
  Tm  Tm2  1  0.750000  0.121236  0.978881  1
  Tm  Tm3  1  0.750000  0.378534  0.479629  1
  Tm  Tm4  1  0.250000  0.919615  0.602371  1
  Tm  Tm5  1  0.250000  0.579898  0.101710  1
  Tm  Tm6  1  0.750000  0.080160  0.398566  1
  Tm  Tm7  1  0.750000  0.420112  0.897988  1
  Tm  Tm8  1  0.250000  0.658583  0.800438  1
  Tm  Tm9  1  0.250000  0.839385  0.301498  1
  Tm  Tm10  1  0.750000  0.339105  0.198207  1
  Tm  Tm11  1  0.750000  0.160984  0.698097  1
  Si  Si12  1  0.250000  0.016938  0.823971  1
  Si  Si13  1  0.250000  0.484043  0.323171  1
  Si  Si14  1  0.750000  0.983662  0.176491  1
  Si  Si15  1  0.750000  0.512526  0.677428  1
  Si  Si16  1  0.250000  0.248035  0.840928  1
  Si  Si17  1  0.250000  0.254809  0.343862  1
  Si  Si18  1  0.750000  0.754179  0.156506  1
  Si  Si19  1  0.750000  0.744762  0.656342  1
  Si  Si20  1  0.250000  0.197306  0.542960  1
  Si  Si21  1  0.250000  0.306172  0.040779  1
  Si  Si22  1  0.750000  0.807606  0.458918  1
  Si  Si23  1  0.750000  0.692864  0.958258  1
  Pt  Pt24  1  0.250000  0.110125  0.181433  1
  Pt  Pt25  1  0.750000  0.610096  0.319192  1
  Pt  Pt26  1  0.750000  0.890150  0.819127  1
  Rh  Rh27  1  0.250000  0.390359  0.680842  1
