# generated using pymatgen
data_Y3Tm7Cd3Os
_symmetry_space_group_name_H-M   'P 1'
_cell_length_a   9.49761800
_cell_length_b   9.49761846
_cell_length_c   9.78536600
_cell_angle_alpha   90.00000000
_cell_angle_beta   90.00000000
_cell_angle_gamma   119.99999838
_symmetry_Int_Tables_number   1
_chemical_formula_structural   Y3Tm7Cd3Os
_chemical_formula_sum   'Y6 Tm14 Cd6 Os2'
_cell_volume   764.42895727
_cell_formula_units_Z   2
loop_
 _symmetry_equiv_pos_site_id
 _symmetry_equiv_pos_as_xyz
  1  'x, y, z'
loop_
 _atom_site_type_symbol
 _atom_site_label
 _atom_site_symmetry_multiplicity
 _atom_site_fract_x
 _atom_site_fract_y
 _atom_site_fract_z
 _atom_site_occupancy
  Y  Y0  1  0.538585  0.461415  0.250000  1
  Y  Y1  1  0.538585  0.077171  0.250000  1
  Y  Y2  1  0.922829  0.461415  0.250000  1
  Y  Y3  1  0.461415  0.538585  0.750000  1
  Y  Y4  1  0.461415  0.922829  0.750000  1
  Y  Y5  1  0.077171  0.538585  0.750000  1
  Tm  Tm6  1  0.000000  0.000000  0.500000  1
  Tm  Tm7  1  0.000000  0.000000  0.000000  1
  Tm  Tm8  1  0.209669  0.790331  0.441010  1
  Tm  Tm9  1  0.209669  0.419339  0.441010  1
  Tm  Tm10  1  0.580661  0.790331  0.441010  1
  Tm  Tm11  1  0.790331  0.209669  0.558990  1
  Tm  Tm12  1  0.790331  0.580661  0.558990  1
  Tm  Tm13  1  0.419339  0.209669  0.558990  1
  Tm  Tm14  1  0.790331  0.209669  0.941010  1
  Tm  Tm15  1  0.790331  0.580661  0.941010  1
  Tm  Tm16  1  0.419339  0.209669  0.941010  1
  Tm  Tm17  1  0.209669  0.790331  0.058990  1
  Tm  Tm18  1  0.209669  0.419339  0.058990  1
  Tm  Tm19  1  0.580661  0.790331  0.058990  1
  Cd  Cd20  1  0.886503  0.113497  0.250000  1
  Cd  Cd21  1  0.886503  0.773008  0.250000  1
  Cd  Cd22  1  0.226992  0.113497  0.250000  1
  Cd  Cd23  1  0.113497  0.886503  0.750000  1
  Cd  Cd24  1  0.113497  0.226992  0.750000  1
  Cd  Cd25  1  0.773008  0.886503  0.750000  1
  Os  Os26  1  0.333333  0.666667  0.250000  1
  Os  Os27  1  0.666667  0.333333  0.750000  1
