# generated using pymatgen
data_Ac2TbLu(ZnGe)4
_symmetry_space_group_name_H-M   'P 1'
_cell_length_a   4.34040200
_cell_length_b   4.34040116
_cell_length_c   16.57849900
_cell_angle_alpha   90.00000000
_cell_angle_beta   90.00000000
_cell_angle_gamma   119.99999117
_symmetry_Int_Tables_number   1
_chemical_formula_structural   Ac2TbLu(ZnGe)4
_chemical_formula_sum   'Ac2 Tb1 Lu1 Zn4 Ge4'
_cell_volume   270.48033981
_cell_formula_units_Z   1
loop_
 _symmetry_equiv_pos_site_id
 _symmetry_equiv_pos_as_xyz
  1  'x, y, z'
loop_
 _atom_site_type_symbol
 _atom_site_label
 _atom_site_symmetry_multiplicity
 _atom_site_fract_x
 _atom_site_fract_y
 _atom_site_fract_z
 _atom_site_occupancy
  Ac  Ac0  1  0.000000  0.000000  0.997581  1
  Ac  Ac1  1  0.000000  0.000000  0.502419  1
  Tb  Tb2  1  0.000000  0.000000  0.250000  1
  Lu  Lu3  1  0.000000  0.000000  0.750000  1
  Zn  Zn4  1  0.333333  0.666667  0.159569  1
  Zn  Zn5  1  0.666667  0.333333  0.835235  1
  Zn  Zn6  1  0.666667  0.333333  0.664765  1
  Zn  Zn7  1  0.333333  0.666667  0.340431  1
  Ge  Ge8  1  0.333333  0.666667  0.626336  1
  Ge  Ge9  1  0.666667  0.333333  0.376867  1
  Ge  Ge10  1  0.666667  0.333333  0.123133  1
  Ge  Ge11  1  0.333333  0.666667  0.873664  1
