# generated using pymatgen
data_BaTmGe4N7
_symmetry_space_group_name_H-M   'P 1'
_cell_length_a   6.31884500
_cell_length_b   6.31884450
_cell_length_c   10.33122900
_cell_angle_alpha   90.00000000
_cell_angle_beta   90.00000000
_cell_angle_gamma   119.99999740
_symmetry_Int_Tables_number   1
_chemical_formula_structural   BaTmGe4N7
_chemical_formula_sum   'Ba2 Tm2 Ge8 N14'
_cell_volume   357.23828954
_cell_formula_units_Z   2
loop_
 _symmetry_equiv_pos_site_id
 _symmetry_equiv_pos_as_xyz
  1  'x, y, z'
loop_
 _atom_site_type_symbol
 _atom_site_label
 _atom_site_symmetry_multiplicity
 _atom_site_fract_x
 _atom_site_fract_y
 _atom_site_fract_z
 _atom_site_occupancy
  Ba  Ba0  1  0.333333  0.666667  0.363763  1
  Ba  Ba1  1  0.666667  0.333333  0.863763  1
  Tm  Tm2  1  0.333333  0.666667  0.736625  1
  Tm  Tm3  1  0.666667  0.333333  0.236625  1
  Ge  Ge4  1  0.826284  0.652567  0.546889  1
  Ge  Ge5  1  0.173716  0.826284  0.046889  1
  Ge  Ge6  1  0.652567  0.826284  0.046889  1
  Ge  Ge7  1  0.347433  0.173716  0.546889  1
  Ge  Ge8  1  0.826284  0.173716  0.546889  1
  Ge  Ge9  1  0.173716  0.347433  0.046889  1
  Ge  Ge10  1  0.000000  0.000000  0.812470  1
  Ge  Ge11  1  0.000000  0.000000  0.312470  1
  N  N12  1  0.000000  0.000000  0.619907  1
  N  N13  1  0.000000  0.000000  0.119907  1
  N  N14  1  0.159737  0.319473  0.868157  1
  N  N15  1  0.840263  0.159737  0.368157  1
  N  N16  1  0.319473  0.159737  0.368157  1
  N  N17  1  0.680527  0.840263  0.868157  1
  N  N18  1  0.159737  0.840263  0.868157  1
  N  N19  1  0.840263  0.680527  0.368157  1
  N  N20  1  0.989511  0.494756  0.605333  1
  N  N21  1  0.494756  0.989511  0.105333  1
  N  N22  1  0.494756  0.505244  0.105333  1
  N  N23  1  0.505244  0.494756  0.605333  1
  N  N24  1  0.010489  0.505244  0.105333  1
  N  N25  1  0.505244  0.010489  0.605333  1
