# generated using pymatgen
data_YbPr4Ir3
_symmetry_space_group_name_H-M   'P 1'
_cell_length_a   11.30912100
_cell_length_b   11.30912100
_cell_length_c   6.49508700
_cell_angle_alpha   90.00000000
_cell_angle_beta   90.00000000
_cell_angle_gamma   90.00000000
_symmetry_Int_Tables_number   1
_chemical_formula_structural   YbPr4Ir3
_chemical_formula_sum   'Yb4 Pr16 Ir12'
_cell_volume   830.69706153
_cell_formula_units_Z   4
loop_
 _symmetry_equiv_pos_site_id
 _symmetry_equiv_pos_as_xyz
  1  'x, y, z'
loop_
 _atom_site_type_symbol
 _atom_site_label
 _atom_site_symmetry_multiplicity
 _atom_site_fract_x
 _atom_site_fract_y
 _atom_site_fract_z
 _atom_site_occupancy
  Yb  Yb0  1  0.000000  0.000000  0.500000  1
  Yb  Yb1  1  0.000000  0.000000  0.000000  1
  Yb  Yb2  1  0.500000  0.500000  0.000000  1
  Yb  Yb3  1  0.500000  0.500000  0.500000  1
  Pr  Pr4  1  0.288205  0.088524  0.384137  1
  Pr  Pr5  1  0.288205  0.911476  0.884137  1
  Pr  Pr6  1  0.711795  0.088524  0.884137  1
  Pr  Pr7  1  0.711795  0.911476  0.384137  1
  Pr  Pr8  1  0.588524  0.788205  0.884137  1
  Pr  Pr9  1  0.588524  0.211795  0.384137  1
  Pr  Pr10  1  0.411476  0.788205  0.384137  1
  Pr  Pr11  1  0.411476  0.211795  0.884137  1
  Pr  Pr12  1  0.211795  0.411476  0.615863  1
  Pr  Pr13  1  0.211795  0.588524  0.115863  1
  Pr  Pr14  1  0.788205  0.411476  0.115863  1
  Pr  Pr15  1  0.788205  0.588524  0.615863  1
  Pr  Pr16  1  0.911476  0.711795  0.115863  1
  Pr  Pr17  1  0.911476  0.288205  0.615863  1
  Pr  Pr18  1  0.088524  0.711795  0.615863  1
  Pr  Pr19  1  0.088524  0.288205  0.115863  1
  Ir  Ir20  1  0.845375  0.154625  0.250000  1
  Ir  Ir21  1  0.845375  0.845375  0.750000  1
  Ir  Ir22  1  0.154625  0.154625  0.750000  1
  Ir  Ir23  1  0.154625  0.845375  0.250000  1
  Ir  Ir24  1  0.654625  0.345375  0.750000  1
  Ir  Ir25  1  0.654625  0.654625  0.250000  1
  Ir  Ir26  1  0.345375  0.345375  0.250000  1
  Ir  Ir27  1  0.345375  0.654625  0.750000  1
  Ir  Ir28  1  0.500000  0.000000  0.112574  1
  Ir  Ir29  1  0.500000  0.000000  0.612574  1
  Ir  Ir30  1  0.000000  0.500000  0.887426  1
  Ir  Ir31  1  0.000000  0.500000  0.387426  1
