# generated using pymatgen
data_Hf16NbCo5Pd2
_symmetry_space_group_name_H-M   'P 1'
_cell_length_a   8.57269273
_cell_length_b   8.69551696
_cell_length_c   8.63493700
_cell_angle_alpha   60.23019744
_cell_angle_beta   59.75952779
_cell_angle_gamma   60.16772651
_symmetry_Int_Tables_number   1
_chemical_formula_structural   Hf16NbCo5Pd2
_chemical_formula_sum   'Hf16 Nb1 Co5 Pd2'
_cell_volume   455.67576582
_cell_formula_units_Z   1
loop_
 _symmetry_equiv_pos_site_id
 _symmetry_equiv_pos_as_xyz
  1  'x, y, z'
loop_
 _atom_site_type_symbol
 _atom_site_label
 _atom_site_symmetry_multiplicity
 _atom_site_fract_x
 _atom_site_fract_y
 _atom_site_fract_z
 _atom_site_occupancy
  Hf  Hf0  1  0.199233  0.601854  0.599456  1
  Hf  Hf1  1  0.607169  0.174655  0.609088  1
  Hf  Hf2  1  0.600003  0.600457  0.198123  1
  Hf  Hf3  1  0.600003  0.600457  0.601418  1
  Hf  Hf4  1  0.814661  0.815417  0.184961  1
  Hf  Hf5  1  0.184973  0.190520  0.812253  1
  Hf  Hf6  1  0.813848  0.196338  0.812978  1
  Hf  Hf7  1  0.194656  0.816250  0.175867  1
  Hf  Hf8  1  0.194656  0.816250  0.813227  1
  Hf  Hf9  1  0.813848  0.196338  0.176836  1
  Hf  Hf10  1  0.447205  0.444563  0.054116  1
  Hf  Hf11  1  0.055840  0.056583  0.443789  1
  Hf  Hf12  1  0.443889  0.054237  0.446716  1
  Hf  Hf13  1  0.057825  0.438881  0.058547  1
  Hf  Hf14  1  0.057825  0.438881  0.444746  1
  Hf  Hf15  1  0.443889  0.054237  0.055158  1
  Nb  Nb16  1  0.826284  0.514735  0.829491  1
  Co  Co17  1  0.820636  0.384152  0.397605  1
  Co  Co18  1  0.391698  0.827466  0.390417  1
  Co  Co19  1  0.396499  0.385251  0.821033  1
  Co  Co20  1  0.396499  0.385251  0.397215  1
  Co  Co21  1  0.474034  0.836344  0.844812  1
  Pd  Pd22  1  0.832414  0.835441  0.494887  1
  Pd  Pd23  1  0.832414  0.835441  0.837258  1
