# generated using pymatgen
data_Pr5Sm3(PI6)2
_symmetry_space_group_name_H-M   'P 1'
_cell_length_a   4.36454300
_cell_length_b   14.32099736
_cell_length_c   15.06604100
_cell_angle_alpha   90.26515951
_cell_angle_beta   90.00000000
_cell_angle_gamma   90.00000000
_symmetry_Int_Tables_number   1
_chemical_formula_structural   Pr5Sm3(PI6)2
_chemical_formula_sum   'Pr5 Sm3 P2 I12'
_cell_volume   941.68691418
_cell_formula_units_Z   1
loop_
 _symmetry_equiv_pos_site_id
 _symmetry_equiv_pos_as_xyz
  1  'x, y, z'
loop_
 _atom_site_type_symbol
 _atom_site_label
 _atom_site_symmetry_multiplicity
 _atom_site_fract_x
 _atom_site_fract_y
 _atom_site_fract_z
 _atom_site_occupancy
  Pr  Pr0  1  0.500000  0.113726  0.349444  1
  Pr  Pr1  1  0.000000  0.109931  0.573820  1
  Pr  Pr2  1  0.000000  0.890160  0.426172  1
  Pr  Pr3  1  0.000000  0.609055  0.926678  1
  Pr  Pr4  1  0.000000  0.391450  0.072547  1
  Sm  Sm5  1  0.500000  0.886252  0.650992  1
  Sm  Sm6  1  0.500000  0.612924  0.149663  1
  Sm  Sm7  1  0.500000  0.387371  0.849955  1
  P  P8  1  0.500000  0.998496  0.502016  1
  P  P9  1  0.500000  0.500507  0.999606  1
  I  I10  1  0.500000  0.244814  0.160726  1
  I  I11  1  0.500000  0.756029  0.836950  1
  I  I12  1  0.500000  0.743165  0.336918  1
  I  I13  1  0.500000  0.255898  0.664450  1
  I  I14  1  0.000000  0.261930  0.415181  1
  I  I15  1  0.000000  0.742096  0.588253  1
  I  I16  1  0.000000  0.757269  0.088958  1
  I  I17  1  0.000000  0.242782  0.910495  1
  I  I18  1  0.000000  0.999013  0.238008  1
  I  I19  1  0.000000  0.996862  0.759732  1
  I  I20  1  0.000000  0.504371  0.259212  1
  I  I21  1  0.000000  0.495897  0.740223  1
