# generated using pymatgen
data_Tb2Dy2In2Cu3Rh
_symmetry_space_group_name_H-M   'P 1'
_cell_length_a   7.61628719
_cell_length_b   7.61628669
_cell_length_c   3.70207900
_cell_angle_alpha   90.00000000
_cell_angle_beta   90.00000000
_cell_angle_gamma   90.35340045
_symmetry_Int_Tables_number   1
_chemical_formula_structural   Tb2Dy2In2Cu3Rh
_chemical_formula_sum   'Tb2 Dy2 In2 Cu3 Rh1'
_cell_volume   214.74547228
_cell_formula_units_Z   1
loop_
 _symmetry_equiv_pos_site_id
 _symmetry_equiv_pos_as_xyz
  1  'x, y, z'
loop_
 _atom_site_type_symbol
 _atom_site_label
 _atom_site_symmetry_multiplicity
 _atom_site_fract_x
 _atom_site_fract_y
 _atom_site_fract_z
 _atom_site_occupancy
  Tb  Tb0  1  0.671796  0.171796  0.500000  1
  Tb  Tb1  1  0.317664  0.817664  0.500000  1
  Dy  Dy2  1  0.179325  0.336670  0.500000  1
  Dy  Dy3  1  0.836670  0.679325  0.500000  1
  In  In4  1  0.505635  0.500076  0.000000  1
  In  In5  1  0.000076  0.005635  0.000000  1
  Cu  Cu6  1  0.874521  0.374521  0.000000  1
  Cu  Cu7  1  0.616877  0.878565  0.000000  1
  Cu  Cu8  1  0.378565  0.116877  0.000000  1
  Rh  Rh9  1  0.118874  0.618874  0.000000  1
