# generated using pymatgen
data_Y4AlNi
_symmetry_space_group_name_H-M   'P 1'
_cell_length_a   9.52878914
_cell_length_b   9.52894223
_cell_length_c   9.52893374
_cell_angle_alpha   59.96380966
_cell_angle_beta   59.96304939
_cell_angle_gamma   59.96351647
_symmetry_Int_Tables_number   1
_chemical_formula_structural   Y4AlNi
_chemical_formula_sum   'Y16 Al4 Ni4'
_cell_volume   611.29617776
_cell_formula_units_Z   4
loop_
 _symmetry_equiv_pos_site_id
 _symmetry_equiv_pos_as_xyz
  1  'x, y, z'
loop_
 _atom_site_type_symbol
 _atom_site_label
 _atom_site_symmetry_multiplicity
 _atom_site_fract_x
 _atom_site_fract_y
 _atom_site_fract_z
 _atom_site_occupancy
  Y  Y0  1  0.436018  0.063683  0.436021  1
  Y  Y1  1  0.063675  0.436018  0.436042  1
  Y  Y2  1  0.436042  0.436022  0.063667  1
  Y  Y3  1  0.063788  0.435475  0.063782  1
  Y  Y4  1  0.435473  0.063804  0.063800  1
  Y  Y5  1  0.063802  0.063797  0.435472  1
  Y  Y6  1  0.808146  0.190607  0.808153  1
  Y  Y7  1  0.190610  0.808136  0.808148  1
  Y  Y8  1  0.808144  0.808139  0.190613  1
  Y  Y9  1  0.191877  0.806012  0.191885  1
  Y  Y10  1  0.806013  0.191881  0.191877  1
  Y  Y11  1  0.191876  0.191885  0.806021  1
  Y  Y12  1  0.650636  0.650632  0.650625  1
  Y  Y13  1  0.650204  0.650207  0.053348  1
  Y  Y14  1  0.053342  0.650214  0.650200  1
  Y  Y15  1  0.650211  0.053346  0.650202  1
  Al  Al16  1  0.422981  0.422971  0.730876  1
  Al  Al17  1  0.730866  0.422976  0.422982  1
  Al  Al18  1  0.422979  0.730876  0.422977  1
  Al  Al19  1  0.421776  0.421769  0.421773  1
  Ni  Ni20  1  0.857155  0.857167  0.857161  1
  Ni  Ni21  1  0.858661  0.858657  0.427059  1
  Ni  Ni22  1  0.427077  0.858658  0.858665  1
  Ni  Ni23  1  0.858648  0.427071  0.858652  1
