# generated using pymatgen
data_Ca11In3C8
_symmetry_space_group_name_H-M   'P 1'
_cell_length_a   10.77573300
_cell_length_b   13.31538991
_cell_length_c   14.34877900
_cell_angle_alpha   74.31482757
_cell_angle_beta   90.00000000
_cell_angle_gamma   90.00000000
_symmetry_Int_Tables_number   1
_chemical_formula_structural   Ca11In3C8
_chemical_formula_sum   'Ca44 In12 C32'
_cell_volume   1982.14071028
_cell_formula_units_Z   4
loop_
 _symmetry_equiv_pos_site_id
 _symmetry_equiv_pos_as_xyz
  1  'x, y, z'
loop_
 _atom_site_type_symbol
 _atom_site_label
 _atom_site_symmetry_multiplicity
 _atom_site_fract_x
 _atom_site_fract_y
 _atom_site_fract_z
 _atom_site_occupancy
  Ca  Ca0  1  0.757786  0.984560  0.270766  1
  Ca  Ca1  1  0.257786  0.015440  0.229234  1
  Ca  Ca2  1  0.242214  0.015440  0.729234  1
  Ca  Ca3  1  0.742214  0.984560  0.770766  1
  Ca  Ca4  1  0.260666  0.977194  0.487795  1
  Ca  Ca5  1  0.760666  0.022806  0.012205  1
  Ca  Ca6  1  0.739334  0.022806  0.512205  1
  Ca  Ca7  1  0.239334  0.977194  0.987795  1
  Ca  Ca8  1  0.504196  0.887496  0.147211  1
  Ca  Ca9  1  0.004196  0.112504  0.352789  1
  Ca  Ca10  1  0.495804  0.112504  0.852789  1
  Ca  Ca11  1  0.995804  0.887496  0.647211  1
  Ca  Ca12  1  0.004112  0.851985  0.165200  1
  Ca  Ca13  1  0.504112  0.148015  0.334800  1
  Ca  Ca14  1  0.995888  0.148015  0.834800  1
  Ca  Ca15  1  0.495888  0.851985  0.665200  1
  Ca  Ca16  1  0.695381  0.735919  0.043576  1
  Ca  Ca17  1  0.195381  0.264081  0.456424  1
  Ca  Ca18  1  0.304619  0.264081  0.956424  1
  Ca  Ca19  1  0.804619  0.735919  0.543576  1
  Ca  Ca20  1  0.305107  0.730380  0.341075  1
  Ca  Ca21  1  0.805107  0.269620  0.158925  1
  Ca  Ca22  1  0.694893  0.269620  0.658925  1
  Ca  Ca23  1  0.194893  0.730380  0.841075  1
  Ca  Ca24  1  0.341215  0.694988  0.071123  1
  Ca  Ca25  1  0.841215  0.305012  0.428877  1
  Ca  Ca26  1  0.658785  0.305012  0.928877  1
  Ca  Ca27  1  0.158785  0.694988  0.571123  1
  Ca  Ca28  1  0.005343  0.606361  0.098621  1
  Ca  Ca29  1  0.505343  0.393639  0.401379  1
  Ca  Ca30  1  0.994657  0.393639  0.901379  1
  Ca  Ca31  1  0.494657  0.606361  0.598621  1
  Ca  Ca32  1  0.247487  0.494978  0.266543  1
  Ca  Ca33  1  0.747487  0.505022  0.233457  1
  Ca  Ca34  1  0.752513  0.505022  0.733457  1
  Ca  Ca35  1  0.252513  0.494978  0.766543  1
  Ca  Ca36  1  0.492183  0.392017  0.151612  1
  Ca  Ca37  1  0.992183  0.607983  0.348388  1
  Ca  Ca38  1  0.507817  0.607983  0.848388  1
  Ca  Ca39  1  0.007817  0.392017  0.651612  1
  Ca  Ca40  1  0.163761  0.295622  0.170719  1
  Ca  Ca41  1  0.663761  0.704378  0.329281  1
  Ca  Ca42  1  0.836239  0.704378  0.829281  1
  Ca  Ca43  1  0.336239  0.295622  0.670719  1
  In  In44  1  0.516403  0.870681  0.416499  1
  In  In45  1  0.016403  0.129319  0.083501  1
  In  In46  1  0.483597  0.129319  0.583501  1
  In  In47  1  0.983597  0.870681  0.916499  1
  In  In48  1  0.017817  0.856833  0.397970  1
  In  In49  1  0.517817  0.143167  0.102030  1
  In  In50  1  0.982183  0.143167  0.602030  1
  In  In51  1  0.482183  0.856833  0.897970  1
  In  In52  1  0.245502  0.497885  0.001165  1
  In  In53  1  0.745502  0.502115  0.498835  1
  In  In54  1  0.754498  0.502115  0.998835  1
  In  In55  1  0.254498  0.497885  0.501165  1
  C  C56  1  0.344780  0.319996  0.296933  1
  C  C57  1  0.844780  0.680004  0.203067  1
  C  C58  1  0.655220  0.680004  0.703067  1
  C  C59  1  0.155220  0.319996  0.796933  1
  C  C60  1  0.794321  0.774311  0.183420  1
  C  C61  1  0.294321  0.225689  0.316580  1
  C  C62  1  0.205679  0.225689  0.816580  1
  C  C63  1  0.705679  0.774311  0.683420  1
  C  C64  1  0.739095  0.866620  0.159103  1
  C  C65  1  0.239095  0.133380  0.340897  1
  C  C66  1  0.260905  0.133380  0.840897  1
  C  C67  1  0.760905  0.866620  0.659103  1
  C  C68  1  0.270946  0.857418  0.159217  1
  C  C69  1  0.770946  0.142582  0.340783  1
  C  C70  1  0.729054  0.142582  0.840783  1
  C  C71  1  0.229054  0.857418  0.659217  1
  C  C72  1  0.211232  0.766730  0.180410  1
  C  C73  1  0.711232  0.233270  0.319590  1
  C  C74  1  0.788768  0.233270  0.819590  1
  C  C75  1  0.288768  0.766730  0.680410  1
  C  C76  1  0.157732  0.673659  0.208453  1
  C  C77  1  0.657732  0.326341  0.291547  1
  C  C78  1  0.842268  0.326341  0.791547  1
  C  C79  1  0.342268  0.673659  0.708453  1
  C  C80  1  0.489917  0.570596  0.234270  1
  C  C81  1  0.989917  0.429404  0.265730  1
  C  C82  1  0.510083  0.429404  0.765730  1
  C  C83  1  0.010083  0.570596  0.734270  1
  C  C84  1  0.515865  0.667175  0.201174  1
  C  C85  1  0.015865  0.332825  0.298826  1
  C  C86  1  0.484135  0.332825  0.798826  1
  C  C87  1  0.984135  0.667175  0.701174  1
