# generated using pymatgen
data_TbHo2In3Ni2Ag
_symmetry_space_group_name_H-M   'P 1'
_cell_length_a   7.71725608
_cell_length_b   7.71104165
_cell_length_c   3.71362000
_cell_angle_alpha   90.00000000
_cell_angle_beta   90.00000000
_cell_angle_gamma   120.01049972
_symmetry_Int_Tables_number   1
_chemical_formula_structural   TbHo2In3Ni2Ag
_chemical_formula_sum   'Tb1 Ho2 In3 Ni2 Ag1'
_cell_volume   191.36305465
_cell_formula_units_Z   1
loop_
 _symmetry_equiv_pos_site_id
 _symmetry_equiv_pos_as_xyz
  1  'x, y, z'
loop_
 _atom_site_type_symbol
 _atom_site_label
 _atom_site_symmetry_multiplicity
 _atom_site_fract_x
 _atom_site_fract_y
 _atom_site_fract_z
 _atom_site_occupancy
  Tb  Tb0  1  0.973621  0.580285  0.500000  1
  Ho  Ho1  1  0.419424  0.392598  0.500000  1
  Ho  Ho2  1  0.607206  0.027039  0.500000  1
  In  In3  1  0.251133  0.995970  0.000000  1
  In  In4  1  0.744429  0.749825  0.000000  1
  In  In5  1  0.004869  0.254659  0.000000  1
  Ni  Ni6  1  0.999979  0.000316  0.500000  1
  Ni  Ni7  1  0.664827  0.332235  0.000000  1
  Ag  Ag8  1  0.334513  0.667073  0.000000  1
