# generated using pymatgen
data_Ce8Be3Si12Ge
_symmetry_space_group_name_H-M   'P 1'
_cell_length_a   7.97345100
_cell_length_b   7.97345014
_cell_length_c   8.44840400
_cell_angle_alpha   90.00000000
_cell_angle_beta   90.00000000
_cell_angle_gamma   119.99999110
_symmetry_Int_Tables_number   1
_chemical_formula_structural   Ce8Be3Si12Ge
_chemical_formula_sum   'Ce8 Be3 Si12 Ge1'
_cell_volume   465.15528198
_cell_formula_units_Z   1
loop_
 _symmetry_equiv_pos_site_id
 _symmetry_equiv_pos_as_xyz
  1  'x, y, z'
loop_
 _atom_site_type_symbol
 _atom_site_label
 _atom_site_symmetry_multiplicity
 _atom_site_fract_x
 _atom_site_fract_y
 _atom_site_fract_z
 _atom_site_occupancy
  Ce  Ce0  1  0.000000  0.000000  0.250678  1
  Ce  Ce1  1  0.000000  0.000000  0.749266  1
  Ce  Ce2  1  0.500285  0.499715  0.248917  1
  Ce  Ce3  1  0.500285  0.000571  0.248917  1
  Ce  Ce4  1  0.999429  0.499715  0.248917  1
  Ce  Ce5  1  0.500097  0.499903  0.751148  1
  Ce  Ce6  1  0.500097  0.000194  0.751148  1
  Ce  Ce7  1  0.999806  0.499903  0.751148  1
  Be  Be8  1  0.333333  0.666667  0.499132  1
  Be  Be9  1  0.666667  0.333333  0.500649  1
  Be  Be10  1  0.666667  0.333333  0.999890  1
  Si  Si11  1  0.172816  0.827184  0.499753  1
  Si  Si12  1  0.172816  0.345632  0.499753  1
  Si  Si13  1  0.654368  0.827184  0.499753  1
  Si  Si14  1  0.826739  0.173261  0.499930  1
  Si  Si15  1  0.826739  0.653477  0.499930  1
  Si  Si16  1  0.346523  0.173261  0.499930  1
  Si  Si17  1  0.824034  0.175966  0.000124  1
  Si  Si18  1  0.824034  0.648067  0.000124  1
  Si  Si19  1  0.351933  0.175966  0.000124  1
  Si  Si20  1  0.160656  0.839344  0.000061  1
  Si  Si21  1  0.160656  0.321313  0.000061  1
  Si  Si22  1  0.678687  0.839344  0.000061  1
  Ge  Ge23  1  0.333333  0.666667  0.000587  1
