# generated using pymatgen
data_Y3Pa(Pd2Pb)2
_symmetry_space_group_name_H-M   'P 1'
_cell_length_a   8.00180429
_cell_length_b   8.00180429
_cell_length_c   3.59617500
_cell_angle_alpha   90.00000000
_cell_angle_beta   90.00000000
_cell_angle_gamma   91.71419624
_symmetry_Int_Tables_number   1
_chemical_formula_structural   Y3Pa(Pd2Pb)2
_chemical_formula_sum   'Y3 Pa1 Pd4 Pb2'
_cell_volume   230.15598287
_cell_formula_units_Z   1
loop_
 _symmetry_equiv_pos_site_id
 _symmetry_equiv_pos_as_xyz
  1  'x, y, z'
loop_
 _atom_site_type_symbol
 _atom_site_label
 _atom_site_symmetry_multiplicity
 _atom_site_fract_x
 _atom_site_fract_y
 _atom_site_fract_z
 _atom_site_occupancy
  Y  Y0  1  0.169604  0.329999  0.500000  1
  Y  Y1  1  0.829999  0.669604  0.500000  1
  Y  Y2  1  0.326551  0.826551  0.500000  1
  Pa  Pa3  1  0.668866  0.168866  0.500000  1
  Pd  Pd4  1  0.864449  0.364449  0.000000  1
  Pd  Pd5  1  0.385281  0.131404  0.000000  1
  Pd  Pd6  1  0.631404  0.885281  0.000000  1
  Pd  Pd7  1  0.120939  0.620939  0.000000  1
  Pb  Pb8  1  0.006875  0.996031  0.000000  1
  Pb  Pb9  1  0.496031  0.506875  0.000000  1
