# generated using pymatgen
data_ErTm7Ti11Si16Au
_symmetry_space_group_name_H-M   'P 1'
_cell_length_a   7.02700274
_cell_length_b   7.02723307
_cell_length_c   12.81479704
_cell_angle_alpha   90.11431691
_cell_angle_beta   89.88026302
_cell_angle_gamma   89.64492411
_symmetry_Int_Tables_number   1
_chemical_formula_structural   ErTm7Ti11Si16Au
_chemical_formula_sum   'Er1 Tm7 Ti11 Si16 Au1'
_cell_volume   632.78481572
_cell_formula_units_Z   1
loop_
 _symmetry_equiv_pos_site_id
 _symmetry_equiv_pos_as_xyz
  1  'x, y, z'
loop_
 _atom_site_type_symbol
 _atom_site_label
 _atom_site_symmetry_multiplicity
 _atom_site_fract_x
 _atom_site_fract_y
 _atom_site_fract_z
 _atom_site_occupancy
  Er  Er0  1  0.000601  0.656475  0.031249  1
  Tm  Tm1  1  0.341104  0.002042  0.466763  1
  Tm  Tm2  1  0.497661  0.841147  0.716838  1
  Tm  Tm3  1  0.501137  0.157203  0.214503  1
  Tm  Tm4  1  0.841142  0.497640  0.283192  1
  Tm  Tm5  1  0.157246  0.501120  0.785463  1
  Tm  Tm6  1  0.656454  0.000874  0.968723  1
  Tm  Tm7  1  0.002046  0.341100  0.533228  1
  Ti  Ti8  1  0.174731  0.826233  0.249530  1
  Ti  Ti9  1  0.826193  0.174682  0.750510  1
  Ti  Ti10  1  0.672745  0.672742  0.500000  1
  Ti  Ti11  1  0.147454  0.006940  0.876742  1
  Ti  Ti12  1  0.495426  0.650842  0.122882  1
  Ti  Ti13  1  0.506690  0.351061  0.625414  1
  Ti  Ti14  1  0.650747  0.495367  0.877087  1
  Ti  Ti15  1  0.351076  0.506692  0.374595  1
  Ti  Ti16  1  0.850596  0.992433  0.374224  1
  Ti  Ti17  1  0.006894  0.147476  0.123239  1
  Ti  Ti18  1  0.992409  0.850613  0.625768  1
  Si  Si19  1  0.202220  0.133345  0.683900  1
  Si  Si20  1  0.373681  0.720196  0.928017  1
  Si  Si21  1  0.631996  0.293655  0.431907  1
  Si  Si22  1  0.719937  0.373289  0.071957  1
  Si  Si23  1  0.293641  0.631996  0.568095  1
  Si  Si24  1  0.797334  0.866454  0.182276  1
  Si  Si25  1  0.133378  0.202202  0.316083  1
  Si  Si26  1  0.866278  0.797500  0.817756  1
  Si  Si27  1  0.286870  0.938343  0.065820  1
  Si  Si28  1  0.546903  0.791834  0.314489  1
  Si  Si29  1  0.454468  0.207113  0.809894  1
  Si  Si30  1  0.791827  0.546963  0.685491  1
  Si  Si31  1  0.207234  0.454363  0.190215  1
  Si  Si32  1  0.707978  0.047777  0.564530  1
  Si  Si33  1  0.938086  0.286476  0.934156  1
  Si  Si34  1  0.047810  0.707971  0.435466  1
  Au  Au35  1  0.328010  0.327844  0.999999  1
