# generated using pymatgen
data_Y12GaCo5
_symmetry_space_group_name_H-M   'P 1'
_cell_length_a   8.28016087
_cell_length_b   8.28016135
_cell_length_c   8.28016056
_cell_angle_alpha   110.63740068
_cell_angle_beta   110.70218025
_cell_angle_gamma   107.09979449
_symmetry_Int_Tables_number   1
_chemical_formula_structural   Y12GaCo5
_chemical_formula_sum   'Y12 Ga1 Co5'
_cell_volume   436.45439559
_cell_formula_units_Z   1
loop_
 _symmetry_equiv_pos_site_id
 _symmetry_equiv_pos_as_xyz
  1  'x, y, z'
loop_
 _atom_site_type_symbol
 _atom_site_label
 _atom_site_symmetry_multiplicity
 _atom_site_fract_x
 _atom_site_fract_y
 _atom_site_fract_z
 _atom_site_occupancy
  Y  Y0  1  0.291799  0.186959  0.478758  1
  Y  Y1  1  0.708201  0.813041  0.521242  1
  Y  Y2  1  0.291799  0.813041  0.104841  1
  Y  Y3  1  0.708201  0.186959  0.895159  1
  Y  Y4  1  0.617922  0.315511  0.302410  1
  Y  Y5  1  0.382078  0.684489  0.697590  1
  Y  Y6  1  0.013101  0.315511  0.697590  1
  Y  Y7  1  0.986899  0.684489  0.302410  1
  Y  Y8  1  0.212685  0.404028  0.191343  1
  Y  Y9  1  0.787315  0.595972  0.808657  1
  Y  Y10  1  0.212685  0.021342  0.808657  1
  Y  Y11  1  0.787315  0.978658  0.191343  1
  Ga  Ga12  1  0.500000  0.500000  0.000000  1
  Co  Co13  1  0.000000  0.379690  0.379690  1
  Co  Co14  1  0.000000  0.620310  0.620310  1
  Co  Co15  1  0.388084  0.888084  0.500000  1
  Co  Co16  1  0.611916  0.111916  0.500000  1
  Co  Co17  1  0.000000  0.000000  0.000000  1
