# generated using pymatgen
data_PrDy2Er(WN3)4
_symmetry_space_group_name_H-M   'P 1'
_cell_length_a   7.30893082
_cell_length_b   7.30893154
_cell_length_c   6.26224575
_cell_angle_alpha   74.81509737
_cell_angle_beta   74.81510964
_cell_angle_gamma   82.56869411
_symmetry_Int_Tables_number   1
_chemical_formula_structural   PrDy2Er(WN3)4
_chemical_formula_sum   'Pr1 Dy2 Er1 W4 N12'
_cell_volume   310.91695303
_cell_formula_units_Z   1
loop_
 _symmetry_equiv_pos_site_id
 _symmetry_equiv_pos_as_xyz
  1  'x, y, z'
loop_
 _atom_site_type_symbol
 _atom_site_label
 _atom_site_symmetry_multiplicity
 _atom_site_fract_x
 _atom_site_fract_y
 _atom_site_fract_z
 _atom_site_occupancy
  Pr  Pr0  1  0.700155  0.299845  0.750000  1
  Dy  Dy1  1  0.294620  0.705380  0.250000  1
  Dy  Dy2  1  0.915259  0.084741  0.250000  1
  Er  Er3  1  0.091036  0.908964  0.750000  1
  W  W4  1  0.379431  0.199750  0.244384  1
  W  W5  1  0.617555  0.800811  0.760511  1
  W  W6  1  0.800250  0.620569  0.255616  1
  W  W7  1  0.199189  0.382445  0.739489  1
  N  N8  1  0.622039  0.108842  0.166860  1
  N  N9  1  0.360469  0.360004  0.453970  1
  N  N10  1  0.007731  0.212138  0.850136  1
  N  N11  1  0.375739  0.895447  0.842216  1
  N  N12  1  0.787862  0.992269  0.649864  1
  N  N13  1  0.104553  0.624261  0.657784  1
  N  N14  1  0.891158  0.377961  0.333140  1
  N  N15  1  0.640463  0.650363  0.539400  1
  N  N16  1  0.639996  0.639531  0.046030  1
  N  N17  1  0.349637  0.359537  0.960600  1
  N  N18  1  0.002747  0.779889  0.146470  1
  N  N19  1  0.220111  0.997253  0.353530  1
