# generated using pymatgen
data_CaLaPrCo2
_symmetry_space_group_name_H-M   'P 1'
_cell_length_a   3.98482100
_cell_length_b   3.98482056
_cell_length_c   21.16898000
_cell_angle_alpha   90.00000000
_cell_angle_beta   90.00000000
_cell_angle_gamma   119.99999532
_symmetry_Int_Tables_number   1
_chemical_formula_structural   CaLaPrCo2
_chemical_formula_sum   'Ca2 La2 Pr2 Co4'
_cell_volume   291.10399938
_cell_formula_units_Z   2
loop_
 _symmetry_equiv_pos_site_id
 _symmetry_equiv_pos_as_xyz
  1  'x, y, z'
loop_
 _atom_site_type_symbol
 _atom_site_label
 _atom_site_symmetry_multiplicity
 _atom_site_fract_x
 _atom_site_fract_y
 _atom_site_fract_z
 _atom_site_occupancy
  Ca  Ca0  1  0.333333  0.666667  0.750000  1
  Ca  Ca1  1  0.666667  0.333333  0.250000  1
  La  La2  1  0.000000  0.000000  0.088873  1
  La  La3  1  0.000000  0.000000  0.411127  1
  Pr  Pr4  1  0.000000  0.000000  0.911125  1
  Pr  Pr5  1  0.000000  0.000000  0.588875  1
  Co  Co6  1  0.333333  0.666667  0.999681  1
  Co  Co7  1  0.666667  0.333333  0.000330  1
  Co  Co8  1  0.333333  0.666667  0.500319  1
  Co  Co9  1  0.666667  0.333333  0.499670  1
