# generated using pymatgen
data_Hf3ZrNp4F28
_symmetry_space_group_name_H-M   'P 1'
_cell_length_a   5.85489948
_cell_length_b   9.37762835
_cell_length_c   12.58157700
_cell_angle_alpha   61.96657097
_cell_angle_beta   89.97681707
_cell_angle_gamma   90.00337080
_symmetry_Int_Tables_number   1
_chemical_formula_structural   Hf3ZrNp4F28
_chemical_formula_sum   'Hf3 Zr1 Np4 F28'
_cell_volume   609.74407763
_cell_formula_units_Z   1
loop_
 _symmetry_equiv_pos_site_id
 _symmetry_equiv_pos_as_xyz
  1  'x, y, z'
loop_
 _atom_site_type_symbol
 _atom_site_label
 _atom_site_symmetry_multiplicity
 _atom_site_fract_x
 _atom_site_fract_y
 _atom_site_fract_z
 _atom_site_occupancy
  Hf  Hf0  1  0.754830  0.275345  0.956269  1
  Hf  Hf1  1  0.255310  0.724051  0.544400  1
  Hf  Hf2  1  0.245329  0.724541  0.044628  1
  Zr  Zr3  1  0.744708  0.274662  0.456681  1
  Np  Np4  1  0.757711  0.811625  0.765962  1
  Np  Np5  1  0.257634  0.186551  0.735020  1
  Np  Np6  1  0.241509  0.186763  0.235376  1
  Np  Np7  1  0.741731  0.813553  0.265622  1
  F  F8  1  0.452715  0.712108  0.921782  1
  F  F9  1  0.948470  0.288601  0.583141  1
  F  F10  1  0.543860  0.288160  0.077218  1
  F  F11  1  0.047929  0.712534  0.421478  1
  F  F12  1  0.451449  0.281866  0.544435  1
  F  F13  1  0.963425  0.717999  0.953799  1
  F  F14  1  0.538163  0.716742  0.454390  1
  F  F15  1  0.035601  0.283493  0.046796  1
  F  F16  1  0.767462  0.516506  0.861603  1
  F  F17  1  0.268361  0.483130  0.638065  1
  F  F18  1  0.231732  0.483770  0.137837  1
  F  F19  1  0.732458  0.520225  0.360101  1
  F  F20  1  0.761947  0.033127  0.055447  1
  F  F21  1  0.264061  0.966636  0.445287  1
  F  F22  1  0.238991  0.966867  0.944654  1
  F  F23  1  0.737262  0.028332  0.556076  1
  F  F24  1  0.986203  0.731713  0.640127  1
  F  F25  1  0.486674  0.267470  0.859777  1
  F  F26  1  0.024738  0.267923  0.361779  1
  F  F27  1  0.515433  0.733303  0.139188  1
  F  F28  1  0.042965  0.744104  0.166598  1
  F  F29  1  0.547407  0.257243  0.328120  1
  F  F30  1  0.959026  0.257078  0.834203  1
  F  F31  1  0.457794  0.741565  0.667378  1
  F  F32  1  0.412630  0.968009  0.231486  1
  F  F33  1  0.912051  0.032267  0.269457  1
  F  F34  1  0.586600  0.032709  0.766078  1
  F  F35  1  0.085833  0.969432  0.729746  1
