# generated using pymatgen
data_Zr4Si3AsIr4
_symmetry_space_group_name_H-M   'P 1'
_cell_length_a   3.98348600
_cell_length_b   6.61223628
_cell_length_c   7.49900516
_cell_angle_alpha   90.41022460
_cell_angle_beta   90.00000000
_cell_angle_gamma   90.00000000
_symmetry_Int_Tables_number   1
_chemical_formula_structural   Zr4Si3AsIr4
_chemical_formula_sum   'Zr4 Si3 As1 Ir4'
_cell_volume   197.51686318
_cell_formula_units_Z   1
loop_
 _symmetry_equiv_pos_site_id
 _symmetry_equiv_pos_as_xyz
  1  'x, y, z'
loop_
 _atom_site_type_symbol
 _atom_site_label
 _atom_site_symmetry_multiplicity
 _atom_site_fract_x
 _atom_site_fract_y
 _atom_site_fract_z
 _atom_site_occupancy
  Zr  Zr0  1  0.250000  0.019016  0.320148  1
  Zr  Zr1  1  0.250000  0.519896  0.178175  1
  Zr  Zr2  1  0.750000  0.976472  0.683403  1
  Zr  Zr3  1  0.750000  0.482165  0.818498  1
  Si  Si4  1  0.250000  0.775754  0.883300  1
  Si  Si5  1  0.750000  0.724923  0.378035  1
  Si  Si6  1  0.750000  0.222482  0.118626  1
  As  As7  1  0.250000  0.268654  0.622142  1
  Ir  Ir8  1  0.250000  0.148177  0.947160  1
  Ir  Ir9  1  0.250000  0.658631  0.561642  1
  Ir  Ir10  1  0.750000  0.848310  0.064387  1
  Ir  Ir11  1  0.750000  0.355520  0.424485  1
