# generated using pymatgen
data_Tb2PdPtF14
_symmetry_space_group_name_H-M   'P 1'
_cell_length_a   5.56846262
_cell_length_b   8.92634085
_cell_length_c   12.01861794
_cell_angle_alpha   62.31084395
_cell_angle_beta   90.02737669
_cell_angle_gamma   90.05341665
_symmetry_Int_Tables_number   1
_chemical_formula_structural   Tb2PdPtF14
_chemical_formula_sum   'Tb4 Pd2 Pt2 F28'
_cell_volume   528.98413859
_cell_formula_units_Z   2
loop_
 _symmetry_equiv_pos_site_id
 _symmetry_equiv_pos_as_xyz
  1  'x, y, z'
loop_
 _atom_site_type_symbol
 _atom_site_label
 _atom_site_symmetry_multiplicity
 _atom_site_fract_x
 _atom_site_fract_y
 _atom_site_fract_z
 _atom_site_occupancy
  Tb  Tb0  1  0.260529  0.814282  0.263964  1
  Tb  Tb1  1  0.739471  0.185718  0.736036  1
  Tb  Tb2  1  0.761903  0.186821  0.235618  1
  Tb  Tb3  1  0.238097  0.813179  0.764382  1
  Pd  Pd4  1  0.758329  0.727602  0.042479  1
  Pd  Pd5  1  0.241671  0.272398  0.957521  1
  Pt  Pt6  1  0.258888  0.273242  0.456730  1
  Pt  Pt7  1  0.741112  0.726758  0.543270  1
  F  F8  1  0.934550  0.703989  0.415115  1
  F  F9  1  0.065450  0.296011  0.584885  1
  F  F10  1  0.441062  0.295451  0.081616  1
  F  F11  1  0.558938  0.704549  0.918384  1
  F  F12  1  0.472798  0.727570  0.135886  1
  F  F13  1  0.527202  0.272430  0.864114  1
  F  F14  1  0.965815  0.273856  0.365099  1
  F  F15  1  0.034185  0.726144  0.634901  1
  F  F16  1  0.953018  0.744148  0.171581  1
  F  F17  1  0.046982  0.255852  0.828419  1
  F  F18  1  0.447395  0.256801  0.324007  1
  F  F19  1  0.552605  0.743199  0.675993  1
  F  F20  1  0.770487  0.481753  0.140336  1
  F  F21  1  0.229513  0.518247  0.859664  1
  F  F22  1  0.270074  0.521494  0.358067  1
  F  F23  1  0.729926  0.478506  0.641933  1
  F  F24  1  0.948663  0.281269  0.043588  1
  F  F25  1  0.051337  0.718731  0.956412  1
  F  F26  1  0.441511  0.719160  0.458419  1
  F  F27  1  0.558489  0.280840  0.541581  1
  F  F28  1  0.741676  0.974900  0.450089  1
  F  F29  1  0.258324  0.025100  0.549911  1
  F  F30  1  0.242529  0.026798  0.050154  1
  F  F31  1  0.757471  0.973202  0.949846  1
  F  F32  1  0.587730  0.968725  0.233301  1
  F  F33  1  0.412270  0.031275  0.766699  1
  F  F34  1  0.087252  0.029783  0.270384  1
  F  F35  1  0.912748  0.970217  0.729616  1
