# generated using pymatgen
data_LuFe3P3Ru2
_symmetry_space_group_name_H-M   'P 1'
_cell_length_a   3.73553900
_cell_length_b   10.42120100
_cell_length_c   11.92342900
_cell_angle_alpha   90.00000000
_cell_angle_beta   90.00000000
_cell_angle_gamma   90.00000000
_symmetry_Int_Tables_number   1
_chemical_formula_structural   LuFe3P3Ru2
_chemical_formula_sum   'Lu4 Fe12 P12 Ru8'
_cell_volume   464.16481579
_cell_formula_units_Z   4
loop_
 _symmetry_equiv_pos_site_id
 _symmetry_equiv_pos_as_xyz
  1  'x, y, z'
loop_
 _atom_site_type_symbol
 _atom_site_label
 _atom_site_symmetry_multiplicity
 _atom_site_fract_x
 _atom_site_fract_y
 _atom_site_fract_z
 _atom_site_occupancy
  Lu  Lu0  1  0.250000  0.583125  0.709577  1
  Lu  Lu1  1  0.250000  0.916875  0.209577  1
  Lu  Lu2  1  0.750000  0.416875  0.290423  1
  Lu  Lu3  1  0.750000  0.083125  0.790423  1
  Fe  Fe4  1  0.250000  0.224768  0.176254  1
  Fe  Fe5  1  0.250000  0.275232  0.676254  1
  Fe  Fe6  1  0.750000  0.775232  0.823746  1
  Fe  Fe7  1  0.750000  0.724768  0.323746  1
  Fe  Fe8  1  0.250000  0.880798  0.699282  1
  Fe  Fe9  1  0.250000  0.619202  0.199282  1
  Fe  Fe10  1  0.750000  0.119202  0.300718  1
  Fe  Fe11  1  0.750000  0.380798  0.800718  1
  Fe  Fe12  1  0.250000  0.462225  0.934153  1
  Fe  Fe13  1  0.250000  0.037775  0.434153  1
  Fe  Fe14  1  0.750000  0.537775  0.065847  1
  Fe  Fe15  1  0.750000  0.962225  0.565847  1
  P  P16  1  0.250000  0.425034  0.114156  1
  P  P17  1  0.250000  0.074966  0.614156  1
  P  P18  1  0.750000  0.574966  0.885844  1
  P  P19  1  0.750000  0.925034  0.385844  1
  P  P20  1  0.250000  0.271453  0.861596  1
  P  P21  1  0.250000  0.228547  0.361596  1
  P  P22  1  0.750000  0.728547  0.138404  1
  P  P23  1  0.750000  0.771453  0.638404  1
  P  P24  1  0.250000  0.605082  0.384605  1
  P  P25  1  0.250000  0.894918  0.884605  1
  P  P26  1  0.750000  0.394918  0.615395  1
  P  P27  1  0.750000  0.105082  0.115395  1
  Ru  Ru28  1  0.250000  0.702553  0.984225  1
  Ru  Ru29  1  0.250000  0.797447  0.484225  1
  Ru  Ru30  1  0.750000  0.297447  0.015775  1
  Ru  Ru31  1  0.750000  0.202553  0.515775  1
  Ru  Ru32  1  0.250000  0.403415  0.484939  1
  Ru  Ru33  1  0.250000  0.096585  0.984939  1
  Ru  Ru34  1  0.750000  0.596585  0.515061  1
  Ru  Ru35  1  0.750000  0.903415  0.015061  1
