# generated using pymatgen
data_PrNd11Pd3Ru
_symmetry_space_group_name_H-M   'P 1'
_cell_length_a   6.61605570
_cell_length_b   7.36003459
_cell_length_c   10.01260700
_cell_angle_alpha   90.00000000
_cell_angle_beta   90.00000000
_cell_angle_gamma   89.89141301
_symmetry_Int_Tables_number   1
_chemical_formula_structural   PrNd11Pd3Ru
_chemical_formula_sum   'Pr1 Nd11 Pd3 Ru1'
_cell_volume   487.55700236
_cell_formula_units_Z   1
loop_
 _symmetry_equiv_pos_site_id
 _symmetry_equiv_pos_as_xyz
  1  'x, y, z'
loop_
 _atom_site_type_symbol
 _atom_site_label
 _atom_site_symmetry_multiplicity
 _atom_site_fract_x
 _atom_site_fract_y
 _atom_site_fract_z
 _atom_site_occupancy
  Pr  Pr0  1  0.863703  0.526203  0.250000  1
  Nd  Nd1  1  0.332961  0.679959  0.057401  1
  Nd  Nd2  1  0.165591  0.178015  0.438808  1
  Nd  Nd3  1  0.665300  0.327889  0.566692  1
  Nd  Nd4  1  0.825747  0.817768  0.935112  1
  Nd  Nd5  1  0.665300  0.327889  0.933308  1
  Nd  Nd6  1  0.825747  0.817768  0.564888  1
  Nd  Nd7  1  0.332961  0.679959  0.442599  1
  Nd  Nd8  1  0.165591  0.178015  0.061192  1
  Nd  Nd9  1  0.637957  0.029012  0.250000  1
  Nd  Nd10  1  0.145882  0.472995  0.750000  1
  Nd  Nd11  1  0.369625  0.958461  0.750000  1
  Pd  Pd12  1  0.072307  0.885333  0.250000  1
  Pd  Pd13  1  0.425427  0.387107  0.250000  1
  Pd  Pd14  1  0.938140  0.115397  0.750000  1
  Ru  Ru15  1  0.567756  0.618230  0.750000  1
