# generated using pymatgen
data_Nd6NiCl10
_symmetry_space_group_name_H-M   'P 1'
_cell_length_a   7.35331114
_cell_length_b   9.18210599
_cell_length_c   9.22036461
_cell_angle_alpha   110.17967911
_cell_angle_beta   96.83128417
_cell_angle_gamma   107.02946719
_symmetry_Int_Tables_number   1
_chemical_formula_structural   Nd6NiCl10
_chemical_formula_sum   'Nd6 Ni1 Cl10'
_cell_volume   541.67033004
_cell_formula_units_Z   1
loop_
 _symmetry_equiv_pos_site_id
 _symmetry_equiv_pos_as_xyz
  1  'x, y, z'
loop_
 _atom_site_type_symbol
 _atom_site_label
 _atom_site_symmetry_multiplicity
 _atom_site_fract_x
 _atom_site_fract_y
 _atom_site_fract_z
 _atom_site_occupancy
  Nd  Nd0  1  0.871018  0.147346  0.195189  1
  Nd  Nd1  1  0.128982  0.852654  0.804811  1
  Nd  Nd2  1  0.524249  0.689717  0.893951  1
  Nd  Nd3  1  0.475751  0.310283  0.106049  1
  Nd  Nd4  1  0.637209  0.051960  0.753646  1
  Nd  Nd5  1  0.362791  0.948040  0.246354  1
  Ni  Ni6  1  0.500000  0.000000  0.000000  1
  Cl  Cl7  1  0.744114  0.079600  0.450971  1
  Cl  Cl8  1  0.255886  0.920400  0.549029  1
  Cl  Cl9  1  0.948542  0.830021  0.073526  1
  Cl  Cl10  1  0.051458  0.169979  0.926474  1
  Cl  Cl11  1  0.299492  0.256871  0.350589  1
  Cl  Cl12  1  0.700508  0.743129  0.649411  1
  Cl  Cl13  1  0.589934  0.366101  0.839075  1
  Cl  Cl14  1  0.410066  0.633899  0.160925  1
  Cl  Cl15  1  0.861735  0.462163  0.278350  1
  Cl  Cl16  1  0.138265  0.537837  0.721650  1
