# generated using pymatgen
data_PrTm(Co3Si2)2
_symmetry_space_group_name_H-M   'P 1'
_cell_length_a   6.29883402
_cell_length_b   6.29883328
_cell_length_c   6.29883444
_cell_angle_alpha   130.45508076
_cell_angle_beta   113.70327712
_cell_angle_gamma   87.08515268
_symmetry_Int_Tables_number   1
_chemical_formula_structural   PrTm(Co3Si2)2
_chemical_formula_sum   'Pr1 Tm1 Co6 Si4'
_cell_volume   166.02061457
_cell_formula_units_Z   1
loop_
 _symmetry_equiv_pos_site_id
 _symmetry_equiv_pos_as_xyz
  1  'x, y, z'
loop_
 _atom_site_type_symbol
 _atom_site_label
 _atom_site_symmetry_multiplicity
 _atom_site_fract_x
 _atom_site_fract_y
 _atom_site_fract_z
 _atom_site_occupancy
  Pr  Pr0  1  0.750000  0.471839  0.721839  1
  Tm  Tm1  1  0.250000  0.536500  0.286500  1
  Co  Co2  1  0.999704  0.997722  0.497428  1
  Co  Co3  1  0.500296  0.997722  0.998018  1
  Co  Co4  1  0.720701  0.995642  0.720931  1
  Co  Co5  1  0.225289  0.500230  0.720931  1
  Co  Co6  1  0.274711  0.995642  0.274941  1
  Co  Co7  1  0.779299  0.500230  0.274941  1
  Si  Si8  1  0.083863  0.879447  0.795584  1
  Si  Si9  1  0.923149  0.129801  0.206652  1
  Si  Si10  1  0.576851  0.783504  0.206652  1
  Si  Si11  1  0.416137  0.211719  0.795584  1
