# generated using pymatgen
data_Zr8Be(Al2Ru)7
_symmetry_space_group_name_H-M   'P 1'
_cell_length_a   8.89327777
_cell_length_b   8.89327840
_cell_length_c   8.89327800
_cell_angle_alpha   120.07464245
_cell_angle_beta   119.96839646
_cell_angle_gamma   89.96275959
_symmetry_Int_Tables_number   1
_chemical_formula_structural   Zr8Be(Al2Ru)7
_chemical_formula_sum   'Zr8 Be1 Al14 Ru7'
_cell_volume   497.19728734
_cell_formula_units_Z   1
loop_
 _symmetry_equiv_pos_site_id
 _symmetry_equiv_pos_as_xyz
  1  'x, y, z'
loop_
 _atom_site_type_symbol
 _atom_site_label
 _atom_site_symmetry_multiplicity
 _atom_site_fract_x
 _atom_site_fract_y
 _atom_site_fract_z
 _atom_site_occupancy
  Zr  Zr0  1  0.805488  0.297408  0.091444  1
  Zr  Zr1  1  0.205964  0.297408  0.491919  1
  Zr  Zr2  1  0.194679  0.694679  0.500000  1
  Zr  Zr3  1  0.205964  0.714044  0.908556  1
  Zr  Zr4  1  0.805488  0.714044  0.508081  1
  Zr  Zr5  1  0.784461  0.284461  0.500000  1
  Zr  Zr6  1  0.378716  0.117124  0.738409  1
  Zr  Zr7  1  0.378716  0.640306  0.261591  1
  Be  Be8  1  0.989294  0.489294  0.500000  1
  Al  Al9  1  0.161998  0.333243  0.171243  1
  Al  Al10  1  0.161998  0.990754  0.828757  1
  Al  Al11  1  0.155051  0.341119  0.813932  1
  Al  Al12  1  0.527185  0.341119  0.186068  1
  Al  Al13  1  0.839834  0.659059  0.819228  1
  Al  Al14  1  0.839834  0.020606  0.180772  1
  Al  Al15  1  0.836511  0.661738  0.174774  1
  Al  Al16  1  0.486964  0.661738  0.825226  1
  Al  Al17  1  0.375865  0.121127  0.254737  1
  Al  Al18  1  0.866392  0.121127  0.745263  1
  Al  Al19  1  0.620704  0.873641  0.252936  1
  Al  Al20  1  0.620704  0.367767  0.747064  1
  Al  Al21  1  0.625078  0.879895  0.745182  1
  Al  Al22  1  0.134712  0.879895  0.254818  1
  Ru  Ru23  1  0.995028  0.998011  0.498397  1
  Ru  Ru24  1  0.499612  0.998011  0.002983  1
  Ru  Ru25  1  0.499659  0.499659  0.000000  1
  Ru  Ru26  1  0.499612  0.496630  0.501603  1
  Ru  Ru27  1  0.995028  0.496630  0.997017  1
  Ru  Ru28  1  0.999702  0.999702  0.000000  1
  Ru  Ru29  1  0.509756  0.009756  0.500000  1
