# generated using pymatgen
data_Nb6VRe3(Si3W)2
_symmetry_space_group_name_H-M   'P 1'
_cell_length_a   7.64983104
_cell_length_b   7.63680925
_cell_length_c   7.64760515
_cell_angle_alpha   126.35645463
_cell_angle_beta   128.15407308
_cell_angle_gamma   77.85082783
_symmetry_Int_Tables_number   1
_chemical_formula_structural   Nb6VRe3(Si3W)2
_chemical_formula_sum   'Nb6 V1 Re3 Si6 W2'
_cell_volume   274.24383420
_cell_formula_units_Z   1
loop_
 _symmetry_equiv_pos_site_id
 _symmetry_equiv_pos_as_xyz
  1  'x, y, z'
loop_
 _atom_site_type_symbol
 _atom_site_label
 _atom_site_symmetry_multiplicity
 _atom_site_fract_x
 _atom_site_fract_y
 _atom_site_fract_z
 _atom_site_occupancy
  Nb  Nb0  1  0.548430  0.085766  0.033590  1
  Nb  Nb1  1  0.442679  0.495831  0.548901  1
  Nb  Nb2  1  0.949233  0.494086  0.048435  1
  Nb  Nb3  1  0.050322  0.085641  0.538994  1
  Nb  Nb4  1  0.754900  0.907694  0.653458  1
  Nb  Nb5  1  0.252014  0.905103  0.152400  1
  V  V6  1  0.131674  0.755809  0.628657  1
  Re  Re7  1  0.864940  0.495826  0.620584  1
  Re  Re8  1  0.626119  0.752741  0.122776  1
  Re  Re9  1  0.376422  0.495981  0.129861  1
  Si  Si10  1  0.755296  0.506335  0.257571  1
  Si  Si11  1  0.244407  0.503841  0.753535  1
  Si  Si12  1  0.332908  0.822837  0.490834  1
  Si  Si13  1  0.667627  0.165730  0.493524  1
  Si  Si14  1  0.831900  0.822998  0.989740  1
  Si  Si15  1  0.171471  0.163489  0.995936  1
  W  W16  1  0.499608  0.242166  0.741758  1
  W  W17  1  0.000049  0.240324  0.241645  1
