# generated using pymatgen
data_Sr4Ca4Ti3GeO16
_symmetry_space_group_name_H-M   'P 1'
_cell_length_a   5.42002509
_cell_length_b   7.06136000
_cell_length_c   12.07002220
_cell_angle_alpha   90.00000000
_cell_angle_beta   89.97931955
_cell_angle_gamma   90.00000000
_symmetry_Int_Tables_number   1
_chemical_formula_structural   Sr4Ca4Ti3GeO16
_chemical_formula_sum   'Sr4 Ca4 Ti3 Ge1 O16'
_cell_volume   461.95289210
_cell_formula_units_Z   1
loop_
 _symmetry_equiv_pos_site_id
 _symmetry_equiv_pos_as_xyz
  1  'x, y, z'
loop_
 _atom_site_type_symbol
 _atom_site_label
 _atom_site_symmetry_multiplicity
 _atom_site_fract_x
 _atom_site_fract_y
 _atom_site_fract_z
 _atom_site_occupancy
  Sr  Sr0  1  0.014642  0.750000  0.720928  1
  Sr  Sr1  1  0.985601  0.250000  0.279150  1
  Sr  Sr2  1  0.513820  0.250000  0.778673  1
  Sr  Sr3  1  0.485516  0.750000  0.221460  1
  Ca  Ca4  1  0.498343  0.500177  0.500003  1
  Ca  Ca5  1  0.000018  0.000090  0.999933  1
  Ca  Ca6  1  0.000018  0.499910  0.999933  1
  Ca  Ca7  1  0.498343  0.999823  0.500003  1
  Ti  Ti8  1  0.426291  0.250000  0.088075  1
  Ti  Ti9  1  0.925949  0.750000  0.412128  1
  Ti  Ti10  1  0.573719  0.750000  0.912107  1
  Ge  Ge11  1  0.076625  0.250000  0.587971  1
  O  O12  1  0.767420  0.750000  0.547252  1
  O  O13  1  0.777851  0.546703  0.345648  1
  O  O14  1  0.720945  0.546609  0.845406  1
  O  O15  1  0.749174  0.250000  0.583515  1
  O  O16  1  0.731401  0.750000  0.047386  1
  O  O17  1  0.278404  0.453462  0.154516  1
  O  O18  1  0.217711  0.450943  0.653726  1
  O  O19  1  0.266744  0.750000  0.416431  1
  O  O20  1  0.777851  0.953297  0.345648  1
  O  O21  1  0.233563  0.750000  0.916181  1
  O  O22  1  0.227449  0.250000  0.453964  1
  O  O23  1  0.720945  0.953391  0.845406  1
  O  O24  1  0.217711  0.049057  0.653726  1
  O  O25  1  0.269104  0.250000  0.952710  1
  O  O26  1  0.278404  0.046538  0.154516  1
  O  O27  1  0.766438  0.250000  0.083605  1
