# generated using pymatgen
data_Ho5Er5InSb5
_symmetry_space_group_name_H-M   'P 1'
_cell_length_a   8.90641600
_cell_length_b   8.91402900
_cell_length_c   6.35901700
_cell_angle_alpha   90.00000000
_cell_angle_beta   90.00000000
_cell_angle_gamma   119.97175236
_symmetry_Int_Tables_number   1
_chemical_formula_structural   Ho5Er5InSb5
_chemical_formula_sum   'Ho5 Er5 In1 Sb5'
_cell_volume   437.34199811
_cell_formula_units_Z   1
loop_
 _symmetry_equiv_pos_site_id
 _symmetry_equiv_pos_as_xyz
  1  'x, y, z'
loop_
 _atom_site_type_symbol
 _atom_site_label
 _atom_site_symmetry_multiplicity
 _atom_site_fract_x
 _atom_site_fract_y
 _atom_site_fract_z
 _atom_site_occupancy
  Ho  Ho0  1  0.753860  0.756048  0.250000  1
  Ho  Ho1  1  0.997812  0.243952  0.250000  1
  Ho  Ho2  1  0.003986  0.758156  0.750000  1
  Ho  Ho3  1  0.245830  0.241844  0.750000  1
  Ho  Ho4  1  0.242181  0.000000  0.250000  1
  Er  Er5  1  0.333915  0.669123  0.000883  1
  Er  Er6  1  0.664792  0.330877  0.499117  1
  Er  Er7  1  0.664792  0.330877  0.000883  1
  Er  Er8  1  0.333915  0.669123  0.499117  1
  Er  Er9  1  0.756907  0.000000  0.750000  1
  In  In10  1  0.394950  0.000000  0.750000  1
  Sb  Sb11  1  0.388816  0.390405  0.250000  1
  Sb  Sb12  1  0.998412  0.609595  0.250000  1
  Sb  Sb13  1  0.000601  0.389529  0.750000  1
  Sb  Sb14  1  0.611073  0.610471  0.750000  1
  Sb  Sb15  1  0.608158  0.000000  0.250000  1
