# generated using pymatgen
data_Tb8Hf10Nb2Si15P
_symmetry_space_group_name_H-M   'P 1'
_cell_length_a   7.25357022
_cell_length_b   7.25153866
_cell_length_c   13.32473334
_cell_angle_alpha   89.91131477
_cell_angle_beta   89.97403470
_cell_angle_gamma   90.09640189
_symmetry_Int_Tables_number   1
_chemical_formula_structural   Tb8Hf10Nb2Si15P
_chemical_formula_sum   'Tb8 Hf10 Nb2 Si15 P1'
_cell_volume   700.87300449
_cell_formula_units_Z   1
loop_
 _symmetry_equiv_pos_site_id
 _symmetry_equiv_pos_as_xyz
  1  'x, y, z'
loop_
 _atom_site_type_symbol
 _atom_site_label
 _atom_site_symmetry_multiplicity
 _atom_site_fract_x
 _atom_site_fract_y
 _atom_site_fract_z
 _atom_site_occupancy
  Tb  Tb0  1  0.999586  0.343606  0.215151  1
  Tb  Tb1  1  0.003208  0.656800  0.713942  1
  Tb  Tb2  1  0.155970  0.496362  0.464976  1
  Tb  Tb3  1  0.504144  0.843874  0.034074  1
  Tb  Tb4  1  0.844286  0.502766  0.966054  1
  Tb  Tb5  1  0.497240  0.155324  0.533674  1
  Tb  Tb6  1  0.343903  0.997067  0.786042  1
  Tb  Tb7  1  0.653749  0.005292  0.285838  1
  Hf  Hf8  1  0.323757  0.676192  0.250396  1
  Hf  Hf9  1  0.675607  0.324409  0.749964  1
  Hf  Hf10  1  0.149709  0.998249  0.375266  1
  Hf  Hf11  1  0.852408  0.003866  0.876837  1
  Hf  Hf12  1  0.506397  0.649820  0.623137  1
  Hf  Hf13  1  0.350176  0.493592  0.876813  1
  Hf  Hf14  1  0.492218  0.348201  0.125849  1
  Hf  Hf15  1  0.648533  0.504419  0.376233  1
  Hf  Hf16  1  0.996532  0.147588  0.623316  1
  Hf  Hf17  1  0.002314  0.851720  0.123632  1
  Nb  Nb18  1  0.175182  0.175899  0.000751  1
  Nb  Nb19  1  0.825710  0.825134  0.499505  1
  Si  Si20  1  0.637071  0.704931  0.816822  1
  Si  Si21  1  0.203650  0.861947  0.565949  1
  Si  Si22  1  0.137947  0.795836  0.933220  1
  Si  Si23  1  0.795368  0.138977  0.067300  1
  Si  Si24  1  0.862050  0.203797  0.432956  1
  Si  Si25  1  0.295406  0.362628  0.682705  1
  Si  Si26  1  0.704344  0.636026  0.183747  1
  Si  Si27  1  0.293714  0.043714  0.181405  1
  Si  Si28  1  0.705333  0.950266  0.684457  1
  Si  Si29  1  0.452636  0.796055  0.435811  1
  Si  Si30  1  0.203737  0.547693  0.064398  1
  Si  Si31  1  0.548374  0.204025  0.936449  1
  Si  Si32  1  0.796720  0.452299  0.563939  1
  Si  Si33  1  0.050080  0.294588  0.815301  1
  Si  Si34  1  0.949776  0.706086  0.315971  1
  P  P35  1  0.363164  0.300954  0.318119  1
