# generated using pymatgen
data_Tb2LuGa6Co8Cu
_symmetry_space_group_name_H-M   'P 1'
_cell_length_a   4.06654800
_cell_length_b   8.77069512
_cell_length_c   8.77069659
_cell_angle_alpha   59.26843757
_cell_angle_beta   90.00000000
_cell_angle_gamma   90.00000000
_symmetry_Int_Tables_number   1
_chemical_formula_structural   Tb2LuGa6Co8Cu
_chemical_formula_sum   'Tb2 Lu1 Ga6 Co8 Cu1'
_cell_volume   268.89065484
_cell_formula_units_Z   1
loop_
 _symmetry_equiv_pos_site_id
 _symmetry_equiv_pos_as_xyz
  1  'x, y, z'
loop_
 _atom_site_type_symbol
 _atom_site_label
 _atom_site_symmetry_multiplicity
 _atom_site_fract_x
 _atom_site_fract_y
 _atom_site_fract_z
 _atom_site_occupancy
  Tb  Tb0  1  0.500000  0.332281  0.329992  1
  Tb  Tb1  1  0.500000  0.670008  0.667719  1
  Lu  Lu2  1  0.000000  0.001268  0.998732  1
  Ga  Ga3  1  0.000000  0.494857  0.505143  1
  Ga  Ga4  1  0.000000  0.504496  0.001369  1
  Ga  Ga5  1  0.000000  0.998631  0.495504  1
  Ga  Ga6  1  0.500000  0.731264  0.268736  1
  Ga  Ga7  1  0.500000  0.270643  0.002737  1
  Ga  Ga8  1  0.500000  0.997263  0.729357  1
  Co  Co9  1  0.000000  0.177498  0.179279  1
  Co  Co10  1  0.000000  0.177774  0.635491  1
  Co  Co11  1  0.000000  0.642090  0.179953  1
  Co  Co12  1  0.000000  0.820721  0.822502  1
  Co  Co13  1  0.000000  0.364509  0.822226  1
  Co  Co14  1  0.000000  0.820047  0.357910  1
  Co  Co15  1  0.500000  0.702176  0.002420  1
  Co  Co16  1  0.500000  0.997580  0.297824  1
  Cu  Cu17  1  0.500000  0.296793  0.703207  1
