# generated using pymatgen
data_HoEr7Tm8(In3Co)2
_symmetry_space_group_name_H-M   'P 1'
_cell_length_a   10.22287500
_cell_length_b   10.22287486
_cell_length_c   7.00204900
_cell_angle_alpha   90.00000000
_cell_angle_beta   90.00000000
_cell_angle_gamma   120.00000369
_symmetry_Int_Tables_number   1
_chemical_formula_structural   HoEr7Tm8(In3Co)2
_chemical_formula_sum   'Ho1 Er7 Tm8 In6 Co2'
_cell_volume   633.72648281
_cell_formula_units_Z   1
loop_
 _symmetry_equiv_pos_site_id
 _symmetry_equiv_pos_as_xyz
  1  'x, y, z'
loop_
 _atom_site_type_symbol
 _atom_site_label
 _atom_site_symmetry_multiplicity
 _atom_site_fract_x
 _atom_site_fract_y
 _atom_site_fract_z
 _atom_site_occupancy
  Ho  Ho0  1  0.000000  0.000000  0.727144  1
  Er  Er1  1  0.464082  0.535918  0.213107  1
  Er  Er2  1  0.071835  0.535918  0.213107  1
  Er  Er3  1  0.464082  0.928165  0.213107  1
  Er  Er4  1  0.535913  0.464087  0.713020  1
  Er  Er5  1  0.928174  0.464087  0.713020  1
  Er  Er6  1  0.535913  0.071826  0.713020  1
  Er  Er7  1  0.000000  0.000000  0.227356  1
  Tm  Tm8  1  0.178425  0.821575  0.507511  1
  Tm  Tm9  1  0.643148  0.821575  0.507511  1
  Tm  Tm10  1  0.178425  0.356852  0.507511  1
  Tm  Tm11  1  0.821619  0.178381  0.007832  1
  Tm  Tm12  1  0.356763  0.178381  0.007832  1
  Tm  Tm13  1  0.821619  0.643237  0.007832  1
  Tm  Tm14  1  0.333333  0.666667  0.820653  1
  Tm  Tm15  1  0.666667  0.333333  0.320536  1
  In  In16  1  0.163487  0.836513  0.962580  1
  In  In17  1  0.673026  0.836513  0.962580  1
  In  In18  1  0.163487  0.326974  0.962580  1
  In  In19  1  0.836544  0.163456  0.461898  1
  In  In20  1  0.326912  0.163456  0.461898  1
  In  In21  1  0.836544  0.673088  0.461898  1
  Co  Co22  1  0.333333  0.666667  0.440381  1
  Co  Co23  1  0.666667  0.333333  0.940133  1
