# generated using pymatgen
data_Ca7Tb(CdIn)4
_symmetry_space_group_name_H-M   'P 1'
_cell_length_a   7.70675800
_cell_length_b   5.41782900
_cell_length_c   10.84945701
_cell_angle_alpha   90.00000000
_cell_angle_beta   89.99570331
_cell_angle_gamma   90.00000000
_symmetry_Int_Tables_number   1
_chemical_formula_structural   Ca7Tb(CdIn)4
_chemical_formula_sum   'Ca7 Tb1 Cd4 In4'
_cell_volume   453.00710933
_cell_formula_units_Z   1
loop_
 _symmetry_equiv_pos_site_id
 _symmetry_equiv_pos_as_xyz
  1  'x, y, z'
loop_
 _atom_site_type_symbol
 _atom_site_label
 _atom_site_symmetry_multiplicity
 _atom_site_fract_x
 _atom_site_fract_y
 _atom_site_fract_z
 _atom_site_occupancy
  Ca  Ca0  1  0.000457  0.750000  0.128372  1
  Ca  Ca1  1  0.499935  0.250000  0.372910  1
  Ca  Ca2  1  0.000186  0.250000  0.372296  1
  Ca  Ca3  1  0.999291  0.750000  0.627687  1
  Ca  Ca4  1  0.499898  0.750000  0.627804  1
  Ca  Ca5  1  0.999951  0.250000  0.871583  1
  Ca  Ca6  1  0.500017  0.250000  0.871006  1
  Tb  Tb7  1  0.500652  0.750000  0.127318  1
  Cd  Cd8  1  0.747524  0.250000  0.118887  1
  Cd  Cd9  1  0.251718  0.750000  0.380098  1
  Cd  Cd10  1  0.749986  0.250000  0.618524  1
  Cd  Cd11  1  0.252180  0.750000  0.882818  1
  In  In12  1  0.254308  0.250000  0.119986  1
  In  In13  1  0.747632  0.750000  0.378030  1
  In  In14  1  0.249361  0.250000  0.619337  1
  In  In15  1  0.746904  0.750000  0.883347  1
