# generated using pymatgen
data_Tb4Y12Cd4Pt3Rh
_symmetry_space_group_name_H-M   'P 1'
_cell_length_a   9.71934487
_cell_length_b   9.71934537
_cell_length_c   9.71934585
_cell_angle_alpha   59.96095277
_cell_angle_beta   59.96095140
_cell_angle_gamma   59.96095211
_symmetry_Int_Tables_number   1
_chemical_formula_structural   Tb4Y12Cd4Pt3Rh
_chemical_formula_sum   'Tb4 Y12 Cd4 Pt3 Rh1'
_cell_volume   648.65130180
_cell_formula_units_Z   1
loop_
 _symmetry_equiv_pos_site_id
 _symmetry_equiv_pos_as_xyz
  1  'x, y, z'
loop_
 _atom_site_type_symbol
 _atom_site_label
 _atom_site_symmetry_multiplicity
 _atom_site_fract_x
 _atom_site_fract_y
 _atom_site_fract_z
 _atom_site_occupancy
  Tb  Tb0  1  0.351012  0.351012  0.351012  1
  Tb  Tb1  1  0.352482  0.352482  0.943444  1
  Tb  Tb2  1  0.352482  0.943444  0.352482  1
  Tb  Tb3  1  0.943444  0.352482  0.352482  1
  Y  Y4  1  0.812761  0.189780  0.189780  1
  Y  Y5  1  0.188580  0.810668  0.810668  1
  Y  Y6  1  0.189780  0.812761  0.189780  1
  Y  Y7  1  0.810668  0.188580  0.810668  1
  Y  Y8  1  0.189780  0.189780  0.812761  1
  Y  Y9  1  0.810668  0.810668  0.188580  1
  Y  Y10  1  0.935998  0.564816  0.564816  1
  Y  Y11  1  0.562866  0.936325  0.936325  1
  Y  Y12  1  0.564816  0.935998  0.564816  1
  Y  Y13  1  0.936325  0.562866  0.936325  1
  Y  Y14  1  0.564816  0.564816  0.935998  1
  Y  Y15  1  0.936325  0.936325  0.562866  1
  Cd  Cd16  1  0.581128  0.581128  0.581128  1
  Cd  Cd17  1  0.580950  0.580950  0.253890  1
  Cd  Cd18  1  0.580950  0.253890  0.580950  1
  Cd  Cd19  1  0.253890  0.580950  0.580950  1
  Pt  Pt20  1  0.142862  0.142862  0.570173  1
  Pt  Pt21  1  0.142862  0.570173  0.142862  1
  Pt  Pt22  1  0.570173  0.142862  0.142862  1
  Rh  Rh23  1  0.144382  0.144382  0.144382  1
