# generated using pymatgen
data_LuThReB6
_symmetry_space_group_name_H-M   'P 1'
_cell_length_a   3.73656900
_cell_length_b   9.19683000
_cell_length_c   11.64028300
_cell_angle_alpha   90.00000000
_cell_angle_beta   90.00000000
_cell_angle_gamma   90.00000000
_symmetry_Int_Tables_number   1
_chemical_formula_structural   LuThReB6
_chemical_formula_sum   'Lu4 Th4 Re4 B24'
_cell_volume   400.01355134
_cell_formula_units_Z   4
loop_
 _symmetry_equiv_pos_site_id
 _symmetry_equiv_pos_as_xyz
  1  'x, y, z'
loop_
 _atom_site_type_symbol
 _atom_site_label
 _atom_site_symmetry_multiplicity
 _atom_site_fract_x
 _atom_site_fract_y
 _atom_site_fract_z
 _atom_site_occupancy
  Lu  Lu0  1  0.000000  0.945275  0.373002  1
  Lu  Lu1  1  0.000000  0.054725  0.626998  1
  Lu  Lu2  1  0.000000  0.445275  0.126998  1
  Lu  Lu3  1  0.000000  0.554725  0.873002  1
  Th  Th4  1  0.000000  0.321570  0.414115  1
  Th  Th5  1  0.000000  0.678430  0.585885  1
  Th  Th6  1  0.000000  0.821570  0.085885  1
  Th  Th7  1  0.000000  0.178430  0.914115  1
  Re  Re8  1  0.000000  0.639976  0.319368  1
  Re  Re9  1  0.000000  0.360024  0.680632  1
  Re  Re10  1  0.000000  0.139976  0.180632  1
  Re  Re11  1  0.000000  0.860024  0.819368  1
  B  B12  1  0.500000  0.556584  0.429769  1
  B  B13  1  0.500000  0.443416  0.570231  1
  B  B14  1  0.500000  0.056584  0.070231  1
  B  B15  1  0.500000  0.943416  0.929769  1
  B  B16  1  0.500000  0.751271  0.417145  1
  B  B17  1  0.500000  0.248729  0.582855  1
  B  B18  1  0.500000  0.251271  0.082855  1
  B  B19  1  0.500000  0.748729  0.917145  1
  B  B20  1  0.500000  0.792212  0.266656  1
  B  B21  1  0.500000  0.207788  0.733344  1
  B  B22  1  0.500000  0.292212  0.233344  1
  B  B23  1  0.500000  0.707788  0.766656  1
  B  B24  1  0.500000  0.629997  0.185772  1
  B  B25  1  0.500000  0.370003  0.814228  1
  B  B26  1  0.500000  0.129997  0.314228  1
  B  B27  1  0.500000  0.870003  0.685772  1
  B  B28  1  0.500000  0.984589  0.214532  1
  B  B29  1  0.500000  0.015411  0.785468  1
  B  B30  1  0.500000  0.484589  0.285468  1
  B  B31  1  0.500000  0.515411  0.714532  1
  B  B32  1  0.500000  0.600722  0.027657  1
  B  B33  1  0.500000  0.399278  0.972343  1
  B  B34  1  0.500000  0.100722  0.472343  1
  B  B35  1  0.500000  0.899278  0.527657  1
