# generated using pymatgen
data_Al2V3Mo2Os
_symmetry_space_group_name_H-M   'P 1'
_cell_length_a   4.82621492
_cell_length_b   4.89157129
_cell_length_c   4.82621427
_cell_angle_alpha   89.95315244
_cell_angle_beta   89.97492482
_cell_angle_gamma   90.04683276
_symmetry_Int_Tables_number   1
_chemical_formula_structural   Al2V3Mo2Os
_chemical_formula_sum   'Al2 V3 Mo2 Os1'
_cell_volume   113.93609037
_cell_formula_units_Z   1
loop_
 _symmetry_equiv_pos_site_id
 _symmetry_equiv_pos_as_xyz
  1  'x, y, z'
loop_
 _atom_site_type_symbol
 _atom_site_label
 _atom_site_symmetry_multiplicity
 _atom_site_fract_x
 _atom_site_fract_y
 _atom_site_fract_z
 _atom_site_occupancy
  Al  Al0  1  0.504451  0.497518  0.494222  1
  Al  Al1  1  0.994222  0.002482  0.004451  1
  V  V2  1  0.498451  0.250000  0.998451  1
  V  V3  1  0.751103  0.000577  0.501783  1
  V  V4  1  0.001783  0.499423  0.251103  1
  Mo  Mo5  1  0.250401  0.000546  0.500699  1
  Mo  Mo6  1  0.000699  0.499454  0.750401  1
  Os  Os7  1  0.498889  0.750000  0.998889  1
