# generated using pymatgen
data_SrEr(AsPt)2
_symmetry_space_group_name_H-M   'P 1'
_cell_length_a   4.30356000
_cell_length_b   4.30356112
_cell_length_c   8.33946300
_cell_angle_alpha   90.00000000
_cell_angle_beta   90.00000000
_cell_angle_gamma   120.00000678
_symmetry_Int_Tables_number   1
_chemical_formula_structural   SrEr(AsPt)2
_chemical_formula_sum   'Sr1 Er1 As2 Pt2'
_cell_volume   133.75946575
_cell_formula_units_Z   1
loop_
 _symmetry_equiv_pos_site_id
 _symmetry_equiv_pos_as_xyz
  1  'x, y, z'
loop_
 _atom_site_type_symbol
 _atom_site_label
 _atom_site_symmetry_multiplicity
 _atom_site_fract_x
 _atom_site_fract_y
 _atom_site_fract_z
 _atom_site_occupancy
  Sr  Sr0  1  0.000000  0.000000  0.000000  1
  Er  Er1  1  0.000000  0.000000  0.500000  1
  As  As2  1  0.333333  0.666667  0.738538  1
  As  As3  1  0.666667  0.333333  0.261462  1
  Pt  Pt4  1  0.333333  0.666667  0.283691  1
  Pt  Pt5  1  0.666667  0.333333  0.716309  1
