# generated using pymatgen
data_Nd3Te(ClO2)3
_symmetry_space_group_name_H-M   'P 1'
_cell_length_a   9.36501100
_cell_length_b   9.36502910
_cell_length_c   5.41059900
_cell_angle_alpha   90.00000000
_cell_angle_beta   90.00000000
_cell_angle_gamma   119.99998906
_symmetry_Int_Tables_number   1
_chemical_formula_structural   Nd3Te(ClO2)3
_chemical_formula_sum   'Nd6 Te2 Cl6 O12'
_cell_volume   410.95422561
_cell_formula_units_Z   2
loop_
 _symmetry_equiv_pos_site_id
 _symmetry_equiv_pos_as_xyz
  1  'x, y, z'
loop_
 _atom_site_type_symbol
 _atom_site_label
 _atom_site_symmetry_multiplicity
 _atom_site_fract_x
 _atom_site_fract_y
 _atom_site_fract_z
 _atom_site_occupancy
  Nd  Nd0  1  0.687368  0.090175  0.249999  1
  Nd  Nd1  1  0.402806  0.312627  0.249999  1
  Nd  Nd2  1  0.909821  0.597195  0.249999  1
  Nd  Nd3  1  0.090179  0.402805  0.750000  1
  Nd  Nd4  1  0.597194  0.687373  0.750000  1
  Nd  Nd5  1  0.312632  0.909825  0.750000  1
  Te  Te6  1  0.333341  0.666676  0.249999  1
  Te  Te7  1  0.666659  0.333324  0.750000  1
  Cl  Cl8  1  0.047777  0.240080  0.249999  1
  Cl  Cl9  1  0.759922  0.807697  0.249999  1
  Cl  Cl10  1  0.192301  0.952223  0.249999  1
  Cl  Cl11  1  0.807699  0.047777  0.750000  1
  Cl  Cl12  1  0.240078  0.192303  0.750000  1
  Cl  Cl13  1  0.952222  0.759920  0.750000  1
  O  O14  1  0.477956  0.841396  0.015866  1
  O  O15  1  0.363441  0.522042  0.015861  1
  O  O16  1  0.158599  0.636558  0.015861  1
  O  O17  1  0.158599  0.636558  0.484139  1
  O  O18  1  0.363441  0.522042  0.484138  1
  O  O19  1  0.477956  0.841396  0.484135  1
  O  O20  1  0.522044  0.158604  0.515865  1
  O  O21  1  0.636559  0.477958  0.515862  1
  O  O22  1  0.841401  0.363442  0.515860  1
  O  O23  1  0.841401  0.363442  0.984140  1
  O  O24  1  0.636559  0.477958  0.984139  1
  O  O25  1  0.522044  0.158604  0.984136  1
