# generated using pymatgen
data_Tb3Lu9Tc3Ru
_symmetry_space_group_name_H-M   'P 1'
_cell_length_a   6.19928928
_cell_length_b   7.34946224
_cell_length_c   8.91243100
_cell_angle_alpha   90.00000000
_cell_angle_beta   90.00000000
_cell_angle_gamma   89.96817146
_symmetry_Int_Tables_number   1
_chemical_formula_structural   Tb3Lu9Tc3Ru
_chemical_formula_sum   'Tb3 Lu9 Tc3 Ru1'
_cell_volume   406.06314962
_cell_formula_units_Z   1
loop_
 _symmetry_equiv_pos_site_id
 _symmetry_equiv_pos_as_xyz
  1  'x, y, z'
loop_
 _atom_site_type_symbol
 _atom_site_label
 _atom_site_symmetry_multiplicity
 _atom_site_fract_x
 _atom_site_fract_y
 _atom_site_fract_z
 _atom_site_occupancy
  Tb  Tb0  1  0.875550  0.540184  0.250000  1
  Tb  Tb1  1  0.624860  0.039353  0.250000  1
  Tb  Tb2  1  0.128405  0.457692  0.750000  1
  Lu  Lu3  1  0.339586  0.676255  0.062211  1
  Lu  Lu4  1  0.157593  0.174940  0.438483  1
  Lu  Lu5  1  0.658169  0.325364  0.563490  1
  Lu  Lu6  1  0.841398  0.824740  0.936514  1
  Lu  Lu7  1  0.658169  0.325364  0.936510  1
  Lu  Lu8  1  0.841398  0.824740  0.563486  1
  Lu  Lu9  1  0.339586  0.676255  0.437789  1
  Lu  Lu10  1  0.157593  0.174940  0.061517  1
  Lu  Lu11  1  0.375500  0.958365  0.750000  1
  Tc  Tc12  1  0.043131  0.883023  0.250000  1
  Tc  Tc13  1  0.458140  0.384377  0.250000  1
  Tc  Tc14  1  0.959138  0.115870  0.750000  1
  Ru  Ru15  1  0.541781  0.618540  0.750000  1
