# generated using pymatgen
data_Hf3ZrZn(B7Ir6)2
_symmetry_space_group_name_H-M   'P 1'
_cell_length_a   3.46511854
_cell_length_b   7.77234255
_cell_length_c   13.43882974
_cell_angle_alpha   89.98904404
_cell_angle_beta   90.02071610
_cell_angle_gamma   90.04125044
_symmetry_Int_Tables_number   1
_chemical_formula_structural   Hf3ZrZn(B7Ir6)2
_chemical_formula_sum   'Hf3 Zr1 Zn1 B14 Ir12'
_cell_volume   361.93562446
_cell_formula_units_Z   1
loop_
 _symmetry_equiv_pos_site_id
 _symmetry_equiv_pos_as_xyz
  1  'x, y, z'
loop_
 _atom_site_type_symbol
 _atom_site_label
 _atom_site_symmetry_multiplicity
 _atom_site_fract_x
 _atom_site_fract_y
 _atom_site_fract_z
 _atom_site_occupancy
  Hf  Hf0  1  0.251128  0.497074  0.833747  1
  Hf  Hf1  1  0.252235  0.001654  0.332667  1
  Hf  Hf2  1  0.747750  0.998440  0.667605  1
  Zr  Zr3  1  0.748893  0.502658  0.165678  1
  Zn  Zn4  1  0.500569  0.500026  0.500222  1
  B  B5  1  0.499925  0.000312  0.999980  1
  B  B6  1  0.000072  0.000316  0.999980  1
  B  B7  1  0.752340  0.325773  0.727798  1
  B  B8  1  0.752410  0.830404  0.220888  1
  B  B9  1  0.751449  0.753013  0.803740  1
  B  B10  1  0.752289  0.246725  0.300109  1
  B  B11  1  0.749984  0.424755  0.973927  1
  B  B12  1  0.755116  0.919288  0.474165  1
  B  B13  1  0.247643  0.170362  0.778949  1
  B  B14  1  0.247703  0.674781  0.272670  1
  B  B15  1  0.247572  0.752784  0.700574  1
  B  B16  1  0.248635  0.246261  0.196512  1
  B  B17  1  0.244926  0.080513  0.526252  1
  B  B18  1  0.249996  0.574981  0.024590  1
  Ir  Ir19  1  0.748566  0.593124  0.677261  1
  Ir  Ir20  1  0.749377  0.089231  0.162070  1
  Ir  Ir21  1  0.750477  0.703292  0.961705  1
  Ir  Ir22  1  0.747635  0.194797  0.459181  1
  Ir  Ir23  1  0.748794  0.202892  0.875719  1
  Ir  Ir24  1  0.748832  0.714056  0.363585  1
  Ir  Ir25  1  0.250566  0.911483  0.838057  1
  Ir  Ir26  1  0.251228  0.405852  0.323646  1
  Ir  Ir27  1  0.252300  0.804936  0.541290  1
  Ir  Ir28  1  0.249413  0.295422  0.037276  1
  Ir  Ir29  1  0.251067  0.286218  0.636441  1
  Ir  Ir30  1  0.251108  0.798575  0.123715  1
