# generated using pymatgen
data_LaSm3(Si3Ni5)4
_symmetry_space_group_name_H-M   'P 1'
_cell_length_a   3.83711200
_cell_length_b   6.61813105
_cell_length_c   18.93240926
_cell_angle_alpha   90.02632959
_cell_angle_beta   90.00000000
_cell_angle_gamma   90.00000000
_symmetry_Int_Tables_number   1
_chemical_formula_structural   LaSm3(Si3Ni5)4
_chemical_formula_sum   'La1 Sm3 Si12 Ni20'
_cell_volume   480.77920701
_cell_formula_units_Z   1
loop_
 _symmetry_equiv_pos_site_id
 _symmetry_equiv_pos_as_xyz
  1  'x, y, z'
loop_
 _atom_site_type_symbol
 _atom_site_label
 _atom_site_symmetry_multiplicity
 _atom_site_fract_x
 _atom_site_fract_y
 _atom_site_fract_z
 _atom_site_occupancy
  La  La0  1  0.250000  0.624503  0.856734  1
  Sm  Sm1  1  0.250000  0.876125  0.356841  1
  Sm  Sm2  1  0.750000  0.123361  0.642590  1
  Sm  Sm3  1  0.750000  0.376685  0.144110  1
  Si  Si4  1  0.250000  0.070215  0.089163  1
  Si  Si5  1  0.750000  0.936648  0.913492  1
  Si  Si6  1  0.750000  0.573157  0.413051  1
  Si  Si7  1  0.250000  0.426224  0.585829  1
  Si  Si8  1  0.250000  0.659624  0.072629  1
  Si  Si9  1  0.750000  0.337339  0.930160  1
  Si  Si10  1  0.750000  0.158927  0.427090  1
  Si  Si11  1  0.250000  0.842445  0.571087  1
  Si  Si12  1  0.250000  0.384680  0.264329  1
  Si  Si13  1  0.750000  0.614741  0.733022  1
  Si  Si14  1  0.750000  0.883779  0.237010  1
  Si  Si15  1  0.250000  0.115288  0.763082  1
  Ni  Ni16  1  0.250000  0.073874  0.209469  1
  Ni  Ni17  1  0.750000  0.925577  0.790428  1
  Ni  Ni18  1  0.750000  0.574011  0.292284  1
  Ni  Ni19  1  0.250000  0.424040  0.706441  1
  Ni  Ni20  1  0.250000  0.610844  0.483136  1
  Ni  Ni21  1  0.750000  0.388011  0.515806  1
  Ni  Ni22  1  0.750000  0.109107  0.019357  1
  Ni  Ni23  1  0.250000  0.893932  0.984413  1
  Ni  Ni24  1  0.250000  0.690507  0.199299  1
  Ni  Ni25  1  0.750000  0.307124  0.800563  1
  Ni  Ni26  1  0.750000  0.190722  0.301482  1
  Ni  Ni27  1  0.250000  0.809076  0.696725  1
  Ni  Ni28  1  0.250000  0.353750  0.384556  1
  Ni  Ni29  1  0.750000  0.647419  0.613175  1
  Ni  Ni30  1  0.750000  0.851559  0.116817  1
  Ni  Ni31  1  0.250000  0.147113  0.884214  1
  Ni  Ni32  1  0.250000  0.359955  0.007460  1
  Ni  Ni33  1  0.750000  0.638555  0.995943  1
  Ni  Ni34  1  0.750000  0.863748  0.493351  1
  Ni  Ni35  1  0.250000  0.137338  0.504863  1
