# generated using pymatgen
data_LuTa6NbS12
_symmetry_space_group_name_H-M   'P 1'
_cell_length_a   5.82178400
_cell_length_b   5.82178501
_cell_length_c   12.85684200
_cell_angle_alpha   90.00000000
_cell_angle_beta   90.00000000
_cell_angle_gamma   119.99999429
_symmetry_Int_Tables_number   1
_chemical_formula_structural   LuTa6NbS12
_chemical_formula_sum   'Lu1 Ta6 Nb1 S12'
_cell_volume   377.37855297
_cell_formula_units_Z   1
loop_
 _symmetry_equiv_pos_site_id
 _symmetry_equiv_pos_as_xyz
  1  'x, y, z'
loop_
 _atom_site_type_symbol
 _atom_site_label
 _atom_site_symmetry_multiplicity
 _atom_site_fract_x
 _atom_site_fract_y
 _atom_site_fract_z
 _atom_site_occupancy
  Lu  Lu0  1  0.333333  0.666667  0.250000  1
  Ta  Ta1  1  0.000000  0.000000  0.508694  1
  Ta  Ta2  1  0.000000  0.000000  0.991306  1
  Ta  Ta3  1  0.333333  0.666667  0.990930  1
  Ta  Ta4  1  0.666667  0.333333  0.992684  1
  Ta  Ta5  1  0.666667  0.333333  0.507316  1
  Ta  Ta6  1  0.333333  0.666667  0.509070  1
  Nb  Nb7  1  0.666667  0.333333  0.750000  1
  S  S8  1  0.332312  0.328549  0.385976  1
  S  S9  1  0.671451  0.003764  0.385976  1
  S  S10  1  0.996236  0.667688  0.385976  1
  S  S11  1  0.329946  0.332440  0.629021  1
  S  S12  1  0.002494  0.670054  0.629021  1
  S  S13  1  0.667560  0.997506  0.629021  1
  S  S14  1  0.667560  0.670054  0.870979  1
  S  S15  1  0.329946  0.997506  0.870979  1
  S  S16  1  0.002494  0.332440  0.870979  1
  S  S17  1  0.671451  0.667688  0.114024  1
  S  S18  1  0.996236  0.328549  0.114024  1
  S  S19  1  0.332312  0.003764  0.114024  1
