# generated using pymatgen
data_Ac2Mg3Cd14
_symmetry_space_group_name_H-M   'P 1'
_cell_length_a   7.76393337
_cell_length_b   7.76393317
_cell_length_c   7.76393283
_cell_angle_alpha   82.53357656
_cell_angle_beta   82.53358554
_cell_angle_gamma   82.53357400
_symmetry_Int_Tables_number   1
_chemical_formula_structural   Ac2Mg3Cd14
_chemical_formula_sum   'Ac2 Mg3 Cd14'
_cell_volume   457.04436568
_cell_formula_units_Z   1
loop_
 _symmetry_equiv_pos_site_id
 _symmetry_equiv_pos_as_xyz
  1  'x, y, z'
loop_
 _atom_site_type_symbol
 _atom_site_label
 _atom_site_symmetry_multiplicity
 _atom_site_fract_x
 _atom_site_fract_y
 _atom_site_fract_z
 _atom_site_occupancy
  Ac  Ac0  1  0.335958  0.335958  0.335958  1
  Ac  Ac1  1  0.664042  0.664042  0.664042  1
  Mg  Mg2  1  0.000000  0.000000  0.500000  1
  Mg  Mg3  1  0.500000  0.000000  0.000000  1
  Mg  Mg4  1  0.000000  0.500000  0.000000  1
  Cd  Cd5  1  0.297492  0.702508  0.000000  1
  Cd  Cd6  1  0.844075  0.352016  0.352016  1
  Cd  Cd7  1  0.647984  0.155925  0.647984  1
  Cd  Cd8  1  0.106147  0.106147  0.106147  1
  Cd  Cd9  1  0.297492  0.000000  0.702508  1
  Cd  Cd10  1  0.702508  0.297492  0.000000  1
  Cd  Cd11  1  0.352016  0.352016  0.844075  1
  Cd  Cd12  1  0.893853  0.893853  0.893853  1
  Cd  Cd13  1  0.000000  0.702508  0.297492  1
  Cd  Cd14  1  0.702508  0.000000  0.297492  1
  Cd  Cd15  1  0.352016  0.844075  0.352016  1
  Cd  Cd16  1  0.155925  0.647984  0.647984  1
  Cd  Cd17  1  0.647984  0.647984  0.155925  1
  Cd  Cd18  1  0.000000  0.297492  0.702508  1
