# generated using pymatgen
data_Sm2GdAlC3
_symmetry_space_group_name_H-M   'P 1'
_cell_length_a   3.66009900
_cell_length_b   7.26660909
_cell_length_c   10.06598400
_cell_angle_alpha   89.63792745
_cell_angle_beta   90.00000000
_cell_angle_gamma   90.00000000
_symmetry_Int_Tables_number   1
_chemical_formula_structural   Sm2GdAlC3
_chemical_formula_sum   'Sm4 Gd2 Al2 C6'
_cell_volume   267.71468519
_cell_formula_units_Z   2
loop_
 _symmetry_equiv_pos_site_id
 _symmetry_equiv_pos_as_xyz
  1  'x, y, z'
loop_
 _atom_site_type_symbol
 _atom_site_label
 _atom_site_symmetry_multiplicity
 _atom_site_fract_x
 _atom_site_fract_y
 _atom_site_fract_z
 _atom_site_occupancy
  Sm  Sm0  1  0.500000  0.512412  0.194564  1
  Sm  Sm1  1  0.500000  0.487588  0.805436  1
  Sm  Sm2  1  0.000000  0.750231  0.460241  1
  Sm  Sm3  1  0.000000  0.249769  0.539759  1
  Gd  Gd4  1  0.500000  0.989999  0.198994  1
  Gd  Gd5  1  0.500000  0.010001  0.801006  1
  Al  Al6  1  0.000000  0.766254  0.007322  1
  Al  Al7  1  0.000000  0.233746  0.992678  1
  C  C8  1  0.500000  0.507698  0.565407  1
  C  C9  1  0.500000  0.492302  0.434593  1
  C  C10  1  0.500000  0.991651  0.565408  1
  C  C11  1  0.500000  0.008349  0.434592  1
  C  C12  1  0.000000  0.754471  0.207890  1
  C  C13  1  0.000000  0.245529  0.792110  1
