# generated using pymatgen
data_Dy2Ho3Bi2Os
_symmetry_space_group_name_H-M   'P 1'
_cell_length_a   7.95876700
_cell_length_b   9.03353300
_cell_length_c   12.46851400
_cell_angle_alpha   90.00000000
_cell_angle_beta   90.00000000
_cell_angle_gamma   90.00000000
_symmetry_Int_Tables_number   1
_chemical_formula_structural   Dy2Ho3Bi2Os
_chemical_formula_sum   'Dy8 Ho12 Bi8 Os4'
_cell_volume   896.43359351
_cell_formula_units_Z   4
loop_
 _symmetry_equiv_pos_site_id
 _symmetry_equiv_pos_as_xyz
  1  'x, y, z'
loop_
 _atom_site_type_symbol
 _atom_site_label
 _atom_site_symmetry_multiplicity
 _atom_site_fract_x
 _atom_site_fract_y
 _atom_site_fract_z
 _atom_site_occupancy
  Dy  Dy0  1  0.341230  0.750000  0.708800  1
  Dy  Dy1  1  0.658770  0.250000  0.291200  1
  Dy  Dy2  1  0.841230  0.250000  0.791200  1
  Dy  Dy3  1  0.158770  0.750000  0.208800  1
  Dy  Dy4  1  0.877595  0.750000  0.807009  1
  Dy  Dy5  1  0.122405  0.250000  0.192991  1
  Dy  Dy6  1  0.377595  0.250000  0.692991  1
  Dy  Dy7  1  0.622405  0.750000  0.307009  1
  Ho  Ho8  1  0.674246  0.542791  0.563730  1
  Ho  Ho9  1  0.325754  0.457209  0.436270  1
  Ho  Ho10  1  0.174246  0.457209  0.936270  1
  Ho  Ho11  1  0.325754  0.042791  0.436270  1
  Ho  Ho12  1  0.825754  0.542791  0.063730  1
  Ho  Ho13  1  0.674246  0.957209  0.563730  1
  Ho  Ho14  1  0.825754  0.957209  0.063730  1
  Ho  Ho15  1  0.174246  0.042791  0.936270  1
  Ho  Ho16  1  0.058301  0.750000  0.495901  1
  Ho  Ho17  1  0.941699  0.250000  0.504099  1
  Ho  Ho18  1  0.558301  0.250000  0.004099  1
  Ho  Ho19  1  0.441699  0.750000  0.995901  1
  Bi  Bi20  1  0.569764  0.507371  0.828738  1
  Bi  Bi21  1  0.430236  0.492629  0.171262  1
  Bi  Bi22  1  0.069764  0.492629  0.671262  1
  Bi  Bi23  1  0.430236  0.007371  0.171262  1
  Bi  Bi24  1  0.930236  0.507371  0.328738  1
  Bi  Bi25  1  0.569764  0.992629  0.828738  1
  Bi  Bi26  1  0.930236  0.992629  0.328738  1
  Bi  Bi27  1  0.069764  0.007371  0.671262  1
  Os  Os28  1  0.075659  0.750000  0.989755  1
  Os  Os29  1  0.924341  0.250000  0.010245  1
  Os  Os30  1  0.575659  0.250000  0.510245  1
  Os  Os31  1  0.424341  0.750000  0.489755  1
