# generated using pymatgen
data_Er12Th4MgCd3Ir3Rh
_symmetry_space_group_name_H-M   'P 1'
_cell_length_a   9.68934272
_cell_length_b   9.68934276
_cell_length_c   9.68934300
_cell_angle_alpha   59.91277665
_cell_angle_beta   59.91277653
_cell_angle_gamma   59.91278660
_symmetry_Int_Tables_number   1
_chemical_formula_structural   Er12Th4MgCd3Ir3Rh
_chemical_formula_sum   'Er12 Th4 Mg1 Cd3 Ir3 Rh1'
_cell_volume   641.95979775
_cell_formula_units_Z   1
loop_
 _symmetry_equiv_pos_site_id
 _symmetry_equiv_pos_as_xyz
  1  'x, y, z'
loop_
 _atom_site_type_symbol
 _atom_site_label
 _atom_site_symmetry_multiplicity
 _atom_site_fract_x
 _atom_site_fract_y
 _atom_site_fract_z
 _atom_site_occupancy
  Er  Er0  1  0.061941  0.438389  0.438389  1
  Er  Er1  1  0.437719  0.063942  0.063942  1
  Er  Er2  1  0.438389  0.061941  0.438389  1
  Er  Er3  1  0.063942  0.437719  0.063942  1
  Er  Er4  1  0.438389  0.438389  0.061941  1
  Er  Er5  1  0.063942  0.063942  0.437719  1
  Er  Er6  1  0.186591  0.816308  0.816308  1
  Er  Er7  1  0.816639  0.185595  0.185595  1
  Er  Er8  1  0.816308  0.186591  0.816308  1
  Er  Er9  1  0.185595  0.816639  0.185595  1
  Er  Er10  1  0.816308  0.816308  0.186591  1
  Er  Er11  1  0.185595  0.185595  0.816639  1
  Th  Th12  1  0.599105  0.599105  0.599105  1
  Th  Th13  1  0.601141  0.601141  0.198053  1
  Th  Th14  1  0.601141  0.198053  0.601141  1
  Th  Th15  1  0.198053  0.601141  0.601141  1
  Mg  Mg16  1  0.827468  0.827468  0.827468  1
  Cd  Cd17  1  0.831664  0.831664  0.499808  1
  Cd  Cd18  1  0.831664  0.499808  0.831664  1
  Cd  Cd19  1  0.499808  0.831664  0.831664  1
  Ir  Ir20  1  0.391617  0.391617  0.821698  1
  Ir  Ir21  1  0.391617  0.821698  0.391617  1
  Ir  Ir22  1  0.821698  0.391617  0.391617  1
  Rh  Rh23  1  0.393662  0.393662  0.393662  1
