# generated using pymatgen
data_Ti8Re4Ir3Ru
_symmetry_space_group_name_H-M   'P 1'
_cell_length_a   6.21203600
_cell_length_b   4.39873200
_cell_length_c   8.79222600
_cell_angle_alpha   90.00000000
_cell_angle_beta   90.00123705
_cell_angle_gamma   90.00000000
_symmetry_Int_Tables_number   1
_chemical_formula_structural   Ti8Re4Ir3Ru
_chemical_formula_sum   'Ti8 Re4 Ir3 Ru1'
_cell_volume   240.24829233
_cell_formula_units_Z   1
loop_
 _symmetry_equiv_pos_site_id
 _symmetry_equiv_pos_as_xyz
  1  'x, y, z'
loop_
 _atom_site_type_symbol
 _atom_site_label
 _atom_site_symmetry_multiplicity
 _atom_site_fract_x
 _atom_site_fract_y
 _atom_site_fract_z
 _atom_site_occupancy
  Ti  Ti0  1  0.002838  0.750001  0.124996  1
  Ti  Ti1  1  0.497199  0.750001  0.125001  1
  Ti  Ti2  1  0.001486  0.249999  0.373202  1
  Ti  Ti3  1  0.498569  0.249999  0.373211  1
  Ti  Ti4  1  0.499811  0.750001  0.624995  1
  Ti  Ti5  1  0.000146  0.750001  0.625004  1
  Ti  Ti6  1  0.498518  0.249999  0.876784  1
  Ti  Ti7  1  0.001454  0.249999  0.876784  1
  Re  Re8  1  0.750029  0.249999  0.125008  1
  Re  Re9  1  0.250014  0.750001  0.376101  1
  Re  Re10  1  0.749968  0.249999  0.625009  1
  Re  Re11  1  0.249979  0.750001  0.873897  1
  Ir  Ir12  1  0.750029  0.750001  0.375290  1
  Ir  Ir13  1  0.249977  0.249999  0.624995  1
  Ir  Ir14  1  0.749967  0.750001  0.874710  1
  Ru  Ru15  1  0.250019  0.249999  0.125011  1
