# generated using pymatgen
data_YbHo7SbPd24
_symmetry_space_group_name_H-M   'P 1'
_cell_length_a   8.38009016
_cell_length_b   8.38009016
_cell_length_c   8.38009016
_cell_angle_alpha   90.01573800
_cell_angle_beta   90.01573800
_cell_angle_gamma   90.01573800
_symmetry_Int_Tables_number   1
_chemical_formula_structural   YbHo7SbPd24
_chemical_formula_sum   'Yb1 Ho7 Sb1 Pd24'
_cell_volume   588.49939948
_cell_formula_units_Z   1
loop_
 _symmetry_equiv_pos_site_id
 _symmetry_equiv_pos_as_xyz
  1  'x, y, z'
loop_
 _atom_site_type_symbol
 _atom_site_label
 _atom_site_symmetry_multiplicity
 _atom_site_fract_x
 _atom_site_fract_y
 _atom_site_fract_z
 _atom_site_occupancy
  Yb  Yb0  1  0.252673  0.252673  0.252673  1
  Ho  Ho1  1  0.745906  0.745906  0.253982  1
  Ho  Ho2  1  0.745906  0.253982  0.745906  1
  Ho  Ho3  1  0.253982  0.745906  0.745906  1
  Ho  Ho4  1  0.746219  0.746219  0.746219  1
  Ho  Ho5  1  0.746094  0.253864  0.253864  1
  Ho  Ho6  1  0.253864  0.253864  0.746094  1
  Ho  Ho7  1  0.253864  0.746094  0.253864  1
  Sb  Sb8  1  0.000534  0.000534  0.000534  1
  Pd  Pd9  1  0.999948  0.999948  0.304362  1
  Pd  Pd10  1  0.735839  0.999604  0.500148  1
  Pd  Pd11  1  0.735839  0.500148  0.999604  1
  Pd  Pd12  1  0.500148  0.999604  0.735839  1
  Pd  Pd13  1  0.999604  0.735839  0.500148  1
  Pd  Pd14  1  0.500600  0.999016  0.264355  1
  Pd  Pd15  1  0.999016  0.264355  0.500600  1
  Pd  Pd16  1  0.500148  0.735839  0.999604  1
  Pd  Pd17  1  0.254518  0.500761  0.500761  1
  Pd  Pd18  1  0.500256  0.500256  0.745250  1
  Pd  Pd19  1  0.500761  0.500761  0.254518  1
  Pd  Pd20  1  0.500761  0.254518  0.500761  1
  Pd  Pd21  1  0.500256  0.745250  0.500256  1
  Pd  Pd22  1  0.745250  0.500256  0.500256  1
  Pd  Pd23  1  0.304362  0.999948  0.999948  1
  Pd  Pd24  1  0.999996  0.999996  0.695781  1
  Pd  Pd25  1  0.999016  0.500600  0.264355  1
  Pd  Pd26  1  0.999948  0.304362  0.999948  1
  Pd  Pd27  1  0.999996  0.695781  0.999996  1
  Pd  Pd28  1  0.695781  0.999996  0.999996  1
  Pd  Pd29  1  0.264355  0.500600  0.999016  1
  Pd  Pd30  1  0.264355  0.999016  0.500600  1
  Pd  Pd31  1  0.999604  0.500148  0.735839  1
  Pd  Pd32  1  0.500600  0.264355  0.999016  1
