# generated using pymatgen
data_Y2ZrTa3(B2Ru5)2
_symmetry_space_group_name_H-M   'P 1'
_cell_length_a   9.56919768
_cell_length_b   9.57682736
_cell_length_c   3.11228400
_cell_angle_alpha   90.00000000
_cell_angle_beta   90.00000000
_cell_angle_gamma   90.15609540
_symmetry_Int_Tables_number   1
_chemical_formula_structural   Y2ZrTa3(B2Ru5)2
_chemical_formula_sum   'Y2 Zr1 Ta3 B4 Ru10'
_cell_volume   285.21659673
_cell_formula_units_Z   1
loop_
 _symmetry_equiv_pos_site_id
 _symmetry_equiv_pos_as_xyz
  1  'x, y, z'
loop_
 _atom_site_type_symbol
 _atom_site_label
 _atom_site_symmetry_multiplicity
 _atom_site_fract_x
 _atom_site_fract_y
 _atom_site_fract_z
 _atom_site_occupancy
  Y  Y0  1  0.174577  0.324407  0.000000  1
  Y  Y1  1  0.325884  0.824851  0.000000  1
  Zr  Zr2  1  0.824503  0.676373  0.000000  1
  Ta  Ta3  1  0.675659  0.177242  0.000000  1
  Ta  Ta4  1  0.497539  0.501626  0.000000  1
  Ta  Ta5  1  0.002681  0.999510  0.000000  1
  B  B6  1  0.625967  0.879795  0.000000  1
  B  B7  1  0.382354  0.122091  0.000000  1
  B  B8  1  0.117427  0.620177  0.000000  1
  B  B9  1  0.874019  0.378513  0.000000  1
  Ru  Ru10  1  0.579517  0.717925  0.500000  1
  Ru  Ru11  1  0.442734  0.279365  0.500000  1
  Ru  Ru12  1  0.061917  0.779572  0.500000  1
  Ru  Ru13  1  0.913595  0.214219  0.500000  1
  Ru  Ru14  1  0.278866  0.569398  0.500000  1
  Ru  Ru15  1  0.712718  0.422410  0.500000  1
  Ru  Ru16  1  0.222471  0.069911  0.500000  1
  Ru  Ru17  1  0.784361  0.934049  0.500000  1
  Ru  Ru18  1  0.512909  0.007713  0.500000  1
  Ru  Ru19  1  0.990302  0.500851  0.500000  1
