# generated using pymatgen
data_PrNd3IrAu3
_symmetry_space_group_name_H-M   'P 1'
_cell_length_a   4.75234800
_cell_length_b   5.84603252
_cell_length_c   7.43687065
_cell_angle_alpha   88.40995342
_cell_angle_beta   90.00000000
_cell_angle_gamma   90.00000000
_symmetry_Int_Tables_number   1
_chemical_formula_structural   PrNd3IrAu3
_chemical_formula_sum   'Pr1 Nd3 Ir1 Au3'
_cell_volume   206.53441681
_cell_formula_units_Z   1
loop_
 _symmetry_equiv_pos_site_id
 _symmetry_equiv_pos_as_xyz
  1  'x, y, z'
loop_
 _atom_site_type_symbol
 _atom_site_label
 _atom_site_symmetry_multiplicity
 _atom_site_fract_x
 _atom_site_fract_y
 _atom_site_fract_z
 _atom_site_occupancy
  Pr  Pr0  1  0.250000  0.365046  0.678612  1
  Nd  Nd1  1  0.250000  0.136026  0.191732  1
  Nd  Nd2  1  0.750000  0.653953  0.327920  1
  Nd  Nd3  1  0.750000  0.854350  0.800909  1
  Ir  Ir4  1  0.250000  0.838927  0.538149  1
  Au  Au5  1  0.250000  0.649365  0.040967  1
  Au  Au6  1  0.750000  0.154984  0.457447  1
  Au  Au7  1  0.750000  0.347348  0.964265  1
