# generated using pymatgen
data_HoZn2CdPt2
_symmetry_space_group_name_H-M   'P 1'
_cell_length_a   5.21847758
_cell_length_b   5.29178210
_cell_length_c   5.29178263
_cell_angle_alpha   63.38544428
_cell_angle_beta   60.45717399
_cell_angle_gamma   60.45719428
_symmetry_Int_Tables_number   1
_chemical_formula_structural   HoZn2CdPt2
_chemical_formula_sum   'Ho1 Zn2 Cd1 Pt2'
_cell_volume   106.47610728
_cell_formula_units_Z   1
loop_
 _symmetry_equiv_pos_site_id
 _symmetry_equiv_pos_as_xyz
  1  'x, y, z'
loop_
 _atom_site_type_symbol
 _atom_site_label
 _atom_site_symmetry_multiplicity
 _atom_site_fract_x
 _atom_site_fract_y
 _atom_site_fract_z
 _atom_site_occupancy
  Ho  Ho0  1  0.257503  0.242497  0.242497  1
  Zn  Zn1  1  0.121164  0.629128  0.629128  1
  Zn  Zn2  1  0.620580  0.629128  0.629128  1
  Cd  Cd3  1  0.003773  0.996227  0.996227  1
  Pt  Pt4  1  0.623491  0.626700  0.126320  1
  Pt  Pt5  1  0.623491  0.126320  0.626700  1
