# generated using pymatgen
data_Ho4Cu5P6Pd
_symmetry_space_group_name_H-M   'P 1'
_cell_length_a   3.83932700
_cell_length_b   10.63703700
_cell_length_c   12.99013900
_cell_angle_alpha   90.00000000
_cell_angle_beta   90.00000000
_cell_angle_gamma   90.00000000
_symmetry_Int_Tables_number   1
_chemical_formula_structural   Ho4Cu5P6Pd
_chemical_formula_sum   'Ho8 Cu10 P12 Pd2'
_cell_volume   530.50510960
_cell_formula_units_Z   2
loop_
 _symmetry_equiv_pos_site_id
 _symmetry_equiv_pos_as_xyz
  1  'x, y, z'
loop_
 _atom_site_type_symbol
 _atom_site_label
 _atom_site_symmetry_multiplicity
 _atom_site_fract_x
 _atom_site_fract_y
 _atom_site_fract_z
 _atom_site_occupancy
  Ho  Ho0  1  0.250000  0.932235  0.791345  1
  Ho  Ho1  1  0.750000  0.432235  0.708655  1
  Ho  Ho2  1  0.250000  0.568058  0.292523  1
  Ho  Ho3  1  0.750000  0.068058  0.207477  1
  Ho  Ho4  1  0.250000  0.841413  0.503396  1
  Ho  Ho5  1  0.750000  0.341413  0.996604  1
  Ho  Ho6  1  0.250000  0.661401  0.003182  1
  Ho  Ho7  1  0.750000  0.161401  0.496818  1
  Cu  Cu8  1  0.250000  0.097304  0.012992  1
  Cu  Cu9  1  0.750000  0.597304  0.487008  1
  Cu  Cu10  1  0.250000  0.269824  0.328631  1
  Cu  Cu11  1  0.750000  0.769824  0.171369  1
  Cu  Cu12  1  0.250000  0.228309  0.831025  1
  Cu  Cu13  1  0.750000  0.728309  0.668975  1
  Cu  Cu14  1  0.250000  0.859823  0.283614  1
  Cu  Cu15  1  0.750000  0.359823  0.216386  1
  Cu  Cu16  1  0.250000  0.638745  0.781309  1
  Cu  Cu17  1  0.750000  0.138745  0.718691  1
  P  P18  1  0.250000  0.238047  0.645223  1
  P  P19  1  0.750000  0.738047  0.854777  1
  P  P20  1  0.250000  0.256134  0.140768  1
  P  P21  1  0.750000  0.756134  0.359232  1
  P  P22  1  0.250000  0.609515  0.602867  1
  P  P23  1  0.750000  0.109515  0.897133  1
  P  P24  1  0.250000  0.893562  0.107827  1
  P  P25  1  0.750000  0.393562  0.392173  1
  P  P26  1  0.250000  0.055668  0.370388  1
  P  P27  1  0.750000  0.555668  0.129612  1
  P  P28  1  0.250000  0.443790  0.870073  1
  P  P29  1  0.750000  0.943790  0.629927  1
  Pd  Pd30  1  0.250000  0.406172  0.513926  1
  Pd  Pd31  1  0.750000  0.906172  0.986074  1
