# generated using pymatgen
data_SmGaCo2P
_symmetry_space_group_name_H-M   'P 1'
_cell_length_a   5.78422323
_cell_length_b   5.78422333
_cell_length_c   5.78422311
_cell_angle_alpha   140.65212908
_cell_angle_beta   140.65212664
_cell_angle_gamma   56.86445609
_symmetry_Int_Tables_number   1
_chemical_formula_structural   SmGaCo2P
_chemical_formula_sum   'Sm1 Ga1 Co2 P1'
_cell_volume   77.15660645
_cell_formula_units_Z   1
loop_
 _symmetry_equiv_pos_site_id
 _symmetry_equiv_pos_as_xyz
  1  'x, y, z'
loop_
 _atom_site_type_symbol
 _atom_site_label
 _atom_site_symmetry_multiplicity
 _atom_site_fract_x
 _atom_site_fract_y
 _atom_site_fract_z
 _atom_site_occupancy
  Sm  Sm0  1  0.007044  0.007044  0.000000  1
  Ga  Ga1  1  0.375357  0.375357  0.000000  1
  Co  Co2  1  0.740567  0.240567  0.500000  1
  Co  Co3  1  0.240567  0.740567  0.500000  1
  P  P4  1  0.636464  0.636464  0.000000  1
