# generated using pymatgen
data_Ho4Ga24CoPt8
_symmetry_space_group_name_H-M   'P 1'
_cell_length_a   7.48764447
_cell_length_b   7.54818598
_cell_length_c   13.34431041
_cell_angle_alpha   84.41013956
_cell_angle_beta   79.29855954
_cell_angle_gamma   60.33610279
_symmetry_Int_Tables_number   1
_chemical_formula_structural   Ho4Ga24CoPt8
_chemical_formula_sum   'Ho4 Ga24 Co1 Pt8'
_cell_volume   643.94210437
_cell_formula_units_Z   1
loop_
 _symmetry_equiv_pos_site_id
 _symmetry_equiv_pos_as_xyz
  1  'x, y, z'
loop_
 _atom_site_type_symbol
 _atom_site_label
 _atom_site_symmetry_multiplicity
 _atom_site_fract_x
 _atom_site_fract_y
 _atom_site_fract_z
 _atom_site_occupancy
  Ho  Ho0  1  0.399318  0.163844  0.810994  1
  Ho  Ho1  1  0.600682  0.836156  0.189006  1
  Ho  Ho2  1  0.727497  0.498055  0.812138  1
  Ho  Ho3  1  0.272503  0.501945  0.187862  1
  Ga  Ga4  1  0.695895  0.822587  0.942410  1
  Ga  Ga5  1  0.304105  0.177413  0.057590  1
  Ga  Ga6  1  0.146018  0.832561  0.559899  1
  Ga  Ga7  1  0.853982  0.167439  0.440101  1
  Ga  Ga8  1  0.478931  0.167341  0.556699  1
  Ga  Ga9  1  0.521069  0.832659  0.443301  1
  Ga  Ga10  1  0.219545  0.166117  0.321464  1
  Ga  Ga11  1  0.780455  0.833883  0.678536  1
  Ga  Ga12  1  0.435134  0.504734  0.677573  1
  Ga  Ga13  1  0.564866  0.495266  0.322427  1
  Ga  Ga14  1  0.106627  0.163249  0.675479  1
  Ga  Ga15  1  0.893373  0.836751  0.324521  1
  Ga  Ga16  1  0.345847  0.497323  0.943096  1
  Ga  Ga17  1  0.654153  0.502677  0.056904  1
  Ga  Ga18  1  0.019040  0.184240  0.947250  1
  Ga  Ga19  1  0.980960  0.815760  0.052750  1
  Ga  Ga20  1  0.187022  0.497487  0.442996  1
  Ga  Ga21  1  0.812978  0.502513  0.557004  1
  Ga  Ga22  1  0.738229  0.164626  0.180785  1
  Ga  Ga23  1  0.261771  0.835374  0.819215  1
  Ga  Ga24  1  0.059181  0.618504  0.823403  1
  Ga  Ga25  1  0.940819  0.381496  0.176597  1
  Ga  Ga26  1  0.860192  0.036921  0.818186  1
  Ga  Ga27  1  0.139808  0.963079  0.181814  1
  Co  Co28  1  0.000000  0.500000  0.000000  1
  Pt  Pt29  1  0.116908  0.495878  0.640577  1
  Pt  Pt30  1  0.883092  0.504122  0.359423  1
  Pt  Pt31  1  0.660123  0.169438  0.999379  1
  Pt  Pt32  1  0.339877  0.830562  0.000621  1
  Pt  Pt33  1  0.540673  0.165939  0.359389  1
  Pt  Pt34  1  0.459327  0.834061  0.640611  1
  Pt  Pt35  1  0.778049  0.174403  0.638234  1
  Pt  Pt36  1  0.221951  0.825597  0.361766  1
