# generated using pymatgen
data_Y5Er3(TmBi3)2
_symmetry_space_group_name_H-M   'P 1'
_cell_length_a   8.23827000
_cell_length_b   9.48594712
_cell_length_c   12.04962101
_cell_angle_alpha   90.00655692
_cell_angle_beta   90.00000000
_cell_angle_gamma   90.00000000
_symmetry_Int_Tables_number   1
_chemical_formula_structural   Y5Er3(TmBi3)2
_chemical_formula_sum   'Y10 Er6 Tm4 Bi12'
_cell_volume   941.65128979
_cell_formula_units_Z   2
loop_
 _symmetry_equiv_pos_site_id
 _symmetry_equiv_pos_as_xyz
  1  'x, y, z'
loop_
 _atom_site_type_symbol
 _atom_site_label
 _atom_site_symmetry_multiplicity
 _atom_site_fract_x
 _atom_site_fract_y
 _atom_site_fract_z
 _atom_site_occupancy
  Y  Y0  1  0.186258  0.749972  0.718816  1
  Y  Y1  1  0.686258  0.750028  0.781184  1
  Y  Y2  1  0.813645  0.249810  0.280962  1
  Y  Y3  1  0.313645  0.250190  0.219038  1
  Y  Y4  1  0.306746  0.063003  0.940353  1
  Y  Y5  1  0.806746  0.436997  0.559647  1
  Y  Y6  1  0.353713  0.750215  0.215859  1
  Y  Y7  1  0.853713  0.749785  0.284141  1
  Y  Y8  1  0.645870  0.249818  0.784393  1
  Y  Y9  1  0.145870  0.250182  0.715607  1
  Er  Er10  1  0.306644  0.435249  0.940177  1
  Er  Er11  1  0.806644  0.064751  0.559823  1
  Er  Er12  1  0.693448  0.935088  0.059692  1
  Er  Er13  1  0.193448  0.564912  0.440308  1
  Er  Er14  1  0.693745  0.564759  0.059909  1
  Er  Er15  1  0.193745  0.935241  0.440091  1
  Tm  Tm16  1  0.025192  0.749908  0.988873  1
  Tm  Tm17  1  0.525192  0.750092  0.511127  1
  Tm  Tm18  1  0.974095  0.250269  0.011268  1
  Tm  Tm19  1  0.474095  0.249731  0.488732  1
  Bi  Bi20  1  0.434048  0.003793  0.672632  1
  Bi  Bi21  1  0.934048  0.496207  0.827368  1
  Bi  Bi22  1  0.566097  0.503682  0.327194  1
  Bi  Bi23  1  0.066097  0.996318  0.172806  1
  Bi  Bi24  1  0.566135  0.996211  0.327371  1
  Bi  Bi25  1  0.066135  0.503789  0.172629  1
  Bi  Bi26  1  0.433592  0.496030  0.672699  1
  Bi  Bi27  1  0.933592  0.003970  0.827301  1
  Bi  Bi28  1  0.408039  0.748369  0.958237  1
  Bi  Bi29  1  0.908039  0.751631  0.541763  1
  Bi  Bi30  1  0.592733  0.250346  0.042316  1
  Bi  Bi31  1  0.092733  0.249654  0.457684  1
