# generated using pymatgen
data_TbHoEr4(AlC3)2
_symmetry_space_group_name_H-M   'P 1'
_cell_length_a   3.54391300
_cell_length_b   7.00080533
_cell_length_c   9.93852934
_cell_angle_alpha   90.02029925
_cell_angle_beta   90.00000000
_cell_angle_gamma   90.00000000
_symmetry_Int_Tables_number   1
_chemical_formula_structural   TbHoEr4(AlC3)2
_chemical_formula_sum   'Tb1 Ho1 Er4 Al2 C6'
_cell_volume   246.57733264
_cell_formula_units_Z   1
loop_
 _symmetry_equiv_pos_site_id
 _symmetry_equiv_pos_as_xyz
  1  'x, y, z'
loop_
 _atom_site_type_symbol
 _atom_site_label
 _atom_site_symmetry_multiplicity
 _atom_site_fract_x
 _atom_site_fract_y
 _atom_site_fract_z
 _atom_site_occupancy
  Tb  Tb0  1  0.000000  0.750394  0.461052  1
  Ho  Ho1  1  0.500000  0.010368  0.799476  1
  Er  Er2  1  0.500000  0.510530  0.200953  1
  Er  Er3  1  0.500000  0.488928  0.799101  1
  Er  Er4  1  0.500000  0.987844  0.199458  1
  Er  Er5  1  0.000000  0.250436  0.543291  1
  Al  Al6  1  0.000000  0.746376  0.004551  1
  Al  Al7  1  0.000000  0.252753  0.995403  1
  C  C8  1  0.500000  0.505179  0.566266  1
  C  C9  1  0.500000  0.486506  0.433291  1
  C  C10  1  0.500000  0.995652  0.565147  1
  C  C11  1  0.500000  0.014175  0.432125  1
  C  C12  1  0.000000  0.749351  0.208102  1
  C  C13  1  0.000000  0.251507  0.791783  1
