# generated using pymatgen
data_Ba4PPt8
_symmetry_space_group_name_H-M   'P 1'
_cell_length_a   10.22934609
_cell_length_b   10.22934541
_cell_length_c   10.42762500
_cell_angle_alpha   81.89294140
_cell_angle_beta   81.89294194
_cell_angle_gamma   32.00807842
_symmetry_Int_Tables_number   1
_chemical_formula_structural   Ba4PPt8
_chemical_formula_sum   'Ba8 P2 Pt16'
_cell_volume   572.08950318
_cell_formula_units_Z   2
loop_
 _symmetry_equiv_pos_site_id
 _symmetry_equiv_pos_as_xyz
  1  'x, y, z'
loop_
 _atom_site_type_symbol
 _atom_site_label
 _atom_site_symmetry_multiplicity
 _atom_site_fract_x
 _atom_site_fract_y
 _atom_site_fract_z
 _atom_site_occupancy
  Ba  Ba0  1  0.479494  0.479494  0.836975  1
  Ba  Ba1  1  0.520506  0.520506  0.163025  1
  Ba  Ba2  1  0.285651  0.285651  0.900142  1
  Ba  Ba3  1  0.714349  0.714349  0.099858  1
  Ba  Ba4  1  0.221399  0.221399  0.597737  1
  Ba  Ba5  1  0.778601  0.778601  0.402263  1
  Ba  Ba6  1  0.039707  0.039707  0.653071  1
  Ba  Ba7  1  0.960293  0.960293  0.346929  1
  P  P8  1  0.667438  0.667438  0.767575  1
  P  P9  1  0.332562  0.332562  0.232425  1
  Pt  Pt10  1  0.780745  0.780745  0.732279  1
  Pt  Pt11  1  0.219255  0.219255  0.267721  1
  Pt  Pt12  1  0.623966  0.623966  0.582983  1
  Pt  Pt13  1  0.376034  0.376034  0.417017  1
  Pt  Pt14  1  0.500000  0.500000  0.500000  1
  Pt  Pt15  1  0.000000  0.000000  0.000000  1
  Pt  Pt16  1  0.107664  0.107664  0.145313  1
  Pt  Pt17  1  0.892336  0.892336  0.854687  1
  Pt  Pt18  1  0.858559  0.361881  0.370308  1
  Pt  Pt19  1  0.638119  0.141441  0.629692  1
  Pt  Pt20  1  0.141441  0.638119  0.629692  1
  Pt  Pt21  1  0.361881  0.858559  0.370308  1
  Pt  Pt22  1  0.113967  0.647466  0.086259  1
  Pt  Pt23  1  0.352534  0.886033  0.913741  1
  Pt  Pt24  1  0.886033  0.352534  0.913741  1
  Pt  Pt25  1  0.647466  0.113967  0.086259  1
