# generated using pymatgen
data_Nd4Se3Br3N
_symmetry_space_group_name_H-M   'P 1'
_cell_length_a   9.76301900
_cell_length_b   9.76306474
_cell_length_c   7.12695200
_cell_angle_alpha   90.00000000
_cell_angle_beta   90.00000000
_cell_angle_gamma   119.99984841
_symmetry_Int_Tables_number   1
_chemical_formula_structural   Nd4Se3Br3N
_chemical_formula_sum   'Nd8 Se6 Br6 N2'
_cell_volume   588.30891919
_cell_formula_units_Z   2
loop_
 _symmetry_equiv_pos_site_id
 _symmetry_equiv_pos_as_xyz
  1  'x, y, z'
loop_
 _atom_site_type_symbol
 _atom_site_label
 _atom_site_symmetry_multiplicity
 _atom_site_fract_x
 _atom_site_fract_y
 _atom_site_fract_z
 _atom_site_occupancy
  Nd  Nd0  1  0.206042  0.412084  0.247994  1
  Nd  Nd1  1  0.206044  0.793953  0.247996  1
  Nd  Nd2  1  0.587909  0.793953  0.247996  1
  Nd  Nd3  1  0.666674  0.333349  0.296701  1
  Nd  Nd4  1  0.793958  0.587916  0.747995  1
  Nd  Nd5  1  0.412092  0.206047  0.747997  1
  Nd  Nd6  1  0.793956  0.206047  0.747997  1
  Nd  Nd7  1  0.333326  0.666652  0.796701  1
  Se  Se8  1  0.532151  0.467871  0.031963  1
  Se  Se9  1  0.935719  0.467871  0.031963  1
  Se  Se10  1  0.532150  0.064299  0.031983  1
  Se  Se11  1  0.064281  0.532129  0.531963  1
  Se  Se12  1  0.467849  0.532129  0.531963  1
  Se  Se13  1  0.467850  0.935700  0.531984  1
  Br  Br14  1  0.869039  0.738078  0.361464  1
  Br  Br15  1  0.261920  0.130957  0.361468  1
  Br  Br16  1  0.869037  0.130957  0.361468  1
  Br  Br17  1  0.130961  0.261922  0.861464  1
  Br  Br18  1  0.130963  0.869043  0.861468  1
  Br  Br19  1  0.738080  0.869043  0.861468  1
  N  N20  1  0.333332  0.666664  0.131412  1
  N  N21  1  0.666668  0.333336  0.631411  1
