# generated using pymatgen
data_La10Nd2Fe2I17
_symmetry_space_group_name_H-M   'P 1'
_cell_length_a   9.93529280
_cell_length_b   11.98881288
_cell_length_c   12.15199554
_cell_angle_alpha   73.64337233
_cell_angle_beta   74.88637543
_cell_angle_gamma   67.19407887
_symmetry_Int_Tables_number   1
_chemical_formula_structural   La10Nd2Fe2I17
_chemical_formula_sum   'La10 Nd2 Fe2 I17'
_cell_volume   1261.35405199
_cell_formula_units_Z   1
loop_
 _symmetry_equiv_pos_site_id
 _symmetry_equiv_pos_as_xyz
  1  'x, y, z'
loop_
 _atom_site_type_symbol
 _atom_site_label
 _atom_site_symmetry_multiplicity
 _atom_site_fract_x
 _atom_site_fract_y
 _atom_site_fract_z
 _atom_site_occupancy
  La  La0  1  0.295385  0.000186  0.083199  1
  La  La1  1  0.840644  0.282573  0.848302  1
  La  La2  1  0.421957  0.236455  0.731376  1
  La  La3  1  0.706097  0.995424  0.916795  1
  La  La4  1  0.549897  0.520713  0.670622  1
  La  La5  1  0.436998  0.329294  0.001860  1
  La  La6  1  0.578591  0.762241  0.267524  1
  La  La7  1  0.830388  0.184495  0.576618  1
  La  La8  1  0.170102  0.812773  0.423432  1
  La  La9  1  0.158770  0.716642  0.152508  1
  Nd  Nd10  1  0.451718  0.485087  0.324707  1
  Nd  Nd11  1  0.558363  0.675036  0.003405  1
  Fe  Fe12  1  0.362922  0.734245  0.213178  1
  Fe  Fe13  1  0.634998  0.266511  0.787126  1
  I  I14  1  0.058551  0.104580  0.317035  1
  I  I15  1  0.460246  0.939307  0.821135  1
  I  I16  1  0.429857  0.824551  0.528219  1
  I  I17  1  0.568292  0.181437  0.468679  1
  I  I18  1  0.856639  0.691945  0.048344  1
  I  I19  1  0.216027  0.417788  0.250879  1
  I  I20  1  0.689762  0.370014  0.106468  1
  I  I21  1  0.541207  0.058318  0.178755  1
  I  I22  1  0.744002  0.473640  0.410464  1
  I  I23  1  0.887032  0.783512  0.368308  1
  I  I24  1  0.942439  0.893001  0.683195  1
  I  I25  1  0.142932  0.305980  0.950557  1
  I  I26  1  0.312469  0.633758  0.894016  1
  I  I27  1  0.000128  0.999334  0.999864  1
  I  I28  1  0.111331  0.216283  0.631729  1
  I  I29  1  0.784271  0.582377  0.758073  1
  I  I30  1  0.257986  0.522500  0.583625  1
