# generated using pymatgen
data_Y6BiO11F
_symmetry_space_group_name_H-M   'P 1'
_cell_length_a   6.61044335
_cell_length_b   6.59529694
_cell_length_c   6.63395400
_cell_angle_alpha   99.18534815
_cell_angle_beta   99.12277121
_cell_angle_gamma   98.96383383
_symmetry_Int_Tables_number   1
_chemical_formula_structural   Y6BiO11F
_chemical_formula_sum   'Y6 Bi1 O11 F1'
_cell_volume   276.99588109
_cell_formula_units_Z   1
loop_
 _symmetry_equiv_pos_site_id
 _symmetry_equiv_pos_as_xyz
  1  'x, y, z'
loop_
 _atom_site_type_symbol
 _atom_site_label
 _atom_site_symmetry_multiplicity
 _atom_site_fract_x
 _atom_site_fract_y
 _atom_site_fract_z
 _atom_site_occupancy
  Y  Y0  1  0.699183  0.401642  0.870096  1
  Y  Y1  1  0.855897  0.689267  0.393899  1
  Y  Y2  1  0.391025  0.841431  0.690439  1
  Y  Y3  1  0.313719  0.608606  0.147099  1
  Y  Y4  1  0.125872  0.315524  0.609754  1
  Y  Y5  1  0.618747  0.137127  0.292335  1
  Bi  Bi6  1  0.003897  0.002137  0.997624  1
  O  O7  1  0.589098  0.433719  0.180627  1
  O  O8  1  0.174568  0.584202  0.432029  1
  O  O9  1  0.569205  0.830796  0.418821  1
  O  O10  1  0.411313  0.559003  0.818939  1
  O  O11  1  0.813208  0.406289  0.569468  1
  O  O12  1  0.068949  0.318401  0.951640  1
  O  O13  1  0.684291  0.052853  0.927678  1
  O  O14  1  0.057048  0.931567  0.684803  1
  O  O15  1  0.927210  0.688598  0.051215  1
  O  O16  1  0.316903  0.947901  0.071363  1
  O  O17  1  0.955486  0.074485  0.312556  1
  F  F18  1  0.424381  0.176452  0.579614  1
