# generated using pymatgen
data_Li2Pr3ZrRh3
_symmetry_space_group_name_H-M   'P 1'
_cell_length_a   7.58487529
_cell_length_b   7.58487604
_cell_length_c   4.09513900
_cell_angle_alpha   90.00000000
_cell_angle_beta   90.00000000
_cell_angle_gamma   120.57486569
_symmetry_Int_Tables_number   1
_chemical_formula_structural   Li2Pr3ZrRh3
_chemical_formula_sum   'Li2 Pr3 Zr1 Rh3'
_cell_volume   202.83887906
_cell_formula_units_Z   1
loop_
 _symmetry_equiv_pos_site_id
 _symmetry_equiv_pos_as_xyz
  1  'x, y, z'
loop_
 _atom_site_type_symbol
 _atom_site_label
 _atom_site_symmetry_multiplicity
 _atom_site_fract_x
 _atom_site_fract_y
 _atom_site_fract_z
 _atom_site_occupancy
  Li  Li0  1  0.994227  0.232177  0.000000  1
  Li  Li1  1  0.232177  0.994227  0.000000  1
  Pr  Pr2  1  0.013689  0.582351  0.500000  1
  Pr  Pr3  1  0.391487  0.391487  0.500000  1
  Pr  Pr4  1  0.582351  0.013689  0.500000  1
  Zr  Zr5  1  0.757729  0.757729  0.000000  1
  Rh  Rh6  1  0.370888  0.681470  0.000000  1
  Rh  Rh7  1  0.975983  0.975983  0.500000  1
  Rh  Rh8  1  0.681470  0.370888  0.000000  1
