# generated using pymatgen
data_NdPa7Zn8ReRh7
_symmetry_space_group_name_H-M   'P 1'
_cell_length_a   3.82510700
_cell_length_b   7.42288159
_cell_length_c   16.39941126
_cell_angle_alpha   90.51816344
_cell_angle_beta   90.00000000
_cell_angle_gamma   90.00000000
_symmetry_Int_Tables_number   1
_chemical_formula_structural   NdPa7Zn8ReRh7
_chemical_formula_sum   'Nd1 Pa7 Zn8 Re1 Rh7'
_cell_volume   465.61463029
_cell_formula_units_Z   1
loop_
 _symmetry_equiv_pos_site_id
 _symmetry_equiv_pos_as_xyz
  1  'x, y, z'
loop_
 _atom_site_type_symbol
 _atom_site_label
 _atom_site_symmetry_multiplicity
 _atom_site_fract_x
 _atom_site_fract_y
 _atom_site_fract_z
 _atom_site_occupancy
  Nd  Nd0  1  0.250000  0.554451  0.786597  1
  Pa  Pa1  1  0.250000  0.167724  0.939846  1
  Pa  Pa2  1  0.250000  0.676472  0.559585  1
  Pa  Pa3  1  0.750000  0.330698  0.437084  1
  Pa  Pa4  1  0.750000  0.947636  0.285051  1
  Pa  Pa5  1  0.750000  0.827429  0.062784  1
  Pa  Pa6  1  0.750000  0.437477  0.217743  1
  Pa  Pa7  1  0.250000  0.054960  0.714739  1
  Zn  Zn8  1  0.750000  0.014908  0.556978  1
  Zn  Zn9  1  0.250000  0.615794  0.344089  1
  Zn  Zn10  1  0.750000  0.390097  0.656420  1
  Zn  Zn11  1  0.250000  0.490908  0.062822  1
  Zn  Zn12  1  0.750000  0.502735  0.939755  1
  Zn  Zn13  1  0.250000  0.995811  0.439299  1
  Zn  Zn14  1  0.250000  0.113457  0.155105  1
  Zn  Zn15  1  0.750000  0.874579  0.845012  1
  Re  Re16  1  0.250000  0.242168  0.314997  1
  Rh  Rh17  1  0.750000  0.738027  0.441394  1
  Rh  Rh18  1  0.750000  0.224491  0.815655  1
  Rh  Rh19  1  0.750000  0.781273  0.675739  1
  Rh  Rh20  1  0.250000  0.272883  0.557550  1
  Rh  Rh21  1  0.250000  0.743931  0.186109  1
  Rh  Rh22  1  0.750000  0.232173  0.056285  1
  Rh  Rh23  1  0.250000  0.769918  0.949359  1
