# generated using pymatgen
data_Lu7CoSn23Os5
_symmetry_space_group_name_H-M   'P 1'
_cell_length_a   9.76551699
_cell_length_b   9.81482014
_cell_length_c   10.00625723
_cell_angle_alpha   90.00000250
_cell_angle_beta   89.96581376
_cell_angle_gamma   120.16714900
_symmetry_Int_Tables_number   1
_chemical_formula_structural   Lu7CoSn23Os5
_chemical_formula_sum   'Lu7 Co1 Sn23 Os5'
_cell_volume   829.17428715
_cell_formula_units_Z   1
loop_
 _symmetry_equiv_pos_site_id
 _symmetry_equiv_pos_as_xyz
  1  'x, y, z'
loop_
 _atom_site_type_symbol
 _atom_site_label
 _atom_site_symmetry_multiplicity
 _atom_site_fract_x
 _atom_site_fract_y
 _atom_site_fract_z
 _atom_site_occupancy
  Lu  Lu0  1  0.486746  0.512847  0.302227  1
  Lu  Lu1  1  0.512352  0.484822  0.695610  1
  Lu  Lu2  1  0.486746  0.973900  0.302227  1
  Lu  Lu3  1  0.512352  0.027529  0.695610  1
  Lu  Lu4  1  0.025193  0.512597  0.301974  1
  Lu  Lu5  1  0.970809  0.485404  0.696808  1
  Lu  Lu6  1  0.015008  0.007504  0.008164  1
  Co  Co7  1  0.656410  0.828204  0.798191  1
  Sn  Sn8  1  0.116246  0.881834  0.282729  1
  Sn  Sn9  1  0.877179  0.109894  0.724560  1
  Sn  Sn10  1  0.116246  0.234413  0.282729  1
  Sn  Sn11  1  0.877179  0.767286  0.724560  1
  Sn  Sn12  1  0.759825  0.879912  0.275653  1
  Sn  Sn13  1  0.238481  0.119240  0.723036  1
  Sn  Sn14  1  0.778561  0.222021  0.465029  1
  Sn  Sn15  1  0.220796  0.776590  0.535009  1
  Sn  Sn16  1  0.778561  0.556540  0.465029  1
  Sn  Sn17  1  0.220796  0.444207  0.535009  1
  Sn  Sn18  1  0.444416  0.222208  0.463790  1
  Sn  Sn19  1  0.560179  0.780089  0.540705  1
  Sn  Sn20  1  0.352313  0.998658  0.999888  1
  Sn  Sn21  1  0.653594  0.996719  0.993810  1
  Sn  Sn22  1  0.000660  0.350216  0.000056  1
  Sn  Sn23  1  0.000660  0.650444  0.000056  1
  Sn  Sn24  1  0.653594  0.656875  0.993810  1
  Sn  Sn25  1  0.352313  0.353655  0.999888  1
  Sn  Sn26  1  0.334698  0.667350  0.133223  1
  Sn  Sn27  1  0.664932  0.332466  0.865722  1
  Sn  Sn28  1  0.335818  0.667909  0.823745  1
  Sn  Sn29  1  0.666077  0.333038  0.172068  1
  Sn  Sn30  1  0.997592  0.998797  0.502345  1
  Os  Os31  1  0.827957  0.168934  0.201593  1
  Os  Os32  1  0.169763  0.829703  0.796674  1
  Os  Os33  1  0.827957  0.659024  0.201593  1
  Os  Os34  1  0.169763  0.340059  0.796674  1
  Os  Os35  1  0.338228  0.169115  0.200210  1
