# generated using pymatgen
data_LaSn5SbRu4
_symmetry_space_group_name_H-M   'P 1'
_cell_length_a   7.00056985
_cell_length_b   6.92246457
_cell_length_c   6.98270776
_cell_angle_alpha   119.48212626
_cell_angle_beta   119.85351030
_cell_angle_gamma   90.40396520
_symmetry_Int_Tables_number   1
_chemical_formula_structural   LaSn5SbRu4
_chemical_formula_sum   'La1 Sn5 Sb1 Ru4'
_cell_volume   240.82676629
_cell_formula_units_Z   1
loop_
 _symmetry_equiv_pos_site_id
 _symmetry_equiv_pos_as_xyz
  1  'x, y, z'
loop_
 _atom_site_type_symbol
 _atom_site_label
 _atom_site_symmetry_multiplicity
 _atom_site_fract_x
 _atom_site_fract_y
 _atom_site_fract_z
 _atom_site_occupancy
  La  La0  1  0.999853  0.999986  0.000000  1
  Sn  Sn1  1  0.117229  0.476334  0.000000  1
  Sn  Sn2  1  0.880856  0.880068  0.354485  1
  Sn  Sn3  1  0.526371  0.525583  0.645515  1
  Sn  Sn4  1  0.002039  0.500491  0.502358  1
  Sn  Sn5  1  0.499680  0.998133  0.497642  1
  Sb  Sb6  1  0.472118  0.123222  0.000000  1
  Ru  Ru7  1  0.409085  0.755430  0.000000  1
  Ru  Ru8  1  0.750296  0.405045  0.000000  1
  Ru  Ru9  1  0.252457  0.249075  0.662442  1
  Ru  Ru10  1  0.590015  0.586633  0.337558  1
