# generated using pymatgen
data_Tb3YTa2(B2Ru5)2
_symmetry_space_group_name_H-M   'P 1'
_cell_length_a   9.68939317
_cell_length_b   9.68939317
_cell_length_c   3.13785700
_cell_angle_alpha   90.00000000
_cell_angle_beta   90.00000000
_cell_angle_gamma   90.02164249
_symmetry_Int_Tables_number   1
_chemical_formula_structural   Tb3YTa2(B2Ru5)2
_chemical_formula_sum   'Tb3 Y1 Ta2 B4 Ru10'
_cell_volume   294.59561262
_cell_formula_units_Z   1
loop_
 _symmetry_equiv_pos_site_id
 _symmetry_equiv_pos_as_xyz
  1  'x, y, z'
loop_
 _atom_site_type_symbol
 _atom_site_label
 _atom_site_symmetry_multiplicity
 _atom_site_fract_x
 _atom_site_fract_y
 _atom_site_fract_z
 _atom_site_occupancy
  Tb  Tb0  1  0.825102  0.675043  0.000000  1
  Tb  Tb1  1  0.175043  0.325102  0.000000  1
  Tb  Tb2  1  0.324860  0.824860  0.000000  1
  Y  Y3  1  0.675082  0.175082  0.000000  1
  Ta  Ta4  1  0.500067  0.499909  0.000000  1
  Ta  Ta5  1  0.999909  0.000067  0.000000  1
  B  B6  1  0.620419  0.879644  0.000000  1
  B  B7  1  0.379644  0.120419  0.000000  1
  B  B8  1  0.120422  0.620422  0.000000  1
  B  B9  1  0.879289  0.379289  0.000000  1
  Ru  Ru10  1  0.570857  0.718336  0.500000  1
  Ru  Ru11  1  0.429137  0.281591  0.500000  1
  Ru  Ru12  1  0.070959  0.781703  0.500000  1
  Ru  Ru13  1  0.929260  0.218446  0.500000  1
  Ru  Ru14  1  0.281703  0.570959  0.500000  1
  Ru  Ru15  1  0.718446  0.429260  0.500000  1
  Ru  Ru16  1  0.218336  0.070857  0.500000  1
  Ru  Ru17  1  0.781591  0.929137  0.500000  1
  Ru  Ru18  1  0.499862  0.999862  0.500000  1
  Ru  Ru19  1  0.000011  0.500011  0.500000  1
