# generated using pymatgen
data_YbU11Te20
_symmetry_space_group_name_H-M   'P 1'
_cell_length_a   4.17679700
_cell_length_b   14.15738702
_cell_length_c   16.21442000
_cell_angle_alpha   89.99750438
_cell_angle_beta   90.00000000
_cell_angle_gamma   90.00000000
_symmetry_Int_Tables_number   1
_chemical_formula_structural   YbU11Te20
_chemical_formula_sum   'Yb1 U11 Te20'
_cell_volume   958.79970266
_cell_formula_units_Z   1
loop_
 _symmetry_equiv_pos_site_id
 _symmetry_equiv_pos_as_xyz
  1  'x, y, z'
loop_
 _atom_site_type_symbol
 _atom_site_label
 _atom_site_symmetry_multiplicity
 _atom_site_fract_x
 _atom_site_fract_y
 _atom_site_fract_z
 _atom_site_occupancy
  Yb  Yb0  1  0.250000  0.249789  0.879446  1
  U  U1  1  0.750000  0.750572  0.120342  1
  U  U2  1  0.750000  0.749546  0.620384  1
  U  U3  1  0.250000  0.250423  0.380680  1
  U  U4  1  0.250000  0.930277  0.862816  1
  U  U5  1  0.750000  0.069605  0.137655  1
  U  U6  1  0.750000  0.430881  0.638650  1
  U  U7  1  0.250000  0.569047  0.361437  1
  U  U8  1  0.250000  0.092613  0.627557  1
  U  U9  1  0.750000  0.909333  0.372743  1
  U  U10  1  0.750000  0.588818  0.873966  1
  U  U11  1  0.250000  0.409627  0.125343  1
  Te  Te12  1  0.250000  0.917694  0.075397  1
  Te  Te13  1  0.750000  0.074804  0.926386  1
  Te  Te14  1  0.750000  0.419644  0.424667  1
  Te  Te15  1  0.250000  0.580786  0.573711  1
  Te  Te16  1  0.250000  0.455501  0.784340  1
  Te  Te17  1  0.750000  0.546350  0.214156  1
  Te  Te18  1  0.750000  0.953220  0.714259  1
  Te  Te19  1  0.250000  0.046513  0.285232  1
  Te  Te20  1  0.250000  0.721452  0.765029  1
  Te  Te21  1  0.750000  0.279563  0.235389  1
  Te  Te22  1  0.750000  0.219880  0.729901  1
  Te  Te23  1  0.250000  0.778219  0.265078  1
  Te  Te24  1  0.250000  0.612536  0.026269  1
  Te  Te25  1  0.750000  0.393718  0.978946  1
  Te  Te26  1  0.750000  0.110226  0.475009  1
  Te  Te27  1  0.250000  0.889772  0.525413  1
  Te  Te28  1  0.250000  0.200582  0.068443  1
  Te  Te29  1  0.750000  0.796460  0.932208  1
  Te  Te30  1  0.750000  0.702312  0.432817  1
  Te  Te31  1  0.250000  0.300239  0.566335  1
