# generated using pymatgen
data_LaU5(Ni3Bi4)2
_symmetry_space_group_name_H-M   'P 1'
_cell_length_a   8.38821981
_cell_length_b   8.38821995
_cell_length_c   8.38822024
_cell_angle_alpha   109.70565649
_cell_angle_beta   109.35413391
_cell_angle_gamma   109.35413191
_symmetry_Int_Tables_number   1
_chemical_formula_structural   LaU5(Ni3Bi4)2
_chemical_formula_sum   'La1 U5 Ni6 Bi8'
_cell_volume   454.34113589
_cell_formula_units_Z   1
loop_
 _symmetry_equiv_pos_site_id
 _symmetry_equiv_pos_as_xyz
  1  'x, y, z'
loop_
 _atom_site_type_symbol
 _atom_site_label
 _atom_site_symmetry_multiplicity
 _atom_site_fract_x
 _atom_site_fract_y
 _atom_site_fract_z
 _atom_site_occupancy
  La  La0  1  0.750000  0.375000  0.625000  1
  U  U1  1  0.129619  0.875436  0.251629  1
  U  U2  1  0.370381  0.622009  0.745816  1
  U  U3  1  0.876193  0.254184  0.124564  1
  U  U4  1  0.623807  0.748371  0.377991  1
  U  U5  1  0.250000  0.125000  0.875000  1
  Ni  Ni6  1  0.615373  0.371544  0.234652  1
  Ni  Ni7  1  0.884627  0.119279  0.756171  1
  Ni  Ni8  1  0.363108  0.243829  0.628456  1
  Ni  Ni9  1  0.136892  0.765348  0.880721  1
  Ni  Ni10  1  0.250000  0.625000  0.375000  1
  Ni  Ni11  1  0.750000  0.875000  0.125000  1
  Bi  Bi12  1  0.331126  0.331594  0.332612  1
  Bi  Bi13  1  0.168874  0.501486  0.000468  1
  Bi  Bi14  1  0.997018  0.162228  0.496468  1
  Bi  Bi15  1  0.834240  0.834791  0.837772  1
  Bi  Bi16  1  0.502982  0.999450  0.165209  1
  Bi  Bi17  1  0.665760  0.503532  0.000550  1
  Bi  Bi18  1  0.501019  0.999532  0.668406  1
  Bi  Bi19  1  0.998981  0.667388  0.498514  1
