# generated using pymatgen
data_Ce2HfGaIr2
_symmetry_space_group_name_H-M   'P 1'
_cell_length_a   4.44983600
_cell_length_b   7.08142082
_cell_length_c   8.17368417
_cell_angle_alpha   87.16015904
_cell_angle_beta   90.00000000
_cell_angle_gamma   90.00000000
_symmetry_Int_Tables_number   1
_chemical_formula_structural   Ce2HfGaIr2
_chemical_formula_sum   'Ce4 Hf2 Ga2 Ir4'
_cell_volume   257.24597497
_cell_formula_units_Z   2
loop_
 _symmetry_equiv_pos_site_id
 _symmetry_equiv_pos_as_xyz
  1  'x, y, z'
loop_
 _atom_site_type_symbol
 _atom_site_label
 _atom_site_symmetry_multiplicity
 _atom_site_fract_x
 _atom_site_fract_y
 _atom_site_fract_z
 _atom_site_occupancy
  Ce  Ce0  1  0.250000  0.526672  0.163747  1
  Ce  Ce1  1  0.750000  0.473328  0.836253  1
  Ce  Ce2  1  0.750000  0.980145  0.704333  1
  Ce  Ce3  1  0.250000  0.019855  0.295667  1
  Hf  Hf4  1  0.250000  0.639906  0.574197  1
  Hf  Hf5  1  0.750000  0.360094  0.425803  1
  Ga  Ga6  1  0.750000  0.846385  0.072243  1
  Ga  Ga7  1  0.250000  0.153615  0.927757  1
  Ir  Ir8  1  0.250000  0.768387  0.886294  1
  Ir  Ir9  1  0.750000  0.231613  0.113706  1
  Ir  Ir10  1  0.750000  0.733659  0.403560  1
  Ir  Ir11  1  0.250000  0.266341  0.596440  1
