# generated using pymatgen
data_TbZrCo12SiP6
_symmetry_space_group_name_H-M   'P 1'
_cell_length_a   8.98206100
_cell_length_b   8.98206038
_cell_length_c   3.57938600
_cell_angle_alpha   90.00000000
_cell_angle_beta   90.00000000
_cell_angle_gamma   120.00000597
_symmetry_Int_Tables_number   1
_chemical_formula_structural   TbZrCo12SiP6
_chemical_formula_sum   'Tb1 Zr1 Co12 Si1 P6'
_cell_volume   250.08699667
_cell_formula_units_Z   1
loop_
 _symmetry_equiv_pos_site_id
 _symmetry_equiv_pos_as_xyz
  1  'x, y, z'
loop_
 _atom_site_type_symbol
 _atom_site_label
 _atom_site_symmetry_multiplicity
 _atom_site_fract_x
 _atom_site_fract_y
 _atom_site_fract_z
 _atom_site_occupancy
  Tb  Tb0  1  0.333333  0.666667  0.500000  1
  Zr  Zr1  1  0.000000  0.000000  0.000000  1
  Co  Co2  1  0.101113  0.391035  0.000000  1
  Co  Co3  1  0.608965  0.710078  0.000000  1
  Co  Co4  1  0.289922  0.898887  0.000000  1
  Co  Co5  1  0.049472  0.772811  0.500000  1
  Co  Co6  1  0.227189  0.276661  0.500000  1
  Co  Co7  1  0.723339  0.950528  0.500000  1
  Co  Co8  1  0.826242  0.616866  0.000000  1
  Co  Co9  1  0.383134  0.209375  0.000000  1
  Co  Co10  1  0.790625  0.173758  0.000000  1
  Co  Co11  1  0.900728  0.435671  0.500000  1
  Co  Co12  1  0.564329  0.465058  0.500000  1
  Co  Co13  1  0.534942  0.099272  0.500000  1
  Si  Si14  1  0.666667  0.333333  0.000000  1
  P  P15  1  0.780958  0.739032  0.500000  1
  P  P16  1  0.260968  0.041926  0.500000  1
  P  P17  1  0.958074  0.219042  0.500000  1
  P  P18  1  0.071502  0.625212  0.000000  1
  P  P19  1  0.374788  0.446290  0.000000  1
  P  P20  1  0.553710  0.928498  0.000000  1
