# generated using pymatgen
data_Ta3Nb2SiB2
_symmetry_space_group_name_H-M   'P 1'
_cell_length_a   7.32767905
_cell_length_b   7.32605497
_cell_length_c   7.32203193
_cell_angle_alpha   129.46835218
_cell_angle_beta   129.47092030
_cell_angle_gamma   74.29114253
_symmetry_Int_Tables_number   1
_chemical_formula_structural   Ta3Nb2SiB2
_chemical_formula_sum   'Ta6 Nb4 Si2 B4'
_cell_volume   228.30152596
_cell_formula_units_Z   2
loop_
 _symmetry_equiv_pos_site_id
 _symmetry_equiv_pos_as_xyz
  1  'x, y, z'
loop_
 _atom_site_type_symbol
 _atom_site_label
 _atom_site_symmetry_multiplicity
 _atom_site_fract_x
 _atom_site_fract_y
 _atom_site_fract_z
 _atom_site_occupancy
  Ta  Ta0  1  0.998958  0.999235  0.999086  1
  Ta  Ta1  1  0.500138  0.499199  0.000273  1
  Ta  Ta2  1  0.805819  0.306033  0.835941  1
  Ta  Ta3  1  0.194396  0.694148  0.164669  1
  Ta  Ta4  1  0.469539  0.969756  0.163354  1
  Ta  Ta5  1  0.305797  0.470404  0.499801  1
  Nb  Nb6  1  0.029424  0.193769  0.500226  1
  Nb  Nb7  1  0.529970  0.029743  0.836183  1
  Nb  Nb8  1  0.694095  0.529079  0.500215  1
  Nb  Nb9  1  0.970122  0.806373  0.499818  1
  Si  Si10  1  0.249578  0.250023  0.000409  1
  Si  Si11  1  0.749594  0.749253  0.999659  1
  B  B12  1  0.118355  0.617077  0.734661  1
  B  B13  1  0.885624  0.384349  0.268175  1
  B  B14  1  0.614018  0.885604  0.498770  1
  B  B15  1  0.384575  0.115955  0.498760  1
