# generated using pymatgen
data_Ho6Er4In3Hg5PdPt3
_symmetry_space_group_name_H-M   'P 1'
_cell_length_a   3.62003900
_cell_length_b   7.94097802
_cell_length_c   18.27012200
_cell_angle_alpha   89.70114488
_cell_angle_beta   90.00000000
_cell_angle_gamma   90.00000000
_symmetry_Int_Tables_number   1
_chemical_formula_structural   Ho6Er4In3Hg5PdPt3
_chemical_formula_sum   'Ho6 Er4 In3 Hg5 Pd1 Pt3'
_cell_volume   525.19766069
_cell_formula_units_Z   1
loop_
 _symmetry_equiv_pos_site_id
 _symmetry_equiv_pos_as_xyz
  1  'x, y, z'
loop_
 _atom_site_type_symbol
 _atom_site_label
 _atom_site_symmetry_multiplicity
 _atom_site_fract_x
 _atom_site_fract_y
 _atom_site_fract_z
 _atom_site_occupancy
  Ho  Ho0  1  0.000000  0.498822  0.501090  1
  Ho  Ho1  1  0.000000  0.001932  0.000945  1
  Ho  Ho2  1  0.000000  0.742561  0.284938  1
  Ho  Ho3  1  0.000000  0.262736  0.713384  1
  Ho  Ho4  1  0.000000  0.751432  0.781553  1
  Ho  Ho5  1  0.000000  0.252702  0.216094  1
  Er  Er6  1  0.000000  0.611729  0.084549  1
  Er  Er7  1  0.000000  0.390203  0.914533  1
  Er  Er8  1  0.000000  0.884221  0.587324  1
  Er  Er9  1  0.000000  0.105883  0.417417  1
  In  In10  1  0.500000  0.417304  0.352804  1
  In  In11  1  0.500000  0.924644  0.150432  1
  In  In12  1  0.500000  0.076729  0.851047  1
  Hg  Hg13  1  0.500000  0.715270  0.936037  1
  Hg  Hg14  1  0.500000  0.287686  0.064816  1
  Hg  Hg15  1  0.500000  0.785605  0.434440  1
  Hg  Hg16  1  0.500000  0.206059  0.561819  1
  Hg  Hg17  1  0.500000  0.575719  0.644580  1
  Pd  Pd18  1  0.500000  0.035240  0.302947  1
  Pt  Pt19  1  0.500000  0.537002  0.198105  1
  Pt  Pt20  1  0.500000  0.464358  0.802878  1
  Pt  Pt21  1  0.500000  0.972163  0.698269  1
