# generated using pymatgen
data_Tb5HoAl24(FeOs3)2
_symmetry_space_group_name_H-M   'P 1'
_cell_length_a   8.78368534
_cell_length_b   8.78368520
_cell_length_c   9.52452000
_cell_angle_alpha   90.00000000
_cell_angle_beta   90.00000000
_cell_angle_gamma   120.03173074
_symmetry_Int_Tables_number   1
_chemical_formula_structural   Tb5HoAl24(FeOs3)2
_chemical_formula_sum   'Tb5 Ho1 Al24 Fe2 Os6'
_cell_volume   636.19215810
_cell_formula_units_Z   1
loop_
 _symmetry_equiv_pos_site_id
 _symmetry_equiv_pos_as_xyz
  1  'x, y, z'
loop_
 _atom_site_type_symbol
 _atom_site_label
 _atom_site_symmetry_multiplicity
 _atom_site_fract_x
 _atom_site_fract_y
 _atom_site_fract_z
 _atom_site_occupancy
  Tb  Tb0  1  0.193338  0.386589  0.250000  1
  Tb  Tb1  1  0.806660  0.613382  0.750000  1
  Tb  Tb2  1  0.613411  0.806662  0.250000  1
  Tb  Tb3  1  0.386618  0.193340  0.750000  1
  Tb  Tb4  1  0.193392  0.806608  0.250000  1
  Ho  Ho5  1  0.805860  0.194140  0.750000  1
  Al  Al6  1  0.333357  0.666643  0.013275  1
  Al  Al7  1  0.666684  0.333316  0.986241  1
  Al  Al8  1  0.666684  0.333316  0.513759  1
  Al  Al9  1  0.333357  0.666643  0.486725  1
  Al  Al10  1  0.159031  0.318635  0.575463  1
  Al  Al11  1  0.840507  0.680958  0.424925  1
  Al  Al12  1  0.681365  0.840969  0.575463  1
  Al  Al13  1  0.840507  0.680958  0.075075  1
  Al  Al14  1  0.319042  0.159493  0.424925  1
  Al  Al15  1  0.159031  0.318635  0.924537  1
  Al  Al16  1  0.159504  0.840496  0.575349  1
  Al  Al17  1  0.319042  0.159493  0.075075  1
  Al  Al18  1  0.840586  0.159414  0.425339  1
  Al  Al19  1  0.681365  0.840969  0.924537  1
  Al  Al20  1  0.840586  0.159414  0.074661  1
  Al  Al21  1  0.159504  0.840496  0.924651  1
  Al  Al22  1  0.561617  0.123004  0.250000  1
  Al  Al23  1  0.438976  0.877413  0.750000  1
  Al  Al24  1  0.876996  0.438383  0.250000  1
  Al  Al25  1  0.122587  0.561024  0.750000  1
  Al  Al26  1  0.561551  0.438449  0.250000  1
  Al  Al27  1  0.438456  0.561544  0.750000  1
  Al  Al28  1  0.000072  0.999928  0.250000  1
  Al  Al29  1  0.999346  0.000654  0.750000  1
  Fe  Fe30  1  0.000226  0.999774  0.000067  1
  Fe  Fe31  1  0.000226  0.999774  0.499933  1
  Os  Os32  1  0.500448  0.000199  0.999681  1
  Os  Os33  1  0.999801  0.499552  0.999681  1
  Os  Os34  1  0.500448  0.000199  0.500319  1
  Os  Os35  1  0.500009  0.499991  0.999892  1
  Os  Os36  1  0.999801  0.499552  0.500319  1
  Os  Os37  1  0.500009  0.499991  0.500108  1
