# generated using pymatgen
data_Na2Co12SiP6
_symmetry_space_group_name_H-M   'P 1'
_cell_length_a   8.97783700
_cell_length_b   8.97783819
_cell_length_c   3.52534600
_cell_angle_alpha   90.00000000
_cell_angle_beta   90.00000000
_cell_angle_gamma   119.99999291
_symmetry_Int_Tables_number   1
_chemical_formula_structural   Na2Co12SiP6
_chemical_formula_sum   'Na2 Co12 Si1 P6'
_cell_volume   246.07976338
_cell_formula_units_Z   1
loop_
 _symmetry_equiv_pos_site_id
 _symmetry_equiv_pos_as_xyz
  1  'x, y, z'
loop_
 _atom_site_type_symbol
 _atom_site_label
 _atom_site_symmetry_multiplicity
 _atom_site_fract_x
 _atom_site_fract_y
 _atom_site_fract_z
 _atom_site_occupancy
  Na  Na0  1  0.333333  0.666667  0.000000  1
  Na  Na1  1  0.666667  0.333333  0.500000  1
  Co  Co2  1  0.436348  0.058799  0.000000  1
  Co  Co3  1  0.941201  0.377548  0.000000  1
  Co  Co4  1  0.622452  0.563652  0.000000  1
  Co  Co5  1  0.386743  0.435588  0.500000  1
  Co  Co6  1  0.564412  0.951154  0.500000  1
  Co  Co7  1  0.048846  0.613257  0.500000  1
  Co  Co8  1  0.157671  0.280625  0.000000  1
  Co  Co9  1  0.719375  0.877045  0.000000  1
  Co  Co10  1  0.122955  0.842329  0.000000  1
  Co  Co11  1  0.234581  0.101741  0.500000  1
  Co  Co12  1  0.898259  0.132840  0.500000  1
  Co  Co13  1  0.867160  0.765419  0.500000  1
  Si  Si14  1  0.000000  0.000000  0.000000  1
  P  P15  1  0.113429  0.404487  0.500000  1
  P  P16  1  0.595513  0.708943  0.500000  1
  P  P17  1  0.291057  0.886571  0.500000  1
  P  P18  1  0.405576  0.289886  0.000000  1
  P  P19  1  0.710114  0.115691  0.000000  1
  P  P20  1  0.884309  0.594424  0.000000  1
