# generated using pymatgen
data_Ca12Er8Si15Ag
_symmetry_space_group_name_H-M   'P 1'
_cell_length_a   7.42943959
_cell_length_b   7.77921689
_cell_length_c   15.07725400
_cell_angle_alpha   89.55344113
_cell_angle_beta   90.60966762
_cell_angle_gamma   90.29028690
_symmetry_Int_Tables_number   1
_chemical_formula_structural   Ca12Er8Si15Ag
_chemical_formula_sum   'Ca12 Er8 Si15 Ag1'
_cell_volume   871.30662378
_cell_formula_units_Z   1
loop_
 _symmetry_equiv_pos_site_id
 _symmetry_equiv_pos_as_xyz
  1  'x, y, z'
loop_
 _atom_site_type_symbol
 _atom_site_label
 _atom_site_symmetry_multiplicity
 _atom_site_fract_x
 _atom_site_fract_y
 _atom_site_fract_z
 _atom_site_occupancy
  Ca  Ca0  1  0.979974  0.819381  0.403524  1
  Ca  Ca1  1  0.471863  0.682870  0.095755  1
  Ca  Ca2  1  0.513097  0.320466  0.596268  1
  Ca  Ca3  1  0.027058  0.183350  0.904637  1
  Ca  Ca4  1  0.028287  0.177243  0.595369  1
  Ca  Ca5  1  0.527390  0.317841  0.904289  1
  Ca  Ca6  1  0.472005  0.680612  0.404476  1
  Ca  Ca7  1  0.972871  0.816896  0.095423  1
  Ca  Ca8  1  0.351035  0.019485  0.751718  1
  Ca  Ca9  1  0.850213  0.484097  0.750963  1
  Ca  Ca10  1  0.149240  0.518307  0.250748  1
  Ca  Ca11  1  0.647075  0.980167  0.249676  1
  Er  Er12  1  0.315777  0.176105  0.120505  1
  Er  Er13  1  0.821465  0.319113  0.374962  1
  Er  Er14  1  0.184316  0.678091  0.879561  1
  Er  Er15  1  0.675911  0.829415  0.625265  1
  Er  Er16  1  0.318757  0.177745  0.377347  1
  Er  Er17  1  0.814582  0.322962  0.120582  1
  Er  Er18  1  0.189890  0.677061  0.620317  1
  Er  Er19  1  0.685386  0.824041  0.879500  1
  Si  Si20  1  0.358544  0.966143  0.961798  1
  Si  Si21  1  0.646316  0.032921  0.463430  1
  Si  Si22  1  0.140721  0.466154  0.039101  1
  Si  Si23  1  0.154847  0.461299  0.460703  1
  Si  Si24  1  0.641926  0.033720  0.038476  1
  Si  Si25  1  0.358508  0.967312  0.537091  1
  Si  Si26  1  0.858338  0.533359  0.961539  1
  Si  Si27  1  0.976248  0.880384  0.749340  1
  Si  Si28  1  0.474061  0.620604  0.753015  1
  Si  Si29  1  0.525225  0.378967  0.247007  1
  Si  Si30  1  0.024005  0.117400  0.249824  1
  Si  Si31  1  0.245476  0.396579  0.750981  1
  Si  Si32  1  0.749053  0.106457  0.750114  1
  Si  Si33  1  0.251973  0.895505  0.249311  1
  Si  Si34  1  0.751879  0.603372  0.250712  1
  Ag  Ag35  1  0.846690  0.534570  0.536673  1
