# generated using pymatgen
data_YHo6Co3Sn23Ru3
_symmetry_space_group_name_H-M   'P 1'
_cell_length_a   9.77692000
_cell_length_b   9.77691942
_cell_length_c   10.02822400
_cell_angle_alpha   90.00000000
_cell_angle_beta   90.00000000
_cell_angle_gamma   119.99999519
_symmetry_Int_Tables_number   1
_chemical_formula_structural   YHo6Co3Sn23Ru3
_chemical_formula_sum   'Y1 Ho6 Co3 Sn23 Ru3'
_cell_volume   830.15421322
_cell_formula_units_Z   1
loop_
 _symmetry_equiv_pos_site_id
 _symmetry_equiv_pos_as_xyz
  1  'x, y, z'
loop_
 _atom_site_type_symbol
 _atom_site_label
 _atom_site_symmetry_multiplicity
 _atom_site_fract_x
 _atom_site_fract_y
 _atom_site_fract_z
 _atom_site_occupancy
  Y  Y0  1  0.000000  0.000000  0.985453  1
  Ho  Ho1  1  0.517821  0.482179  0.694946  1
  Ho  Ho2  1  0.517821  0.035641  0.694946  1
  Ho  Ho3  1  0.964359  0.482179  0.694946  1
  Ho  Ho4  1  0.038518  0.519260  0.306350  1
  Ho  Ho5  1  0.480740  0.961482  0.306350  1
  Ho  Ho6  1  0.480740  0.519260  0.306350  1
  Co  Co7  1  0.338632  0.169316  0.200466  1
  Co  Co8  1  0.830684  0.661368  0.200466  1
  Co  Co9  1  0.830684  0.169316  0.200466  1
  Sn  Sn10  1  0.666667  0.333333  0.183948  1
  Sn  Sn11  1  0.666667  0.333333  0.880122  1
  Sn  Sn12  1  0.333333  0.666667  0.123240  1
  Sn  Sn13  1  0.350029  0.345950  0.004853  1
  Sn  Sn14  1  0.995921  0.649971  0.004853  1
  Sn  Sn15  1  0.654050  0.004079  0.004853  1
  Sn  Sn16  1  0.654050  0.649971  0.004853  1
  Sn  Sn17  1  0.333333  0.666667  0.820190  1
  Sn  Sn18  1  0.436242  0.218121  0.453045  1
  Sn  Sn19  1  0.220048  0.779952  0.542677  1
  Sn  Sn20  1  0.220048  0.440095  0.542677  1
  Sn  Sn21  1  0.559905  0.779952  0.542677  1
  Sn  Sn22  1  0.117051  0.882949  0.270916  1
  Sn  Sn23  1  0.781879  0.563758  0.453045  1
  Sn  Sn24  1  0.781879  0.218121  0.453045  1
  Sn  Sn25  1  0.350029  0.004079  0.004853  1
  Sn  Sn26  1  0.117051  0.234102  0.270916  1
  Sn  Sn27  1  0.765898  0.882949  0.270916  1
  Sn  Sn28  1  0.237785  0.118892  0.722797  1
  Sn  Sn29  1  0.881108  0.762215  0.722797  1
  Sn  Sn30  1  0.881108  0.118892  0.722797  1
  Sn  Sn31  1  0.000000  0.000000  0.495466  1
  Sn  Sn32  1  0.995921  0.345950  0.004853  1
  Ru  Ru33  1  0.168278  0.831722  0.802956  1
  Ru  Ru34  1  0.168278  0.336555  0.802956  1
  Ru  Ru35  1  0.663445  0.831722  0.802956  1
