# generated using pymatgen
data_K2NdTa5O15
_symmetry_space_group_name_H-M   'P 1'
_cell_length_a   9.33831500
_cell_length_b   9.33831566
_cell_length_c   3.96768800
_cell_angle_alpha   90.00000000
_cell_angle_beta   90.00000000
_cell_angle_gamma   111.62189376
_symmetry_Int_Tables_number   1
_chemical_formula_structural   K2NdTa5O15
_chemical_formula_sum   'K2 Nd1 Ta5 O15'
_cell_volume   321.65284787
_cell_formula_units_Z   1
loop_
 _symmetry_equiv_pos_site_id
 _symmetry_equiv_pos_as_xyz
  1  'x, y, z'
loop_
 _atom_site_type_symbol
 _atom_site_label
 _atom_site_symmetry_multiplicity
 _atom_site_fract_x
 _atom_site_fract_y
 _atom_site_fract_z
 _atom_site_occupancy
  K  K0  1  0.299825  0.700175  0.000000  1
  K  K1  1  0.700175  0.299825  0.000000  1
  Nd  Nd2  1  0.000000  0.000000  0.000000  1
  Ta  Ta3  1  0.321802  0.062905  0.500000  1
  Ta  Ta4  1  0.062905  0.321802  0.500000  1
  Ta  Ta5  1  0.678198  0.937095  0.500000  1
  Ta  Ta6  1  0.937095  0.678198  0.500000  1
  Ta  Ta7  1  0.500000  0.500000  0.500000  1
  O  O8  1  0.137746  0.137746  0.500000  1
  O  O9  1  0.151685  0.848315  0.500000  1
  O  O10  1  0.274560  0.459827  0.500000  1
  O  O11  1  0.848315  0.151685  0.500000  1
  O  O12  1  0.862254  0.862254  0.500000  1
  O  O13  1  0.292064  0.050332  0.000000  1
  O  O14  1  0.707936  0.949668  0.000000  1
  O  O15  1  0.540173  0.725440  0.500000  1
  O  O16  1  0.050332  0.292064  0.000000  1
  O  O17  1  0.500000  0.000000  0.500000  1
  O  O18  1  0.459827  0.274560  0.500000  1
  O  O19  1  0.949668  0.707936  0.000000  1
  O  O20  1  0.500000  0.500000  0.000000  1
  O  O21  1  0.725440  0.540173  0.500000  1
  O  O22  1  0.000000  0.500000  0.500000  1
