# generated using pymatgen
data_Tb11HoPb10
_symmetry_space_group_name_H-M   'P 1'
_cell_length_a   11.82257714
_cell_length_b   11.82257718
_cell_length_c   11.82363896
_cell_angle_alpha   146.94838111
_cell_angle_beta   132.81759183
_cell_angle_gamma   58.80298095
_symmetry_Int_Tables_number   1
_chemical_formula_structural   Tb11HoPb10
_chemical_formula_sum   'Tb11 Ho1 Pb10'
_cell_volume   655.60411830
_cell_formula_units_Z   1
loop_
 _symmetry_equiv_pos_site_id
 _symmetry_equiv_pos_as_xyz
  1  'x, y, z'
loop_
 _atom_site_type_symbol
 _atom_site_label
 _atom_site_symmetry_multiplicity
 _atom_site_fract_x
 _atom_site_fract_y
 _atom_site_fract_z
 _atom_site_occupancy
  Tb  Tb0  1  0.696342  0.946342  0.250000  1
  Tb  Tb1  1  0.250465  0.637678  0.612654  1
  Tb  Tb2  1  0.680578  0.941244  0.739386  1
  Tb  Tb3  1  0.025026  0.137810  0.887346  1
  Tb  Tb4  1  0.974823  0.862104  0.112556  1
  Tb  Tb5  1  0.798129  0.558781  0.239201  1
  Tb  Tb6  1  0.201859  0.441191  0.760614  1
  Tb  Tb7  1  0.303655  0.053655  0.750000  1
  Tb  Tb8  1  0.319580  0.058928  0.260799  1
  Tb  Tb9  1  0.303665  0.553665  0.250000  1
  Tb  Tb10  1  0.749547  0.362268  0.387444  1
  Ho  Ho11  1  0.696300  0.446300  0.750000  1
  Pb  Pb12  1  0.480476  0.574061  0.905621  1
  Pb  Pb13  1  0.598538  0.793700  0.803905  1
  Pb  Pb14  1  0.668440  0.074855  0.594379  1
  Pb  Pb15  1  0.000016  0.750016  0.750000  1
  Pb  Pb16  1  0.989795  0.294633  0.696095  1
  Pb  Pb17  1  0.519762  0.425605  0.094013  1
  Pb  Pb18  1  0.009568  0.705385  0.303525  1
  Pb  Pb19  1  0.401860  0.206044  0.196475  1
  Pb  Pb20  1  0.331592  0.925748  0.405987  1
  Pb  Pb21  1  0.999985  0.249985  0.250000  1
