# generated using pymatgen
data_YHo2Er2(In2Pt)2
_symmetry_space_group_name_H-M   'P 1'
_cell_length_a   3.60764000
_cell_length_b   8.15294200
_cell_length_c   18.20614000
_cell_angle_alpha   90.00000000
_cell_angle_beta   90.00000000
_cell_angle_gamma   90.00000000
_symmetry_Int_Tables_number   1
_chemical_formula_structural   YHo2Er2(In2Pt)2
_chemical_formula_sum   'Y2 Ho4 Er4 In8 Pt4'
_cell_volume   535.49500520
_cell_formula_units_Z   2
loop_
 _symmetry_equiv_pos_site_id
 _symmetry_equiv_pos_as_xyz
  1  'x, y, z'
loop_
 _atom_site_type_symbol
 _atom_site_label
 _atom_site_symmetry_multiplicity
 _atom_site_fract_x
 _atom_site_fract_y
 _atom_site_fract_z
 _atom_site_occupancy
  Y  Y0  1  0.000000  0.000000  0.000000  1
  Y  Y1  1  0.000000  0.500000  0.500000  1
  Ho  Ho2  1  0.000000  0.242967  0.220120  1
  Ho  Ho3  1  0.000000  0.757033  0.779880  1
  Ho  Ho4  1  0.000000  0.257033  0.720120  1
  Ho  Ho5  1  0.000000  0.742967  0.279880  1
  Er  Er6  1  0.000000  0.116679  0.414415  1
  Er  Er7  1  0.000000  0.883321  0.585585  1
  Er  Er8  1  0.000000  0.383321  0.914415  1
  Er  Er9  1  0.000000  0.616679  0.085585  1
  In  In10  1  0.500000  0.422910  0.351011  1
  In  In11  1  0.500000  0.577090  0.648989  1
  In  In12  1  0.500000  0.077090  0.851011  1
  In  In13  1  0.500000  0.922910  0.148989  1
  In  In14  1  0.500000  0.293261  0.066460  1
  In  In15  1  0.500000  0.706739  0.933540  1
  In  In16  1  0.500000  0.206739  0.566460  1
  In  In17  1  0.500000  0.793261  0.433540  1
  Pt  Pt18  1  0.500000  0.024874  0.303635  1
  Pt  Pt19  1  0.500000  0.975126  0.696365  1
  Pt  Pt20  1  0.500000  0.475126  0.803635  1
  Pt  Pt21  1  0.500000  0.524874  0.196365  1
