# generated using pymatgen
data_CeHoNi3P4
_symmetry_space_group_name_H-M   'P 1'
_cell_length_a   3.89500700
_cell_length_b   3.87595900
_cell_length_c   9.20448300
_cell_angle_alpha   90.00000000
_cell_angle_beta   90.00000000
_cell_angle_gamma   90.00000000
_symmetry_Int_Tables_number   1
_chemical_formula_structural   CeHoNi3P4
_chemical_formula_sum   'Ce1 Ho1 Ni3 P4'
_cell_volume   138.95904376
_cell_formula_units_Z   1
loop_
 _symmetry_equiv_pos_site_id
 _symmetry_equiv_pos_as_xyz
  1  'x, y, z'
loop_
 _atom_site_type_symbol
 _atom_site_label
 _atom_site_symmetry_multiplicity
 _atom_site_fract_x
 _atom_site_fract_y
 _atom_site_fract_z
 _atom_site_occupancy
  Ce  Ce0  1  0.500000  0.000000  0.763190  1
  Ho  Ho1  1  0.000000  0.500000  0.239737  1
  Ni  Ni2  1  0.000000  0.000000  0.492101  1
  Ni  Ni3  1  0.000000  0.000000  0.004428  1
  Ni  Ni4  1  0.500000  0.500000  0.498998  1
  P  P5  1  0.000000  0.500000  0.877274  1
  P  P6  1  0.500000  0.000000  0.372290  1
  P  P7  1  0.500000  0.000000  0.124295  1
  P  P8  1  0.000000  0.500000  0.627687  1
