# generated using pymatgen
data_Hf16Co5Pd3
_symmetry_space_group_name_H-M   'P 1'
_cell_length_a   8.62351955
_cell_length_b   8.60817517
_cell_length_c   8.60817500
_cell_angle_alpha   60.00000451
_cell_angle_beta   60.05884793
_cell_angle_gamma   60.05885096
_symmetry_Int_Tables_number   1
_chemical_formula_structural   Hf16Co5Pd3
_chemical_formula_sum   'Hf16 Co5 Pd3'
_cell_volume   452.24886890
_cell_formula_units_Z   1
loop_
 _symmetry_equiv_pos_site_id
 _symmetry_equiv_pos_as_xyz
  1  'x, y, z'
loop_
 _atom_site_type_symbol
 _atom_site_label
 _atom_site_symmetry_multiplicity
 _atom_site_fract_x
 _atom_site_fract_y
 _atom_site_fract_z
 _atom_site_occupancy
  Hf  Hf0  1  0.181051  0.606316  0.606316  1
  Hf  Hf1  1  0.605546  0.174192  0.610131  1
  Hf  Hf2  1  0.605546  0.610131  0.174192  1
  Hf  Hf3  1  0.605546  0.610131  0.610131  1
  Hf  Hf4  1  0.812048  0.812778  0.187587  1
  Hf  Hf5  1  0.194357  0.179153  0.813245  1
  Hf  Hf6  1  0.812048  0.187587  0.812778  1
  Hf  Hf7  1  0.194357  0.813245  0.179153  1
  Hf  Hf8  1  0.194357  0.813245  0.813245  1
  Hf  Hf9  1  0.812048  0.187587  0.187587  1
  Hf  Hf10  1  0.438864  0.441966  0.059585  1
  Hf  Hf11  1  0.060524  0.060944  0.439266  1
  Hf  Hf12  1  0.438864  0.059585  0.441966  1
  Hf  Hf13  1  0.060524  0.439266  0.060944  1
  Hf  Hf14  1  0.060524  0.439266  0.439266  1
  Hf  Hf15  1  0.438864  0.059585  0.059585  1
  Co  Co16  1  0.814626  0.395124  0.395124  1
  Co  Co17  1  0.398232  0.814486  0.393640  1
  Co  Co18  1  0.398232  0.393640  0.814486  1
  Co  Co19  1  0.398232  0.393640  0.393640  1
  Co  Co20  1  0.452605  0.849132  0.849132  1
  Pd  Pd21  1  0.841003  0.488946  0.835026  1
  Pd  Pd22  1  0.841003  0.835026  0.488946  1
  Pd  Pd23  1  0.841003  0.835026  0.835026  1
