# generated using pymatgen
data_Nb12Al5Cr7N4
_symmetry_space_group_name_H-M   'P 1'
_cell_length_a   8.21536398
_cell_length_b   8.22526463
_cell_length_c   8.22526500
_cell_angle_alpha   60.00000252
_cell_angle_beta   59.96012885
_cell_angle_gamma   59.96012834
_symmetry_Int_Tables_number   1
_chemical_formula_structural   Nb12Al5Cr7N4
_chemical_formula_sum   'Nb12 Al5 Cr7 N4'
_cell_volume   392.78021586
_cell_formula_units_Z   1
loop_
 _symmetry_equiv_pos_site_id
 _symmetry_equiv_pos_as_xyz
  1  'x, y, z'
loop_
 _atom_site_type_symbol
 _atom_site_label
 _atom_site_symmetry_multiplicity
 _atom_site_fract_x
 _atom_site_fract_y
 _atom_site_fract_z
 _atom_site_occupancy
  Nb  Nb0  1  0.809104  0.807503  0.191696  1
  Nb  Nb1  1  0.189789  0.197943  0.806134  1
  Nb  Nb2  1  0.809104  0.191696  0.807503  1
  Nb  Nb3  1  0.189789  0.806134  0.197943  1
  Nb  Nb4  1  0.189789  0.806134  0.806134  1
  Nb  Nb5  1  0.809104  0.191696  0.191696  1
  Nb  Nb6  1  0.445058  0.444539  0.055202  1
  Nb  Nb7  1  0.057265  0.055011  0.443862  1
  Nb  Nb8  1  0.445058  0.055202  0.444539  1
  Nb  Nb9  1  0.057265  0.443862  0.055011  1
  Nb  Nb10  1  0.057265  0.443862  0.443862  1
  Nb  Nb11  1  0.445058  0.055202  0.055202  1
  Al  Al12  1  0.754032  0.415323  0.415323  1
  Al  Al13  1  0.418625  0.749212  0.416082  1
  Al  Al14  1  0.418625  0.416082  0.749212  1
  Al  Al15  1  0.418625  0.416082  0.416082  1
  Al  Al16  1  0.492748  0.835751  0.835751  1
  Cr  Cr17  1  0.100448  0.633184  0.633184  1
  Cr  Cr18  1  0.644735  0.108535  0.623365  1
  Cr  Cr19  1  0.644735  0.623365  0.108535  1
  Cr  Cr20  1  0.644735  0.623365  0.623365  1
  Cr  Cr21  1  0.820492  0.519970  0.829769  1
  Cr  Cr22  1  0.820492  0.829769  0.519970  1
  Cr  Cr23  1  0.820492  0.829769  0.829769  1
  N  N24  1  0.625557  0.124814  0.124814  1
  N  N25  1  0.124004  0.625398  0.125299  1
  N  N26  1  0.124004  0.125299  0.625398  1
  N  N27  1  0.124004  0.125299  0.125299  1
