# generated using pymatgen
data_Ti2Mn2CrSi
_symmetry_space_group_name_H-M   'P 1'
_cell_length_a   4.78614405
_cell_length_b   4.78614447
_cell_length_c   7.88095400
_cell_angle_alpha   90.00000000
_cell_angle_beta   90.00000000
_cell_angle_gamma   119.98293278
_symmetry_Int_Tables_number   1
_chemical_formula_structural   Ti2Mn2CrSi
_chemical_formula_sum   'Ti4 Mn4 Cr2 Si2'
_cell_volume   156.37080021
_cell_formula_units_Z   2
loop_
 _symmetry_equiv_pos_site_id
 _symmetry_equiv_pos_as_xyz
  1  'x, y, z'
loop_
 _atom_site_type_symbol
 _atom_site_label
 _atom_site_symmetry_multiplicity
 _atom_site_fract_x
 _atom_site_fract_y
 _atom_site_fract_z
 _atom_site_occupancy
  Ti  Ti0  1  0.333402  0.666598  0.433915  1
  Ti  Ti1  1  0.666555  0.333445  0.562477  1
  Ti  Ti2  1  0.666555  0.333445  0.937523  1
  Ti  Ti3  1  0.333402  0.666598  0.066085  1
  Mn  Mn4  1  0.825888  0.174112  0.250000  1
  Mn  Mn5  1  0.825410  0.651718  0.250000  1
  Mn  Mn6  1  0.348282  0.174590  0.250000  1
  Mn  Mn7  1  0.172488  0.827512  0.750000  1
  Cr  Cr8  1  0.173484  0.347684  0.750000  1
  Cr  Cr9  1  0.652316  0.826516  0.750000  1
  Si  Si10  1  0.001110  0.998890  0.497644  1
  Si  Si11  1  0.001110  0.998890  0.002356  1
