# generated using pymatgen
data_Mg3InP7N12
_symmetry_space_group_name_H-M   'P 1'
_cell_length_a   7.27978211
_cell_length_b   7.27978258
_cell_length_c   7.27978209
_cell_angle_alpha   109.46211691
_cell_angle_beta   109.46211236
_cell_angle_gamma   109.46210224
_symmetry_Int_Tables_number   1
_chemical_formula_structural   Mg3InP7N12
_chemical_formula_sum   'Mg3 In1 P7 N12'
_cell_volume   297.08428322
_cell_formula_units_Z   1
loop_
 _symmetry_equiv_pos_site_id
 _symmetry_equiv_pos_as_xyz
  1  'x, y, z'
loop_
 _atom_site_type_symbol
 _atom_site_label
 _atom_site_symmetry_multiplicity
 _atom_site_fract_x
 _atom_site_fract_y
 _atom_site_fract_z
 _atom_site_occupancy
  Mg  Mg0  1  0.002229  0.654638  0.002229  1
  Mg  Mg1  1  0.654638  0.002229  0.002229  1
  Mg  Mg2  1  0.002229  0.002229  0.654638  1
  In  In3  1  0.315493  0.315493  0.315493  1
  P  P4  1  0.502012  0.252023  0.753926  1
  P  P5  1  0.502012  0.753926  0.252023  1
  P  P6  1  0.753926  0.252023  0.502012  1
  P  P7  1  0.252023  0.502012  0.753926  1
  P  P8  1  0.753926  0.502012  0.252023  1
  P  P9  1  0.252023  0.753926  0.502012  1
  P  P10  1  0.983122  0.983122  0.983122  1
  N  N11  1  0.002046  0.725207  0.436587  1
  N  N12  1  0.279268  0.713849  0.279268  1
  N  N13  1  0.290354  0.567975  0.567975  1
  N  N14  1  0.567975  0.567975  0.290354  1
  N  N15  1  0.567975  0.290354  0.567975  1
  N  N16  1  0.725207  0.002046  0.436587  1
  N  N17  1  0.436587  0.002046  0.725207  1
  N  N18  1  0.725207  0.436587  0.002046  1
  N  N19  1  0.279268  0.279268  0.713849  1
  N  N20  1  0.713849  0.279268  0.279268  1
  N  N21  1  0.002046  0.436587  0.725207  1
  N  N22  1  0.436587  0.725207  0.002046  1
