# generated using pymatgen
data_Tb7Ce(ScIr3)2
_symmetry_space_group_name_H-M   'P 1'
_cell_length_a   10.84680950
_cell_length_b   10.84517200
_cell_length_c   6.27563015
_cell_angle_alpha   90.00000000
_cell_angle_beta   89.50164983
_cell_angle_gamma   90.00000000
_symmetry_Int_Tables_number   1
_chemical_formula_structural   Tb7Ce(ScIr3)2
_chemical_formula_sum   'Tb14 Ce2 Sc4 Ir12'
_cell_volume   738.20905816
_cell_formula_units_Z   2
loop_
 _symmetry_equiv_pos_site_id
 _symmetry_equiv_pos_as_xyz
  1  'x, y, z'
loop_
 _atom_site_type_symbol
 _atom_site_label
 _atom_site_symmetry_multiplicity
 _atom_site_fract_x
 _atom_site_fract_y
 _atom_site_fract_z
 _atom_site_occupancy
  Tb  Tb0  1  0.710765  0.086394  0.879411  1
  Tb  Tb1  1  0.710765  0.913606  0.379411  1
  Tb  Tb2  1  0.588430  0.787462  0.879700  1
  Tb  Tb3  1  0.588430  0.212538  0.379700  1
  Tb  Tb4  1  0.415732  0.783202  0.380112  1
  Tb  Tb5  1  0.415732  0.216798  0.880112  1
  Tb  Tb6  1  0.211491  0.415231  0.620699  1
  Tb  Tb7  1  0.211491  0.584769  0.120699  1
  Tb  Tb8  1  0.788023  0.413431  0.120326  1
  Tb  Tb9  1  0.788023  0.586569  0.620326  1
  Tb  Tb10  1  0.913942  0.712418  0.119541  1
  Tb  Tb11  1  0.913942  0.287582  0.619541  1
  Tb  Tb12  1  0.085716  0.711995  0.617509  1
  Tb  Tb13  1  0.085716  0.288005  0.117509  1
  Ce  Ce14  1  0.288162  0.087968  0.384009  1
  Ce  Ce15  1  0.288162  0.912032  0.884009  1
  Sc  Sc16  1  0.997098  0.998830  0.500339  1
  Sc  Sc17  1  0.997098  0.001170  0.000339  1
  Sc  Sc18  1  0.501472  0.500851  0.002438  1
  Sc  Sc19  1  0.501472  0.499149  0.502438  1
  Ir  Ir20  1  0.852266  0.146890  0.249342  1
  Ir  Ir21  1  0.852266  0.853110  0.749342  1
  Ir  Ir22  1  0.150660  0.145320  0.744064  1
  Ir  Ir23  1  0.150660  0.854680  0.244064  1
  Ir  Ir24  1  0.647318  0.353513  0.750077  1
  Ir  Ir25  1  0.647318  0.646487  0.250077  1
  Ir  Ir26  1  0.353846  0.353270  0.253228  1
  Ir  Ir27  1  0.353846  0.646730  0.753228  1
  Ir  Ir28  1  0.495388  0.001103  0.123824  1
  Ir  Ir29  1  0.495388  0.998897  0.623824  1
  Ir  Ir30  1  0.999691  0.499714  0.875381  1
  Ir  Ir31  1  0.999691  0.500286  0.375381  1
