# generated using pymatgen
data_Ho4Tc3PtF28
_symmetry_space_group_name_H-M   'P 1'
_cell_length_a   5.56158825
_cell_length_b   8.86851726
_cell_length_c   11.98359611
_cell_angle_alpha   62.62529462
_cell_angle_beta   89.97159276
_cell_angle_gamma   89.96988285
_symmetry_Int_Tables_number   1
_chemical_formula_structural   Ho4Tc3PtF28
_chemical_formula_sum   'Ho4 Tc3 Pt1 F28'
_cell_volume   524.87867729
_cell_formula_units_Z   1
loop_
 _symmetry_equiv_pos_site_id
 _symmetry_equiv_pos_as_xyz
  1  'x, y, z'
loop_
 _atom_site_type_symbol
 _atom_site_label
 _atom_site_symmetry_multiplicity
 _atom_site_fract_x
 _atom_site_fract_y
 _atom_site_fract_z
 _atom_site_occupancy
  Ho  Ho0  1  0.759150  0.813771  0.764898  1
  Ho  Ho1  1  0.259526  0.185608  0.735504  1
  Ho  Ho2  1  0.240006  0.185316  0.236469  1
  Ho  Ho3  1  0.741350  0.813018  0.265188  1
  Tc  Tc4  1  0.758157  0.272618  0.957176  1
  Tc  Tc5  1  0.258061  0.726781  0.543276  1
  Tc  Tc6  1  0.242034  0.726611  0.043537  1
  Pt  Pt7  1  0.740713  0.272258  0.456944  1
  F  F8  1  0.442334  0.706353  0.916728  1
  F  F9  1  0.936414  0.297320  0.584079  1
  F  F10  1  0.557222  0.293184  0.083492  1
  F  F11  1  0.058063  0.706791  0.416566  1
  F  F12  1  0.440667  0.277392  0.543323  1
  F  F13  1  0.944044  0.723790  0.954799  1
  F  F14  1  0.555993  0.723747  0.454767  1
  F  F15  1  0.055875  0.275595  0.046002  1
  F  F16  1  0.775392  0.521334  0.859371  1
  F  F17  1  0.274283  0.478006  0.640801  1
  F  F18  1  0.224815  0.477994  0.141093  1
  F  F19  1  0.724573  0.521245  0.358225  1
  F  F20  1  0.755728  0.025217  0.053225  1
  F  F21  1  0.255506  0.974291  0.447085  1
  F  F22  1  0.244545  0.974210  0.947024  1
  F  F23  1  0.745458  0.023106  0.550587  1
  F  F24  1  0.971182  0.728071  0.638586  1
  F  F25  1  0.471813  0.271828  0.861493  1
  F  F26  1  0.032894  0.275121  0.363274  1
  F  F27  1  0.528573  0.728096  0.138596  1
  F  F28  1  0.047704  0.747096  0.173590  1
  F  F29  1  0.551154  0.254221  0.324373  1
  F  F30  1  0.953364  0.252796  0.826805  1
  F  F31  1  0.452930  0.746900  0.673458  1
  F  F32  1  0.418398  0.970698  0.232420  1
  F  F33  1  0.918003  0.029154  0.267720  1
  F  F34  1  0.582208  0.029778  0.767326  1
  F  F35  1  0.081867  0.970686  0.732199  1
