# generated using pymatgen
data_HoAlFeB6
_symmetry_space_group_name_H-M   'P 1'
_cell_length_a   3.34918300
_cell_length_b   8.74407000
_cell_length_c   11.14382200
_cell_angle_alpha   90.00000000
_cell_angle_beta   90.00000000
_cell_angle_gamma   90.00000000
_symmetry_Int_Tables_number   1
_chemical_formula_structural   HoAlFeB6
_chemical_formula_sum   'Ho4 Al4 Fe4 B24'
_cell_volume   326.35229437
_cell_formula_units_Z   4
loop_
 _symmetry_equiv_pos_site_id
 _symmetry_equiv_pos_as_xyz
  1  'x, y, z'
loop_
 _atom_site_type_symbol
 _atom_site_label
 _atom_site_symmetry_multiplicity
 _atom_site_fract_x
 _atom_site_fract_y
 _atom_site_fract_z
 _atom_site_occupancy
  Ho  Ho0  1  0.000000  0.821848  0.084567  1
  Ho  Ho1  1  0.000000  0.178152  0.915433  1
  Ho  Ho2  1  0.000000  0.321848  0.415433  1
  Ho  Ho3  1  0.000000  0.678152  0.584567  1
  Al  Al4  1  0.000000  0.445401  0.126518  1
  Al  Al5  1  0.000000  0.554599  0.873482  1
  Al  Al6  1  0.000000  0.945401  0.373482  1
  Al  Al7  1  0.000000  0.054599  0.626518  1
  Fe  Fe8  1  0.000000  0.142463  0.183943  1
  Fe  Fe9  1  0.000000  0.857537  0.816057  1
  Fe  Fe10  1  0.000000  0.642463  0.316057  1
  Fe  Fe11  1  0.000000  0.357537  0.683943  1
  B  B12  1  0.500000  0.057498  0.069426  1
  B  B13  1  0.500000  0.942502  0.930574  1
  B  B14  1  0.500000  0.557498  0.430574  1
  B  B15  1  0.500000  0.442502  0.569426  1
  B  B16  1  0.500000  0.255590  0.083514  1
  B  B17  1  0.500000  0.744410  0.916486  1
  B  B18  1  0.500000  0.755590  0.416486  1
  B  B19  1  0.500000  0.244410  0.583514  1
  B  B20  1  0.500000  0.293823  0.235798  1
  B  B21  1  0.500000  0.706177  0.764202  1
  B  B22  1  0.500000  0.793823  0.264202  1
  B  B23  1  0.500000  0.206177  0.735798  1
  B  B24  1  0.500000  0.126755  0.318176  1
  B  B25  1  0.500000  0.873245  0.681824  1
  B  B26  1  0.500000  0.626755  0.181824  1
  B  B27  1  0.500000  0.373245  0.818176  1
  B  B28  1  0.500000  0.482882  0.285524  1
  B  B29  1  0.500000  0.517118  0.714476  1
  B  B30  1  0.500000  0.982882  0.214476  1
  B  B31  1  0.500000  0.017118  0.785524  1
  B  B32  1  0.500000  0.096829  0.474361  1
  B  B33  1  0.500000  0.903171  0.525639  1
  B  B34  1  0.500000  0.596829  0.025639  1
  B  B35  1  0.500000  0.403171  0.974361  1
