# generated using pymatgen
data_Nb4Co3NiPt8
_symmetry_space_group_name_H-M   'P 1'
_cell_length_a   4.45976900
_cell_length_b   4.89127400
_cell_length_c   10.96016800
_cell_angle_alpha   90.00000000
_cell_angle_beta   90.00000000
_cell_angle_gamma   90.00000000
_symmetry_Int_Tables_number   1
_chemical_formula_structural   Nb4Co3NiPt8
_chemical_formula_sum   'Nb4 Co3 Ni1 Pt8'
_cell_volume   239.08458037
_cell_formula_units_Z   1
loop_
 _symmetry_equiv_pos_site_id
 _symmetry_equiv_pos_as_xyz
  1  'x, y, z'
loop_
 _atom_site_type_symbol
 _atom_site_label
 _atom_site_symmetry_multiplicity
 _atom_site_fract_x
 _atom_site_fract_y
 _atom_site_fract_z
 _atom_site_occupancy
  Nb  Nb0  1  0.500000  0.653494  0.249635  1
  Nb  Nb1  1  0.500000  0.653494  0.750365  1
  Nb  Nb2  1  0.000000  0.348530  0.000000  1
  Nb  Nb3  1  0.000000  0.349155  0.500000  1
  Co  Co4  1  0.000000  0.326638  0.250108  1
  Co  Co5  1  0.000000  0.326638  0.749892  1
  Co  Co6  1  0.500000  0.671610  0.000000  1
  Ni  Ni7  1  0.500000  0.666702  0.500000  1
  Pt  Pt8  1  0.500000  0.174314  0.374512  1
  Pt  Pt9  1  0.500000  0.173248  0.874292  1
  Pt  Pt10  1  0.500000  0.173248  0.125708  1
  Pt  Pt11  1  0.500000  0.174314  0.625488  1
  Pt  Pt12  1  0.000000  0.827007  0.375246  1
  Pt  Pt13  1  0.000000  0.827302  0.876192  1
  Pt  Pt14  1  0.000000  0.827302  0.123808  1
  Pt  Pt15  1  0.000000  0.827007  0.624754  1
