# generated using pymatgen
data_HoThHgAu2
_symmetry_space_group_name_H-M   'P 1'
_cell_length_a   8.09338800
_cell_length_b   8.03634100
_cell_length_c   3.79298200
_cell_angle_alpha   90.00000000
_cell_angle_beta   90.00000000
_cell_angle_gamma   90.00000000
_symmetry_Int_Tables_number   1
_chemical_formula_structural   HoThHgAu2
_chemical_formula_sum   'Ho2 Th2 Hg2 Au4'
_cell_volume   246.70019877
_cell_formula_units_Z   2
loop_
 _symmetry_equiv_pos_site_id
 _symmetry_equiv_pos_as_xyz
  1  'x, y, z'
loop_
 _atom_site_type_symbol
 _atom_site_label
 _atom_site_symmetry_multiplicity
 _atom_site_fract_x
 _atom_site_fract_y
 _atom_site_fract_z
 _atom_site_occupancy
  Ho  Ho0  1  0.171439  0.676219  0.500000  1
  Ho  Ho1  1  0.671439  0.823782  0.500000  1
  Th  Th2  1  0.327139  0.168678  0.500000  1
  Th  Th3  1  0.827139  0.331323  0.500000  1
  Hg  Hg4  1  0.999349  0.995143  0.000000  1
  Hg  Hg5  1  0.499349  0.504857  0.000000  1
  Au  Au6  1  0.628916  0.122199  0.000000  1
  Au  Au7  1  0.128916  0.377802  0.000000  1
  Au  Au8  1  0.873158  0.634129  0.000000  1
  Au  Au9  1  0.373159  0.865871  0.000000  1
