# generated using pymatgen
data_Eu3Mn(Co4P3)2
_symmetry_space_group_name_H-M   'P 1'
_cell_length_a   3.75604300
_cell_length_b   10.71481200
_cell_length_c   12.38602400
_cell_angle_alpha   90.00000000
_cell_angle_beta   90.00000000
_cell_angle_gamma   90.00000000
_symmetry_Int_Tables_number   1
_chemical_formula_structural   Eu3Mn(Co4P3)2
_chemical_formula_sum   'Eu6 Mn2 Co16 P12'
_cell_volume   498.47918491
_cell_formula_units_Z   2
loop_
 _symmetry_equiv_pos_site_id
 _symmetry_equiv_pos_as_xyz
  1  'x, y, z'
loop_
 _atom_site_type_symbol
 _atom_site_label
 _atom_site_symmetry_multiplicity
 _atom_site_fract_x
 _atom_site_fract_y
 _atom_site_fract_z
 _atom_site_occupancy
  Eu  Eu0  1  0.000000  0.500000  0.525734  1
  Eu  Eu1  1  0.500000  0.000000  0.474266  1
  Eu  Eu2  1  0.500000  0.822221  0.206451  1
  Eu  Eu3  1  0.500000  0.177779  0.206451  1
  Eu  Eu4  1  0.000000  0.677779  0.793549  1
  Eu  Eu5  1  0.000000  0.322221  0.793549  1
  Mn  Mn6  1  0.500000  0.500000  0.155657  1
  Mn  Mn7  1  0.000000  0.000000  0.844343  1
  Co  Co8  1  0.500000  0.500000  0.703610  1
  Co  Co9  1  0.000000  0.000000  0.296390  1
  Co  Co10  1  0.000000  0.500000  0.991339  1
  Co  Co11  1  0.500000  0.000000  0.008661  1
  Co  Co12  1  0.500000  0.332360  0.996978  1
  Co  Co13  1  0.500000  0.667640  0.996978  1
  Co  Co14  1  0.000000  0.167640  0.003022  1
  Co  Co15  1  0.000000  0.832360  0.003022  1
  Co  Co16  1  0.500000  0.297726  0.431029  1
  Co  Co17  1  0.500000  0.702274  0.431029  1
  Co  Co18  1  0.000000  0.202274  0.568971  1
  Co  Co19  1  0.000000  0.797726  0.568971  1
  Co  Co20  1  0.500000  0.880879  0.708403  1
  Co  Co21  1  0.500000  0.119121  0.708403  1
  Co  Co22  1  0.000000  0.619121  0.291597  1
  Co  Co23  1  0.000000  0.380879  0.291597  1
  P  P24  1  0.500000  0.500000  0.889230  1
  P  P25  1  0.000000  0.000000  0.110770  1
  P  P26  1  0.500000  0.500000  0.343942  1
  P  P27  1  0.000000  0.000000  0.656058  1
  P  P28  1  0.500000  0.304478  0.614524  1
  P  P29  1  0.500000  0.695522  0.614524  1
  P  P30  1  0.000000  0.195522  0.385476  1
  P  P31  1  0.000000  0.804478  0.385476  1
  P  P32  1  0.500000  0.845202  0.893579  1
  P  P33  1  0.500000  0.154798  0.893579  1
  P  P34  1  0.000000  0.654798  0.106421  1
  P  P35  1  0.000000  0.345202  0.106421  1
