# generated using pymatgen
data_TbDyTcB8Rh
_symmetry_space_group_name_H-M   'P 1'
_cell_length_a   3.59163300
_cell_length_b   5.96634512
_cell_length_c   11.56061158
_cell_angle_alpha   90.22584702
_cell_angle_beta   90.00000000
_cell_angle_gamma   90.00000000
_symmetry_Int_Tables_number   1
_chemical_formula_structural   TbDyTcB8Rh
_chemical_formula_sum   'Tb2 Dy2 Tc2 B16 Rh2'
_cell_volume   247.72951967
_cell_formula_units_Z   2
loop_
 _symmetry_equiv_pos_site_id
 _symmetry_equiv_pos_as_xyz
  1  'x, y, z'
loop_
 _atom_site_type_symbol
 _atom_site_label
 _atom_site_symmetry_multiplicity
 _atom_site_fract_x
 _atom_site_fract_y
 _atom_site_fract_z
 _atom_site_occupancy
  Tb  Tb0  1  0.500000  0.371391  0.149058  1
  Tb  Tb1  1  0.500000  0.628609  0.850942  1
  Dy  Dy2  1  0.500000  0.128611  0.649332  1
  Dy  Dy3  1  0.500000  0.871389  0.350668  1
  Tc  Tc4  1  0.500000  0.366510  0.411758  1
  Tc  Tc5  1  0.500000  0.633490  0.588242  1
  B  B6  1  0.000000  0.112758  0.047314  1
  B  B7  1  0.000000  0.887242  0.952686  1
  B  B8  1  0.000000  0.387186  0.546445  1
  B  B9  1  0.000000  0.612814  0.453555  1
  B  B10  1  0.000000  0.136111  0.469124  1
  B  B11  1  0.000000  0.863889  0.530876  1
  B  B12  1  0.000000  0.363176  0.969001  1
  B  B13  1  0.000000  0.636824  0.030999  1
  B  B14  1  0.000000  0.023553  0.193142  1
  B  B15  1  0.000000  0.976447  0.806858  1
  B  B16  1  0.000000  0.475384  0.691884  1
  B  B17  1  0.000000  0.524616  0.308116  1
  B  B18  1  0.000000  0.211541  0.314480  1
  B  B19  1  0.000000  0.788459  0.685520  1
  B  B20  1  0.000000  0.289113  0.813700  1
  B  B21  1  0.000000  0.710887  0.186300  1
  Rh  Rh22  1  0.500000  0.140507  0.905609  1
  Rh  Rh23  1  0.500000  0.859493  0.094391  1
