# generated using pymatgen
data_DyTm2Mg3Sn2Ir
_symmetry_space_group_name_H-M   'P 1'
_cell_length_a   7.38627600
_cell_length_b   7.40081346
_cell_length_c   4.46656700
_cell_angle_alpha   90.00000000
_cell_angle_beta   90.00000000
_cell_angle_gamma   119.93505147
_symmetry_Int_Tables_number   1
_chemical_formula_structural   DyTm2Mg3Sn2Ir
_chemical_formula_sum   'Dy1 Tm2 Mg3 Sn2 Ir1'
_cell_volume   211.58912011
_cell_formula_units_Z   1
loop_
 _symmetry_equiv_pos_site_id
 _symmetry_equiv_pos_as_xyz
  1  'x, y, z'
loop_
 _atom_site_type_symbol
 _atom_site_label
 _atom_site_symmetry_multiplicity
 _atom_site_fract_x
 _atom_site_fract_y
 _atom_site_fract_z
 _atom_site_occupancy
  Dy  Dy0  1  0.605834  0.000000  0.000000  1
  Tm  Tm1  1  0.000097  0.607834  0.000000  1
  Tm  Tm2  1  0.392263  0.392166  0.000000  1
  Mg  Mg3  1  0.229460  0.000000  0.500000  1
  Mg  Mg4  1  0.000248  0.229577  0.500000  1
  Mg  Mg5  1  0.770672  0.770423  0.500000  1
  Sn  Sn6  1  0.332519  0.665546  0.500000  1
  Sn  Sn7  1  0.666974  0.334454  0.500000  1
  Ir  Ir8  1  0.001935  0.000000  0.000000  1
