# generated using pymatgen
data_Li3Y3InSiBi
_symmetry_space_group_name_H-M   'P 1'
_cell_length_a   7.38464000
_cell_length_b   7.38464101
_cell_length_c   4.37141100
_cell_angle_alpha   90.00000000
_cell_angle_beta   90.00000000
_cell_angle_gamma   119.99999549
_symmetry_Int_Tables_number   1
_chemical_formula_structural   Li3Y3InSiBi
_chemical_formula_sum   'Li3 Y3 In1 Si1 Bi1'
_cell_volume   206.44815602
_cell_formula_units_Z   1
loop_
 _symmetry_equiv_pos_site_id
 _symmetry_equiv_pos_as_xyz
  1  'x, y, z'
loop_
 _atom_site_type_symbol
 _atom_site_label
 _atom_site_symmetry_multiplicity
 _atom_site_fract_x
 _atom_site_fract_y
 _atom_site_fract_z
 _atom_site_occupancy
  Li  Li0  1  0.249154  0.010663  0.500000  1
  Li  Li1  1  0.761509  0.750846  0.500000  1
  Li  Li2  1  0.989337  0.238491  0.500000  1
  Y  Y3  1  0.978003  0.557876  0.000000  1
  Y  Y4  1  0.579873  0.021997  0.000000  1
  Y  Y5  1  0.442124  0.420127  0.000000  1
  In  In6  1  0.000000  0.000000  0.000000  1
  Si  Si7  1  0.666667  0.333333  0.500000  1
  Bi  Bi8  1  0.333333  0.666667  0.500000  1
