# generated using pymatgen
data_Ba3ReCl2O5
_symmetry_space_group_name_H-M   'P 1'
_cell_length_a   7.70691098
_cell_length_b   7.70691084
_cell_length_c   11.62502000
_cell_angle_alpha   90.00000000
_cell_angle_beta   90.00000000
_cell_angle_gamma   135.02524428
_symmetry_Int_Tables_number   1
_chemical_formula_structural   Ba3ReCl2O5
_chemical_formula_sum   'Ba6 Re2 Cl4 O10'
_cell_volume   488.03161391
_cell_formula_units_Z   2
loop_
 _symmetry_equiv_pos_site_id
 _symmetry_equiv_pos_as_xyz
  1  'x, y, z'
loop_
 _atom_site_type_symbol
 _atom_site_label
 _atom_site_symmetry_multiplicity
 _atom_site_fract_x
 _atom_site_fract_y
 _atom_site_fract_z
 _atom_site_occupancy
  Ba  Ba0  1  0.344540  0.655460  0.954871  1
  Ba  Ba1  1  0.655460  0.344540  0.454871  1
  Ba  Ba2  1  0.344540  0.655460  0.545129  1
  Ba  Ba3  1  0.095254  0.904746  0.750000  1
  Ba  Ba4  1  0.655460  0.344540  0.045129  1
  Ba  Ba5  1  0.904746  0.095254  0.250000  1
  Re  Re6  1  0.241410  0.758590  0.250000  1
  Re  Re7  1  0.758590  0.241410  0.750000  1
  Cl  Cl8  1  0.501589  0.498411  0.750000  1
  Cl  Cl9  1  0.000000  0.000000  0.000000  1
  Cl  Cl10  1  0.000000  0.000000  0.500000  1
  Cl  Cl11  1  0.498411  0.501589  0.250000  1
  O  O12  1  0.502697  0.941103  0.137324  1
  O  O13  1  0.880587  0.119413  0.750000  1
  O  O14  1  0.941103  0.502697  0.637324  1
  O  O15  1  0.497303  0.058897  0.862676  1
  O  O16  1  0.119413  0.880587  0.250000  1
  O  O17  1  0.497303  0.058897  0.637324  1
  O  O18  1  0.941103  0.502697  0.862676  1
  O  O19  1  0.058897  0.497303  0.137324  1
  O  O20  1  0.502697  0.941103  0.362676  1
  O  O21  1  0.058897  0.497303  0.362676  1
