# generated using pymatgen
data_Pm2ZnPdO6
_symmetry_space_group_name_H-M   'P 1'
_cell_length_a   5.40661300
_cell_length_b   5.71169809
_cell_length_c   8.11822941
_cell_angle_alpha   89.72519725
_cell_angle_beta   90.00000000
_cell_angle_gamma   90.00000000
_symmetry_Int_Tables_number   1
_chemical_formula_structural   Pm2ZnPdO6
_chemical_formula_sum   'Pm4 Zn2 Pd2 O12'
_cell_volume   250.69568130
_cell_formula_units_Z   2
loop_
 _symmetry_equiv_pos_site_id
 _symmetry_equiv_pos_as_xyz
  1  'x, y, z'
loop_
 _atom_site_type_symbol
 _atom_site_label
 _atom_site_symmetry_multiplicity
 _atom_site_fract_x
 _atom_site_fract_y
 _atom_site_fract_z
 _atom_site_occupancy
  Pm  Pm0  1  0.979549  0.067499  0.270232  1
  Pm  Pm1  1  0.520452  0.567498  0.270232  1
  Pm  Pm2  1  0.479548  0.432503  0.729768  1
  Pm  Pm3  1  0.020451  0.932502  0.729768  1
  Zn  Zn4  1  0.499999  0.000000  0.500000  1
  Zn  Zn5  1  0.000000  0.499999  0.500000  1
  Pd  Pd6  1  0.499999  0.000000  0.000000  1
  Pd  Pd7  1  0.000000  0.499999  0.000000  1
  O  O8  1  0.701204  0.291788  0.075550  1
  O  O9  1  0.798795  0.791788  0.075550  1
  O  O10  1  0.108514  0.464133  0.238519  1
  O  O11  1  0.391485  0.964134  0.238519  1
  O  O12  1  0.694844  0.307466  0.458397  1
  O  O13  1  0.805155  0.807466  0.458397  1
  O  O14  1  0.194845  0.192535  0.541601  1
  O  O15  1  0.305154  0.692534  0.541601  1
  O  O16  1  0.608515  0.035867  0.761481  1
  O  O17  1  0.891486  0.535866  0.761481  1
  O  O18  1  0.201205  0.208213  0.924451  1
  O  O19  1  0.298794  0.708212  0.924451  1
