# generated using pymatgen
data_Sr3Mn2Ir7
_symmetry_space_group_name_H-M   'P 1'
_cell_length_a   9.04501501
_cell_length_b   9.04501430
_cell_length_c   9.04501451
_cell_angle_alpha   35.57187553
_cell_angle_beta   35.57188274
_cell_angle_gamma   35.57188683
_symmetry_Int_Tables_number   1
_chemical_formula_structural   Sr3Mn2Ir7
_chemical_formula_sum   'Sr3 Mn2 Ir7'
_cell_volume   223.81154483
_cell_formula_units_Z   1
loop_
 _symmetry_equiv_pos_site_id
 _symmetry_equiv_pos_as_xyz
  1  'x, y, z'
loop_
 _atom_site_type_symbol
 _atom_site_label
 _atom_site_symmetry_multiplicity
 _atom_site_fract_x
 _atom_site_fract_y
 _atom_site_fract_z
 _atom_site_occupancy
  Sr  Sr0  1  0.859443  0.859443  0.859443  1
  Sr  Sr1  1  0.140557  0.140557  0.140557  1
  Sr  Sr2  1  0.000000  0.000000  0.000000  1
  Mn  Mn3  1  0.665087  0.665087  0.665087  1
  Mn  Mn4  1  0.334913  0.334913  0.334913  1
  Ir  Ir5  1  0.418854  0.923809  0.418854  1
  Ir  Ir6  1  0.418854  0.418854  0.923809  1
  Ir  Ir7  1  0.923809  0.418854  0.418854  1
  Ir  Ir8  1  0.581146  0.076191  0.581146  1
  Ir  Ir9  1  0.581146  0.581146  0.076191  1
  Ir  Ir10  1  0.076191  0.581146  0.581146  1
  Ir  Ir11  1  0.500000  0.500000  0.500000  1
