# generated using pymatgen
data_TmTi4Re23Tc
_symmetry_space_group_name_H-M   'P 1'
_cell_length_a   8.40527221
_cell_length_b   8.40225563
_cell_length_c   8.40489218
_cell_angle_alpha   109.45648569
_cell_angle_beta   109.47102207
_cell_angle_gamma   109.48071868
_symmetry_Int_Tables_number   1
_chemical_formula_structural   TmTi4Re23Tc
_chemical_formula_sum   'Tm1 Ti4 Re23 Tc1'
_cell_volume   456.96932055
_cell_formula_units_Z   1
loop_
 _symmetry_equiv_pos_site_id
 _symmetry_equiv_pos_as_xyz
  1  'x, y, z'
loop_
 _atom_site_type_symbol
 _atom_site_label
 _atom_site_symmetry_multiplicity
 _atom_site_fract_x
 _atom_site_fract_y
 _atom_site_fract_z
 _atom_site_occupancy
  Tm  Tm0  1  0.999996  0.000031  0.000000  1
  Ti  Ti1  1  0.628813  0.999420  0.000000  1
  Ti  Ti2  1  0.000125  0.629435  0.000000  1
  Ti  Ti3  1  0.999922  0.000044  0.629194  1
  Ti  Ti4  1  0.370728  0.370850  0.370806  1
  Re  Re5  1  0.718688  0.318348  0.318383  1
  Re  Re6  1  0.400305  0.999965  0.681617  1
  Re  Re7  1  0.681177  0.400200  0.000000  1
  Re  Re8  1  0.000212  0.400323  0.681514  1
  Re  Re9  1  0.318698  0.718809  0.318486  1
  Re  Re10  1  0.318431  0.318315  0.718651  1
  Re  Re11  1  0.000163  0.681630  0.400302  1
  Re  Re12  1  0.681300  0.999543  0.399872  1
  Re  Re13  1  0.599780  0.599664  0.281349  1
  Re  Re14  1  0.281428  0.599671  0.600128  1
  Re  Re15  1  0.599861  0.281328  0.599698  1
  Re  Re16  1  0.377661  0.194706  0.000000  1
  Re  Re17  1  0.183224  0.805394  0.805618  1
  Re  Re18  1  0.377607  0.999777  0.194382  1
  Re  Re19  1  0.194605  0.378470  0.000000  1
  Re  Re20  1  0.000050  0.377850  0.194333  1
  Re  Re21  1  0.805716  0.183516  0.805667  1
  Re  Re22  1  0.805753  0.805502  0.183498  1
  Re  Re23  1  0.999919  0.194389  0.377742  1
  Re  Re24  1  0.194419  0.000000  0.377684  1
  Re  Re25  1  0.622255  0.622003  0.816502  1
  Re  Re26  1  0.816735  0.622316  0.622316  1
  Re  Re27  1  0.622177  0.816646  0.622258  1
  Tc  Tc28  1  0.400253  0.681855  0.000000  1
