# generated using pymatgen
data_ThFeP2Rh
_symmetry_space_group_name_H-M   'P 1'
_cell_length_a   4.10721100
_cell_length_b   4.10721100
_cell_length_c   9.31263000
_cell_angle_alpha   90.00000000
_cell_angle_beta   90.00000000
_cell_angle_gamma   90.00000000
_symmetry_Int_Tables_number   1
_chemical_formula_structural   ThFeP2Rh
_chemical_formula_sum   'Th2 Fe2 P4 Rh2'
_cell_volume   157.09645222
_cell_formula_units_Z   2
loop_
 _symmetry_equiv_pos_site_id
 _symmetry_equiv_pos_as_xyz
  1  'x, y, z'
loop_
 _atom_site_type_symbol
 _atom_site_label
 _atom_site_symmetry_multiplicity
 _atom_site_fract_x
 _atom_site_fract_y
 _atom_site_fract_z
 _atom_site_occupancy
  Th  Th0  1  0.500000  0.000000  0.735791  1
  Th  Th1  1  0.000000  0.500000  0.264209  1
  Fe  Fe2  1  0.000000  0.500000  0.608156  1
  Fe  Fe3  1  0.500000  0.000000  0.391844  1
  P  P4  1  0.500000  0.500000  0.500000  1
  P  P5  1  0.500000  0.000000  0.152073  1
  P  P6  1  0.000000  0.000000  0.500000  1
  P  P7  1  0.000000  0.500000  0.847927  1
  Rh  Rh8  1  0.000000  0.000000  0.000000  1
  Rh  Rh9  1  0.500000  0.500000  0.000000  1
