# generated using pymatgen
data_Tm3Al12Fe3Pt
_symmetry_space_group_name_H-M   'P 1'
_cell_length_a   8.67201455
_cell_length_b   8.67201485
_cell_length_c   9.32612400
_cell_angle_alpha   90.00000000
_cell_angle_beta   90.00000000
_cell_angle_gamma   119.93608855
_symmetry_Int_Tables_number   1
_chemical_formula_structural   Tm3Al12Fe3Pt
_chemical_formula_sum   'Tm6 Al24 Fe6 Pt2'
_cell_volume   607.78665389
_cell_formula_units_Z   2
loop_
 _symmetry_equiv_pos_site_id
 _symmetry_equiv_pos_as_xyz
  1  'x, y, z'
loop_
 _atom_site_type_symbol
 _atom_site_label
 _atom_site_symmetry_multiplicity
 _atom_site_fract_x
 _atom_site_fract_y
 _atom_site_fract_z
 _atom_site_occupancy
  Tm  Tm0  1  0.805302  0.194698  0.750000  1
  Tm  Tm1  1  0.194698  0.805302  0.250000  1
  Tm  Tm2  1  0.387975  0.190457  0.750000  1
  Tm  Tm3  1  0.612025  0.809543  0.250000  1
  Tm  Tm4  1  0.809543  0.612025  0.750000  1
  Tm  Tm5  1  0.190457  0.387975  0.250000  1
  Al  Al6  1  0.672378  0.327622  0.981848  1
  Al  Al7  1  0.327622  0.672378  0.018152  1
  Al  Al8  1  0.327622  0.672378  0.481848  1
  Al  Al9  1  0.672378  0.327622  0.518152  1
  Al  Al10  1  0.838613  0.161387  0.423607  1
  Al  Al11  1  0.161387  0.838613  0.576393  1
  Al  Al12  1  0.320117  0.152373  0.424301  1
  Al  Al13  1  0.161387  0.838613  0.923607  1
  Al  Al14  1  0.679883  0.847627  0.575699  1
  Al  Al15  1  0.838613  0.161387  0.076393  1
  Al  Al16  1  0.847627  0.679883  0.424301  1
  Al  Al17  1  0.679883  0.847627  0.924301  1
  Al  Al18  1  0.152373  0.320117  0.575699  1
  Al  Al19  1  0.320117  0.152373  0.075699  1
  Al  Al20  1  0.152373  0.320117  0.924301  1
  Al  Al21  1  0.847627  0.679883  0.075699  1
  Al  Al22  1  0.435055  0.564945  0.750000  1
  Al  Al23  1  0.564945  0.435055  0.250000  1
  Al  Al24  1  0.117205  0.558568  0.750000  1
  Al  Al25  1  0.882795  0.441432  0.250000  1
  Al  Al26  1  0.441432  0.882795  0.750000  1
  Al  Al27  1  0.558568  0.117205  0.250000  1
  Al  Al28  1  0.000875  0.999125  0.750000  1
  Al  Al29  1  0.999125  0.000875  0.250000  1
  Fe  Fe30  1  0.000000  0.500000  0.000000  1
  Fe  Fe31  1  0.500000  0.000000  0.000000  1
  Fe  Fe32  1  0.000000  0.500000  0.500000  1
  Fe  Fe33  1  0.500000  0.000000  0.500000  1
  Fe  Fe34  1  0.000000  0.000000  0.000000  1
  Fe  Fe35  1  0.000000  0.000000  0.500000  1
  Pt  Pt36  1  0.500000  0.500000  0.000000  1
  Pt  Pt37  1  0.500000  0.500000  0.500000  1
