# generated using pymatgen
data_Sm2YCCl5
_symmetry_space_group_name_H-M   'P 1'
_cell_length_a   7.13149836
_cell_length_b   8.69768678
_cell_length_c   8.75246800
_cell_angle_alpha   107.47934285
_cell_angle_beta   95.67675001
_cell_angle_gamma   104.64970333
_symmetry_Int_Tables_number   1
_chemical_formula_structural   Sm2YCCl5
_chemical_formula_sum   'Sm4 Y2 C2 Cl10'
_cell_volume   491.91335371
_cell_formula_units_Z   2
loop_
 _symmetry_equiv_pos_site_id
 _symmetry_equiv_pos_as_xyz
  1  'x, y, z'
loop_
 _atom_site_type_symbol
 _atom_site_label
 _atom_site_symmetry_multiplicity
 _atom_site_fract_x
 _atom_site_fract_y
 _atom_site_fract_z
 _atom_site_occupancy
  Sm  Sm0  1  0.880385  0.952677  0.236882  1
  Sm  Sm1  1  0.119615  0.047323  0.763118  1
  Sm  Sm2  1  0.030139  0.715411  0.913898  1
  Sm  Sm3  1  0.969861  0.284589  0.086102  1
  Y  Y4  1  0.608571  0.852497  0.802565  1
  Y  Y5  1  0.391429  0.147503  0.197435  1
  C  C6  1  0.903075  0.967798  0.954209  1
  C  C7  1  0.096925  0.032202  0.045791  1
  Cl  Cl8  1  0.752954  0.917812  0.545235  1
  Cl  Cl9  1  0.247046  0.082188  0.454765  1
  Cl  Cl10  1  0.457921  0.822983  0.084992  1
  Cl  Cl11  1  0.542079  0.177017  0.915008  1
  Cl  Cl12  1  0.796493  0.257695  0.350302  1
  Cl  Cl13  1  0.203507  0.742305  0.649698  1
  Cl  Cl14  1  0.911084  0.629729  0.174401  1
  Cl  Cl15  1  0.088916  0.370271  0.825599  1
  Cl  Cl16  1  0.656826  0.550567  0.728123  1
  Cl  Cl17  1  0.343174  0.449433  0.271877  1
