# generated using pymatgen
data_Y2Nb3Co9GeAs6
_symmetry_space_group_name_H-M   'P 1'
_cell_length_a   3.80431500
_cell_length_b   9.57474936
_cell_length_c   9.57474900
_cell_angle_alpha   120.00000220
_cell_angle_beta   90.00000000
_cell_angle_gamma   90.00000000
_symmetry_Int_Tables_number   1
_chemical_formula_structural   Y2Nb3Co9GeAs6
_chemical_formula_sum   'Y2 Nb3 Co9 Ge1 As6'
_cell_volume   302.03822121
_cell_formula_units_Z   1
loop_
 _symmetry_equiv_pos_site_id
 _symmetry_equiv_pos_as_xyz
  1  'x, y, z'
loop_
 _atom_site_type_symbol
 _atom_site_label
 _atom_site_symmetry_multiplicity
 _atom_site_fract_x
 _atom_site_fract_y
 _atom_site_fract_z
 _atom_site_occupancy
  Y  Y0  1  0.000000  0.666667  0.333333  1
  Y  Y1  1  0.500000  0.333333  0.666667  1
  Nb  Nb2  1  0.500000  0.775965  0.895973  1
  Nb  Nb3  1  0.500000  0.120007  0.224035  1
  Nb  Nb4  1  0.500000  0.104027  0.879993  1
  Co  Co5  1  0.000000  0.570552  0.938246  1
  Co  Co6  1  0.000000  0.367693  0.429448  1
  Co  Co7  1  0.000000  0.061754  0.632307  1
  Co  Co8  1  0.000000  0.876427  0.161812  1
  Co  Co9  1  0.000000  0.285384  0.123573  1
  Co  Co10  1  0.000000  0.838188  0.714616  1
  Co  Co11  1  0.500000  0.948505  0.385880  1
  Co  Co12  1  0.500000  0.437374  0.051495  1
  Co  Co13  1  0.500000  0.614120  0.562626  1
  Ge  Ge14  1  0.000000  0.000000  0.000000  1
  As  As15  1  0.500000  0.708851  0.125118  1
  As  As16  1  0.500000  0.416268  0.291149  1
  As  As17  1  0.500000  0.874882  0.583732  1
  As  As18  1  0.000000  0.580807  0.692183  1
  As  As19  1  0.000000  0.111377  0.419193  1
  As  As20  1  0.000000  0.307817  0.888623  1
