# generated using pymatgen
data_Zn14B6Ir17Pd
_symmetry_space_group_name_H-M   'P 1'
_cell_length_a   2.89993900
_cell_length_b   11.45802100
_cell_length_c   14.92293100
_cell_angle_alpha   90.00000000
_cell_angle_beta   90.00000000
_cell_angle_gamma   90.00000000
_symmetry_Int_Tables_number   1
_chemical_formula_structural   Zn14B6Ir17Pd
_chemical_formula_sum   'Zn14 B6 Ir17 Pd1'
_cell_volume   495.85261444
_cell_formula_units_Z   1
loop_
 _symmetry_equiv_pos_site_id
 _symmetry_equiv_pos_as_xyz
  1  'x, y, z'
loop_
 _atom_site_type_symbol
 _atom_site_label
 _atom_site_symmetry_multiplicity
 _atom_site_fract_x
 _atom_site_fract_y
 _atom_site_fract_z
 _atom_site_occupancy
  Zn  Zn0  1  0.500000  0.500000  0.348623  1
  Zn  Zn1  1  0.500000  0.000000  0.651673  1
  Zn  Zn2  1  0.500000  0.389916  0.997913  1
  Zn  Zn3  1  0.500000  0.112398  0.000514  1
  Zn  Zn4  1  0.500000  0.610084  0.997913  1
  Zn  Zn5  1  0.500000  0.887602  0.000514  1
  Zn  Zn6  1  0.500000  0.369347  0.769150  1
  Zn  Zn7  1  0.500000  0.132019  0.231609  1
  Zn  Zn8  1  0.500000  0.630653  0.769150  1
  Zn  Zn9  1  0.500000  0.867981  0.231609  1
  Zn  Zn10  1  0.500000  0.296942  0.603339  1
  Zn  Zn11  1  0.500000  0.203092  0.397119  1
  Zn  Zn12  1  0.500000  0.703058  0.603339  1
  Zn  Zn13  1  0.500000  0.796908  0.397119  1
  B  B14  1  0.500000  0.500000  0.530676  1
  B  B15  1  0.500000  0.000000  0.469357  1
  B  B16  1  0.500000  0.141615  0.822227  1
  B  B17  1  0.500000  0.358032  0.178313  1
  B  B18  1  0.500000  0.858385  0.822227  1
  B  B19  1  0.500000  0.641968  0.178313  1
  Ir  Ir20  1  0.000000  0.245961  0.895258  1
  Ir  Ir21  1  0.000000  0.255168  0.103533  1
  Ir  Ir22  1  0.000000  0.754039  0.895258  1
  Ir  Ir23  1  0.000000  0.744832  0.103533  1
  Ir  Ir24  1  0.000000  0.500000  0.643352  1
  Ir  Ir25  1  0.000000  0.000000  0.355784  1
  Ir  Ir26  1  0.000000  0.171398  0.716718  1
  Ir  Ir27  1  0.000000  0.328801  0.283629  1
  Ir  Ir28  1  0.000000  0.828602  0.716718  1
  Ir  Ir29  1  0.000000  0.671199  0.283629  1
  Ir  Ir30  1  0.000000  0.500000  0.139794  1
  Ir  Ir31  1  0.000000  0.000000  0.863102  1
  Ir  Ir32  1  0.000000  0.121907  0.529307  1
  Ir  Ir33  1  0.000000  0.378168  0.470584  1
  Ir  Ir34  1  0.000000  0.878093  0.529307  1
  Ir  Ir35  1  0.000000  0.621832  0.470584  1
  Ir  Ir36  1  0.000000  0.500000  0.875087  1
  Pd  Pd37  1  0.000000  0.000000  0.124126  1
