# generated using pymatgen
data_Lu4NiB16Os3
_symmetry_space_group_name_H-M   'P 1'
_cell_length_a   3.51551400
_cell_length_b   5.89560201
_cell_length_c   11.39866703
_cell_angle_alpha   90.00810362
_cell_angle_beta   90.00000000
_cell_angle_gamma   90.00000000
_symmetry_Int_Tables_number   1
_chemical_formula_structural   Lu4NiB16Os3
_chemical_formula_sum   'Lu4 Ni1 B16 Os3'
_cell_volume   236.24958458
_cell_formula_units_Z   1
loop_
 _symmetry_equiv_pos_site_id
 _symmetry_equiv_pos_as_xyz
  1  'x, y, z'
loop_
 _atom_site_type_symbol
 _atom_site_label
 _atom_site_symmetry_multiplicity
 _atom_site_fract_x
 _atom_site_fract_y
 _atom_site_fract_z
 _atom_site_occupancy
  Lu  Lu0  1  0.500000  0.131078  0.652363  1
  Lu  Lu1  1  0.500000  0.867767  0.347536  1
  Lu  Lu2  1  0.500000  0.628304  0.854433  1
  Lu  Lu3  1  0.500000  0.370630  0.146811  1
  Ni  Ni4  1  0.500000  0.148206  0.899520  1
  B  B5  1  0.000000  0.473595  0.694494  1
  B  B6  1  0.000000  0.524498  0.306962  1
  B  B7  1  0.000000  0.981694  0.808819  1
  B  B8  1  0.000000  0.020418  0.193534  1
  B  B9  1  0.000000  0.288441  0.815988  1
  B  B10  1  0.000000  0.708484  0.184873  1
  B  B11  1  0.000000  0.793592  0.688195  1
  B  B12  1  0.000000  0.208455  0.312661  1
  B  B13  1  0.000000  0.359425  0.968554  1
  B  B14  1  0.000000  0.633262  0.029836  1
  B  B15  1  0.000000  0.865045  0.529893  1
  B  B16  1  0.000000  0.134749  0.471277  1
  B  B17  1  0.000000  0.386511  0.548562  1
  B  B18  1  0.000000  0.613396  0.452680  1
  B  B19  1  0.000000  0.884993  0.953909  1
  B  B20  1  0.000000  0.111086  0.049147  1
  Os  Os21  1  0.500000  0.866700  0.088511  1
  Os  Os22  1  0.500000  0.643324  0.594828  1
  Os  Os23  1  0.500000  0.356346  0.406616  1
