# generated using pymatgen
data_Ca3Pr17Si15Ir
_symmetry_space_group_name_H-M   'P 1'
_cell_length_a   7.96722012
_cell_length_b   7.90214742
_cell_length_c   15.17788322
_cell_angle_alpha   90.05696772
_cell_angle_beta   89.84700441
_cell_angle_gamma   90.15416697
_symmetry_Int_Tables_number   1
_chemical_formula_structural   Ca3Pr17Si15Ir
_chemical_formula_sum   'Ca3 Pr17 Si15 Ir1'
_cell_volume   955.56408589
_cell_formula_units_Z   1
loop_
 _symmetry_equiv_pos_site_id
 _symmetry_equiv_pos_as_xyz
  1  'x, y, z'
loop_
 _atom_site_type_symbol
 _atom_site_label
 _atom_site_symmetry_multiplicity
 _atom_site_fract_x
 _atom_site_fract_y
 _atom_site_fract_z
 _atom_site_occupancy
  Ca  Ca0  1  0.309808  0.309123  0.999346  1
  Ca  Ca1  1  0.189983  0.810145  0.250522  1
  Ca  Ca2  1  0.814235  0.191056  0.748136  1
  Pr  Pr3  1  0.694228  0.688431  0.501626  1
  Pr  Pr4  1  0.375678  0.009220  0.448667  1
  Pr  Pr5  1  0.488464  0.878478  0.699173  1
  Pr  Pr6  1  0.509927  0.123990  0.198181  1
  Pr  Pr7  1  0.875448  0.489735  0.299462  1
  Pr  Pr8  1  0.124902  0.502527  0.798936  1
  Pr  Pr9  1  0.624906  0.990623  0.947894  1
  Pr  Pr10  1  0.003774  0.374411  0.553653  1
  Pr  Pr11  1  0.990440  0.624969  0.050421  1
  Pr  Pr12  1  0.129727  0.990451  0.871637  1
  Pr  Pr13  1  0.513578  0.628398  0.125612  1
  Pr  Pr14  1  0.474588  0.361865  0.629296  1
  Pr  Pr15  1  0.627495  0.512263  0.874732  1
  Pr  Pr16  1  0.374164  0.483088  0.374309  1
  Pr  Pr17  1  0.874755  0.018507  0.375942  1
  Pr  Pr18  1  0.985537  0.124594  0.123886  1
  Pr  Pr19  1  0.026923  0.885001  0.626716  1
  Si  Si20  1  0.332276  0.697900  0.949354  1
  Si  Si21  1  0.664630  0.300791  0.451022  1
  Si  Si22  1  0.702378  0.334494  0.051668  1
  Si  Si23  1  0.304079  0.669385  0.547876  1
  Si  Si24  1  0.799176  0.834193  0.200708  1
  Si  Si25  1  0.165716  0.201637  0.298211  1
  Si  Si26  1  0.834925  0.798221  0.801099  1
  Si  Si27  1  0.286222  0.918646  0.058390  1
  Si  Si28  1  0.581260  0.786361  0.309881  1
  Si  Si29  1  0.425194  0.206118  0.813824  1
  Si  Si30  1  0.782577  0.583305  0.690559  1
  Si  Si31  1  0.212506  0.421240  0.189662  1
  Si  Si32  1  0.704345  0.073742  0.558846  1
  Si  Si33  1  0.918902  0.287132  0.941803  1
  Si  Si34  1  0.080063  0.714796  0.440964  1
  Ir  Ir35  1  0.197188  0.175165  0.697990  1
