# generated using pymatgen
data_La14Nd6(Ir3Rh)3
_symmetry_space_group_name_H-M   'P 1'
_cell_length_a   11.37430501
_cell_length_b   11.35696330
_cell_length_c   6.67692100
_cell_angle_alpha   90.00000000
_cell_angle_beta   90.00000000
_cell_angle_gamma   90.14347564
_symmetry_Int_Tables_number   1
_chemical_formula_structural   La14Nd6(Ir3Rh)3
_chemical_formula_sum   'La14 Nd6 Ir9 Rh3'
_cell_volume   862.50568983
_cell_formula_units_Z   1
loop_
 _symmetry_equiv_pos_site_id
 _symmetry_equiv_pos_as_xyz
  1  'x, y, z'
loop_
 _atom_site_type_symbol
 _atom_site_label
 _atom_site_symmetry_multiplicity
 _atom_site_fract_x
 _atom_site_fract_y
 _atom_site_fract_z
 _atom_site_occupancy
  La  La0  1  0.092891  0.290527  0.107968  1
  La  La1  1  0.789706  0.409150  0.107971  1
  La  La2  1  0.210294  0.590850  0.107971  1
  La  La3  1  0.907109  0.709473  0.107968  1
  La  La4  1  0.408934  0.790970  0.392952  1
  La  La5  1  0.591066  0.209030  0.392952  1
  La  La6  1  0.290366  0.092319  0.393478  1
  La  La7  1  0.709634  0.907681  0.393478  1
  La  La8  1  0.407984  0.210472  0.889090  1
  La  La9  1  0.710036  0.091906  0.890183  1
  La  La10  1  0.289964  0.908094  0.890183  1
  La  La11  1  0.592016  0.789528  0.889090  1
  La  La12  1  0.089222  0.708002  0.607100  1
  La  La13  1  0.910778  0.291998  0.607100  1
  Nd  Nd14  1  0.210132  0.409915  0.608659  1
  Nd  Nd15  1  0.789868  0.590085  0.608659  1
  Nd  Nd16  1  0.000000  0.000000  0.001085  1
  Nd  Nd17  1  0.500000  0.500000  0.998513  1
  Nd  Nd18  1  0.500000  0.500000  0.500400  1
  Nd  Nd19  1  0.000000  0.000000  0.500983  1
  Ir  Ir20  1  0.153518  0.845650  0.250565  1
  Ir  Ir21  1  0.347573  0.345737  0.249975  1
  Ir  Ir22  1  0.652427  0.654263  0.249975  1
  Ir  Ir23  1  0.846482  0.154350  0.250565  1
  Ir  Ir24  1  0.344268  0.652157  0.748557  1
  Ir  Ir25  1  0.153489  0.155159  0.750209  1
  Ir  Ir26  1  0.846511  0.844841  0.750209  1
  Ir  Ir27  1  0.655732  0.347843  0.748557  1
  Ir  Ir28  1  0.500000  0.000000  0.625287  1
  Rh  Rh29  1  0.000000  0.500000  0.379513  1
  Rh  Rh30  1  0.500000  0.000000  0.118496  1
  Rh  Rh31  1  0.000000  0.500000  0.882309  1
