# generated using pymatgen
data_Dy5ZnIn4Rh
_symmetry_space_group_name_H-M   'P 1'
_cell_length_a   3.62160300
_cell_length_b   8.17086098
_cell_length_c   18.29880967
_cell_angle_alpha   89.48506604
_cell_angle_beta   90.00000000
_cell_angle_gamma   90.00000000
_symmetry_Int_Tables_number   1
_chemical_formula_structural   Dy5ZnIn4Rh
_chemical_formula_sum   'Dy10 Zn2 In8 Rh2'
_cell_volume   541.46945569
_cell_formula_units_Z   2
loop_
 _symmetry_equiv_pos_site_id
 _symmetry_equiv_pos_as_xyz
  1  'x, y, z'
loop_
 _atom_site_type_symbol
 _atom_site_label
 _atom_site_symmetry_multiplicity
 _atom_site_fract_x
 _atom_site_fract_y
 _atom_site_fract_z
 _atom_site_occupancy
  Dy  Dy0  1  0.000000  0.500000  0.500000  1
  Dy  Dy1  1  0.000000  0.000000  0.000000  1
  Dy  Dy2  1  0.000000  0.721797  0.276928  1
  Dy  Dy3  1  0.000000  0.278203  0.723072  1
  Dy  Dy4  1  0.000000  0.739137  0.782200  1
  Dy  Dy5  1  0.000000  0.260863  0.217800  1
  Dy  Dy6  1  0.000000  0.615268  0.085163  1
  Dy  Dy7  1  0.000000  0.384732  0.914837  1
  Dy  Dy8  1  0.000000  0.879207  0.579907  1
  Dy  Dy9  1  0.000000  0.120793  0.420093  1
  Zn  Zn10  1  0.500000  0.978034  0.698603  1
  Zn  Zn11  1  0.500000  0.021966  0.301397  1
  In  In12  1  0.500000  0.707108  0.932133  1
  In  In13  1  0.500000  0.292892  0.067867  1
  In  In14  1  0.500000  0.791943  0.430177  1
  In  In15  1  0.500000  0.208057  0.569823  1
  In  In16  1  0.500000  0.576752  0.648457  1
  In  In17  1  0.500000  0.423248  0.351543  1
  In  In18  1  0.500000  0.921479  0.149674  1
  In  In19  1  0.500000  0.078521  0.850326  1
  Rh  Rh20  1  0.500000  0.523769  0.195880  1
  Rh  Rh21  1  0.500000  0.476231  0.804120  1
