# generated using pymatgen
data_LiPr6P12Rh17
_symmetry_space_group_name_H-M   'P 1'
_cell_length_a   3.99654400
_cell_length_b   11.35970300
_cell_length_c   13.00903100
_cell_angle_alpha   90.00000000
_cell_angle_beta   90.00000000
_cell_angle_gamma   90.00000000
_symmetry_Int_Tables_number   1
_chemical_formula_structural   LiPr6P12Rh17
_chemical_formula_sum   'Li1 Pr6 P12 Rh17'
_cell_volume   590.60419063
_cell_formula_units_Z   1
loop_
 _symmetry_equiv_pos_site_id
 _symmetry_equiv_pos_as_xyz
  1  'x, y, z'
loop_
 _atom_site_type_symbol
 _atom_site_label
 _atom_site_symmetry_multiplicity
 _atom_site_fract_x
 _atom_site_fract_y
 _atom_site_fract_z
 _atom_site_occupancy
  Li  Li0  1  0.500000  0.500000  0.153286  1
  Pr  Pr1  1  0.000000  0.500000  0.514524  1
  Pr  Pr2  1  0.500000  0.000000  0.480706  1
  Pr  Pr3  1  0.500000  0.816917  0.205389  1
  Pr  Pr4  1  0.500000  0.183083  0.205389  1
  Pr  Pr5  1  0.000000  0.682355  0.795511  1
  Pr  Pr6  1  0.000000  0.317645  0.795511  1
  P  P7  1  0.500000  0.500000  0.884932  1
  P  P8  1  0.000000  0.000000  0.116418  1
  P  P9  1  0.500000  0.500000  0.339928  1
  P  P10  1  0.000000  0.000000  0.653393  1
  P  P11  1  0.500000  0.311974  0.617080  1
  P  P12  1  0.500000  0.688026  0.617080  1
  P  P13  1  0.000000  0.190097  0.384333  1
  P  P14  1  0.000000  0.809903  0.384333  1
  P  P15  1  0.500000  0.847202  0.893796  1
  P  P16  1  0.500000  0.152798  0.893796  1
  P  P17  1  0.000000  0.657079  0.105579  1
  P  P18  1  0.000000  0.342921  0.105579  1
  Rh  Rh19  1  0.000000  0.000000  0.830424  1
  Rh  Rh20  1  0.500000  0.500000  0.703817  1
  Rh  Rh21  1  0.000000  0.000000  0.296757  1
  Rh  Rh22  1  0.000000  0.500000  0.986747  1
  Rh  Rh23  1  0.500000  0.000000  0.015646  1
  Rh  Rh24  1  0.500000  0.332226  0.996475  1
  Rh  Rh25  1  0.500000  0.667774  0.996475  1
  Rh  Rh26  1  0.000000  0.164928  0.003903  1
  Rh  Rh27  1  0.000000  0.835072  0.003903  1
  Rh  Rh28  1  0.500000  0.287441  0.433642  1
  Rh  Rh29  1  0.500000  0.712559  0.433642  1
  Rh  Rh30  1  0.000000  0.204486  0.572832  1
  Rh  Rh31  1  0.000000  0.795514  0.572832  1
  Rh  Rh32  1  0.500000  0.876209  0.711891  1
  Rh  Rh33  1  0.500000  0.123791  0.711891  1
  Rh  Rh34  1  0.000000  0.624962  0.291283  1
  Rh  Rh35  1  0.000000  0.375038  0.291283  1
