# generated using pymatgen
data_Sc8Tc3B16Mo9
_symmetry_space_group_name_H-M   'P 1'
_cell_length_a   5.96695875
_cell_length_b   6.17055791
_cell_length_c   11.75452200
_cell_angle_alpha   90.00000000
_cell_angle_beta   90.00000000
_cell_angle_gamma   89.98085943
_symmetry_Int_Tables_number   1
_chemical_formula_structural   Sc8Tc3B16Mo9
_chemical_formula_sum   'Sc8 Tc3 B16 Mo9'
_cell_volume   432.79518204
_cell_formula_units_Z   1
loop_
 _symmetry_equiv_pos_site_id
 _symmetry_equiv_pos_as_xyz
  1  'x, y, z'
loop_
 _atom_site_type_symbol
 _atom_site_label
 _atom_site_symmetry_multiplicity
 _atom_site_fract_x
 _atom_site_fract_y
 _atom_site_fract_z
 _atom_site_occupancy
  Sc  Sc0  1  0.532997  0.323827  0.100613  1
  Sc  Sc1  1  0.034558  0.175214  0.399069  1
  Sc  Sc2  1  0.466431  0.675367  0.601669  1
  Sc  Sc3  1  0.966001  0.824159  0.898854  1
  Sc  Sc4  1  0.466431  0.675367  0.898331  1
  Sc  Sc5  1  0.966001  0.824159  0.601146  1
  Sc  Sc6  1  0.532997  0.323827  0.399387  1
  Sc  Sc7  1  0.034558  0.175214  0.100931  1
  Tc  Tc8  1  0.643241  0.996664  0.750000  1
  Tc  Tc9  1  0.143779  0.503630  0.750000  1
  Tc  Tc10  1  0.356487  0.003759  0.250000  1
  B  B11  1  0.629395  0.027843  0.539010  1
  B  B12  1  0.129012  0.472563  0.961352  1
  B  B13  1  0.370453  0.971049  0.037847  1
  B  B14  1  0.870111  0.527227  0.462222  1
  B  B15  1  0.370453  0.971049  0.462153  1
  B  B16  1  0.870111  0.527227  0.037778  1
  B  B17  1  0.629395  0.027843  0.960990  1
  B  B18  1  0.129012  0.472563  0.538648  1
  B  B19  1  0.533181  0.390805  0.750000  1
  B  B20  1  0.033689  0.109972  0.750000  1
  B  B21  1  0.464918  0.609388  0.250000  1
  B  B22  1  0.967515  0.892194  0.250000  1
  B  B23  1  0.757631  0.599644  0.750000  1
  B  B24  1  0.257328  0.899971  0.750000  1
  B  B25  1  0.246670  0.400756  0.250000  1
  B  B26  1  0.743045  0.099198  0.250000  1
  Mo  Mo27  1  0.823649  0.316527  0.623791  1
  Mo  Mo28  1  0.323996  0.182782  0.876467  1
  Mo  Mo29  1  0.175511  0.683750  0.123251  1
  Mo  Mo30  1  0.675863  0.817523  0.376417  1
  Mo  Mo31  1  0.175511  0.683750  0.376749  1
  Mo  Mo32  1  0.675863  0.817523  0.123583  1
  Mo  Mo33  1  0.823649  0.316527  0.876209  1
  Mo  Mo34  1  0.323996  0.182782  0.623533  1
  Mo  Mo35  1  0.856564  0.498352  0.250000  1
