# generated using pymatgen
data_SmTh3(CoB4)4
_symmetry_space_group_name_H-M   'P 1'
_cell_length_a   6.91791319
_cell_length_b   6.91791303
_cell_length_c   6.91791372
_cell_angle_alpha   112.47334157
_cell_angle_beta   112.47333928
_cell_angle_gamma   103.62068268
_symmetry_Int_Tables_number   1
_chemical_formula_structural   SmTh3(CoB4)4
_chemical_formula_sum   'Sm1 Th3 Co4 B16'
_cell_volume   252.89565917
_cell_formula_units_Z   1
loop_
 _symmetry_equiv_pos_site_id
 _symmetry_equiv_pos_as_xyz
  1  'x, y, z'
loop_
 _atom_site_type_symbol
 _atom_site_label
 _atom_site_symmetry_multiplicity
 _atom_site_fract_x
 _atom_site_fract_y
 _atom_site_fract_z
 _atom_site_occupancy
  Sm  Sm0  1  0.250000  0.750000  0.500000  1
  Th  Th1  1  0.213270  0.213270  0.000000  1
  Th  Th2  1  0.786730  0.786730  0.000000  1
  Th  Th3  1  0.750000  0.250000  0.500000  1
  Co  Co4  1  0.500639  0.270999  0.770360  1
  Co  Co5  1  0.500639  0.730279  0.229640  1
  Co  Co6  1  0.729001  0.499361  0.229640  1
  Co  Co7  1  0.269721  0.499361  0.770360  1
  B  B8  1  0.111940  0.276211  0.388391  1
  B  B9  1  0.887820  0.723550  0.611609  1
  B  B10  1  0.887820  0.276211  0.164271  1
  B  B11  1  0.111940  0.723550  0.835729  1
  B  B12  1  0.723789  0.888060  0.611609  1
  B  B13  1  0.276450  0.112180  0.388391  1
  B  B14  1  0.723789  0.112180  0.835729  1
  B  B15  1  0.276450  0.888060  0.164271  1
  B  B16  1  0.417824  0.418917  0.536502  1
  B  B17  1  0.882415  0.881322  0.463498  1
  B  B18  1  0.581083  0.117585  0.998907  1
  B  B19  1  0.118678  0.582176  0.001093  1
  B  B20  1  0.581083  0.582176  0.463498  1
  B  B21  1  0.118678  0.117585  0.536502  1
  B  B22  1  0.882415  0.418917  0.001093  1
  B  B23  1  0.417824  0.881322  0.998907  1
