# generated using pymatgen
data_Na6Sr6Al2BiSb7
_symmetry_space_group_name_H-M   'P 1'
_cell_length_a   10.31827200
_cell_length_b   10.31827328
_cell_length_c   8.04130500
_cell_angle_alpha   90.00000000
_cell_angle_beta   90.00000000
_cell_angle_gamma   120.00000872
_symmetry_Int_Tables_number   1
_chemical_formula_structural   Na6Sr6Al2BiSb7
_chemical_formula_sum   'Na6 Sr6 Al2 Bi1 Sb7'
_cell_volume   741.43165935
_cell_formula_units_Z   1
loop_
 _symmetry_equiv_pos_site_id
 _symmetry_equiv_pos_as_xyz
  1  'x, y, z'
loop_
 _atom_site_type_symbol
 _atom_site_label
 _atom_site_symmetry_multiplicity
 _atom_site_fract_x
 _atom_site_fract_y
 _atom_site_fract_z
 _atom_site_occupancy
  Na  Na0  1  0.857885  0.715768  0.956265  1
  Na  Na1  1  0.857885  0.142115  0.956265  1
  Na  Na2  1  0.142615  0.285231  0.456098  1
  Na  Na3  1  0.284232  0.142115  0.956265  1
  Na  Na4  1  0.142615  0.857385  0.456098  1
  Na  Na5  1  0.714769  0.857385  0.456098  1
  Sr  Sr6  1  0.479047  0.958094  0.780050  1
  Sr  Sr7  1  0.479047  0.520953  0.780050  1
  Sr  Sr8  1  0.519356  0.038712  0.282055  1
  Sr  Sr9  1  0.041906  0.520953  0.780050  1
  Sr  Sr10  1  0.519356  0.480644  0.282055  1
  Sr  Sr11  1  0.961288  0.480644  0.282055  1
  Al  Al12  1  0.666667  0.333333  0.643111  1
  Al  Al13  1  0.333333  0.666667  0.149126  1
  Bi  Bi14  1  0.666667  0.333333  0.002138  1
  Sb  Sb15  1  0.333333  0.666667  0.498443  1
  Sb  Sb16  1  0.812979  0.625959  0.555965  1
  Sb  Sb17  1  0.812979  0.187021  0.555965  1
  Sb  Sb18  1  0.187431  0.374862  0.056227  1
  Sb  Sb19  1  0.374041  0.187021  0.555965  1
  Sb  Sb20  1  0.187431  0.812569  0.056227  1
  Sb  Sb21  1  0.625138  0.812569  0.056227  1
