# generated using pymatgen
data_TbEr2PtRh8
_symmetry_space_group_name_H-M   'P 1'
_cell_length_a   5.27155500
_cell_length_b   5.27155514
_cell_length_c   17.56173300
_cell_angle_alpha   90.00000000
_cell_angle_beta   90.00000000
_cell_angle_gamma   119.99999283
_symmetry_Int_Tables_number   1
_chemical_formula_structural   TbEr2PtRh8
_chemical_formula_sum   'Tb2 Er4 Pt2 Rh16'
_cell_volume   422.64479888
_cell_formula_units_Z   2
loop_
 _symmetry_equiv_pos_site_id
 _symmetry_equiv_pos_as_xyz
  1  'x, y, z'
loop_
 _atom_site_type_symbol
 _atom_site_label
 _atom_site_symmetry_multiplicity
 _atom_site_fract_x
 _atom_site_fract_y
 _atom_site_fract_z
 _atom_site_occupancy
  Tb  Tb0  1  0.333333  0.666667  0.750000  1
  Tb  Tb1  1  0.666667  0.333333  0.250000  1
  Er  Er2  1  0.333333  0.666667  0.956932  1
  Er  Er3  1  0.666667  0.333333  0.043068  1
  Er  Er4  1  0.666667  0.333333  0.456932  1
  Er  Er5  1  0.333333  0.666667  0.543068  1
  Pt  Pt6  1  0.000000  0.000000  0.500000  1
  Pt  Pt7  1  0.000000  0.000000  0.000000  1
  Rh  Rh8  1  0.167827  0.832173  0.374075  1
  Rh  Rh9  1  0.167827  0.335653  0.374075  1
  Rh  Rh10  1  0.664347  0.832173  0.374075  1
  Rh  Rh11  1  0.832173  0.167827  0.625925  1
  Rh  Rh12  1  0.832173  0.664347  0.625925  1
  Rh  Rh13  1  0.335653  0.167827  0.625925  1
  Rh  Rh14  1  0.832173  0.167827  0.874075  1
  Rh  Rh15  1  0.832173  0.664347  0.874075  1
  Rh  Rh16  1  0.335653  0.167827  0.874075  1
  Rh  Rh17  1  0.167827  0.832173  0.125925  1
  Rh  Rh18  1  0.167827  0.335653  0.125925  1
  Rh  Rh19  1  0.664347  0.832173  0.125925  1
  Rh  Rh20  1  0.333333  0.666667  0.250000  1
  Rh  Rh21  1  0.666667  0.333333  0.750000  1
  Rh  Rh22  1  0.000000  0.000000  0.250000  1
  Rh  Rh23  1  0.000000  0.000000  0.750000  1
