# generated using pymatgen
data_Tb3Lu5(CuP)12
_symmetry_space_group_name_H-M   'P 1'
_cell_length_a   3.82869600
_cell_length_b   10.61216126
_cell_length_c   12.81352032
_cell_angle_alpha   89.97459969
_cell_angle_beta   90.00000000
_cell_angle_gamma   90.00000000
_symmetry_Int_Tables_number   1
_chemical_formula_structural   Tb3Lu5(CuP)12
_chemical_formula_sum   'Tb3 Lu5 Cu12 P12'
_cell_volume   520.62275317
_cell_formula_units_Z   1
loop_
 _symmetry_equiv_pos_site_id
 _symmetry_equiv_pos_as_xyz
  1  'x, y, z'
loop_
 _atom_site_type_symbol
 _atom_site_label
 _atom_site_symmetry_multiplicity
 _atom_site_fract_x
 _atom_site_fract_y
 _atom_site_fract_z
 _atom_site_occupancy
  Tb  Tb0  1  0.250000  0.929159  0.794321  1
  Tb  Tb1  1  0.750000  0.429078  0.705643  1
  Tb  Tb2  1  0.250000  0.570969  0.294389  1
  Lu  Lu3  1  0.750000  0.071432  0.206285  1
  Lu  Lu4  1  0.250000  0.843120  0.503238  1
  Lu  Lu5  1  0.750000  0.342926  0.996677  1
  Lu  Lu6  1  0.250000  0.656917  0.003423  1
  Lu  Lu7  1  0.750000  0.156658  0.496271  1
  Cu  Cu8  1  0.250000  0.398036  0.514158  1
  Cu  Cu9  1  0.750000  0.898267  0.985919  1
  Cu  Cu10  1  0.250000  0.101609  0.015379  1
  Cu  Cu11  1  0.750000  0.601977  0.485801  1
  Cu  Cu12  1  0.250000  0.273258  0.333460  1
  Cu  Cu13  1  0.750000  0.774006  0.166583  1
  Cu  Cu14  1  0.250000  0.226588  0.833654  1
  Cu  Cu15  1  0.750000  0.726627  0.666338  1
  Cu  Cu16  1  0.250000  0.861771  0.279412  1
  Cu  Cu17  1  0.750000  0.359895  0.220253  1
  Cu  Cu18  1  0.250000  0.639250  0.779878  1
  Cu  Cu19  1  0.750000  0.139307  0.720103  1
  P  P20  1  0.250000  0.236787  0.641832  1
  P  P21  1  0.750000  0.736900  0.858042  1
  P  P22  1  0.250000  0.261082  0.142725  1
  P  P23  1  0.750000  0.763152  0.358079  1
  P  P24  1  0.250000  0.604540  0.598539  1
  P  P25  1  0.750000  0.104633  0.901384  1
  P  P26  1  0.250000  0.896495  0.099053  1
  P  P27  1  0.750000  0.395514  0.401534  1
  P  P28  1  0.250000  0.057506  0.368279  1
  P  P29  1  0.750000  0.557291  0.129404  1
  P  P30  1  0.250000  0.442567  0.870697  1
  P  P31  1  0.750000  0.942687  0.629248  1
