# generated using pymatgen
data_Tb11Tl8InPt4
_symmetry_space_group_name_H-M   'P 1'
_cell_length_a   13.14557700
_cell_length_b   13.14557629
_cell_length_c   3.73346000
_cell_angle_alpha   90.00000000
_cell_angle_beta   90.00000000
_cell_angle_gamma   113.00299794
_symmetry_Int_Tables_number   1
_chemical_formula_structural   Tb11Tl8InPt4
_chemical_formula_sum   'Tb11 Tl8 In1 Pt4'
_cell_volume   593.86430486
_cell_formula_units_Z   1
loop_
 _symmetry_equiv_pos_site_id
 _symmetry_equiv_pos_as_xyz
  1  'x, y, z'
loop_
 _atom_site_type_symbol
 _atom_site_label
 _atom_site_symmetry_multiplicity
 _atom_site_fract_x
 _atom_site_fract_y
 _atom_site_fract_z
 _atom_site_occupancy
  Tb  Tb0  1  0.419395  0.076091  0.000000  1
  Tb  Tb1  1  0.580605  0.923909  0.000000  1
  Tb  Tb2  1  0.076091  0.419395  0.000000  1
  Tb  Tb3  1  0.923909  0.580605  0.000000  1
  Tb  Tb4  1  0.162048  0.837952  0.000000  1
  Tb  Tb5  1  0.837952  0.162048  0.000000  1
  Tb  Tb6  1  0.372684  0.627316  0.000000  1
  Tb  Tb7  1  0.627316  0.372684  0.000000  1
  Tb  Tb8  1  0.307135  0.307135  0.000000  1
  Tb  Tb9  1  0.692865  0.692865  0.000000  1
  Tb  Tb10  1  0.000000  0.000000  0.000000  1
  Tl  Tl11  1  0.368033  0.846319  0.500000  1
  Tl  Tl12  1  0.631967  0.153681  0.500000  1
  Tl  Tl13  1  0.846321  0.368033  0.500000  1
  Tl  Tl14  1  0.153679  0.631967  0.500000  1
  Tl  Tl15  1  0.214228  0.064186  0.500000  1
  Tl  Tl16  1  0.785772  0.935814  0.500000  1
  Tl  Tl17  1  0.064185  0.214227  0.500000  1
  Tl  Tl18  1  0.935815  0.785773  0.500000  1
  In  In19  1  0.500000  0.500000  0.500000  1
  Pt  Pt20  1  0.448508  0.249694  0.500000  1
  Pt  Pt21  1  0.551492  0.750306  0.500000  1
  Pt  Pt22  1  0.249695  0.448508  0.500000  1
  Pt  Pt23  1  0.750305  0.551492  0.500000  1
