# generated using pymatgen
data_Pa8Si13Ni3
_symmetry_space_group_name_H-M   'P 1'
_cell_length_a   7.99321400
_cell_length_b   7.99287411
_cell_length_c   7.99919000
_cell_angle_alpha   90.00099215
_cell_angle_beta   89.99946975
_cell_angle_gamma   120.00082473
_symmetry_Int_Tables_number   1
_chemical_formula_structural   Pa8Si13Ni3
_chemical_formula_sum   'Pa8 Si13 Ni3'
_cell_volume   442.58577146
_cell_formula_units_Z   1
loop_
 _symmetry_equiv_pos_site_id
 _symmetry_equiv_pos_as_xyz
  1  'x, y, z'
loop_
 _atom_site_type_symbol
 _atom_site_label
 _atom_site_symmetry_multiplicity
 _atom_site_fract_x
 _atom_site_fract_y
 _atom_site_fract_z
 _atom_site_occupancy
  Pa  Pa0  1  0.999996  0.999995  0.249764  1
  Pa  Pa1  1  0.999997  0.999995  0.750072  1
  Pa  Pa2  1  0.998094  0.499047  0.253714  1
  Pa  Pa3  1  0.500945  0.499039  0.253705  1
  Pa  Pa4  1  0.501421  0.002853  0.746095  1
  Pa  Pa5  1  0.500949  0.001911  0.253698  1
  Pa  Pa6  1  0.501407  0.498572  0.746090  1
  Pa  Pa7  1  0.997151  0.498572  0.746078  1
  Si  Si8  1  0.170657  0.341250  0.999683  1
  Si  Si9  1  0.658715  0.829379  0.999675  1
  Si  Si10  1  0.171494  0.342922  0.500201  1
  Si  Si11  1  0.340743  0.170345  0.000191  1
  Si  Si12  1  0.170684  0.829422  0.999641  1
  Si  Si13  1  0.657033  0.828545  0.500206  1
  Si  Si14  1  0.829603  0.659275  0.000198  1
  Si  Si15  1  0.331517  0.165732  0.499737  1
  Si  Si16  1  0.171533  0.828591  0.500238  1
  Si  Si17  1  0.834234  0.668512  0.499736  1
  Si  Si18  1  0.829575  0.170306  0.000160  1
  Si  Si19  1  0.834202  0.165708  0.499758  1
  Si  Si20  1  0.666618  0.333289  0.499250  1
  Ni  Ni21  1  0.333387  0.666688  0.999678  1
  Ni  Ni22  1  0.333392  0.666714  0.501239  1
  Ni  Ni23  1  0.666654  0.333341  0.001194  1
