# generated using pymatgen
data_La11Nd5Cd4Ir3Pt
_symmetry_space_group_name_H-M   'P 1'
_cell_length_a   10.10797692
_cell_length_b   10.09738540
_cell_length_c   10.09738542
_cell_angle_alpha   60.21395623
_cell_angle_beta   60.14682965
_cell_angle_gamma   60.14683201
_symmetry_Int_Tables_number   1
_chemical_formula_structural   La11Nd5Cd4Ir3Pt
_chemical_formula_sum   'La11 Nd5 Cd4 Ir3 Pt1'
_cell_volume   731.52275710
_cell_formula_units_Z   1
loop_
 _symmetry_equiv_pos_site_id
 _symmetry_equiv_pos_as_xyz
  1  'x, y, z'
loop_
 _atom_site_type_symbol
 _atom_site_label
 _atom_site_symmetry_multiplicity
 _atom_site_fract_x
 _atom_site_fract_y
 _atom_site_fract_z
 _atom_site_occupancy
  La  La0  1  0.346645  0.345718  0.345718  1
  La  La1  1  0.350850  0.349392  0.955404  1
  La  La2  1  0.350850  0.955404  0.349392  1
  La  La3  1  0.955297  0.350201  0.350201  1
  La  La4  1  0.803153  0.191994  0.191994  1
  La  La5  1  0.191531  0.807014  0.807014  1
  La  La6  1  0.191040  0.805088  0.190449  1
  La  La7  1  0.807041  0.190202  0.807998  1
  La  La8  1  0.191040  0.190449  0.805088  1
  La  La9  1  0.807041  0.807998  0.190202  1
  La  La10  1  0.938861  0.564838  0.564838  1
  Nd  Nd11  1  0.564414  0.935242  0.935242  1
  Nd  Nd12  1  0.563283  0.939501  0.565735  1
  Nd  Nd13  1  0.936615  0.563579  0.937418  1
  Nd  Nd14  1  0.563283  0.565735  0.939501  1
  Nd  Nd15  1  0.936615  0.937418  0.563579  1
  Cd  Cd16  1  0.579853  0.581206  0.581206  1
  Cd  Cd17  1  0.580697  0.580944  0.257483  1
  Cd  Cd18  1  0.580697  0.257483  0.580944  1
  Cd  Cd19  1  0.260136  0.580536  0.580536  1
  Ir  Ir20  1  0.141773  0.140191  0.576667  1
  Ir  Ir21  1  0.141773  0.576667  0.140191  1
  Ir  Ir22  1  0.576534  0.141255  0.141255  1
  Pt  Pt23  1  0.140975  0.141946  0.141946  1
