# generated using pymatgen
data_Lu4BeCuSi6
_symmetry_space_group_name_H-M   'P 1'
_cell_length_a   7.88341085
_cell_length_b   7.89577771
_cell_length_c   5.57666300
_cell_angle_alpha   69.18461129
_cell_angle_beta   69.42232294
_cell_angle_gamma   41.39306023
_symmetry_Int_Tables_number   1
_chemical_formula_structural   Lu4BeCuSi6
_chemical_formula_sum   'Lu4 Be1 Cu1 Si6'
_cell_volume   212.51072453
_cell_formula_units_Z   1
loop_
 _symmetry_equiv_pos_site_id
 _symmetry_equiv_pos_as_xyz
  1  'x, y, z'
loop_
 _atom_site_type_symbol
 _atom_site_label
 _atom_site_symmetry_multiplicity
 _atom_site_fract_x
 _atom_site_fract_y
 _atom_site_fract_z
 _atom_site_occupancy
  Lu  Lu0  1  0.251220  0.251220  0.248779  1
  Lu  Lu1  1  0.743483  0.254517  0.256517  1
  Lu  Lu2  1  0.254518  0.743483  0.745482  1
  Lu  Lu3  1  0.751220  0.751220  0.748780  1
  Be  Be4  1  0.833223  0.833223  0.166777  1
  Cu  Cu5  1  0.166678  0.166679  0.833322  1
  Si  Si6  1  0.328392  0.839912  0.160089  1
  Si  Si7  1  0.152380  0.675430  0.324571  1
  Si  Si8  1  0.672536  0.672536  0.327465  1
  Si  Si9  1  0.331008  0.331008  0.668993  1
  Si  Si10  1  0.839912  0.328392  0.671608  1
  Si  Si11  1  0.675429  0.152381  0.847620  1
