# generated using pymatgen
data_Sc2Nb4C5
_symmetry_space_group_name_H-M   'P 1'
_cell_length_a   5.54750656
_cell_length_b   5.54750681
_cell_length_c   5.54078821
_cell_angle_alpha   81.04408338
_cell_angle_beta   81.04408491
_cell_angle_gamma   120.01854091
_symmetry_Int_Tables_number   1
_chemical_formula_structural   Sc2Nb4C5
_chemical_formula_sum   'Sc2 Nb4 C5'
_cell_volume   140.30151227
_cell_formula_units_Z   1
loop_
 _symmetry_equiv_pos_site_id
 _symmetry_equiv_pos_as_xyz
  1  'x, y, z'
loop_
 _atom_site_type_symbol
 _atom_site_label
 _atom_site_symmetry_multiplicity
 _atom_site_fract_x
 _atom_site_fract_y
 _atom_site_fract_z
 _atom_site_occupancy
  Sc  Sc0  1  0.749258  0.749258  0.746033  1
  Sc  Sc1  1  0.250742  0.250742  0.253967  1
  Nb  Nb2  1  0.096264  0.445420  0.743450  1
  Nb  Nb3  1  0.554580  0.903736  0.256550  1
  Nb  Nb4  1  0.903736  0.554580  0.256550  1
  Nb  Nb5  1  0.445420  0.096264  0.743450  1
  C  C6  1  0.500000  0.500000  0.500000  1
  C  C7  1  0.672661  0.327339  0.000000  1
  C  C8  1  0.327339  0.672661  0.000000  1
  C  C9  1  0.827574  0.172426  0.500000  1
  C  C10  1  0.172426  0.827574  0.500000  1
