# generated using pymatgen
data_Na2GaF5
_symmetry_space_group_name_H-M   'P 1'
_cell_length_a   5.37429900
_cell_length_b   7.49351928
_cell_length_c   11.05666033
_cell_angle_alpha   72.08807751
_cell_angle_beta   90.00000000
_cell_angle_gamma   90.00000000
_symmetry_Int_Tables_number   1
_chemical_formula_structural   Na2GaF5
_chemical_formula_sum   'Na8 Ga4 F20'
_cell_volume   423.69593910
_cell_formula_units_Z   4
loop_
 _symmetry_equiv_pos_site_id
 _symmetry_equiv_pos_as_xyz
  1  'x, y, z'
loop_
 _atom_site_type_symbol
 _atom_site_label
 _atom_site_symmetry_multiplicity
 _atom_site_fract_x
 _atom_site_fract_y
 _atom_site_fract_z
 _atom_site_occupancy
  Na  Na0  1  0.944728  0.347598  0.316612  1
  Na  Na1  1  0.444728  0.652402  0.183388  1
  Na  Na2  1  0.055272  0.652402  0.683387  1
  Na  Na3  1  0.555272  0.347598  0.816613  1
  Na  Na4  1  0.491197  0.148526  0.133508  1
  Na  Na5  1  0.991197  0.851474  0.366492  1
  Na  Na6  1  0.508803  0.851474  0.866492  1
  Na  Na7  1  0.008803  0.148526  0.633508  1
  Ga  Ga8  1  0.500000  0.500000  0.500000  1
  Ga  Ga9  1  0.000000  0.500000  0.000000  1
  Ga  Ga10  1  0.500000  0.000000  0.500000  1
  Ga  Ga11  1  0.000000  0.000000  0.000000  1
  F  F12  1  0.745183  0.487239  0.624725  1
  F  F13  1  0.245183  0.512761  0.875275  1
  F  F14  1  0.254817  0.512761  0.375275  1
  F  F15  1  0.754817  0.487239  0.124725  1
  F  F16  1  0.721052  0.613917  0.365323  1
  F  F17  1  0.221052  0.386083  0.134677  1
  F  F18  1  0.278948  0.386083  0.634677  1
  F  F19  1  0.778948  0.613917  0.865323  1
  F  F20  1  0.638539  0.249620  0.498208  1
  F  F21  1  0.138539  0.750380  0.001792  1
  F  F22  1  0.361461  0.750380  0.501792  1
  F  F23  1  0.861461  0.249620  0.998208  1
  F  F24  1  0.852130  0.049558  0.834909  1
  F  F25  1  0.352130  0.950442  0.665091  1
  F  F26  1  0.147870  0.950442  0.165091  1
  F  F27  1  0.647870  0.049558  0.334909  1
  F  F28  1  0.696423  0.895608  0.072524  1
  F  F29  1  0.196423  0.104392  0.427476  1
  F  F30  1  0.303577  0.104392  0.927476  1
  F  F31  1  0.803577  0.895608  0.572524  1
