# generated using pymatgen
data_Ta3Hg4BiO14
_symmetry_space_group_name_H-M   'P 1'
_cell_length_a   7.53147106
_cell_length_b   7.53147048
_cell_length_c   7.60323833
_cell_angle_alpha   60.31175645
_cell_angle_beta   60.31175107
_cell_angle_gamma   59.99999325
_symmetry_Int_Tables_number   1
_chemical_formula_structural   Ta3Hg4BiO14
_chemical_formula_sum   'Ta3 Hg4 Bi1 O14'
_cell_volume   306.38933583
_cell_formula_units_Z   1
loop_
 _symmetry_equiv_pos_site_id
 _symmetry_equiv_pos_as_xyz
  1  'x, y, z'
loop_
 _atom_site_type_symbol
 _atom_site_label
 _atom_site_symmetry_multiplicity
 _atom_site_fract_x
 _atom_site_fract_y
 _atom_site_fract_z
 _atom_site_occupancy
  Ta  Ta0  1  0.125000  0.625000  0.125000  1
  Ta  Ta1  1  0.125000  0.125000  0.125000  1
  Ta  Ta2  1  0.625000  0.125000  0.125000  1
  Hg  Hg3  1  0.625000  0.625000  0.625000  1
  Hg  Hg4  1  0.625000  0.125000  0.625000  1
  Hg  Hg5  1  0.625000  0.625000  0.125000  1
  Hg  Hg6  1  0.125000  0.625000  0.625000  1
  Bi  Bi7  1  0.125000  0.125000  0.625000  1
  O  O8  1  0.820128  0.820128  0.168922  1
  O  O9  1  0.785304  0.204420  0.805855  1
  O  O10  1  0.045580  0.045580  0.444145  1
  O  O11  1  0.820128  0.190822  0.168922  1
  O  O12  1  0.429872  0.429872  0.081078  1
  O  O13  1  0.059178  0.429872  0.081078  1
  O  O14  1  0.204420  0.785304  0.805855  1
  O  O15  1  0.464696  0.045580  0.444145  1
  O  O16  1  0.504288  0.504288  0.487136  1
  O  O17  1  0.190822  0.820128  0.168922  1
  O  O18  1  0.204420  0.204420  0.805855  1
  O  O19  1  0.745712  0.745712  0.762864  1
  O  O20  1  0.429872  0.059178  0.081078  1
  O  O21  1  0.045580  0.464696  0.444145  1
