# generated using pymatgen
data_Ta6Re6Si5P
_symmetry_space_group_name_H-M   'P 1'
_cell_length_a   7.51105088
_cell_length_b   7.58223569
_cell_length_c   7.51105183
_cell_angle_alpha   127.60021313
_cell_angle_beta   124.01101939
_cell_angle_gamma   80.00062778
_symmetry_Int_Tables_number   1
_chemical_formula_structural   Ta6Re6Si5P
_chemical_formula_sum   'Ta6 Re6 Si5 P1'
_cell_volume   271.62331733
_cell_formula_units_Z   1
loop_
 _symmetry_equiv_pos_site_id
 _symmetry_equiv_pos_as_xyz
  1  'x, y, z'
loop_
 _atom_site_type_symbol
 _atom_site_label
 _atom_site_symmetry_multiplicity
 _atom_site_fract_x
 _atom_site_fract_y
 _atom_site_fract_z
 _atom_site_occupancy
  Ta  Ta0  1  0.545428  0.090494  0.045066  1
  Ta  Ta1  1  0.441478  0.476964  0.535485  1
  Ta  Ta2  1  0.966744  0.508951  0.042206  1
  Ta  Ta3  1  0.041291  0.077877  0.536586  1
  Ta  Ta4  1  0.757108  0.907187  0.650079  1
  Ta  Ta5  1  0.249563  0.914993  0.165430  1
  Re  Re6  1  0.529918  0.245012  0.776557  1
  Re  Re7  1  0.968455  0.245012  0.215094  1
  Re  Re8  1  0.155468  0.746510  0.652838  1
  Re  Re9  1  0.839662  0.493723  0.588696  1
  Re  Re10  1  0.593672  0.746510  0.091042  1
  Re  Re11  1  0.405027  0.493723  0.154061  1
  Si  Si12  1  0.228050  0.465051  0.737001  1
  Si  Si13  1  0.340711  0.829169  0.503167  1
  Si  Si14  1  0.669580  0.163847  0.499081  1
  Si  Si15  1  0.826002  0.829169  0.988458  1
  Si  Si16  1  0.164765  0.163847  0.994266  1
  P  P17  1  0.777077  0.544160  0.267083  1
