# generated using pymatgen
data_ErSeBrO3
_symmetry_space_group_name_H-M   'P 1'
_cell_length_a   6.93178600
_cell_length_b   7.64202500
_cell_length_c   8.94186100
_cell_angle_alpha   90.00000000
_cell_angle_beta   90.00000000
_cell_angle_gamma   90.00000000
_symmetry_Int_Tables_number   1
_chemical_formula_structural   ErSeBrO3
_chemical_formula_sum   'Er4 Se4 Br4 O12'
_cell_volume   473.67614678
_cell_formula_units_Z   4
loop_
 _symmetry_equiv_pos_site_id
 _symmetry_equiv_pos_as_xyz
  1  'x, y, z'
loop_
 _atom_site_type_symbol
 _atom_site_label
 _atom_site_symmetry_multiplicity
 _atom_site_fract_x
 _atom_site_fract_y
 _atom_site_fract_z
 _atom_site_occupancy
  Er  Er0  1  0.250000  0.897701  0.028318  1
  Er  Er1  1  0.750000  0.102299  0.971682  1
  Er  Er2  1  0.750000  0.602299  0.528318  1
  Er  Er3  1  0.250000  0.397701  0.471682  1
  Se  Se4  1  0.250000  0.780189  0.629259  1
  Se  Se5  1  0.750000  0.219811  0.370741  1
  Se  Se6  1  0.750000  0.719811  0.129259  1
  Se  Se7  1  0.250000  0.280189  0.870741  1
  Br  Br8  1  0.250000  0.557643  0.178239  1
  Br  Br9  1  0.750000  0.442357  0.821761  1
  Br  Br10  1  0.750000  0.942357  0.678239  1
  Br  Br11  1  0.250000  0.057643  0.321761  1
  O  O12  1  0.071688  0.632766  0.568721  1
  O  O13  1  0.928312  0.367234  0.431279  1
  O  O14  1  0.928312  0.867234  0.068721  1
  O  O15  1  0.571688  0.367234  0.431279  1
  O  O16  1  0.071688  0.132766  0.931279  1
  O  O17  1  0.428312  0.632766  0.568721  1
  O  O18  1  0.428312  0.132766  0.931279  1
  O  O19  1  0.571688  0.867234  0.068721  1
  O  O20  1  0.250000  0.751521  0.818012  1
  O  O21  1  0.750000  0.248479  0.181988  1
  O  O22  1  0.750000  0.748479  0.318012  1
  O  O23  1  0.250000  0.251521  0.681988  1
