# generated using pymatgen
data_YEr15(AgPt)4
_symmetry_space_group_name_H-M   'P 1'
_cell_length_a   9.51143023
_cell_length_b   9.51143052
_cell_length_c   9.46491500
_cell_angle_alpha   60.16164107
_cell_angle_beta   60.16164007
_cell_angle_gamma   60.25813220
_symmetry_Int_Tables_number   1
_chemical_formula_structural   YEr15(AgPt)4
_chemical_formula_sum   'Y1 Er15 Ag4 Pt4'
_cell_volume   608.12710073
_cell_formula_units_Z   1
loop_
 _symmetry_equiv_pos_site_id
 _symmetry_equiv_pos_as_xyz
  1  'x, y, z'
loop_
 _atom_site_type_symbol
 _atom_site_label
 _atom_site_symmetry_multiplicity
 _atom_site_fract_x
 _atom_site_fract_y
 _atom_site_fract_z
 _atom_site_occupancy
  Y  Y0  1  0.934916  0.934916  0.565084  1
  Er  Er1  1  0.355869  0.355869  0.352592  1
  Er  Er2  1  0.355869  0.355869  0.935671  1
  Er  Er3  1  0.359698  0.927170  0.356565  1
  Er  Er4  1  0.927170  0.359698  0.356565  1
  Er  Er5  1  0.812228  0.189065  0.187680  1
  Er  Er6  1  0.189065  0.812228  0.811027  1
  Er  Er7  1  0.189065  0.812228  0.187680  1
  Er  Er8  1  0.812228  0.189065  0.811027  1
  Er  Er9  1  0.188783  0.188783  0.811217  1
  Er  Er10  1  0.811987  0.811987  0.188013  1
  Er  Er11  1  0.934876  0.564722  0.564821  1
  Er  Er12  1  0.564722  0.934876  0.935581  1
  Er  Er13  1  0.564722  0.934876  0.564821  1
  Er  Er14  1  0.934876  0.564722  0.935581  1
  Er  Er15  1  0.566594  0.566594  0.933406  1
  Ag  Ag16  1  0.583285  0.583285  0.584424  1
  Ag  Ag17  1  0.583285  0.583285  0.249005  1
  Ag  Ag18  1  0.579969  0.251990  0.584020  1
  Ag  Ag19  1  0.251990  0.579969  0.584020  1
  Pt  Pt20  1  0.144579  0.144579  0.147138  1
  Pt  Pt21  1  0.144579  0.144579  0.563706  1
  Pt  Pt22  1  0.142098  0.567549  0.145176  1
  Pt  Pt23  1  0.567549  0.142098  0.145176  1
