# generated using pymatgen
data_Tb20Bi8RuPt3
_symmetry_space_group_name_H-M   'P 1'
_cell_length_a   8.10147379
_cell_length_b   9.06337600
_cell_length_c   12.52533480
_cell_angle_alpha   90.00000000
_cell_angle_beta   90.02936070
_cell_angle_gamma   90.00000000
_symmetry_Int_Tables_number   1
_chemical_formula_structural   Tb20Bi8RuPt3
_chemical_formula_sum   'Tb20 Bi8 Ru1 Pt3'
_cell_volume   919.69391865
_cell_formula_units_Z   1
loop_
 _symmetry_equiv_pos_site_id
 _symmetry_equiv_pos_as_xyz
  1  'x, y, z'
loop_
 _atom_site_type_symbol
 _atom_site_label
 _atom_site_symmetry_multiplicity
 _atom_site_fract_x
 _atom_site_fract_y
 _atom_site_fract_z
 _atom_site_occupancy
  Tb  Tb0  1  0.838244  0.750000  0.788783  1
  Tb  Tb1  1  0.159770  0.250000  0.209332  1
  Tb  Tb2  1  0.342028  0.250000  0.706958  1
  Tb  Tb3  1  0.654099  0.750000  0.297560  1
  Tb  Tb4  1  0.376461  0.750000  0.694943  1
  Tb  Tb5  1  0.627704  0.250000  0.301177  1
  Tb  Tb6  1  0.871737  0.250000  0.801778  1
  Tb  Tb7  1  0.127675  0.750000  0.197346  1
  Tb  Tb8  1  0.952874  0.750000  0.500956  1
  Tb  Tb9  1  0.047023  0.250000  0.499244  1
  Tb  Tb10  1  0.453680  0.250000  0.000714  1
  Tb  Tb11  1  0.547131  0.750000  0.000617  1
  Tb  Tb12  1  0.678477  0.036755  0.564946  1
  Tb  Tb13  1  0.321140  0.952823  0.435487  1
  Tb  Tb14  1  0.181135  0.956900  0.932671  1
  Tb  Tb15  1  0.321140  0.547177  0.435487  1
  Tb  Tb16  1  0.819508  0.043658  0.066281  1
  Tb  Tb17  1  0.678477  0.463245  0.564946  1
  Tb  Tb18  1  0.819508  0.456342  0.066281  1
  Tb  Tb19  1  0.181135  0.543100  0.932671  1
  Bi  Bi20  1  0.570403  0.490708  0.827696  1
  Bi  Bi21  1  0.429055  0.508879  0.173373  1
  Bi  Bi22  1  0.070343  0.507919  0.673685  1
  Bi  Bi23  1  0.429055  0.991121  0.173373  1
  Bi  Bi24  1  0.930037  0.491989  0.326505  1
  Bi  Bi25  1  0.570403  0.009292  0.827696  1
  Bi  Bi26  1  0.930037  0.008011  0.326505  1
  Bi  Bi27  1  0.070343  0.992081  0.673685  1
  Ru  Ru28  1  0.571785  0.750000  0.512731  1
  Pt  Pt29  1  0.428983  0.250000  0.488154  1
  Pt  Pt30  1  0.070639  0.250000  0.989281  1
  Pt  Pt31  1  0.929969  0.750000  0.009136  1
