# generated using pymatgen
data_Zr8Ti11ReSi16
_symmetry_space_group_name_H-M   'P 1'
_cell_length_a   6.82202344
_cell_length_b   6.82202344
_cell_length_c   12.52063752
_cell_angle_alpha   89.93113019
_cell_angle_beta   90.06886981
_cell_angle_gamma   90.02845851
_symmetry_Int_Tables_number   1
_chemical_formula_structural   Zr8Ti11ReSi16
_chemical_formula_sum   'Zr8 Ti11 Re1 Si16'
_cell_volume   582.70960497
_cell_formula_units_Z   1
loop_
 _symmetry_equiv_pos_site_id
 _symmetry_equiv_pos_as_xyz
  1  'x, y, z'
loop_
 _atom_site_type_symbol
 _atom_site_label
 _atom_site_symmetry_multiplicity
 _atom_site_fract_x
 _atom_site_fract_y
 _atom_site_fract_z
 _atom_site_occupancy
  Zr  Zr0  1  0.000541  0.655785  0.031865  1
  Zr  Zr1  1  0.999689  0.343309  0.531194  1
  Zr  Zr2  1  0.655785  0.000541  0.968135  1
  Zr  Zr3  1  0.156922  0.499564  0.780963  1
  Zr  Zr4  1  0.844708  0.501248  0.281819  1
  Zr  Zr5  1  0.499564  0.156922  0.219037  1
  Zr  Zr6  1  0.501248  0.844708  0.718181  1
  Zr  Zr7  1  0.343309  0.999689  0.468806  1
  Ti  Ti8  1  0.347629  0.504524  0.378332  1
  Ti  Ti9  1  0.847305  0.996507  0.372863  1
  Ti  Ti10  1  0.004221  0.152252  0.127509  1
  Ti  Ti11  1  0.996507  0.847305  0.627137  1
  Ti  Ti12  1  0.651355  0.496300  0.876154  1
  Ti  Ti13  1  0.504524  0.347629  0.621668  1
  Ti  Ti14  1  0.496300  0.651355  0.123846  1
  Ti  Ti15  1  0.152252  0.004221  0.872491  1
  Ti  Ti16  1  0.828300  0.170861  0.748771  1
  Ti  Ti17  1  0.170861  0.828300  0.251229  1
  Ti  Ti18  1  0.328431  0.328431  0.000000  1
  Re  Re19  1  0.671811  0.671811  0.500000  1
  Si  Si20  1  0.044351  0.708041  0.436087  1
  Si  Si21  1  0.953001  0.292546  0.936115  1
  Si  Si22  1  0.708041  0.044351  0.563913  1
  Si  Si23  1  0.206950  0.453580  0.186253  1
  Si  Si24  1  0.791869  0.547411  0.685375  1
  Si  Si25  1  0.453580  0.206950  0.813747  1
  Si  Si26  1  0.547411  0.791869  0.314625  1
  Si  Si27  1  0.292546  0.953001  0.063885  1
  Si  Si28  1  0.864342  0.794986  0.821961  1
  Si  Si29  1  0.135864  0.205193  0.322066  1
  Si  Si30  1  0.794986  0.864342  0.178039  1
  Si  Si31  1  0.295232  0.635212  0.573277  1
  Si  Si32  1  0.705588  0.364571  0.071921  1
  Si  Si33  1  0.635212  0.295232  0.426723  1
  Si  Si34  1  0.364571  0.705588  0.928079  1
  Si  Si35  1  0.205193  0.135864  0.677934  1
