# generated using pymatgen
data_Ta9CdS16
_symmetry_space_group_name_H-M   'P 1'
_cell_length_a   6.67053000
_cell_length_b   6.67053272
_cell_length_c   13.26462900
_cell_angle_alpha   90.00004937
_cell_angle_beta   89.99996554
_cell_angle_gamma   119.99999643
_symmetry_Int_Tables_number   1
_chemical_formula_structural   Ta9CdS16
_chemical_formula_sum   'Ta9 Cd1 S16'
_cell_volume   511.14794070
_cell_formula_units_Z   1
loop_
 _symmetry_equiv_pos_site_id
 _symmetry_equiv_pos_as_xyz
  1  'x, y, z'
loop_
 _atom_site_type_symbol
 _atom_site_label
 _atom_site_symmetry_multiplicity
 _atom_site_fract_x
 _atom_site_fract_y
 _atom_site_fract_z
 _atom_site_occupancy
  Ta  Ta0  1  0.503962  0.496038  0.763950  1
  Ta  Ta1  1  0.007925  0.503963  0.236051  1
  Ta  Ta2  1  0.496037  0.992075  0.236051  1
  Ta  Ta3  1  0.503963  0.007925  0.763949  1
  Ta  Ta4  1  0.992075  0.496037  0.763949  1
  Ta  Ta5  1  0.496038  0.503962  0.236050  1
  Ta  Ta6  1  0.000000  0.000000  0.763976  1
  Ta  Ta7  1  0.000000  0.000000  0.236024  1
  Ta  Ta8  1  0.000000  0.000000  0.000000  1
  Cd  Cd9  1  0.000000  0.000000  0.500000  1
  S  S10  1  0.832179  0.167821  0.354364  1
  S  S11  1  0.832179  0.664359  0.354364  1
  S  S12  1  0.335641  0.167821  0.354364  1
  S  S13  1  0.665358  0.832679  0.883737  1
  S  S14  1  0.167821  0.335641  0.645636  1
  S  S15  1  0.167321  0.832679  0.883736  1
  S  S16  1  0.167321  0.334643  0.883737  1
  S  S17  1  0.832679  0.167321  0.116264  1
  S  S18  1  0.334642  0.167321  0.116263  1
  S  S19  1  0.664359  0.832179  0.645636  1
  S  S20  1  0.333334  0.666667  0.116211  1
  S  S21  1  0.666667  0.333334  0.643842  1
  S  S22  1  0.666666  0.333333  0.883789  1
  S  S23  1  0.333333  0.666666  0.356158  1
  S  S24  1  0.832679  0.665357  0.116263  1
  S  S25  1  0.167821  0.832179  0.645636  1
