# generated using pymatgen
data_Dy4Sc3AlPt4
_symmetry_space_group_name_H-M   'P 1'
_cell_length_a   4.51653300
_cell_length_b   7.03202295
_cell_length_c   8.30302412
_cell_angle_alpha   86.90921042
_cell_angle_beta   90.00000000
_cell_angle_gamma   90.00000000
_symmetry_Int_Tables_number   1
_chemical_formula_structural   Dy4Sc3AlPt4
_chemical_formula_sum   'Dy4 Sc3 Al1 Pt4'
_cell_volume   263.32346471
_cell_formula_units_Z   1
loop_
 _symmetry_equiv_pos_site_id
 _symmetry_equiv_pos_as_xyz
  1  'x, y, z'
loop_
 _atom_site_type_symbol
 _atom_site_label
 _atom_site_symmetry_multiplicity
 _atom_site_fract_x
 _atom_site_fract_y
 _atom_site_fract_z
 _atom_site_occupancy
  Dy  Dy0  1  0.250000  0.468902  0.183993  1
  Dy  Dy1  1  0.750000  0.522680  0.815453  1
  Dy  Dy2  1  0.750000  0.040714  0.671733  1
  Dy  Dy3  1  0.250000  0.986494  0.340831  1
  Sc  Sc4  1  0.250000  0.865023  0.927884  1
  Sc  Sc5  1  0.750000  0.132935  0.070087  1
  Sc  Sc6  1  0.750000  0.636788  0.436169  1
  Al  Al7  1  0.250000  0.359788  0.568183  1
  Pt  Pt8  1  0.250000  0.728589  0.614269  1
  Pt  Pt9  1  0.750000  0.262814  0.383293  1
  Pt  Pt10  1  0.750000  0.748991  0.100477  1
  Pt  Pt11  1  0.250000  0.246281  0.887628  1
