# generated using pymatgen
data_YHo5Fe3(Co5P4)3
_symmetry_space_group_name_H-M   'P 1'
_cell_length_a   3.69192600
_cell_length_b   10.53260000
_cell_length_c   12.12805700
_cell_angle_alpha   90.00000000
_cell_angle_beta   90.00000000
_cell_angle_gamma   90.00000000
_symmetry_Int_Tables_number   1
_chemical_formula_structural   YHo5Fe3(Co5P4)3
_chemical_formula_sum   'Y1 Ho5 Fe3 Co15 P12'
_cell_volume   471.60652814
_cell_formula_units_Z   1
loop_
 _symmetry_equiv_pos_site_id
 _symmetry_equiv_pos_as_xyz
  1  'x, y, z'
loop_
 _atom_site_type_symbol
 _atom_site_label
 _atom_site_symmetry_multiplicity
 _atom_site_fract_x
 _atom_site_fract_y
 _atom_site_fract_z
 _atom_site_occupancy
  Y  Y0  1  0.500000  0.000000  0.477558  1
  Ho  Ho1  1  0.000000  0.500000  0.522407  1
  Ho  Ho2  1  0.500000  0.817732  0.204837  1
  Ho  Ho3  1  0.500000  0.182268  0.204837  1
  Ho  Ho4  1  0.000000  0.680790  0.795766  1
  Ho  Ho5  1  0.000000  0.319210  0.795766  1
  Fe  Fe6  1  0.000000  0.500000  0.988417  1
  Fe  Fe7  1  0.500000  0.500000  0.155805  1
  Fe  Fe8  1  0.000000  0.000000  0.842684  1
  Co  Co9  1  0.500000  0.000000  0.013714  1
  Co  Co10  1  0.500000  0.297318  0.430583  1
  Co  Co11  1  0.500000  0.702682  0.430583  1
  Co  Co12  1  0.000000  0.203754  0.569678  1
  Co  Co13  1  0.000000  0.796246  0.569678  1
  Co  Co14  1  0.500000  0.878789  0.708959  1
  Co  Co15  1  0.500000  0.121211  0.708959  1
  Co  Co16  1  0.000000  0.621136  0.290678  1
  Co  Co17  1  0.000000  0.378864  0.290678  1
  Co  Co18  1  0.500000  0.331046  0.994095  1
  Co  Co19  1  0.500000  0.668954  0.994095  1
  Co  Co20  1  0.000000  0.166324  0.005835  1
  Co  Co21  1  0.000000  0.833676  0.005835  1
  Co  Co22  1  0.500000  0.500000  0.701314  1
  Co  Co23  1  0.000000  0.000000  0.298034  1
  P  P24  1  0.500000  0.310650  0.616485  1
  P  P25  1  0.500000  0.689350  0.616485  1
  P  P26  1  0.000000  0.190151  0.383359  1
  P  P27  1  0.000000  0.809849  0.383359  1
  P  P28  1  0.500000  0.500000  0.884136  1
  P  P29  1  0.000000  0.000000  0.117843  1
  P  P30  1  0.500000  0.847557  0.892458  1
  P  P31  1  0.500000  0.152443  0.892458  1
  P  P32  1  0.000000  0.652721  0.106604  1
  P  P33  1  0.000000  0.347279  0.106604  1
  P  P34  1  0.500000  0.500000  0.342098  1
  P  P35  1  0.000000  0.000000  0.657314  1
