# generated using pymatgen
data_Dy8Cu3Si12Ni
_symmetry_space_group_name_H-M   'P 1'
_cell_length_a   7.97342000
_cell_length_b   7.97342013
_cell_length_c   8.10753800
_cell_angle_alpha   90.00000000
_cell_angle_beta   90.00000000
_cell_angle_gamma   119.99999117
_symmetry_Int_Tables_number   1
_chemical_formula_structural   Dy8Cu3Si12Ni
_chemical_formula_sum   'Dy8 Cu3 Si12 Ni1'
_cell_volume   446.38434223
_cell_formula_units_Z   1
loop_
 _symmetry_equiv_pos_site_id
 _symmetry_equiv_pos_as_xyz
  1  'x, y, z'
loop_
 _atom_site_type_symbol
 _atom_site_label
 _atom_site_symmetry_multiplicity
 _atom_site_fract_x
 _atom_site_fract_y
 _atom_site_fract_z
 _atom_site_occupancy
  Dy  Dy0  1  0.000000  0.000000  0.250328  1
  Dy  Dy1  1  0.000000  0.000000  0.749566  1
  Dy  Dy2  1  0.998364  0.499181  0.251338  1
  Dy  Dy3  1  0.500819  0.499181  0.251338  1
  Dy  Dy4  1  0.501729  0.003457  0.748630  1
  Dy  Dy5  1  0.500819  0.001636  0.251338  1
  Dy  Dy6  1  0.501729  0.498271  0.748630  1
  Dy  Dy7  1  0.996543  0.498271  0.748630  1
  Cu  Cu8  1  0.333333  0.666667  0.997430  1
  Cu  Cu9  1  0.333333  0.666667  0.501961  1
  Cu  Cu10  1  0.666667  0.333333  0.002368  1
  Si  Si11  1  0.169203  0.338405  0.000027  1
  Si  Si12  1  0.661595  0.830797  0.000027  1
  Si  Si13  1  0.167855  0.335708  0.500438  1
  Si  Si14  1  0.338146  0.169073  0.999940  1
  Si  Si15  1  0.169203  0.830797  0.000027  1
  Si  Si16  1  0.664292  0.832145  0.500438  1
  Si  Si17  1  0.830927  0.661854  0.999940  1
  Si  Si18  1  0.344804  0.172403  0.499346  1
  Si  Si19  1  0.167855  0.832145  0.500438  1
  Si  Si20  1  0.827597  0.655196  0.499346  1
  Si  Si21  1  0.830927  0.169073  0.999940  1
  Si  Si22  1  0.827597  0.172403  0.499346  1
  Ni  Ni23  1  0.666667  0.333333  0.499185  1
