# generated using pymatgen
data_Y4Ga20TcOs5
_symmetry_space_group_name_H-M   'P 1'
_cell_length_a   8.94430361
_cell_length_b   8.94430361
_cell_length_c   6.41708200
_cell_angle_alpha   90.00000000
_cell_angle_beta   90.00000000
_cell_angle_gamma   90.10295468
_symmetry_Int_Tables_number   1
_chemical_formula_structural   Y4Ga20TcOs5
_chemical_formula_sum   'Y4 Ga20 Tc1 Os5'
_cell_volume   513.36937012
_cell_formula_units_Z   1
loop_
 _symmetry_equiv_pos_site_id
 _symmetry_equiv_pos_as_xyz
  1  'x, y, z'
loop_
 _atom_site_type_symbol
 _atom_site_label
 _atom_site_symmetry_multiplicity
 _atom_site_fract_x
 _atom_site_fract_y
 _atom_site_fract_z
 _atom_site_occupancy
  Y  Y0  1  0.182026  0.317974  0.000000  1
  Y  Y1  1  0.683664  0.182581  0.000000  1
  Y  Y2  1  0.817387  0.682613  0.000000  1
  Y  Y3  1  0.317419  0.816336  0.000000  1
  Ga  Ga4  1  0.500287  0.999713  0.287718  1
  Ga  Ga5  1  0.500287  0.999713  0.712282  1
  Ga  Ga6  1  0.293107  0.560431  0.705307  1
  Ga  Ga7  1  0.000065  0.499935  0.289271  1
  Ga  Ga8  1  0.000065  0.499935  0.710729  1
  Ga  Ga9  1  0.061378  0.793439  0.706866  1
  Ga  Ga10  1  0.205671  0.061054  0.294063  1
  Ga  Ga11  1  0.061378  0.793439  0.293134  1
  Ga  Ga12  1  0.706561  0.438622  0.706866  1
  Ga  Ga13  1  0.205671  0.061054  0.705937  1
  Ga  Ga14  1  0.939569  0.206893  0.705307  1
  Ga  Ga15  1  0.706561  0.438622  0.293134  1
  Ga  Ga16  1  0.560848  0.706213  0.293572  1
  Ga  Ga17  1  0.939569  0.206893  0.294693  1
  Ga  Ga18  1  0.560848  0.706213  0.706428  1
  Ga  Ga19  1  0.793787  0.939152  0.293572  1
  Ga  Ga20  1  0.438946  0.294329  0.705937  1
  Ga  Ga21  1  0.793787  0.939152  0.706428  1
  Ga  Ga22  1  0.438946  0.294329  0.294063  1
  Ga  Ga23  1  0.293107  0.560431  0.294693  1
  Tc  Tc24  1  0.179217  0.320783  0.500000  1
  Os  Os25  1  0.322077  0.822100  0.500000  1
  Os  Os26  1  0.820802  0.679198  0.500000  1
  Os  Os27  1  0.998766  0.999695  0.000000  1
  Os  Os28  1  0.677900  0.177923  0.500000  1
  Os  Os29  1  0.500305  0.501234  0.000000  1
