# generated using pymatgen
data_AcHI2
_symmetry_space_group_name_H-M   'P 1'
_cell_length_a   4.40599900
_cell_length_b   4.40599733
_cell_length_c   17.69373100
_cell_angle_alpha   90.00000000
_cell_angle_beta   90.00000000
_cell_angle_gamma   119.99999002
_symmetry_Int_Tables_number   1
_chemical_formula_structural   AcHI2
_chemical_formula_sum   'Ac2 H2 I4'
_cell_volume   297.46694931
_cell_formula_units_Z   2
loop_
 _symmetry_equiv_pos_site_id
 _symmetry_equiv_pos_as_xyz
  1  'x, y, z'
loop_
 _atom_site_type_symbol
 _atom_site_label
 _atom_site_symmetry_multiplicity
 _atom_site_fract_x
 _atom_site_fract_y
 _atom_site_fract_z
 _atom_site_occupancy
  Ac  Ac0  1  0.000000  0.000000  0.250000  1
  Ac  Ac1  1  0.000000  0.000000  0.750000  1
  H  H2  1  0.666668  0.333334  0.250000  1
  H  H3  1  0.333333  0.666666  0.750000  1
  I  I4  1  0.333333  0.666666  0.123653  1
  I  I5  1  0.333333  0.666666  0.376347  1
  I  I6  1  0.666668  0.333334  0.623653  1
  I  I7  1  0.666668  0.333334  0.876347  1
