# generated using pymatgen
data_Pr3Nd2SmTa2O14
_symmetry_space_group_name_H-M   'P 1'
_cell_length_a   6.71660516
_cell_length_b   6.70131686
_cell_length_c   7.74174100
_cell_angle_alpha   90.00000000
_cell_angle_beta   90.00000000
_cell_angle_gamma   108.62930238
_symmetry_Int_Tables_number   1
_chemical_formula_structural   Pr3Nd2SmTa2O14
_chemical_formula_sum   'Pr3 Nd2 Sm1 Ta2 O14'
_cell_volume   330.19920879
_cell_formula_units_Z   1
loop_
 _symmetry_equiv_pos_site_id
 _symmetry_equiv_pos_as_xyz
  1  'x, y, z'
loop_
 _atom_site_type_symbol
 _atom_site_label
 _atom_site_symmetry_multiplicity
 _atom_site_fract_x
 _atom_site_fract_y
 _atom_site_fract_z
 _atom_site_occupancy
  Pr  Pr0  1  0.464624  0.468816  0.499721  1
  Pr  Pr1  1  0.464624  0.468816  0.000279  1
  Pr  Pr2  1  0.537248  0.994123  0.750000  1
  Nd  Nd3  1  0.993437  0.539710  0.250000  1
  Nd  Nd4  1  0.468455  0.996239  0.250000  1
  Sm  Sm5  1  0.995118  0.467184  0.750000  1
  Ta  Ta6  1  0.999562  0.999503  0.500470  1
  Ta  Ta7  1  0.999562  0.999503  0.999530  1
  O  O8  1  0.695510  0.937411  0.467924  1
  O  O9  1  0.960670  0.700814  0.535933  1
  O  O10  1  0.695510  0.937411  0.032076  1
  O  O11  1  0.960670  0.700814  0.964067  1
  O  O12  1  0.319755  0.079098  0.525424  1
  O  O13  1  0.070166  0.317836  0.472690  1
  O  O14  1  0.319755  0.079098  0.974576  1
  O  O15  1  0.070166  0.317836  0.027310  1
  O  O16  1  0.945069  0.061947  0.750000  1
  O  O17  1  0.056061  0.945485  0.250000  1
  O  O18  1  0.360269  0.623842  0.750000  1
  O  O19  1  0.628905  0.367275  0.250000  1
  O  O20  1  0.638672  0.363492  0.750000  1
  O  O21  1  0.356193  0.633756  0.250000  1
