# generated using pymatgen
data_Ho3V2P6Rh7
_symmetry_space_group_name_H-M   'P 1'
_cell_length_a   3.89567700
_cell_length_b   11.18148700
_cell_length_c   12.83661900
_cell_angle_alpha   90.00000000
_cell_angle_beta   90.00000000
_cell_angle_gamma   90.00000000
_symmetry_Int_Tables_number   1
_chemical_formula_structural   Ho3V2P6Rh7
_chemical_formula_sum   'Ho6 V4 P12 Rh14'
_cell_volume   559.15621409
_cell_formula_units_Z   2
loop_
 _symmetry_equiv_pos_site_id
 _symmetry_equiv_pos_as_xyz
  1  'x, y, z'
loop_
 _atom_site_type_symbol
 _atom_site_label
 _atom_site_symmetry_multiplicity
 _atom_site_fract_x
 _atom_site_fract_y
 _atom_site_fract_z
 _atom_site_occupancy
  Ho  Ho0  1  0.000000  0.500000  0.519044  1
  Ho  Ho1  1  0.500000  0.000000  0.480956  1
  Ho  Ho2  1  0.500000  0.816389  0.202530  1
  Ho  Ho3  1  0.500000  0.183611  0.202530  1
  Ho  Ho4  1  0.000000  0.683611  0.797470  1
  Ho  Ho5  1  0.000000  0.316389  0.797470  1
  V  V6  1  0.000000  0.500000  0.986901  1
  V  V7  1  0.500000  0.000000  0.013099  1
  V  V8  1  0.500000  0.500000  0.160026  1
  V  V9  1  0.000000  0.000000  0.839974  1
  P  P10  1  0.500000  0.312810  0.617224  1
  P  P11  1  0.500000  0.687190  0.617224  1
  P  P12  1  0.000000  0.187190  0.382776  1
  P  P13  1  0.000000  0.812810  0.382776  1
  P  P14  1  0.500000  0.500000  0.874375  1
  P  P15  1  0.000000  0.000000  0.125625  1
  P  P16  1  0.500000  0.848364  0.889407  1
  P  P17  1  0.500000  0.151636  0.889407  1
  P  P18  1  0.000000  0.651636  0.110593  1
  P  P19  1  0.000000  0.348364  0.110593  1
  P  P20  1  0.500000  0.500000  0.347013  1
  P  P21  1  0.000000  0.000000  0.652987  1
  Rh  Rh22  1  0.500000  0.293198  0.431509  1
  Rh  Rh23  1  0.500000  0.706802  0.431509  1
  Rh  Rh24  1  0.000000  0.206802  0.568491  1
  Rh  Rh25  1  0.000000  0.793198  0.568491  1
  Rh  Rh26  1  0.500000  0.875083  0.708425  1
  Rh  Rh27  1  0.500000  0.124917  0.708425  1
  Rh  Rh28  1  0.000000  0.624917  0.291575  1
  Rh  Rh29  1  0.000000  0.375083  0.291575  1
  Rh  Rh30  1  0.500000  0.336174  0.990145  1
  Rh  Rh31  1  0.500000  0.663826  0.990145  1
  Rh  Rh32  1  0.000000  0.163826  0.009855  1
  Rh  Rh33  1  0.000000  0.836174  0.009855  1
  Rh  Rh34  1  0.500000  0.500000  0.694243  1
  Rh  Rh35  1  0.000000  0.000000  0.305757  1
