# generated using pymatgen
data_Tb2Fe14(SiC)3
_symmetry_space_group_name_H-M   'P 1'
_cell_length_a   6.45585863
_cell_length_b   6.45585901
_cell_length_c   6.45585911
_cell_angle_alpha   83.65172378
_cell_angle_beta   83.65172205
_cell_angle_gamma   83.65172361
_symmetry_Int_Tables_number   1
_chemical_formula_structural   Tb2Fe14(SiC)3
_chemical_formula_sum   'Tb2 Fe14 Si3 C3'
_cell_volume   264.45778752
_cell_formula_units_Z   1
loop_
 _symmetry_equiv_pos_site_id
 _symmetry_equiv_pos_as_xyz
  1  'x, y, z'
loop_
 _atom_site_type_symbol
 _atom_site_label
 _atom_site_symmetry_multiplicity
 _atom_site_fract_x
 _atom_site_fract_y
 _atom_site_fract_z
 _atom_site_occupancy
  Tb  Tb0  1  0.652920  0.652920  0.652920  1
  Tb  Tb1  1  0.347080  0.347080  0.347080  1
  Fe  Fe2  1  0.715246  0.284754  0.000000  1
  Fe  Fe3  1  0.000000  0.715246  0.284754  1
  Fe  Fe4  1  0.284754  0.000000  0.715246  1
  Fe  Fe5  1  0.000000  0.284754  0.715246  1
  Fe  Fe6  1  0.715246  0.000000  0.284754  1
  Fe  Fe7  1  0.284754  0.715246  0.000000  1
  Fe  Fe8  1  0.339859  0.339859  0.862926  1
  Fe  Fe9  1  0.862926  0.339859  0.339859  1
  Fe  Fe10  1  0.339859  0.862926  0.339859  1
  Fe  Fe11  1  0.660141  0.660141  0.137074  1
  Fe  Fe12  1  0.137074  0.660141  0.660141  1
  Fe  Fe13  1  0.660141  0.137074  0.660141  1
  Fe  Fe14  1  0.903324  0.903324  0.903324  1
  Fe  Fe15  1  0.096676  0.096676  0.096676  1
  Si  Si16  1  0.000000  0.000000  0.500000  1
  Si  Si17  1  0.500000  0.000000  0.000000  1
  Si  Si18  1  0.000000  0.500000  0.000000  1
  C  C19  1  0.500000  0.500000  0.000000  1
  C  C20  1  0.000000  0.500000  0.500000  1
  C  C21  1  0.500000  0.000000  0.500000  1
