# generated using pymatgen
data_HoNpO5
_symmetry_space_group_name_H-M   'P 1'
_cell_length_a   5.64766054
_cell_length_b   5.64766048
_cell_length_c   8.08474879
_cell_angle_alpha   69.08137336
_cell_angle_beta   69.08136856
_cell_angle_gamma   70.52356545
_symmetry_Int_Tables_number   1
_chemical_formula_structural   HoNpO5
_chemical_formula_sum   'Ho2 Np2 O10'
_cell_volume   218.64142552
_cell_formula_units_Z   2
loop_
 _symmetry_equiv_pos_site_id
 _symmetry_equiv_pos_as_xyz
  1  'x, y, z'
loop_
 _atom_site_type_symbol
 _atom_site_label
 _atom_site_symmetry_multiplicity
 _atom_site_fract_x
 _atom_site_fract_y
 _atom_site_fract_z
 _atom_site_occupancy
  Ho  Ho0  1  0.958011  0.041989  0.250000  1
  Ho  Ho1  1  0.041989  0.958011  0.750000  1
  Np  Np2  1  0.500000  0.500000  0.000000  1
  Np  Np3  1  0.500000  0.500000  0.500000  1
  O  O4  1  0.386672  0.613328  0.750000  1
  O  O5  1  0.288638  0.252092  0.619152  1
  O  O6  1  0.711362  0.747908  0.380848  1
  O  O7  1  0.252092  0.288638  0.119152  1
  O  O8  1  0.613328  0.386672  0.250000  1
  O  O9  1  0.747908  0.711362  0.880848  1
  O  O10  1  0.209201  0.813307  0.036720  1
  O  O11  1  0.813307  0.209201  0.536720  1
  O  O12  1  0.790799  0.186693  0.963280  1
  O  O13  1  0.186693  0.790799  0.463280  1
