# generated using pymatgen
data_DyY3Mn3VB16
_symmetry_space_group_name_H-M   'P 1'
_cell_length_a   3.42985700
_cell_length_b   5.93005236
_cell_length_c   11.46499026
_cell_angle_alpha   90.03895683
_cell_angle_beta   90.00000000
_cell_angle_gamma   90.00000000
_symmetry_Int_Tables_number   1
_chemical_formula_structural   DyY3Mn3VB16
_chemical_formula_sum   'Dy1 Y3 Mn3 V1 B16'
_cell_volume   233.18903833
_cell_formula_units_Z   1
loop_
 _symmetry_equiv_pos_site_id
 _symmetry_equiv_pos_as_xyz
  1  'x, y, z'
loop_
 _atom_site_type_symbol
 _atom_site_label
 _atom_site_symmetry_multiplicity
 _atom_site_fract_x
 _atom_site_fract_y
 _atom_site_fract_z
 _atom_site_occupancy
  Dy  Dy0  1  0.000000  0.625664  0.350964  1
  Y  Y1  1  0.000000  0.373832  0.650127  1
  Y  Y2  1  0.000000  0.125140  0.151455  1
  Y  Y3  1  0.000000  0.876875  0.847974  1
  Mn  Mn4  1  0.000000  0.377580  0.917733  1
  Mn  Mn5  1  0.000000  0.127035  0.417989  1
  Mn  Mn6  1  0.000000  0.871895  0.584246  1
  V  V7  1  0.000000  0.624451  0.080880  1
  B  B8  1  0.500000  0.783979  0.186166  1
  B  B9  1  0.500000  0.220962  0.816436  1
  B  B10  1  0.500000  0.279403  0.317452  1
  B  B11  1  0.500000  0.719364  0.683306  1
  B  B12  1  0.500000  0.865423  0.031020  1
  B  B13  1  0.500000  0.139036  0.965857  1
  B  B14  1  0.500000  0.360990  0.468249  1
  B  B15  1  0.500000  0.638063  0.532507  1
  B  B16  1  0.500000  0.887209  0.454399  1
  B  B17  1  0.500000  0.111265  0.546790  1
  B  B18  1  0.500000  0.384381  0.044209  1
  B  B19  1  0.500000  0.610723  0.950912  1
  B  B20  1  0.500000  0.975165  0.310204  1
  B  B21  1  0.500000  0.025026  0.690732  1
  B  B22  1  0.500000  0.473064  0.192231  1
  B  B23  1  0.500000  0.523475  0.808162  1
