# generated using pymatgen
data_Cs3K9Al3GaTe12
_symmetry_space_group_name_H-M   'P 1'
_cell_length_a   14.62172379
_cell_length_b   8.89092192
_cell_length_c   11.34474288
_cell_angle_alpha   53.04844602
_cell_angle_beta   89.45496009
_cell_angle_gamma   89.43766745
_symmetry_Int_Tables_number   1
_chemical_formula_structural   Cs3K9Al3GaTe12
_chemical_formula_sum   'Cs3 K9 Al3 Ga1 Te12'
_cell_volume   1178.52761423
_cell_formula_units_Z   1
loop_
 _symmetry_equiv_pos_site_id
 _symmetry_equiv_pos_as_xyz
  1  'x, y, z'
loop_
 _atom_site_type_symbol
 _atom_site_label
 _atom_site_symmetry_multiplicity
 _atom_site_fract_x
 _atom_site_fract_y
 _atom_site_fract_z
 _atom_site_occupancy
  Cs  Cs0  1  0.311821  0.155137  0.065344  1
  Cs  Cs1  1  0.685852  0.846633  0.934294  1
  Cs  Cs2  1  0.815394  0.846692  0.436035  1
  K  K3  1  0.895925  0.315649  0.404358  1
  K  K4  1  0.610583  0.360340  0.475202  1
  K  K5  1  0.111257  0.640599  0.024996  1
  K  K6  1  0.387555  0.640484  0.525417  1
  K  K7  1  0.890661  0.359822  0.974775  1
  K  K8  1  0.606800  0.313930  0.904908  1
  K  K9  1  0.107101  0.685039  0.595745  1
  K  K10  1  0.392828  0.686431  0.094651  1
  K  K11  1  0.188415  0.148869  0.572597  1
  Al  Al12  1  0.563262  0.051319  0.343317  1
  Al  Al13  1  0.432406  0.954416  0.655296  1
  Al  Al14  1  0.936095  0.051542  0.841159  1
  Ga  Ga15  1  0.067703  0.942569  0.159391  1
  Te  Te16  1  0.403896  0.188892  0.362364  1
  Te  Te17  1  0.906931  0.816281  0.135527  1
  Te  Te18  1  0.590907  0.814471  0.637565  1
  Te  Te19  1  0.096422  0.179193  0.858737  1
  Te  Te20  1  0.687749  0.317036  0.202114  1
  Te  Te21  1  0.189754  0.664281  0.306094  1
  Te  Te22  1  0.304631  0.696565  0.792113  1
  Te  Te23  1  0.810848  0.317839  0.702107  1
  Te  Te24  1  0.551619  0.859801  0.237752  1
  Te  Te25  1  0.056090  0.140846  0.261527  1
  Te  Te26  1  0.446809  0.143421  0.762501  1
  Te  Te27  1  0.950687  0.861900  0.734111  1
