# generated using pymatgen
data_LaTh7(Pt2Pb)4
_symmetry_space_group_name_H-M   'P 1'
_cell_length_a   8.05815800
_cell_length_b   8.05815882
_cell_length_c   7.57006900
_cell_angle_alpha   90.00000000
_cell_angle_beta   90.00000000
_cell_angle_gamma   90.22260215
_symmetry_Int_Tables_number   1
_chemical_formula_structural   LaTh7(Pt2Pb)4
_chemical_formula_sum   'La1 Th7 Pt8 Pb4'
_cell_volume   491.55052176
_cell_formula_units_Z   1
loop_
 _symmetry_equiv_pos_site_id
 _symmetry_equiv_pos_as_xyz
  1  'x, y, z'
loop_
 _atom_site_type_symbol
 _atom_site_label
 _atom_site_symmetry_multiplicity
 _atom_site_fract_x
 _atom_site_fract_y
 _atom_site_fract_z
 _atom_site_occupancy
  La  La0  1  0.170198  0.829802  0.000000  1
  Th  Th1  1  0.675969  0.676052  0.000000  1
  Th  Th2  1  0.332399  0.331010  0.500000  1
  Th  Th3  1  0.823649  0.176351  0.500000  1
  Th  Th4  1  0.668990  0.667601  0.500000  1
  Th  Th5  1  0.323948  0.324031  0.000000  1
  Th  Th6  1  0.174945  0.825055  0.500000  1
  Th  Th7  1  0.833737  0.166263  0.000000  1
  Pt  Pt8  1  0.868227  0.874993  0.737533  1
  Pt  Pt9  1  0.125007  0.131773  0.737533  1
  Pt  Pt10  1  0.629160  0.370840  0.760312  1
  Pt  Pt11  1  0.629160  0.370840  0.239688  1
  Pt  Pt12  1  0.376660  0.623340  0.248386  1
  Pt  Pt13  1  0.125007  0.131773  0.262467  1
  Pt  Pt14  1  0.868227  0.874993  0.262467  1
  Pt  Pt15  1  0.376660  0.623340  0.751614  1
  Pb  Pb16  1  0.498168  0.999141  0.750914  1
  Pb  Pb17  1  0.498168  0.999141  0.249086  1
  Pb  Pb18  1  0.000859  0.501832  0.750914  1
  Pb  Pb19  1  0.000859  0.501832  0.249086  1
