# generated using pymatgen
data_Tb3YGa18(NiIr2)2
_symmetry_space_group_name_H-M   'P 1'
_cell_length_a   7.55967426
_cell_length_b   7.55952271
_cell_length_c   9.46005704
_cell_angle_alpha   90.00517958
_cell_angle_beta   90.00522778
_cell_angle_gamma   119.99632163
_symmetry_Int_Tables_number   1
_chemical_formula_structural   Tb3YGa18(NiIr2)2
_chemical_formula_sum   'Tb3 Y1 Ga18 Ni2 Ir4'
_cell_volume   468.20703471
_cell_formula_units_Z   1
loop_
 _symmetry_equiv_pos_site_id
 _symmetry_equiv_pos_as_xyz
  1  'x, y, z'
loop_
 _atom_site_type_symbol
 _atom_site_label
 _atom_site_symmetry_multiplicity
 _atom_site_fract_x
 _atom_site_fract_y
 _atom_site_fract_z
 _atom_site_occupancy
  Tb  Tb0  1  0.003839  0.337542  0.750041  1
  Tb  Tb1  1  0.662422  0.996281  0.249959  1
  Tb  Tb2  1  0.337557  0.003837  0.750041  1
  Y  Y3  1  0.996275  0.662420  0.249966  1
  Ga  Ga4  1  0.113243  0.113293  0.249995  1
  Ga  Ga5  1  0.886690  0.886679  0.750004  1
  Ga  Ga6  1  0.999528  0.328248  0.077924  1
  Ga  Ga7  1  0.000554  0.671728  0.921860  1
  Ga  Ga8  1  0.000547  0.671720  0.578150  1
  Ga  Ga9  1  0.328130  0.999467  0.422059  1
  Ga  Ga10  1  0.999535  0.328255  0.422067  1
  Ga  Ga11  1  0.671735  0.000518  0.578169  1
  Ga  Ga12  1  0.671747  0.000522  0.921840  1
  Ga  Ga13  1  0.328117  0.999462  0.077932  1
  Ga  Ga14  1  0.327601  0.327604  0.564644  1
  Ga  Ga15  1  0.672439  0.672389  0.435564  1
  Ga  Ga16  1  0.672439  0.672391  0.064430  1
  Ga  Ga17  1  0.327602  0.327602  0.935361  1
  Ga  Ga18  1  0.337412  0.541234  0.249996  1
  Ga  Ga19  1  0.662547  0.458746  0.750004  1
  Ga  Ga20  1  0.541179  0.337284  0.249996  1
  Ga  Ga21  1  0.458727  0.662550  0.750004  1
  Ni  Ni22  1  0.999983  0.000032  0.000102  1
  Ni  Ni23  1  0.999977  0.000027  0.499894  1
  Ir  Ir24  1  0.671517  0.328544  0.000122  1
  Ir  Ir25  1  0.328569  0.671540  0.000117  1
  Ir  Ir26  1  0.328553  0.671556  0.499884  1
  Ir  Ir27  1  0.671533  0.328528  0.499877  1
