# generated using pymatgen
data_Rb2Ho5LuF20
_symmetry_space_group_name_H-M   'P 1'
_cell_length_a   8.20919166
_cell_length_b   8.20919156
_cell_length_c   8.23127200
_cell_angle_alpha   59.91098477
_cell_angle_beta   59.91098515
_cell_angle_gamma   60.17802786
_symmetry_Int_Tables_number   1
_chemical_formula_structural   Rb2Ho5LuF20
_chemical_formula_sum   'Rb2 Ho5 Lu1 F20'
_cell_volume   392.23507952
_cell_formula_units_Z   1
loop_
 _symmetry_equiv_pos_site_id
 _symmetry_equiv_pos_as_xyz
  1  'x, y, z'
loop_
 _atom_site_type_symbol
 _atom_site_label
 _atom_site_symmetry_multiplicity
 _atom_site_fract_x
 _atom_site_fract_y
 _atom_site_fract_z
 _atom_site_occupancy
  Rb  Rb0  1  0.750283  0.750283  0.749717  1
  Rb  Rb1  1  0.250283  0.250283  0.249717  1
  Ho  Ho2  1  0.240745  0.759745  0.240255  1
  Ho  Ho3  1  0.759745  0.240745  0.240255  1
  Ho  Ho4  1  0.240745  0.759745  0.759255  1
  Ho  Ho5  1  0.240575  0.240575  0.759425  1
  Ho  Ho6  1  0.759745  0.240745  0.759255  1
  Lu  Lu7  1  0.759611  0.759611  0.240389  1
  F  F8  1  0.830040  0.170131  0.499914  1
  F  F9  1  0.499985  0.170234  0.829766  1
  F  F10  1  0.827745  0.504069  0.172255  1
  F  F11  1  0.499985  0.170234  0.500015  1
  F  F12  1  0.827745  0.504069  0.495931  1
  F  F13  1  0.170234  0.499985  0.829766  1
  F  F14  1  0.504069  0.827745  0.495931  1
  F  F15  1  0.500086  0.500086  0.169960  1
  F  F16  1  0.889261  0.331541  0.889598  1
  F  F17  1  0.110402  0.110402  0.668459  1
  F  F18  1  0.669723  0.106404  0.111937  1
  F  F19  1  0.110402  0.110402  0.110739  1
  F  F20  1  0.331541  0.889261  0.889598  1
  F  F21  1  0.888063  0.888063  0.893596  1
  F  F22  1  0.888063  0.888063  0.330277  1
  F  F23  1  0.106404  0.669723  0.111937  1
  F  F24  1  0.170131  0.830040  0.499914  1
  F  F25  1  0.504069  0.827745  0.172255  1
  F  F26  1  0.170234  0.499985  0.500015  1
  F  F27  1  0.500086  0.500086  0.829869  1
