# generated using pymatgen
data_Cs2ScSeO4F3
_symmetry_space_group_name_H-M   'P 1'
_cell_length_a   12.53802300
_cell_length_b   7.94313600
_cell_length_c   9.87674164
_cell_angle_alpha   87.44460041
_cell_angle_beta   90.00000000
_cell_angle_gamma   90.00000000
_symmetry_Int_Tables_number   1
_chemical_formula_structural   Cs2ScSeO4F3
_chemical_formula_sum   'Cs8 Sc4 Se4 O16 F12'
_cell_volume   982.65861880
_cell_formula_units_Z   4
loop_
 _symmetry_equiv_pos_site_id
 _symmetry_equiv_pos_as_xyz
  1  'x, y, z'
loop_
 _atom_site_type_symbol
 _atom_site_label
 _atom_site_symmetry_multiplicity
 _atom_site_fract_x
 _atom_site_fract_y
 _atom_site_fract_z
 _atom_site_occupancy
  Cs  Cs0  1  0.196364  0.797981  0.336861  1
  Cs  Cs1  1  0.696364  0.202019  0.163139  1
  Cs  Cs2  1  0.803636  0.202019  0.663139  1
  Cs  Cs3  1  0.303636  0.797981  0.836861  1
  Cs  Cs4  1  0.304411  0.296494  0.167186  1
  Cs  Cs5  1  0.804411  0.703506  0.332814  1
  Cs  Cs6  1  0.695589  0.703506  0.832814  1
  Cs  Cs7  1  0.195589  0.296494  0.667186  1
  Sc  Sc8  1  0.000000  0.500000  0.000000  1
  Sc  Sc9  1  0.500000  0.500000  0.500000  1
  Sc  Sc10  1  0.000000  0.000000  0.000000  1
  Sc  Sc11  1  0.500000  0.000000  0.500000  1
  Se  Se12  1  0.000137  0.242776  0.295662  1
  Se  Se13  1  0.500137  0.757224  0.204338  1
  Se  Se14  1  0.999863  0.757224  0.704338  1
  Se  Se15  1  0.499863  0.242776  0.795662  1
  O  O16  1  0.452976  0.911122  0.303499  1
  O  O17  1  0.952976  0.088878  0.196501  1
  O  O18  1  0.547024  0.088878  0.696501  1
  O  O19  1  0.047024  0.911122  0.803499  1
  O  O20  1  0.053456  0.399047  0.193121  1
  O  O21  1  0.553456  0.600953  0.306879  1
  O  O22  1  0.946544  0.600953  0.806879  1
  O  O23  1  0.446544  0.399047  0.693121  1
  O  O24  1  0.897927  0.317666  0.380826  1
  O  O25  1  0.397927  0.682334  0.119174  1
  O  O26  1  0.102073  0.682334  0.619174  1
  O  O27  1  0.602073  0.317666  0.880826  1
  O  O28  1  0.098229  0.167774  0.393291  1
  O  O29  1  0.598229  0.832226  0.106709  1
  O  O30  1  0.901771  0.832226  0.606709  1
  O  O31  1  0.401771  0.167774  0.893291  1
  F  F32  1  0.347254  0.520644  0.445300  1
  F  F33  1  0.847254  0.479356  0.054700  1
  F  F34  1  0.652746  0.479356  0.554700  1
  F  F35  1  0.152746  0.520644  0.945300  1
  F  F36  1  0.153836  0.017330  0.047847  1
  F  F37  1  0.653836  0.982670  0.452153  1
  F  F38  1  0.846164  0.982670  0.952153  1
  F  F39  1  0.346164  0.017330  0.547847  1
  F  F40  1  0.000794  0.746820  0.074018  1
  F  F41  1  0.500794  0.253180  0.425982  1
  F  F42  1  0.999206  0.253180  0.925982  1
  F  F43  1  0.499206  0.746820  0.574018  1
