# generated using pymatgen
data_Sc4Si7MoPt9
_symmetry_space_group_name_H-M   'P 1'
_cell_length_a   9.90123954
_cell_length_b   9.92491619
_cell_length_c   3.92423400
_cell_angle_alpha   90.00000000
_cell_angle_beta   90.00000000
_cell_angle_gamma   119.52648474
_symmetry_Int_Tables_number   1
_chemical_formula_structural   Sc4Si7MoPt9
_chemical_formula_sum   'Sc4 Si7 Mo1 Pt9'
_cell_volume   335.54783972
_cell_formula_units_Z   1
loop_
 _symmetry_equiv_pos_site_id
 _symmetry_equiv_pos_as_xyz
  1  'x, y, z'
loop_
 _atom_site_type_symbol
 _atom_site_label
 _atom_site_symmetry_multiplicity
 _atom_site_fract_x
 _atom_site_fract_y
 _atom_site_fract_z
 _atom_site_occupancy
  Sc  Sc0  1  0.877762  0.104482  0.499998  1
  Sc  Sc1  1  0.901439  0.775136  0.499998  1
  Sc  Sc2  1  0.334842  0.660686  0.000000  1
  Sc  Sc3  1  0.666048  0.336916  0.499998  1
  Si  Si4  1  0.284912  0.403899  0.499998  1
  Si  Si5  1  0.575449  0.863906  0.499998  1
  Si  Si6  1  0.144068  0.712861  0.499998  1
  Si  Si7  1  0.415499  0.117462  0.000000  1
  Si  Si8  1  0.882144  0.310559  0.000000  1
  Si  Si9  1  0.689085  0.575602  0.000000  1
  Si  Si10  1  0.013875  0.005737  0.000000  1
  Mo  Mo11  1  0.217431  0.123458  0.499998  1
  Pt  Pt12  1  0.053851  0.445506  0.499998  1
  Pt  Pt13  1  0.549858  0.606815  0.499998  1
  Pt  Pt14  1  0.393546  0.952794  0.499998  1
  Pt  Pt15  1  0.117881  0.281495  0.000000  1
  Pt  Pt16  1  0.725430  0.843653  0.000000  1
  Pt  Pt17  1  0.163329  0.872691  0.000000  1
  Pt  Pt18  1  0.433361  0.360560  0.000000  1
  Pt  Pt19  1  0.639809  0.080546  0.000000  1
  Pt  Pt20  1  0.920381  0.565242  0.000000  1
