# generated using pymatgen
data_V(S8Br)3
_symmetry_space_group_name_H-M   'P 1'
_cell_length_a   15.19107425
_cell_length_b   15.19107454
_cell_length_c   15.19107333
_cell_angle_alpha   118.78459049
_cell_angle_beta   118.78459334
_cell_angle_gamma   118.78459220
_symmetry_Int_Tables_number   1
_chemical_formula_structural   V(S8Br)3
_chemical_formula_sum   'V1 S24 Br3'
_cell_volume   998.53169160
_cell_formula_units_Z   1
loop_
 _symmetry_equiv_pos_site_id
 _symmetry_equiv_pos_as_xyz
  1  'x, y, z'
loop_
 _atom_site_type_symbol
 _atom_site_label
 _atom_site_symmetry_multiplicity
 _atom_site_fract_x
 _atom_site_fract_y
 _atom_site_fract_z
 _atom_site_occupancy
  V  V0  1  0.883844  0.883844  0.883844  1
  S  S1  1  0.804519  0.521475  0.521475  1
  S  S2  1  0.521475  0.521475  0.804519  1
  S  S3  1  0.521475  0.804519  0.521475  1
  S  S4  1  0.243211  0.371976  0.632713  1
  S  S5  1  0.357778  0.955437  0.357778  1
  S  S6  1  0.357778  0.357778  0.955437  1
  S  S7  1  0.955437  0.357778  0.357778  1
  S  S8  1  0.127795  0.739260  0.256315  1
  S  S9  1  0.256315  0.127795  0.739260  1
  S  S10  1  0.739260  0.256315  0.127795  1
  S  S11  1  0.739260  0.127795  0.256315  1
  S  S12  1  0.256315  0.739260  0.127795  1
  S  S13  1  0.127795  0.256315  0.739260  1
  S  S14  1  0.350208  0.881432  0.532029  1
  S  S15  1  0.532029  0.350208  0.881432  1
  S  S16  1  0.881432  0.532029  0.350208  1
  S  S17  1  0.881432  0.350208  0.532029  1
  S  S18  1  0.532029  0.881432  0.350208  1
  S  S19  1  0.350208  0.532029  0.881432  1
  S  S20  1  0.243211  0.632713  0.371976  1
  S  S21  1  0.371976  0.243211  0.632713  1
  S  S22  1  0.632713  0.371976  0.243211  1
  S  S23  1  0.632713  0.243211  0.371976  1
  S  S24  1  0.371976  0.632713  0.243211  1
  Br  Br25  1  0.850098  0.001507  0.001507  1
  Br  Br26  1  0.001507  0.001507  0.850098  1
  Br  Br27  1  0.001507  0.850098  0.001507  1
