# generated using pymatgen
data_Sr2HoSi5PPd20
_symmetry_space_group_name_H-M   'P 1'
_cell_length_a   8.78111554
_cell_length_b   8.77578013
_cell_length_c   8.77578062
_cell_angle_alpha   60.04022565
_cell_angle_beta   59.97988043
_cell_angle_gamma   59.97988522
_symmetry_Int_Tables_number   1
_chemical_formula_structural   Sr2HoSi5PPd20
_chemical_formula_sum   'Sr2 Ho1 Si5 P1 Pd20'
_cell_volume   478.19588642
_cell_formula_units_Z   1
loop_
 _symmetry_equiv_pos_site_id
 _symmetry_equiv_pos_as_xyz
  1  'x, y, z'
loop_
 _atom_site_type_symbol
 _atom_site_label
 _atom_site_symmetry_multiplicity
 _atom_site_fract_x
 _atom_site_fract_y
 _atom_site_fract_z
 _atom_site_occupancy
  Sr  Sr0  1  0.249784  0.250216  0.250216  1
  Sr  Sr1  1  0.749784  0.750216  0.750216  1
  Ho  Ho2  1  0.000952  0.999048  0.999048  1
  Si  Si3  1  0.267657  0.732343  0.732343  1
  Si  Si4  1  0.266736  0.733264  0.267788  1
  Si  Si5  1  0.732212  0.267788  0.733264  1
  Si  Si6  1  0.266736  0.267788  0.733264  1
  Si  Si7  1  0.732212  0.733264  0.267788  1
  P  P8  1  0.733578  0.266422  0.266422  1
  Pd  Pd9  1  0.388067  0.386131  0.386131  1
  Pd  Pd10  1  0.613643  0.613463  0.613463  1
  Pd  Pd11  1  0.386537  0.386357  0.840571  1
  Pd  Pd12  1  0.386537  0.840571  0.386357  1
  Pd  Pd13  1  0.613869  0.611933  0.160327  1
  Pd  Pd14  1  0.613869  0.160327  0.611933  1
  Pd  Pd15  1  0.839673  0.386131  0.386131  1
  Pd  Pd16  1  0.159429  0.613463  0.613463  1
  Pd  Pd17  1  0.343838  0.999795  0.999795  1
  Pd  Pd18  1  0.656571  0.999795  0.999795  1
  Pd  Pd19  1  0.000205  0.343429  0.656162  1
  Pd  Pd20  1  0.000205  0.656162  0.343429  1
  Pd  Pd21  1  0.998617  0.342943  0.001383  1
  Pd  Pd22  1  0.657057  0.001383  0.342943  1
  Pd  Pd23  1  0.000026  0.656747  0.999974  1
  Pd  Pd24  1  0.343253  0.999974  0.656747  1
  Pd  Pd25  1  0.998617  0.001383  0.342943  1
  Pd  Pd26  1  0.000026  0.999974  0.656747  1
  Pd  Pd27  1  0.657057  0.342943  0.001383  1
  Pd  Pd28  1  0.343253  0.656747  0.999974  1
