# generated using pymatgen
data_Zr10Ni2(BiPb)3
_symmetry_space_group_name_H-M   'P 1'
_cell_length_a   8.82455000
_cell_length_b   8.82225905
_cell_length_c   5.90434800
_cell_angle_alpha   90.00000000
_cell_angle_beta   90.00000000
_cell_angle_gamma   120.00859047
_symmetry_Int_Tables_number   1
_chemical_formula_structural   Zr10Ni2(BiPb)3
_chemical_formula_sum   'Zr10 Ni2 Bi3 Pb3'
_cell_volume   398.04974680
_cell_formula_units_Z   1
loop_
 _symmetry_equiv_pos_site_id
 _symmetry_equiv_pos_as_xyz
  1  'x, y, z'
loop_
 _atom_site_type_symbol
 _atom_site_label
 _atom_site_symmetry_multiplicity
 _atom_site_fract_x
 _atom_site_fract_y
 _atom_site_fract_z
 _atom_site_occupancy
  Zr  Zr0  1  0.332876  0.666563  0.000727  1
  Zr  Zr1  1  0.666314  0.333437  0.499273  1
  Zr  Zr2  1  0.666314  0.333437  0.000727  1
  Zr  Zr3  1  0.332876  0.666563  0.499273  1
  Zr  Zr4  1  0.248470  0.000000  0.250000  1
  Zr  Zr5  1  0.248375  0.247634  0.750000  1
  Zr  Zr6  1  0.000741  0.752366  0.750000  1
  Zr  Zr7  1  0.000737  0.249686  0.250000  1
  Zr  Zr8  1  0.751051  0.750314  0.250000  1
  Zr  Zr9  1  0.751251  0.000000  0.750000  1
  Ni  Ni10  1  0.001419  0.000000  0.000982  1
  Ni  Ni11  1  0.001419  0.000000  0.499018  1
  Bi  Bi12  1  0.608763  0.000000  0.250000  1
  Bi  Bi13  1  0.608603  0.608462  0.750000  1
  Bi  Bi14  1  0.000143  0.391538  0.750000  1
  Pb  Pb15  1  0.999971  0.609762  0.250000  1
  Pb  Pb16  1  0.390209  0.390238  0.250000  1
  Pb  Pb17  1  0.390470  0.000000  0.750000  1
