# generated using pymatgen
data_CsMn6O12
_symmetry_space_group_name_H-M   'P 1'
_cell_length_a   8.44015828
_cell_length_b   8.44015832
_cell_length_c   8.44015850
_cell_angle_alpha   105.99729044
_cell_angle_beta   105.99729030
_cell_angle_gamma   116.66775934
_symmetry_Int_Tables_number   1
_chemical_formula_structural   CsMn6O12
_chemical_formula_sum   'Cs2 Mn12 O24'
_cell_volume   457.29694277
_cell_formula_units_Z   2
loop_
 _symmetry_equiv_pos_site_id
 _symmetry_equiv_pos_as_xyz
  1  'x, y, z'
loop_
 _atom_site_type_symbol
 _atom_site_label
 _atom_site_symmetry_multiplicity
 _atom_site_fract_x
 _atom_site_fract_y
 _atom_site_fract_z
 _atom_site_occupancy
  Cs  Cs0  1  0.707852  0.707852  0.000000  1
  Cs  Cs1  1  0.292148  0.292148  0.000000  1
  Mn  Mn2  1  0.663533  0.847608  0.511139  1
  Mn  Mn3  1  0.818471  0.329579  0.815483  1
  Mn  Mn4  1  0.485904  0.997011  0.815483  1
  Mn  Mn5  1  0.514096  0.002989  0.184517  1
  Mn  Mn6  1  0.670421  0.485904  0.488893  1
  Mn  Mn7  1  0.336467  0.152392  0.488861  1
  Mn  Mn8  1  0.329579  0.514096  0.511107  1
  Mn  Mn9  1  0.997011  0.181529  0.511107  1
  Mn  Mn10  1  0.152392  0.663533  0.815925  1
  Mn  Mn11  1  0.181529  0.670421  0.184517  1
  Mn  Mn12  1  0.847608  0.336467  0.184075  1
  Mn  Mn13  1  0.002989  0.818471  0.488893  1
  O  O14  1  0.665503  0.040455  0.705956  1
  O  O15  1  0.323545  0.955915  0.948373  1
  O  O16  1  0.655979  0.292466  0.948445  1
  O  O17  1  0.707362  0.000108  0.373327  1
  O  O18  1  0.626782  0.334035  0.626673  1
  O  O19  1  0.292638  0.999892  0.626673  1
  O  O20  1  0.676455  0.044085  0.051627  1
  O  O21  1  0.665965  0.292638  0.292746  1
  O  O22  1  0.334497  0.959545  0.294044  1
  O  O23  1  0.624828  0.676455  0.632370  1
  O  O24  1  0.292466  0.344021  0.636487  1
  O  O25  1  0.955915  0.007542  0.632370  1
  O  O26  1  0.375172  0.323545  0.367630  1
  O  O27  1  0.044085  0.992458  0.367630  1
  O  O28  1  0.707534  0.655979  0.363513  1
  O  O29  1  0.334035  0.707362  0.707254  1
  O  O30  1  0.999892  0.373218  0.707254  1
  O  O31  1  0.992458  0.624828  0.948373  1
  O  O32  1  0.373218  0.665965  0.373327  1
  O  O33  1  0.040455  0.334497  0.374952  1
  O  O34  1  0.959545  0.665502  0.625048  1
  O  O35  1  0.344021  0.707534  0.051555  1
  O  O36  1  0.007542  0.375172  0.051627  1
  O  O37  1  0.000108  0.626782  0.292746  1
