# generated using pymatgen
data_YbPa2AlZn10
_symmetry_space_group_name_H-M   'P 1'
_cell_length_a   4.37295413
_cell_length_b   8.15225546
_cell_length_c   8.15225603
_cell_angle_alpha   68.37962493
_cell_angle_beta   74.44250154
_cell_angle_gamma   74.44250417
_symmetry_Int_Tables_number   1
_chemical_formula_structural   YbPa2AlZn10
_chemical_formula_sum   'Yb1 Pa2 Al1 Zn10'
_cell_volume   255.58033555
_cell_formula_units_Z   1
loop_
 _symmetry_equiv_pos_site_id
 _symmetry_equiv_pos_as_xyz
  1  'x, y, z'
loop_
 _atom_site_type_symbol
 _atom_site_label
 _atom_site_symmetry_multiplicity
 _atom_site_fract_x
 _atom_site_fract_y
 _atom_site_fract_z
 _atom_site_occupancy
  Yb  Yb0  1  0.000000  0.000000  0.000000  1
  Pa  Pa1  1  0.702333  0.297667  0.297667  1
  Pa  Pa2  1  0.297667  0.702333  0.702333  1
  Al  Al3  1  0.000000  0.500000  0.500000  1
  Zn  Zn4  1  0.500000  0.687594  0.312406  1
  Zn  Zn5  1  0.500000  0.312406  0.687594  1
  Zn  Zn6  1  0.659035  0.703654  0.978275  1
  Zn  Zn7  1  0.340965  0.296346  0.021725  1
  Zn  Zn8  1  0.659035  0.978275  0.703654  1
  Zn  Zn9  1  0.340965  0.021725  0.296346  1
  Zn  Zn10  1  0.857910  0.420738  0.863441  1
  Zn  Zn11  1  0.142090  0.579262  0.136559  1
  Zn  Zn12  1  0.857910  0.863441  0.420738  1
  Zn  Zn13  1  0.142090  0.136559  0.579262  1
