# generated using pymatgen
data_TbLuGa9NiIr2
_symmetry_space_group_name_H-M   'P 1'
_cell_length_a   7.53500945
_cell_length_b   7.53439219
_cell_length_c   9.41581400
_cell_angle_alpha   90.00000000
_cell_angle_beta   90.00000000
_cell_angle_gamma   120.03440206
_symmetry_Int_Tables_number   1
_chemical_formula_structural   TbLuGa9NiIr2
_chemical_formula_sum   'Tb2 Lu2 Ga18 Ni2 Ir4'
_cell_volume   462.77498010
_cell_formula_units_Z   2
loop_
 _symmetry_equiv_pos_site_id
 _symmetry_equiv_pos_as_xyz
  1  'x, y, z'
loop_
 _atom_site_type_symbol
 _atom_site_label
 _atom_site_symmetry_multiplicity
 _atom_site_fract_x
 _atom_site_fract_y
 _atom_site_fract_z
 _atom_site_occupancy
  Tb  Tb0  1  0.662373  0.996385  0.250000  1
  Tb  Tb1  1  0.337627  0.003615  0.750000  1
  Lu  Lu2  1  0.996383  0.661796  0.250000  1
  Lu  Lu3  1  0.003617  0.338204  0.750000  1
  Ga  Ga4  1  0.111838  0.111125  0.250000  1
  Ga  Ga5  1  0.888162  0.888875  0.750000  1
  Ga  Ga6  1  0.999529  0.329076  0.078239  1
  Ga  Ga7  1  0.000471  0.670924  0.921761  1
  Ga  Ga8  1  0.000471  0.670924  0.578239  1
  Ga  Ga9  1  0.326170  0.998114  0.420859  1
  Ga  Ga10  1  0.999529  0.329076  0.421761  1
  Ga  Ga11  1  0.673830  0.001886  0.579141  1
  Ga  Ga12  1  0.673830  0.001886  0.920859  1
  Ga  Ga13  1  0.326170  0.998114  0.079141  1
  Ga  Ga14  1  0.325762  0.327044  0.565841  1
  Ga  Ga15  1  0.674238  0.672956  0.434159  1
  Ga  Ga16  1  0.674238  0.672956  0.065841  1
  Ga  Ga17  1  0.325762  0.327044  0.934159  1
  Ga  Ga18  1  0.336523  0.540845  0.250000  1
  Ga  Ga19  1  0.663477  0.459155  0.750000  1
  Ga  Ga20  1  0.542104  0.338253  0.250000  1
  Ga  Ga21  1  0.457896  0.661747  0.750000  1
  Ni  Ni22  1  0.000000  0.000000  0.000000  1
  Ni  Ni23  1  0.000000  0.000000  0.500000  1
  Ir  Ir24  1  0.672158  0.328711  0.000058  1
  Ir  Ir25  1  0.327842  0.671289  0.999942  1
  Ir  Ir26  1  0.327842  0.671289  0.500058  1
  Ir  Ir27  1  0.672158  0.328711  0.499942  1
