# generated using pymatgen
data_Ac2Sn5Pd3
_symmetry_space_group_name_H-M   'P 1'
_cell_length_a   6.74057464
_cell_length_b   9.30793753
_cell_length_c   9.30793757
_cell_angle_alpha   73.96116275
_cell_angle_beta   68.77155485
_cell_angle_gamma   68.77154783
_symmetry_Int_Tables_number   1
_chemical_formula_structural   Ac2Sn5Pd3
_chemical_formula_sum   'Ac4 Sn10 Pd6'
_cell_volume   500.28944877
_cell_formula_units_Z   2
loop_
 _symmetry_equiv_pos_site_id
 _symmetry_equiv_pos_as_xyz
  1  'x, y, z'
loop_
 _atom_site_type_symbol
 _atom_site_label
 _atom_site_symmetry_multiplicity
 _atom_site_fract_x
 _atom_site_fract_y
 _atom_site_fract_z
 _atom_site_occupancy
  Ac  Ac0  1  0.632748  0.102185  0.632321  1
  Ac  Ac1  1  0.367252  0.897815  0.367679  1
  Ac  Ac2  1  0.132748  0.632321  0.102185  1
  Ac  Ac3  1  0.867252  0.367679  0.897815  1
  Sn  Sn4  1  0.484204  0.265796  0.265796  1
  Sn  Sn5  1  0.515796  0.734204  0.734204  1
  Sn  Sn6  1  0.015796  0.734204  0.734204  1
  Sn  Sn7  1  0.984204  0.265796  0.265796  1
  Sn  Sn8  1  0.900059  0.755033  0.444849  1
  Sn  Sn9  1  0.099941  0.244967  0.555151  1
  Sn  Sn10  1  0.400059  0.444849  0.755033  1
  Sn  Sn11  1  0.599941  0.555151  0.244967  1
  Sn  Sn12  1  0.750000  0.000000  0.000000  1
  Sn  Sn13  1  0.250000  0.000000  0.000000  1
  Pd  Pd14  1  0.863817  0.024534  0.247832  1
  Pd  Pd15  1  0.136183  0.975466  0.752168  1
  Pd  Pd16  1  0.363817  0.247832  0.024534  1
  Pd  Pd17  1  0.636183  0.752168  0.975466  1
  Pd  Pd18  1  0.750000  0.500000  0.500000  1
  Pd  Pd19  1  0.250000  0.500000  0.500000  1
