# generated using pymatgen
data_Lu2HfZr(Al3Rh)6
_symmetry_space_group_name_H-M   'P 1'
_cell_length_a   7.49366320
_cell_length_b   7.48508889
_cell_length_c   9.31425400
_cell_angle_alpha   90.00000000
_cell_angle_beta   90.00000000
_cell_angle_gamma   119.64902338
_symmetry_Int_Tables_number   1
_chemical_formula_structural   Lu2HfZr(Al3Rh)6
_chemical_formula_sum   'Lu2 Hf1 Zr1 Al18 Rh6'
_cell_volume   454.04088270
_cell_formula_units_Z   1
loop_
 _symmetry_equiv_pos_site_id
 _symmetry_equiv_pos_as_xyz
  1  'x, y, z'
loop_
 _atom_site_type_symbol
 _atom_site_label
 _atom_site_symmetry_multiplicity
 _atom_site_fract_x
 _atom_site_fract_y
 _atom_site_fract_z
 _atom_site_occupancy
  Lu  Lu0  1  0.671222  0.993658  0.250000  1
  Lu  Lu1  1  0.328746  0.006449  0.750000  1
  Hf  Hf2  1  0.004621  0.327380  0.750000  1
  Zr  Zr3  1  0.994847  0.671548  0.250000  1
  Al  Al4  1  0.125141  0.123666  0.250000  1
  Al  Al5  1  0.874414  0.876140  0.750000  1
  Al  Al6  1  0.998837  0.336801  0.076275  1
  Al  Al7  1  0.001250  0.663045  0.923739  1
  Al  Al8  1  0.001250  0.663045  0.576261  1
  Al  Al9  1  0.333191  0.998011  0.421302  1
  Al  Al10  1  0.998837  0.336801  0.423725  1
  Al  Al11  1  0.666968  0.002082  0.579025  1
  Al  Al12  1  0.666968  0.002082  0.920975  1
  Al  Al13  1  0.333191  0.998011  0.078698  1
  Al  Al14  1  0.330824  0.333066  0.556773  1
  Al  Al15  1  0.669081  0.667042  0.443714  1
  Al  Al16  1  0.669081  0.667042  0.056286  1
  Al  Al17  1  0.330824  0.333066  0.943227  1
  Al  Al18  1  0.335404  0.549668  0.250000  1
  Al  Al19  1  0.664778  0.450604  0.750000  1
  Al  Al20  1  0.556153  0.342910  0.250000  1
  Al  Al21  1  0.443636  0.656674  0.750000  1
  Rh  Rh22  1  0.672623  0.326751  0.998623  1
  Rh  Rh23  1  0.327469  0.672687  0.000043  1
  Rh  Rh24  1  0.327469  0.672687  0.499957  1
  Rh  Rh25  1  0.672623  0.326751  0.501377  1
  Rh  Rh26  1  0.000277  0.001166  0.999057  1
  Rh  Rh27  1  0.000277  0.001166  0.500943  1
