# generated using pymatgen
data_Dy4Fe2OsRu5
_symmetry_space_group_name_H-M   'P 1'
_cell_length_a   5.30539614
_cell_length_b   5.14352194
_cell_length_c   8.91575100
_cell_angle_alpha   90.00000000
_cell_angle_beta   90.00000000
_cell_angle_gamma   119.98387076
_symmetry_Int_Tables_number   1
_chemical_formula_structural   Dy4Fe2OsRu5
_chemical_formula_sum   'Dy4 Fe2 Os1 Ru5'
_cell_volume   210.73542095
_cell_formula_units_Z   1
loop_
 _symmetry_equiv_pos_site_id
 _symmetry_equiv_pos_as_xyz
  1  'x, y, z'
loop_
 _atom_site_type_symbol
 _atom_site_label
 _atom_site_symmetry_multiplicity
 _atom_site_fract_x
 _atom_site_fract_y
 _atom_site_fract_z
 _atom_site_occupancy
  Dy  Dy0  1  0.671070  0.338428  0.565680  1
  Dy  Dy1  1  0.330952  0.666920  0.434562  1
  Dy  Dy2  1  0.330952  0.666920  0.065438  1
  Dy  Dy3  1  0.671070  0.338428  0.934320  1
  Fe  Fe4  1  0.164040  0.826582  0.750000  1
  Fe  Fe5  1  0.834545  0.668644  0.250000  1
  Os  Os6  1  0.165120  0.329431  0.750000  1
  Ru  Ru7  1  0.004358  0.002579  0.499749  1
  Ru  Ru8  1  0.004358  0.002579  0.000251  1
  Ru  Ru9  1  0.647707  0.818038  0.750000  1
  Ru  Ru10  1  0.828741  0.169541  0.250000  1
  Ru  Ru11  1  0.347084  0.171911  0.250000  1
