# generated using pymatgen
data_RbNaSe2O7
_symmetry_space_group_name_H-M   'P 1'
_cell_length_a   6.20333519
_cell_length_b   7.79892397
_cell_length_c   8.17240119
_cell_angle_alpha   101.21047657
_cell_angle_beta   90.35912143
_cell_angle_gamma   95.18990712
_symmetry_Int_Tables_number   1
_chemical_formula_structural   RbNaSe2O7
_chemical_formula_sum   'Rb2 Na2 Se4 O14'
_cell_volume   386.12632333
_cell_formula_units_Z   2
loop_
 _symmetry_equiv_pos_site_id
 _symmetry_equiv_pos_as_xyz
  1  'x, y, z'
loop_
 _atom_site_type_symbol
 _atom_site_label
 _atom_site_symmetry_multiplicity
 _atom_site_fract_x
 _atom_site_fract_y
 _atom_site_fract_z
 _atom_site_occupancy
  Rb  Rb0  1  0.221002  0.775403  0.427983  1
  Rb  Rb1  1  0.778998  0.224597  0.572017  1
  Na  Na2  1  0.797805  0.354840  0.100972  1
  Na  Na3  1  0.202196  0.645160  0.899028  1
  Se  Se4  1  0.722151  0.827943  0.097719  1
  Se  Se5  1  0.288718  0.277557  0.305651  1
  Se  Se6  1  0.711281  0.722443  0.694349  1
  Se  Se7  1  0.277850  0.172057  0.902281  1
  O  O8  1  0.262126  0.112687  0.110414  1
  O  O9  1  0.911552  0.691794  0.104004  1
  O  O10  1  0.476173  0.733418  0.110382  1
  O  O11  1  0.772884  0.024715  0.212671  1
  O  O12  1  0.526636  0.389824  0.305288  1
  O  O13  1  0.082536  0.397691  0.305552  1
  O  O14  1  0.269606  0.151341  0.445349  1
  O  O15  1  0.730395  0.848659  0.554651  1
  O  O16  1  0.917464  0.602309  0.694448  1
  O  O17  1  0.473365  0.610176  0.694713  1
  O  O18  1  0.227115  0.975285  0.787329  1
  O  O19  1  0.523827  0.266582  0.889618  1
  O  O20  1  0.088449  0.308206  0.895996  1
  O  O21  1  0.737875  0.887314  0.889586  1
