# generated using pymatgen
data_Pr11Nd(GeBr3)4
_symmetry_space_group_name_H-M   'P 1'
_cell_length_a   10.55904368
_cell_length_b   10.55314385
_cell_length_c   10.55658129
_cell_angle_alpha   109.42498044
_cell_angle_beta   109.49290830
_cell_angle_gamma   109.47972352
_symmetry_Int_Tables_number   1
_chemical_formula_structural   Pr11Nd(GeBr3)4
_chemical_formula_sum   'Pr11 Nd1 Ge4 Br12'
_cell_volume   905.71949149
_cell_formula_units_Z   1
loop_
 _symmetry_equiv_pos_site_id
 _symmetry_equiv_pos_as_xyz
  1  'x, y, z'
loop_
 _atom_site_type_symbol
 _atom_site_label
 _atom_site_symmetry_multiplicity
 _atom_site_fract_x
 _atom_site_fract_y
 _atom_site_fract_z
 _atom_site_occupancy
  Pr  Pr0  1  0.750127  0.239320  0.260816  1
  Pr  Pr1  1  0.750127  0.010807  0.489311  1
  Pr  Pr2  1  0.239248  0.478386  0.489359  1
  Pr  Pr3  1  0.260879  0.750098  0.239151  1
  Pr  Pr4  1  0.021587  0.260794  0.010794  1
  Pr  Pr5  1  0.011298  0.021912  0.260861  1
  Pr  Pr6  1  0.489169  0.749941  0.010810  1
  Pr  Pr7  1  0.489169  0.239227  0.478359  1
  Pr  Pr8  1  0.011298  0.489386  0.750437  1
  Pr  Pr9  1  0.260879  0.010781  0.021728  1
  Pr  Pr10  1  0.239248  0.260862  0.749889  1
  Nd  Nd11  1  0.476825  0.488412  0.238412  1
  Ge  Ge12  1  0.250669  0.250756  0.250009  1
  Ge  Ge13  1  0.500252  0.000127  0.250127  1
  Ge  Ge14  1  0.999983  0.249992  0.499992  1
  Ge  Ge15  1  0.250669  0.499914  0.000660  1
  Br  Br16  1  0.250172  0.753815  0.746362  1
  Br  Br17  1  0.507469  0.503735  0.753735  1
  Br  Br18  1  0.992669  0.746334  0.996334  1
  Br  Br19  1  0.746408  0.249993  0.753696  1
  Br  Br20  1  0.996495  0.992754  0.746458  1
  Br  Br21  1  0.250172  0.996357  0.503810  1
  Br  Br22  1  0.752201  0.507120  0.502015  1
  Br  Br23  1  0.503941  0.252156  0.998387  1
  Br  Br24  1  0.752201  0.745081  0.250187  1
  Br  Br25  1  0.746408  0.996415  0.992713  1
  Br  Br26  1  0.996495  0.503742  0.250037  1
  Br  Br27  1  0.503941  0.751785  0.505553  1
