# generated using pymatgen
data_Sm2Al9Pd2Ru
_symmetry_space_group_name_H-M   'P 1'
_cell_length_a   7.61223500
_cell_length_b   7.61223375
_cell_length_c   9.51305700
_cell_angle_alpha   90.00000000
_cell_angle_beta   90.00000000
_cell_angle_gamma   119.43795911
_symmetry_Int_Tables_number   1
_chemical_formula_structural   Sm2Al9Pd2Ru
_chemical_formula_sum   'Sm4 Al18 Pd4 Ru2'
_cell_volume   480.07258187
_cell_formula_units_Z   2
loop_
 _symmetry_equiv_pos_site_id
 _symmetry_equiv_pos_as_xyz
  1  'x, y, z'
loop_
 _atom_site_type_symbol
 _atom_site_label
 _atom_site_symmetry_multiplicity
 _atom_site_fract_x
 _atom_site_fract_y
 _atom_site_fract_z
 _atom_site_occupancy
  Sm  Sm0  1  0.994625  0.668564  0.250000  1
  Sm  Sm1  1  0.005375  0.331436  0.750000  1
  Sm  Sm2  1  0.668564  0.994626  0.250000  1
  Sm  Sm3  1  0.331436  0.005374  0.750000  1
  Al  Al4  1  0.125073  0.125073  0.250000  1
  Al  Al5  1  0.874927  0.874927  0.750000  1
  Al  Al6  1  0.001269  0.329117  0.075697  1
  Al  Al7  1  0.998731  0.670883  0.924303  1
  Al  Al8  1  0.998731  0.670883  0.575697  1
  Al  Al9  1  0.329117  0.001269  0.424303  1
  Al  Al10  1  0.001269  0.329117  0.424303  1
  Al  Al11  1  0.670883  0.998731  0.575697  1
  Al  Al12  1  0.670883  0.998731  0.924303  1
  Al  Al13  1  0.329117  0.001269  0.075697  1
  Al  Al14  1  0.328787  0.328787  0.551864  1
  Al  Al15  1  0.671213  0.671213  0.448136  1
  Al  Al16  1  0.671213  0.671213  0.051864  1
  Al  Al17  1  0.328787  0.328787  0.948136  1
  Al  Al18  1  0.342367  0.545705  0.250000  1
  Al  Al19  1  0.657633  0.454295  0.750000  1
  Al  Al20  1  0.545705  0.342367  0.250000  1
  Al  Al21  1  0.454295  0.657633  0.750000  1
  Pd  Pd22  1  0.671900  0.328100  0.000000  1
  Pd  Pd23  1  0.328100  0.671900  0.000000  1
  Pd  Pd24  1  0.328100  0.671900  0.500000  1
  Pd  Pd25  1  0.671900  0.328100  0.500000  1
  Ru  Ru26  1  0.000000  0.000000  0.000000  1
  Ru  Ru27  1  0.000000  0.000000  0.500000  1
