# generated using pymatgen
data_MnBi3RuRh3O14
_symmetry_space_group_name_H-M   'P 1'
_cell_length_a   7.34993007
_cell_length_b   7.21893778
_cell_length_c   7.34992864
_cell_angle_alpha   59.16353419
_cell_angle_beta   59.70437499
_cell_angle_gamma   59.16352940
_symmetry_Int_Tables_number   1
_chemical_formula_structural   MnBi3RuRh3O14
_chemical_formula_sum   'Mn1 Bi3 Ru1 Rh3 O14'
_cell_volume   271.62015408
_cell_formula_units_Z   1
loop_
 _symmetry_equiv_pos_site_id
 _symmetry_equiv_pos_as_xyz
  1  'x, y, z'
loop_
 _atom_site_type_symbol
 _atom_site_label
 _atom_site_symmetry_multiplicity
 _atom_site_fract_x
 _atom_site_fract_y
 _atom_site_fract_z
 _atom_site_occupancy
  Mn  Mn0  1  0.125000  0.625000  0.125000  1
  Bi  Bi1  1  0.125000  0.125000  0.625000  1
  Bi  Bi2  1  0.625000  0.125000  0.125000  1
  Bi  Bi3  1  0.125000  0.125000  0.125000  1
  Ru  Ru4  1  0.625000  0.625000  0.625000  1
  Rh  Rh5  1  0.625000  0.625000  0.125000  1
  Rh  Rh6  1  0.625000  0.125000  0.625000  1
  Rh  Rh7  1  0.125000  0.625000  0.625000  1
  O  O8  1  0.241134  0.277202  0.241134  1
  O  O9  1  0.008866  0.972798  0.008866  1
  O  O10  1  0.543358  0.956874  0.543358  1
  O  O11  1  0.290649  0.703525  0.290649  1
  O  O12  1  0.549353  0.545641  0.949525  1
  O  O13  1  0.949525  0.545641  0.549353  1
  O  O14  1  0.541980  0.961724  0.958819  1
  O  O15  1  0.958819  0.961724  0.541980  1
  O  O16  1  0.959351  0.546475  0.959351  1
  O  O17  1  0.708020  0.288276  0.291181  1
  O  O18  1  0.300475  0.704359  0.700647  1
  O  O19  1  0.706642  0.293126  0.706642  1
  O  O20  1  0.291181  0.288276  0.708020  1
  O  O21  1  0.700647  0.704359  0.300475  1
