# generated using pymatgen
data_Ti8Al14PIr7
_symmetry_space_group_name_H-M   'P 1'
_cell_length_a   8.63037428
_cell_length_b   8.63037481
_cell_length_c   8.63037431
_cell_angle_alpha   120.00676329
_cell_angle_beta   119.89208861
_cell_angle_gamma   90.08765056
_symmetry_Int_Tables_number   1
_chemical_formula_structural   Ti8Al14PIr7
_chemical_formula_sum   'Ti8 Al14 P1 Ir7'
_cell_volume   454.88820673
_cell_formula_units_Z   1
loop_
 _symmetry_equiv_pos_site_id
 _symmetry_equiv_pos_as_xyz
  1  'x, y, z'
loop_
 _atom_site_type_symbol
 _atom_site_label
 _atom_site_symmetry_multiplicity
 _atom_site_fract_x
 _atom_site_fract_y
 _atom_site_fract_z
 _atom_site_occupancy
  Ti  Ti0  1  0.802349  0.301059  0.097586  1
  Ti  Ti1  1  0.203472  0.301059  0.498710  1
  Ti  Ti2  1  0.198457  0.698457  0.500000  1
  Ti  Ti3  1  0.203472  0.704762  0.902414  1
  Ti  Ti4  1  0.802349  0.704762  0.501290  1
  Ti  Ti5  1  0.796637  0.296637  0.500000  1
  Ti  Ti6  1  0.379944  0.123014  0.743070  1
  Ti  Ti7  1  0.379944  0.636876  0.256930  1
  Al  Al8  1  0.159428  0.338427  0.178998  1
  Al  Al9  1  0.159428  0.980431  0.821002  1
  Al  Al10  1  0.155143  0.340386  0.814756  1
  Al  Al11  1  0.525629  0.340386  0.185244  1
  Al  Al12  1  0.839657  0.658940  0.819284  1
  Al  Al13  1  0.839657  0.020374  0.180716  1
  Al  Al14  1  0.837847  0.660162  0.177685  1
  Al  Al15  1  0.482477  0.660162  0.822315  1
  Al  Al16  1  0.380295  0.119927  0.260369  1
  Al  Al17  1  0.859558  0.119927  0.739631  1
  Al  Al18  1  0.620422  0.879920  0.259498  1
  Al  Al19  1  0.620422  0.360924  0.740502  1
  Al  Al20  1  0.621143  0.879464  0.741679  1
  Al  Al21  1  0.137784  0.879464  0.258321  1
  P  P22  1  0.998531  0.498531  0.500000  1
  Ir  Ir23  1  0.001620  0.999691  0.501217  1
  Ir  Ir24  1  0.498474  0.999691  0.998071  1
  Ir  Ir25  1  0.497460  0.497460  0.000000  1
  Ir  Ir26  1  0.498474  0.500403  0.498783  1
  Ir  Ir27  1  0.001620  0.500403  0.001929  1
  Ir  Ir28  1  0.000111  0.000111  0.000000  1
  Ir  Ir29  1  0.498188  0.998188  0.500000  1
