# generated using pymatgen
data_Ho4Er6Si16Pt
_symmetry_space_group_name_H-M   'P 1'
_cell_length_a   11.07103413
_cell_length_b   11.07998221
_cell_length_c   11.06904781
_cell_angle_alpha   144.75011442
_cell_angle_beta   136.60642740
_cell_angle_gamma   57.06684086
_symmetry_Int_Tables_number   1
_chemical_formula_structural   Ho4Er6Si16Pt
_chemical_formula_sum   'Ho4 Er6 Si16 Pt1'
_cell_volume   534.11581520
_cell_formula_units_Z   1
loop_
 _symmetry_equiv_pos_site_id
 _symmetry_equiv_pos_as_xyz
  1  'x, y, z'
loop_
 _atom_site_type_symbol
 _atom_site_label
 _atom_site_symmetry_multiplicity
 _atom_site_fract_x
 _atom_site_fract_y
 _atom_site_fract_z
 _atom_site_occupancy
  Ho  Ho0  1  0.849442  0.372021  0.019679  1
  Ho  Ho1  1  0.548493  0.563948  0.512317  1
  Ho  Ho2  1  0.248746  0.762713  0.010370  1
  Ho  Ho3  1  0.752323  0.762698  0.513957  1
  Er  Er4  1  0.051600  0.563919  0.015287  1
  Er  Er5  1  0.352265  0.372055  0.522571  1
  Er  Er6  1  0.151261  0.165917  0.520226  1
  Er  Er7  1  0.451613  0.963308  0.014456  1
  Er  Er8  1  0.645684  0.165915  0.014660  1
  Er  Er9  1  0.948878  0.963329  0.511710  1
  Si  Si10  1  0.118203  0.077362  0.959545  1
  Si  Si11  1  0.797754  0.184655  0.386979  1
  Si  Si12  1  0.299990  0.899246  0.598971  1
  Si  Si13  1  0.399702  0.500407  0.100371  1
  Si  Si14  1  0.886457  0.847655  0.961573  1
  Si  Si15  1  0.104390  0.709090  0.604967  1
  Si  Si16  1  0.200494  0.585894  0.385458  1
  Si  Si17  1  0.697253  0.292946  0.595574  1
  Si  Si18  1  0.000425  0.432871  0.432761  1
  Si  Si19  1  0.713466  0.666121  0.952882  1
  Si  Si20  1  0.600370  0.703301  0.102582  1
  Si  Si21  1  0.001416  0.087607  0.086428  1
  Si  Si22  1  0.500678  0.391946  0.890814  1
  Si  Si23  1  0.285705  0.241159  0.954956  1
  Si  Si24  1  0.582340  0.041554  0.458814  1
  Si  Si25  1  0.414346  0.870058  0.455551  1
  Pt  Pt26  1  0.896705  0.501226  0.605455  1
