# generated using pymatgen
data_Ho10Er3Th3(MgNi)4
_symmetry_space_group_name_H-M   'P 1'
_cell_length_a   9.62042175
_cell_length_b   9.63148385
_cell_length_c   9.63162580
_cell_angle_alpha   59.76089702
_cell_angle_beta   59.85486803
_cell_angle_gamma   59.85508709
_symmetry_Int_Tables_number   1
_chemical_formula_structural   Ho10Er3Th3(MgNi)4
_chemical_formula_sum   'Ho10 Er3 Th3 Mg4 Ni4'
_cell_volume   628.53427612
_cell_formula_units_Z   1
loop_
 _symmetry_equiv_pos_site_id
 _symmetry_equiv_pos_as_xyz
  1  'x, y, z'
loop_
 _atom_site_type_symbol
 _atom_site_label
 _atom_site_symmetry_multiplicity
 _atom_site_fract_x
 _atom_site_fract_y
 _atom_site_fract_z
 _atom_site_occupancy
  Ho  Ho0  1  0.187788  0.813234  0.186831  1
  Ho  Ho1  1  0.813496  0.186684  0.812468  1
  Ho  Ho2  1  0.187785  0.186829  0.813231  1
  Ho  Ho3  1  0.813488  0.812469  0.186692  1
  Ho  Ho4  1  0.936026  0.566721  0.566729  1
  Ho  Ho5  1  0.565023  0.934038  0.934035  1
  Ho  Ho6  1  0.566386  0.934611  0.566349  1
  Ho  Ho7  1  0.934863  0.566040  0.932626  1
  Ho  Ho8  1  0.566391  0.566348  0.934610  1
  Ho  Ho9  1  0.934869  0.932633  0.566037  1
  Er  Er10  1  0.957673  0.347435  0.347429  1
  Er  Er11  1  0.812992  0.187728  0.187747  1
  Er  Er12  1  0.186824  0.813953  0.813899  1
  Th  Th13  1  0.341979  0.347085  0.347074  1
  Th  Th14  1  0.341709  0.347751  0.961470  1
  Th  Th15  1  0.341725  0.961466  0.347732  1
  Mg  Mg16  1  0.581428  0.579478  0.579485  1
  Mg  Mg17  1  0.581828  0.579123  0.259222  1
  Mg  Mg18  1  0.581823  0.259223  0.579129  1
  Mg  Mg19  1  0.259195  0.579889  0.579886  1
  Ni  Ni20  1  0.145980  0.141017  0.141025  1
  Ni  Ni21  1  0.145260  0.141222  0.571815  1
  Ni  Ni22  1  0.145265  0.571790  0.141253  1
  Ni  Ni23  1  0.570205  0.143237  0.143222  1
