# generated using pymatgen
data_Ca3Nd5(CdIr)2
_symmetry_space_group_name_H-M   'P 1'
_cell_length_a   10.02404868
_cell_length_b   10.02404877
_cell_length_c   10.02404900
_cell_angle_alpha   60.00000253
_cell_angle_beta   60.00000224
_cell_angle_gamma   60.00000559
_symmetry_Int_Tables_number   1
_chemical_formula_structural   Ca3Nd5(CdIr)2
_chemical_formula_sum   'Ca6 Nd10 Cd4 Ir4'
_cell_volume   712.22063929
_cell_formula_units_Z   2
loop_
 _symmetry_equiv_pos_site_id
 _symmetry_equiv_pos_as_xyz
  1  'x, y, z'
loop_
 _atom_site_type_symbol
 _atom_site_label
 _atom_site_symmetry_multiplicity
 _atom_site_fract_x
 _atom_site_fract_y
 _atom_site_fract_z
 _atom_site_occupancy
  Ca  Ca0  1  0.942006  0.557994  0.557994  1
  Ca  Ca1  1  0.557994  0.942006  0.942006  1
  Ca  Ca2  1  0.557994  0.942006  0.557994  1
  Ca  Ca3  1  0.942006  0.557994  0.942006  1
  Ca  Ca4  1  0.557994  0.557994  0.942006  1
  Ca  Ca5  1  0.942006  0.942006  0.557994  1
  Nd  Nd6  1  0.346094  0.346094  0.346094  1
  Nd  Nd7  1  0.346094  0.346094  0.961718  1
  Nd  Nd8  1  0.346094  0.961718  0.346094  1
  Nd  Nd9  1  0.961718  0.346094  0.346094  1
  Nd  Nd10  1  0.807074  0.192926  0.192926  1
  Nd  Nd11  1  0.192926  0.807074  0.807074  1
  Nd  Nd12  1  0.192926  0.807074  0.192926  1
  Nd  Nd13  1  0.807074  0.192926  0.807074  1
  Nd  Nd14  1  0.192926  0.192926  0.807074  1
  Nd  Nd15  1  0.807074  0.807074  0.192926  1
  Cd  Cd16  1  0.578445  0.578445  0.578445  1
  Cd  Cd17  1  0.578445  0.578445  0.264662  1
  Cd  Cd18  1  0.578445  0.264662  0.578445  1
  Cd  Cd19  1  0.264662  0.578445  0.578445  1
  Ir  Ir20  1  0.140200  0.140200  0.140200  1
  Ir  Ir21  1  0.140200  0.140200  0.579402  1
  Ir  Ir22  1  0.140200  0.579402  0.140200  1
  Ir  Ir23  1  0.579402  0.140200  0.140200  1
