# generated using pymatgen
data_Dy3HoGa2(SiNi2)2
_symmetry_space_group_name_H-M   'P 1'
_cell_length_a   4.20485200
_cell_length_b   6.86498883
_cell_length_c   7.24223934
_cell_angle_alpha   91.04181412
_cell_angle_beta   90.00000000
_cell_angle_gamma   90.00000000
_symmetry_Int_Tables_number   1
_chemical_formula_structural   Dy3HoGa2(SiNi2)2
_chemical_formula_sum   'Dy3 Ho1 Ga2 Si2 Ni4'
_cell_volume   209.02181971
_cell_formula_units_Z   1
loop_
 _symmetry_equiv_pos_site_id
 _symmetry_equiv_pos_as_xyz
  1  'x, y, z'
loop_
 _atom_site_type_symbol
 _atom_site_label
 _atom_site_symmetry_multiplicity
 _atom_site_fract_x
 _atom_site_fract_y
 _atom_site_fract_z
 _atom_site_occupancy
  Dy  Dy0  1  0.750000  0.014418  0.296248  1
  Dy  Dy1  1  0.250000  0.985593  0.703741  1
  Dy  Dy2  1  0.250000  0.487845  0.803779  1
  Ho  Ho3  1  0.750000  0.512222  0.196544  1
  Ga  Ga4  1  0.750000  0.684196  0.582308  1
  Ga  Ga5  1  0.250000  0.315933  0.417261  1
  Si  Si6  1  0.250000  0.812207  0.085233  1
  Si  Si7  1  0.750000  0.187748  0.914983  1
  Ni  Ni8  1  0.750000  0.812065  0.923204  1
  Ni  Ni9  1  0.250000  0.187952  0.077092  1
  Ni  Ni10  1  0.250000  0.707628  0.400132  1
  Ni  Ni11  1  0.750000  0.292193  0.599475  1
