# generated using pymatgen
data_Zr6BeZn(As2Ru3)2
_symmetry_space_group_name_H-M   'P 1'
_cell_length_a   7.69730465
_cell_length_b   7.69850672
_cell_length_c   7.69730556
_cell_angle_alpha   128.39250758
_cell_angle_beta   121.23518494
_cell_angle_gamma   81.97109963
_symmetry_Int_Tables_number   1
_chemical_formula_structural   Zr6BeZn(As2Ru3)2
_chemical_formula_sum   'Zr6 Be1 Zn1 As4 Ru6'
_cell_volume   294.14211026
_cell_formula_units_Z   1
loop_
 _symmetry_equiv_pos_site_id
 _symmetry_equiv_pos_as_xyz
  1  'x, y, z'
loop_
 _atom_site_type_symbol
 _atom_site_label
 _atom_site_symmetry_multiplicity
 _atom_site_fract_x
 _atom_site_fract_y
 _atom_site_fract_z
 _atom_site_occupancy
  Zr  Zr0  1  0.449004  0.652661  0.703657  1
  Zr  Zr1  1  0.544890  0.252682  0.207793  1
  Zr  Zr2  1  0.749902  0.853543  0.603640  1
  Zr  Zr3  1  0.249937  0.839451  0.089514  1
  Zr  Zr4  1  0.051396  0.254631  0.703235  1
  Zr  Zr5  1  0.954926  0.662423  0.207496  1
  Be  Be6  1  0.749799  0.258007  0.008209  1
  Zn  Zn7  1  0.250425  0.244675  0.494251  1
  As  As8  1  0.333952  0.587165  0.254663  1
  As  As9  1  0.667509  0.920717  0.254890  1
  As  As10  1  0.165827  0.920717  0.753207  1
  As  As11  1  0.832501  0.587165  0.753214  1
  Ru  Ru12  1  0.519385  0.493980  0.013506  1
  Ru  Ru13  1  0.980475  0.493980  0.474595  1
  Ru  Ru14  1  0.096353  0.254766  0.110386  1
  Ru  Ru15  1  0.856345  0.014136  0.111140  1
  Ru  Ru16  1  0.402995  0.014136  0.657791  1
  Ru  Ru17  1  0.644379  0.254766  0.658412  1
