# generated using pymatgen
data_Ba9SrSi5Pb
_symmetry_space_group_name_H-M   'P 1'
_cell_length_a   10.45384433
_cell_length_b   10.45384453
_cell_length_c   10.45384371
_cell_angle_alpha   131.97088574
_cell_angle_beta   131.97089034
_cell_angle_gamma   70.27501108
_symmetry_Int_Tables_number   1
_chemical_formula_structural   Ba9SrSi5Pb
_chemical_formula_sum   'Ba9 Sr1 Si5 Pb1'
_cell_volume   618.93202772
_cell_formula_units_Z   1
loop_
 _symmetry_equiv_pos_site_id
 _symmetry_equiv_pos_as_xyz
  1  'x, y, z'
loop_
 _atom_site_type_symbol
 _atom_site_label
 _atom_site_symmetry_multiplicity
 _atom_site_fract_x
 _atom_site_fract_y
 _atom_site_fract_z
 _atom_site_occupancy
  Ba  Ba0  1  0.550292  0.031949  0.861640  1
  Ba  Ba1  1  0.170308  0.688652  0.138360  1
  Ba  Ba2  1  0.031949  0.170308  0.481658  1
  Ba  Ba3  1  0.688652  0.550292  0.518342  1
  Ba  Ba4  1  0.471506  0.946239  0.138357  1
  Ba  Ba5  1  0.807882  0.333148  0.861643  1
  Ba  Ba6  1  0.946239  0.807882  0.474732  1
  Ba  Ba7  1  0.333148  0.471506  0.525268  1
  Ba  Ba8  1  0.015522  0.015522  0.000000  1
  Sr  Sr9  1  0.485635  0.485635  0.000000  1
  Si  Si10  1  0.750618  0.750618  0.000000  1
  Si  Si11  1  0.895214  0.400208  0.296089  1
  Si  Si12  1  0.104119  0.599126  0.703911  1
  Si  Si13  1  0.400208  0.104119  0.504993  1
  Si  Si14  1  0.599126  0.895214  0.495007  1
  Pb  Pb15  1  0.249584  0.249584  0.000000  1
