# generated using pymatgen
data_Dy4Mn4Co9Ni7P12
_symmetry_space_group_name_H-M   'P 1'
_cell_length_a   3.68387100
_cell_length_b   10.34026194
_cell_length_c   11.85766807
_cell_angle_alpha   89.95117357
_cell_angle_beta   90.00000000
_cell_angle_gamma   90.00000000
_symmetry_Int_Tables_number   1
_chemical_formula_structural   Dy4Mn4Co9Ni7P12
_chemical_formula_sum   'Dy4 Mn4 Co9 Ni7 P12'
_cell_volume   451.68439422
_cell_formula_units_Z   1
loop_
 _symmetry_equiv_pos_site_id
 _symmetry_equiv_pos_as_xyz
  1  'x, y, z'
loop_
 _atom_site_type_symbol
 _atom_site_label
 _atom_site_symmetry_multiplicity
 _atom_site_fract_x
 _atom_site_fract_y
 _atom_site_fract_z
 _atom_site_occupancy
  Dy  Dy0  1  0.250000  0.582618  0.705112  1
  Dy  Dy1  1  0.250000  0.917013  0.205483  1
  Dy  Dy2  1  0.750000  0.418059  0.295397  1
  Dy  Dy3  1  0.750000  0.082328  0.794751  1
  Mn  Mn4  1  0.250000  0.709554  0.987519  1
  Mn  Mn5  1  0.250000  0.791229  0.486591  1
  Mn  Mn6  1  0.750000  0.290383  0.012861  1
  Mn  Mn7  1  0.750000  0.210251  0.512358  1
  Co  Co8  1  0.750000  0.722307  0.323885  1
  Co  Co9  1  0.250000  0.881593  0.698670  1
  Co  Co10  1  0.250000  0.617613  0.198461  1
  Co  Co11  1  0.750000  0.117480  0.301084  1
  Co  Co12  1  0.750000  0.381885  0.801185  1
  Co  Co13  1  0.250000  0.466544  0.932807  1
  Co  Co14  1  0.250000  0.033026  0.432390  1
  Co  Co15  1  0.750000  0.533796  0.067515  1
  Co  Co16  1  0.750000  0.966975  0.567260  1
  Ni  Ni17  1  0.250000  0.407927  0.487310  1
  Ni  Ni18  1  0.250000  0.093004  0.987758  1
  Ni  Ni19  1  0.750000  0.592846  0.512460  1
  Ni  Ni20  1  0.750000  0.906755  0.012377  1
  Ni  Ni21  1  0.250000  0.222714  0.176766  1
  Ni  Ni22  1  0.250000  0.277021  0.676687  1
  Ni  Ni23  1  0.750000  0.777058  0.823064  1
  P  P24  1  0.250000  0.423087  0.113073  1
  P  P25  1  0.250000  0.076664  0.612343  1
  P  P26  1  0.750000  0.576975  0.887295  1
  P  P27  1  0.750000  0.919644  0.387158  1
  P  P28  1  0.250000  0.271552  0.868038  1
  P  P29  1  0.250000  0.228040  0.368161  1
  P  P30  1  0.750000  0.728296  0.134997  1
  P  P31  1  0.750000  0.771722  0.631108  1
  P  P32  1  0.250000  0.605085  0.387853  1
  P  P33  1  0.250000  0.898886  0.889515  1
  P  P34  1  0.750000  0.399339  0.610149  1
  P  P35  1  0.750000  0.100731  0.110561  1
