# generated using pymatgen
data_PrYLu2(MoN3)4
_symmetry_space_group_name_H-M   'P 1'
_cell_length_a   7.19736953
_cell_length_b   7.19736805
_cell_length_c   6.13417896
_cell_angle_alpha   75.75959162
_cell_angle_beta   75.75958627
_cell_angle_gamma   82.37245931
_symmetry_Int_Tables_number   1
_chemical_formula_structural   PrYLu2(MoN3)4
_chemical_formula_sum   'Pr1 Y1 Lu2 Mo4 N12'
_cell_volume   297.65168460
_cell_formula_units_Z   1
loop_
 _symmetry_equiv_pos_site_id
 _symmetry_equiv_pos_as_xyz
  1  'x, y, z'
loop_
 _atom_site_type_symbol
 _atom_site_label
 _atom_site_symmetry_multiplicity
 _atom_site_fract_x
 _atom_site_fract_y
 _atom_site_fract_z
 _atom_site_occupancy
  Pr  Pr0  1  0.690175  0.309825  0.250000  1
  Y  Y1  1  0.305358  0.694642  0.750000  1
  Lu  Lu2  1  0.919408  0.080592  0.750000  1
  Lu  Lu3  1  0.087674  0.912326  0.250000  1
  Mo  Mo4  1  0.803740  0.618964  0.744799  1
  Mo  Mo5  1  0.194584  0.382787  0.251177  1
  Mo  Mo6  1  0.617213  0.805416  0.248823  1
  Mo  Mo7  1  0.381036  0.196260  0.755201  1
  N  N8  1  0.217829  0.995947  0.857479  1
  N  N9  1  0.341976  0.372485  0.479828  1
  N  N10  1  0.647703  0.626835  0.525674  1
  N  N11  1  0.623693  0.105993  0.668384  1
  N  N12  1  0.004053  0.782171  0.642521  1
  N  N13  1  0.790494  0.995132  0.142387  1
  N  N14  1  0.099066  0.623558  0.158602  1
  N  N15  1  0.894007  0.376307  0.831616  1
  N  N16  1  0.004868  0.209506  0.357613  1
  N  N17  1  0.373165  0.352297  0.974326  1
  N  N18  1  0.627515  0.658024  0.020172  1
  N  N19  1  0.376442  0.900934  0.341398  1
