# generated using pymatgen
data_Th6CoPd6Rh
_symmetry_space_group_name_H-M   'P 1'
_cell_length_a   8.09721323
_cell_length_b   8.09721473
_cell_length_c   8.09721204
_cell_angle_alpha   114.45625124
_cell_angle_beta   114.45624786
_cell_angle_gamma   114.45624609
_symmetry_Int_Tables_number   1
_chemical_formula_structural   Th6CoPd6Rh
_chemical_formula_sum   'Th6 Co1 Pd6 Rh1'
_cell_volume   311.33233017
_cell_formula_units_Z   1
loop_
 _symmetry_equiv_pos_site_id
 _symmetry_equiv_pos_as_xyz
  1  'x, y, z'
loop_
 _atom_site_type_symbol
 _atom_site_label
 _atom_site_symmetry_multiplicity
 _atom_site_fract_x
 _atom_site_fract_y
 _atom_site_fract_z
 _atom_site_occupancy
  Th  Th0  1  0.391295  0.032707  0.272998  1
  Th  Th1  1  0.032707  0.272998  0.391295  1
  Th  Th2  1  0.272998  0.391295  0.032707  1
  Th  Th3  1  0.608705  0.967293  0.727002  1
  Th  Th4  1  0.967293  0.727002  0.608705  1
  Th  Th5  1  0.727002  0.608705  0.967293  1
  Co  Co6  1  0.000000  0.000000  0.000000  1
  Pd  Pd7  1  0.234693  0.071029  0.577215  1
  Pd  Pd8  1  0.071029  0.577215  0.234693  1
  Pd  Pd9  1  0.577215  0.234693  0.071029  1
  Pd  Pd10  1  0.765307  0.928971  0.422785  1
  Pd  Pd11  1  0.928971  0.422785  0.765307  1
  Pd  Pd12  1  0.422785  0.765307  0.928971  1
  Rh  Rh13  1  0.500000  0.500000  0.500000  1
