# generated using pymatgen
data_HfNpN2
_symmetry_space_group_name_H-M   'P 1'
_cell_length_a   5.89449173
_cell_length_b   5.89449132
_cell_length_c   5.89449087
_cell_angle_alpha   32.21353750
_cell_angle_beta   32.21354602
_cell_angle_gamma   32.21354611
_symmetry_Int_Tables_number   1
_chemical_formula_structural   HfNpN2
_chemical_formula_sum   'Hf1 Np1 N2'
_cell_volume   51.72715275
_cell_formula_units_Z   1
loop_
 _symmetry_equiv_pos_site_id
 _symmetry_equiv_pos_as_xyz
  1  'x, y, z'
loop_
 _atom_site_type_symbol
 _atom_site_label
 _atom_site_symmetry_multiplicity
 _atom_site_fract_x
 _atom_site_fract_y
 _atom_site_fract_z
 _atom_site_occupancy
  Hf  Hf0  1  0.500000  0.500000  0.500000  1
  Np  Np1  1  0.000000  0.000000  0.000000  1
  N  N2  1  0.241502  0.241502  0.241502  1
  N  N3  1  0.758498  0.758498  0.758498  1
