# generated using pymatgen
data_Dy2Er2Ni13C4
_symmetry_space_group_name_H-M   'P 1'
_cell_length_a   3.84861100
_cell_length_b   8.37245690
_cell_length_c   8.37245700
_cell_angle_alpha   91.17722366
_cell_angle_beta   90.00000000
_cell_angle_gamma   90.00000000
_symmetry_Int_Tables_number   1
_chemical_formula_structural   Dy2Er2Ni13C4
_chemical_formula_sum   'Dy2 Er2 Ni13 C4'
_cell_volume   269.72312760
_cell_formula_units_Z   1
loop_
 _symmetry_equiv_pos_site_id
 _symmetry_equiv_pos_as_xyz
  1  'x, y, z'
loop_
 _atom_site_type_symbol
 _atom_site_label
 _atom_site_symmetry_multiplicity
 _atom_site_fract_x
 _atom_site_fract_y
 _atom_site_fract_z
 _atom_site_occupancy
  Dy  Dy0  1  0.500000  0.652065  0.652065  1
  Dy  Dy1  1  0.500000  0.347935  0.347935  1
  Er  Er2  1  0.500000  0.187282  0.812718  1
  Er  Er3  1  0.500000  0.812718  0.187282  1
  Ni  Ni4  1  0.500000  0.000000  0.500000  1
  Ni  Ni5  1  0.500000  0.500000  0.000000  1
  Ni  Ni6  1  0.000000  0.000000  0.000000  1
  Ni  Ni7  1  0.000000  0.784607  0.429354  1
  Ni  Ni8  1  0.000000  0.215393  0.570646  1
  Ni  Ni9  1  0.000000  0.570646  0.215393  1
  Ni  Ni10  1  0.000000  0.429354  0.784607  1
  Ni  Ni11  1  0.000000  0.927120  0.709331  1
  Ni  Ni12  1  0.000000  0.072880  0.290669  1
  Ni  Ni13  1  0.000000  0.290669  0.072880  1
  Ni  Ni14  1  0.000000  0.709331  0.927120  1
  Ni  Ni15  1  0.500000  0.877682  0.877682  1
  Ni  Ni16  1  0.500000  0.122318  0.122318  1
  C  C17  1  0.000000  0.556986  0.443014  1
  C  C18  1  0.000000  0.443014  0.556986  1
  C  C19  1  0.000000  0.000000  0.500000  1
  C  C20  1  0.000000  0.500000  0.000000  1
