# generated using pymatgen
data_LiNd6(RuC4)3
_symmetry_space_group_name_H-M   'P 1'
_cell_length_a   8.44850600
_cell_length_b   8.44850492
_cell_length_c   5.24622300
_cell_angle_alpha   90.00000000
_cell_angle_beta   90.00000000
_cell_angle_gamma   120.00001204
_symmetry_Int_Tables_number   1
_chemical_formula_structural   LiNd6(RuC4)3
_chemical_formula_sum   'Li1 Nd6 Ru3 C12'
_cell_volume   324.29264912
_cell_formula_units_Z   1
loop_
 _symmetry_equiv_pos_site_id
 _symmetry_equiv_pos_as_xyz
  1  'x, y, z'
loop_
 _atom_site_type_symbol
 _atom_site_label
 _atom_site_symmetry_multiplicity
 _atom_site_fract_x
 _atom_site_fract_y
 _atom_site_fract_z
 _atom_site_occupancy
  Li  Li0  1  0.000000  0.000000  0.500000  1
  Nd  Nd1  1  0.619530  0.687504  0.743559  1
  Nd  Nd2  1  0.932026  0.619530  0.256441  1
  Nd  Nd3  1  0.687504  0.067974  0.256441  1
  Nd  Nd4  1  0.312496  0.932026  0.743559  1
  Nd  Nd5  1  0.067974  0.380470  0.743559  1
  Nd  Nd6  1  0.380470  0.312496  0.256441  1
  Ru  Ru7  1  0.000000  0.000000  0.000000  1
  Ru  Ru8  1  0.666667  0.333333  0.746511  1
  Ru  Ru9  1  0.333333  0.666667  0.253489  1
  C  C10  1  0.965430  0.766017  0.765367  1
  C  C11  1  0.199415  0.965430  0.234633  1
  C  C12  1  0.766017  0.800585  0.234633  1
  C  C13  1  0.233983  0.199415  0.765367  1
  C  C14  1  0.800585  0.034570  0.765367  1
  C  C15  1  0.034570  0.233983  0.234633  1
  C  C16  1  0.867837  0.584309  0.759402  1
  C  C17  1  0.283528  0.867837  0.240598  1
  C  C18  1  0.584309  0.716472  0.240598  1
  C  C19  1  0.415691  0.283528  0.759402  1
  C  C20  1  0.132163  0.415691  0.240598  1
  C  C21  1  0.716472  0.132163  0.759402  1
