# generated using pymatgen
data_SrVCu(Sb6Os)2
_symmetry_space_group_name_H-M   'P 1'
_cell_length_a   8.26473836
_cell_length_b   8.16149676
_cell_length_c   8.25965961
_cell_angle_alpha   109.29180526
_cell_angle_beta   109.45915510
_cell_angle_gamma   109.67006226
_symmetry_Int_Tables_number   1
_chemical_formula_structural   SrVCu(Sb6Os)2
_chemical_formula_sum   'Sr1 V1 Cu1 Sb12 Os2'
_cell_volume   428.84085963
_cell_formula_units_Z   1
loop_
 _symmetry_equiv_pos_site_id
 _symmetry_equiv_pos_as_xyz
  1  'x, y, z'
loop_
 _atom_site_type_symbol
 _atom_site_label
 _atom_site_symmetry_multiplicity
 _atom_site_fract_x
 _atom_site_fract_y
 _atom_site_fract_z
 _atom_site_occupancy
  Sr  Sr0  1  0.000000  0.000000  0.000000  1
  V  V1  1  0.000000  0.500000  0.000000  1
  Cu  Cu2  1  0.500000  0.000000  0.000000  1
  Sb  Sb3  1  0.840735  0.660132  0.504303  1
  Sb  Sb4  1  0.159265  0.339868  0.495697  1
  Sb  Sb5  1  0.153228  0.653777  0.807898  1
  Sb  Sb6  1  0.846772  0.346223  0.192102  1
  Sb  Sb7  1  0.658044  0.501246  0.838604  1
  Sb  Sb8  1  0.341956  0.498754  0.161396  1
  Sb  Sb9  1  0.661745  0.811970  0.160115  1
  Sb  Sb10  1  0.338255  0.188030  0.839885  1
  Sb  Sb11  1  0.500565  0.842888  0.653120  1
  Sb  Sb12  1  0.499435  0.157112  0.346880  1
  Sb  Sb13  1  0.180236  0.843236  0.342043  1
  Sb  Sb14  1  0.819764  0.156764  0.657957  1
  Os  Os15  1  0.500000  0.500000  0.500000  1
  Os  Os16  1  0.000000  0.000000  0.500000  1
