# generated using pymatgen
data_Ho3Th11OsRu5
_symmetry_space_group_name_H-M   'P 1'
_cell_length_a   9.82200465
_cell_length_b   9.89507977
_cell_length_c   6.39591656
_cell_angle_alpha   90.08103644
_cell_angle_beta   89.85693798
_cell_angle_gamma   120.21528917
_symmetry_Int_Tables_number   1
_chemical_formula_structural   Ho3Th11OsRu5
_chemical_formula_sum   'Ho3 Th11 Os1 Ru5'
_cell_volume   537.16195357
_cell_formula_units_Z   1
loop_
 _symmetry_equiv_pos_site_id
 _symmetry_equiv_pos_as_xyz
  1  'x, y, z'
loop_
 _atom_site_type_symbol
 _atom_site_label
 _atom_site_symmetry_multiplicity
 _atom_site_fract_x
 _atom_site_fract_y
 _atom_site_fract_z
 _atom_site_occupancy
  Ho  Ho0  1  0.461273  0.537640  0.296085  1
  Ho  Ho1  1  0.073587  0.536818  0.300801  1
  Ho  Ho2  1  0.926199  0.462500  0.801483  1
  Th  Th3  1  0.249809  0.126818  0.509958  1
  Th  Th4  1  0.542585  0.083342  0.795459  1
  Th  Th5  1  0.747594  0.874587  0.012539  1
  Th  Th6  1  0.666664  0.333312  0.277684  1
  Th  Th7  1  0.125979  0.870960  0.008870  1
  Th  Th8  1  0.458776  0.916504  0.296449  1
  Th  Th9  1  0.538218  0.463052  0.798958  1
  Th  Th10  1  0.876490  0.129167  0.511769  1
  Th  Th11  1  0.124618  0.253255  0.013965  1
  Th  Th12  1  0.873510  0.746916  0.508804  1
  Th  Th13  1  0.333821  0.666029  0.773457  1
  Os  Os14  1  0.812019  0.627752  0.051199  1
  Ru  Ru15  1  0.815152  0.182319  0.045848  1
  Ru  Ru16  1  0.631370  0.816556  0.545105  1
  Ru  Ru17  1  0.369766  0.187263  0.040606  1
  Ru  Ru18  1  0.183699  0.365905  0.551348  1
  Ru  Ru19  1  0.188872  0.819306  0.543609  1
