# generated using pymatgen
data_Tb5Dy3(TcB6)4
_symmetry_space_group_name_H-M   'P 1'
_cell_length_a   3.70143800
_cell_length_b   9.18093102
_cell_length_c   11.57024503
_cell_angle_alpha   90.00801272
_cell_angle_beta   90.00000000
_cell_angle_gamma   90.00000000
_symmetry_Int_Tables_number   1
_chemical_formula_structural   Tb5Dy3(TcB6)4
_chemical_formula_sum   'Tb5 Dy3 Tc4 B24'
_cell_volume   393.18754821
_cell_formula_units_Z   1
loop_
 _symmetry_equiv_pos_site_id
 _symmetry_equiv_pos_as_xyz
  1  'x, y, z'
loop_
 _atom_site_type_symbol
 _atom_site_label
 _atom_site_symmetry_multiplicity
 _atom_site_fract_x
 _atom_site_fract_y
 _atom_site_fract_z
 _atom_site_occupancy
  Tb  Tb0  1  0.000000  0.324161  0.414200  1
  Tb  Tb1  1  0.000000  0.675932  0.585859  1
  Tb  Tb2  1  0.000000  0.823866  0.085724  1
  Tb  Tb3  1  0.000000  0.176007  0.914102  1
  Tb  Tb4  1  0.000000  0.942492  0.369323  1
  Dy  Dy5  1  0.000000  0.057487  0.631042  1
  Dy  Dy6  1  0.000000  0.442699  0.130777  1
  Dy  Dy7  1  0.000000  0.557456  0.869151  1
  Tc  Tc8  1  0.000000  0.638440  0.320393  1
  Tc  Tc9  1  0.000000  0.361281  0.679666  1
  Tc  Tc10  1  0.000000  0.138970  0.179385  1
  Tc  Tc11  1  0.000000  0.861217  0.820462  1
  B  B12  1  0.500000  0.553358  0.432628  1
  B  B13  1  0.500000  0.446455  0.567405  1
  B  B14  1  0.500000  0.053514  0.067205  1
  B  B15  1  0.500000  0.946494  0.932608  1
  B  B16  1  0.500000  0.748104  0.418172  1
  B  B17  1  0.500000  0.251414  0.581820  1
  B  B18  1  0.500000  0.248742  0.081697  1
  B  B19  1  0.500000  0.751413  0.918187  1
  B  B20  1  0.500000  0.791218  0.265339  1
  B  B21  1  0.500000  0.208438  0.734602  1
  B  B22  1  0.500000  0.291823  0.234525  1
  B  B23  1  0.500000  0.708401  0.765456  1
  B  B24  1  0.500000  0.630653  0.185709  1
  B  B25  1  0.500000  0.369233  0.814248  1
  B  B26  1  0.500000  0.131122  0.314092  1
  B  B27  1  0.500000  0.869172  0.685831  1
  B  B28  1  0.500000  0.982765  0.211509  1
  B  B29  1  0.500000  0.017360  0.788262  1
  B  B30  1  0.500000  0.482561  0.288180  1
  B  B31  1  0.500000  0.517403  0.711778  1
  B  B32  1  0.500000  0.600181  0.028004  1
  B  B33  1  0.500000  0.399844  0.971967  1
  B  B34  1  0.500000  0.100819  0.472201  1
  B  B35  1  0.500000  0.899505  0.528489  1
