# generated using pymatgen
data_Pa2Ga(Ni10B3)2
_symmetry_space_group_name_H-M   'P 1'
_cell_length_a   7.57735644
_cell_length_b   7.57684166
_cell_length_c   7.57743001
_cell_angle_alpha   60.00120285
_cell_angle_beta   59.99529438
_cell_angle_gamma   60.00128550
_symmetry_Int_Tables_number   1
_chemical_formula_structural   Pa2Ga(Ni10B3)2
_chemical_formula_sum   'Pa2 Ga1 Ni20 B6'
_cell_volume   307.61363647
_cell_formula_units_Z   1
loop_
 _symmetry_equiv_pos_site_id
 _symmetry_equiv_pos_as_xyz
  1  'x, y, z'
loop_
 _atom_site_type_symbol
 _atom_site_label
 _atom_site_symmetry_multiplicity
 _atom_site_fract_x
 _atom_site_fract_y
 _atom_site_fract_z
 _atom_site_occupancy
  Pa  Pa0  1  0.250004  0.250039  0.250004  1
  Pa  Pa1  1  0.749995  0.749962  0.749996  1
  Ga  Ga2  1  0.000002  0.999999  0.000000  1
  Ni  Ni3  1  0.340242  0.000010  0.999986  1
  Ni  Ni4  1  0.000010  0.340235  0.659771  1
  Ni  Ni5  1  0.659757  0.999990  0.000015  1
  Ni  Ni6  1  0.999990  0.659762  0.340233  1
  Ni  Ni7  1  0.000004  0.340279  0.999999  1
  Ni  Ni8  1  0.999991  0.000015  0.340241  1
  Ni  Ni9  1  0.340287  0.999996  0.659726  1
  Ni  Ni10  1  0.340259  0.659745  0.999987  1
  Ni  Ni11  1  0.659715  0.000005  0.340271  1
  Ni  Ni12  1  0.000010  0.999985  0.659759  1
  Ni  Ni13  1  0.999996  0.659722  0.000001  1
  Ni  Ni14  1  0.659742  0.340254  0.000013  1
  Ni  Ni15  1  0.386792  0.386767  0.386772  1
  Ni  Ni16  1  0.386770  0.386783  0.839677  1
  Ni  Ni17  1  0.839663  0.386789  0.386763  1
  Ni  Ni18  1  0.386785  0.839682  0.386775  1
  Ni  Ni19  1  0.613207  0.613234  0.613228  1
  Ni  Ni20  1  0.613231  0.613217  0.160322  1
  Ni  Ni21  1  0.613214  0.160317  0.613226  1
  Ni  Ni22  1  0.160335  0.613213  0.613236  1
  B  B23  1  0.730876  0.730868  0.269133  1
  B  B24  1  0.269124  0.269132  0.730867  1
  B  B25  1  0.269130  0.730870  0.730875  1
  B  B26  1  0.730877  0.269133  0.730874  1
  B  B27  1  0.730870  0.269130  0.269124  1
  B  B28  1  0.269123  0.730868  0.269126  1
