# generated using pymatgen
data_Hf2Cl15
_symmetry_space_group_name_H-M   'P 1'
_cell_length_a   7.71353431
_cell_length_b   13.78851117
_cell_length_c   14.66293112
_cell_angle_alpha   101.67564899
_cell_angle_beta   110.70524499
_cell_angle_gamma   105.83052831
_symmetry_Int_Tables_number   1
_chemical_formula_structural   Hf2Cl15
_chemical_formula_sum   'Hf4 Cl30'
_cell_volume   1323.83883986
_cell_formula_units_Z   2
loop_
 _symmetry_equiv_pos_site_id
 _symmetry_equiv_pos_as_xyz
  1  'x, y, z'
loop_
 _atom_site_type_symbol
 _atom_site_label
 _atom_site_symmetry_multiplicity
 _atom_site_fract_x
 _atom_site_fract_y
 _atom_site_fract_z
 _atom_site_occupancy
  Hf  Hf0  1  0.711521  0.266397  0.280193  1
  Hf  Hf1  1  0.288479  0.733603  0.719807  1
  Hf  Hf2  1  0.867094  0.589474  0.415185  1
  Hf  Hf3  1  0.132906  0.410526  0.584815  1
  Cl  Cl4  1  0.775944  0.930015  0.509340  1
  Cl  Cl5  1  0.224056  0.069985  0.490660  1
  Cl  Cl6  1  0.350273  0.736667  0.123799  1
  Cl  Cl7  1  0.649727  0.263333  0.876201  1
  Cl  Cl8  1  0.122311  0.975389  0.172827  1
  Cl  Cl9  1  0.877689  0.024611  0.827173  1
  Cl  Cl10  1  0.831355  0.903031  0.076545  1
  Cl  Cl11  1  0.168645  0.096969  0.923455  1
  Cl  Cl12  1  0.057586  0.655742  0.073853  1
  Cl  Cl13  1  0.942414  0.344258  0.926147  1
  Cl  Cl14  1  0.437250  0.452431  0.031974  1
  Cl  Cl15  1  0.562750  0.547569  0.968026  1
  Cl  Cl16  1  0.519083  0.150592  0.569641  1
  Cl  Cl17  1  0.480917  0.849408  0.430359  1
  Cl  Cl18  1  0.757430  0.191893  0.139162  1
  Cl  Cl19  1  0.242570  0.808107  0.860838  1
  Cl  Cl20  1  0.401647  0.278334  0.204487  1
  Cl  Cl21  1  0.598353  0.721666  0.795513  1
  Cl  Cl22  1  0.884897  0.460960  0.276850  1
  Cl  Cl23  1  0.115103  0.539040  0.723150  1
  Cl  Cl24  1  0.910145  0.686205  0.589059  1
  Cl  Cl25  1  0.089855  0.313795  0.410941  1
  Cl  Cl26  1  0.771390  0.406931  0.464326  1
  Cl  Cl27  1  0.228610  0.593069  0.535674  1
  Cl  Cl28  1  0.532655  0.560998  0.337862  1
  Cl  Cl29  1  0.467345  0.439002  0.662138  1
  Cl  Cl30  1  0.003941  0.734238  0.372553  1
  Cl  Cl31  1  0.996059  0.265762  0.627447  1
  Cl  Cl32  1  0.382372  0.879880  0.667598  1
  Cl  Cl33  1  0.617628  0.120120  0.332402  1
