# generated using pymatgen
data_RbNp6(BrN)6
_symmetry_space_group_name_H-M   'P 1'
_cell_length_a   6.65193994
_cell_length_b   6.65194036
_cell_length_c   12.38019700
_cell_angle_alpha   84.84226203
_cell_angle_beta   84.84225305
_cell_angle_gamma   120.00583280
_symmetry_Int_Tables_number   1
_chemical_formula_structural   RbNp6(BrN)6
_chemical_formula_sum   'Rb1 Np6 Br6 N6'
_cell_volume   466.65125350
_cell_formula_units_Z   1
loop_
 _symmetry_equiv_pos_site_id
 _symmetry_equiv_pos_as_xyz
  1  'x, y, z'
loop_
 _atom_site_type_symbol
 _atom_site_label
 _atom_site_symmetry_multiplicity
 _atom_site_fract_x
 _atom_site_fract_y
 _atom_site_fract_z
 _atom_site_occupancy
  Rb  Rb0  1  0.000000  0.000000  0.000000  1
  Np  Np1  1  0.203794  0.203794  0.385641  1
  Np  Np2  1  0.538421  0.872357  0.385881  1
  Np  Np3  1  0.872357  0.538421  0.385881  1
  Np  Np4  1  0.127643  0.461579  0.614119  1
  Np  Np5  1  0.461579  0.127643  0.614119  1
  Np  Np6  1  0.796206  0.796206  0.614359  1
  Br  Br7  1  0.070598  0.733342  0.787426  1
  Br  Br8  1  0.407613  0.407613  0.787186  1
  Br  Br9  1  0.733342  0.070598  0.787426  1
  Br  Br10  1  0.266658  0.929402  0.212574  1
  Br  Br11  1  0.592387  0.592387  0.212814  1
  Br  Br12  1  0.929402  0.266658  0.212574  1
  N  N13  1  0.142878  0.142878  0.570249  1
  N  N14  1  0.476736  0.810003  0.569793  1
  N  N15  1  0.810003  0.476736  0.569793  1
  N  N16  1  0.189997  0.523264  0.430207  1
  N  N17  1  0.523264  0.189997  0.430207  1
  N  N18  1  0.857122  0.857122  0.429751  1
