# generated using pymatgen
data_DyTh3MgCdNi4
_symmetry_space_group_name_H-M   'P 1'
_cell_length_a   7.59353030
_cell_length_b   7.57162496
_cell_length_c   3.67075700
_cell_angle_alpha   90.00000000
_cell_angle_beta   90.00000000
_cell_angle_gamma   90.97888557
_symmetry_Int_Tables_number   1
_chemical_formula_structural   DyTh3MgCdNi4
_chemical_formula_sum   'Dy1 Th3 Mg1 Cd1 Ni4'
_cell_volume   211.02070712
_cell_formula_units_Z   1
loop_
 _symmetry_equiv_pos_site_id
 _symmetry_equiv_pos_as_xyz
  1  'x, y, z'
loop_
 _atom_site_type_symbol
 _atom_site_label
 _atom_site_symmetry_multiplicity
 _atom_site_fract_x
 _atom_site_fract_y
 _atom_site_fract_z
 _atom_site_occupancy
  Dy  Dy0  1  0.829309  0.671904  0.500000  1
  Th  Th1  1  0.672808  0.170270  0.500000  1
  Th  Th2  1  0.329807  0.826103  0.500000  1
  Th  Th3  1  0.168826  0.332777  0.500000  1
  Mg  Mg4  1  0.507167  0.502060  0.000000  1
  Cd  Cd5  1  0.997220  0.991883  0.000000  1
  Ni  Ni6  1  0.130000  0.623139  0.000000  1
  Ni  Ni7  1  0.875125  0.371395  0.000000  1
  Ni  Ni8  1  0.617200  0.881344  0.000000  1
  Ni  Ni9  1  0.372540  0.129123  0.000000  1
