# generated using pymatgen
data_Ho7Er(MoC2)4
_symmetry_space_group_name_H-M   'P 1'
_cell_length_a   5.72853883
_cell_length_b   5.72853887
_cell_length_c   9.83333900
_cell_angle_alpha   89.94299965
_cell_angle_beta   89.94299965
_cell_angle_gamma   89.99362215
_symmetry_Int_Tables_number   1
_chemical_formula_structural   Ho7Er(MoC2)4
_chemical_formula_sum   'Ho7 Er1 Mo4 C8'
_cell_volume   322.69207887
_cell_formula_units_Z   1
loop_
 _symmetry_equiv_pos_site_id
 _symmetry_equiv_pos_as_xyz
  1  'x, y, z'
loop_
 _atom_site_type_symbol
 _atom_site_label
 _atom_site_symmetry_multiplicity
 _atom_site_fract_x
 _atom_site_fract_y
 _atom_site_fract_z
 _atom_site_occupancy
  Ho  Ho0  1  0.201533  0.201533  0.343506  1
  Ho  Ho1  1  0.298412  0.702028  0.843391  1
  Ho  Ho2  1  0.702028  0.298412  0.843391  1
  Ho  Ho3  1  0.701862  0.298377  0.156567  1
  Ho  Ho4  1  0.298377  0.701862  0.156567  1
  Ho  Ho5  1  0.201698  0.201698  0.656568  1
  Ho  Ho6  1  0.798143  0.798143  0.343427  1
  Er  Er7  1  0.797851  0.797851  0.656324  1
  Mo  Mo8  1  0.323272  0.676516  0.500119  1
  Mo  Mo9  1  0.823532  0.823532  0.999968  1
  Mo  Mo10  1  0.176710  0.176710  0.999757  1
  Mo  Mo11  1  0.676516  0.323272  0.500119  1
  C  C12  1  0.000088  0.000088  0.156578  1
  C  C13  1  0.500415  0.500415  0.656753  1
  C  C14  1  0.500391  0.999538  0.500357  1
  C  C15  1  0.499794  0.499794  0.343401  1
  C  C16  1  0.999470  0.999470  0.842722  1
  C  C17  1  0.500137  0.000234  0.000062  1
  C  C18  1  0.000234  0.500137  0.000062  1
  C  C19  1  0.999538  0.500391  0.500357  1
