# generated using pymatgen
data_Rb2CaNiF6
_symmetry_space_group_name_H-M   'P 1'
_cell_length_a   6.10583196
_cell_length_b   6.10583200
_cell_length_c   6.10583400
_cell_angle_alpha   59.99998916
_cell_angle_beta   59.99998895
_cell_angle_gamma   89.99995837
_symmetry_Int_Tables_number   1
_chemical_formula_structural   Rb2CaNiF6
_chemical_formula_sum   'Rb2 Ca1 Ni1 F6'
_cell_volume   160.96064641
_cell_formula_units_Z   1
loop_
 _symmetry_equiv_pos_site_id
 _symmetry_equiv_pos_as_xyz
  1  'x, y, z'
loop_
 _atom_site_type_symbol
 _atom_site_label
 _atom_site_symmetry_multiplicity
 _atom_site_fract_x
 _atom_site_fract_y
 _atom_site_fract_z
 _atom_site_occupancy
  Rb  Rb0  1  0.250002  0.750001  0.499998  1
  Rb  Rb1  1  0.750000  0.249999  0.500002  1
  Ca  Ca2  1  0.500000  0.500000  0.000000  1
  Ni  Ni3  1  0.000000  0.000000  0.000000  1
  F  F4  1  0.237987  0.237987  0.000000  1
  F  F5  1  0.762014  0.237986  0.000000  1
  F  F6  1  0.237985  0.762014  0.000000  1
  F  F7  1  0.762012  0.762012  0.000000  1
  F  F8  1  0.762013  0.762013  0.475975  1
  F  F9  1  0.237987  0.237987  0.524026  1
