# generated using pymatgen
data_PrY2As4Pd7
_symmetry_space_group_name_H-M   'P 1'
_cell_length_a   8.14280089
_cell_length_b   8.14280117
_cell_length_c   9.71846693
_cell_angle_alpha   55.80562876
_cell_angle_beta   55.80562628
_cell_angle_gamma   29.48343182
_symmetry_Int_Tables_number   1
_chemical_formula_structural   PrY2As4Pd7
_chemical_formula_sum   'Pr1 Y2 As4 Pd7'
_cell_volume   258.09825757
_cell_formula_units_Z   1
loop_
 _symmetry_equiv_pos_site_id
 _symmetry_equiv_pos_as_xyz
  1  'x, y, z'
loop_
 _atom_site_type_symbol
 _atom_site_label
 _atom_site_symmetry_multiplicity
 _atom_site_fract_x
 _atom_site_fract_y
 _atom_site_fract_z
 _atom_site_occupancy
  Pr  Pr0  1  0.000000  0.000000  0.000000  1
  Y  Y1  1  0.676664  0.676664  0.329404  1
  Y  Y2  1  0.323336  0.323336  0.670596  1
  As  As3  1  0.337408  0.337408  0.257784  1
  As  As4  1  0.662592  0.662592  0.742216  1
  As  As5  1  0.892593  0.892593  0.820108  1
  As  As6  1  0.107407  0.107407  0.179892  1
  Pd  Pd7  1  0.306116  0.306116  0.026909  1
  Pd  Pd8  1  0.693884  0.693884  0.973091  1
  Pd  Pd9  1  0.511988  0.511988  0.704987  1
  Pd  Pd10  1  0.831951  0.831951  0.429102  1
  Pd  Pd11  1  0.488012  0.488012  0.295013  1
  Pd  Pd12  1  0.168049  0.168049  0.570898  1
  Pd  Pd13  1  0.000000  0.000000  0.500000  1
