# generated using pymatgen
data_Bi6Ru2PtO18
_symmetry_space_group_name_H-M   'P 1'
_cell_length_a   9.24535900
_cell_length_b   9.24536275
_cell_length_c   5.25718700
_cell_angle_alpha   90.00001859
_cell_angle_beta   90.00000000
_cell_angle_gamma   119.99996913
_symmetry_Int_Tables_number   1
_chemical_formula_structural   Bi6Ru2PtO18
_chemical_formula_sum   'Bi6 Ru2 Pt1 O18'
_cell_volume   389.16334485
_cell_formula_units_Z   1
loop_
 _symmetry_equiv_pos_site_id
 _symmetry_equiv_pos_as_xyz
  1  'x, y, z'
loop_
 _atom_site_type_symbol
 _atom_site_label
 _atom_site_symmetry_multiplicity
 _atom_site_fract_x
 _atom_site_fract_y
 _atom_site_fract_z
 _atom_site_occupancy
  Bi  Bi0  1  0.999264  0.377350  0.498550  1
  Bi  Bi1  1  0.287870  0.285882  0.002242  1
  Bi  Bi2  1  0.998013  0.712130  0.002242  1
  Bi  Bi3  1  0.622650  0.621913  0.498550  1
  Bi  Bi4  1  0.378087  0.000736  0.498550  1
  Bi  Bi5  1  0.714117  0.001988  0.002242  1
  Ru  Ru6  1  0.000000  0.000000  0.503430  1
  Ru  Ru7  1  0.333333  0.666667  0.001355  1
  Pt  Pt8  1  0.666667  0.333333  0.995925  1
  O  O9  1  0.075611  0.196531  0.712124  1
  O  O10  1  0.233105  0.468228  0.218820  1
  O  O11  1  0.136869  0.599020  0.788882  1
  O  O12  1  0.400980  0.537848  0.788881  1
  O  O13  1  0.235122  0.766895  0.218820  1
  O  O14  1  0.120919  0.924388  0.712124  1
  O  O15  1  0.531772  0.764878  0.218821  1
  O  O16  1  0.197746  0.072999  0.285268  1
  O  O17  1  0.462152  0.863131  0.788882  1
  O  O18  1  0.803470  0.879081  0.712124  1
  O  O19  1  0.458755  0.223410  0.779485  1
  O  O20  1  0.593761  0.129309  0.214392  1
  O  O21  1  0.535548  0.406239  0.214393  1
  O  O22  1  0.776590  0.235345  0.779485  1
  O  O23  1  0.927001  0.124747  0.285268  1
  O  O24  1  0.764655  0.541244  0.779485  1
  O  O25  1  0.870691  0.464452  0.214391  1
  O  O26  1  0.875253  0.802255  0.285268  1
