# generated using pymatgen
data_Tb5Dy3(P7Ir8)2
_symmetry_space_group_name_H-M   'P 1'
_cell_length_a   3.95319700
_cell_length_b   12.68582841
_cell_length_c   13.12334963
_cell_angle_alpha   80.88742846
_cell_angle_beta   90.00000000
_cell_angle_gamma   90.00000000
_symmetry_Int_Tables_number   1
_chemical_formula_structural   Tb5Dy3(P7Ir8)2
_chemical_formula_sum   'Tb5 Dy3 P14 Ir16'
_cell_volume   649.82424517
_cell_formula_units_Z   1
loop_
 _symmetry_equiv_pos_site_id
 _symmetry_equiv_pos_as_xyz
  1  'x, y, z'
loop_
 _atom_site_type_symbol
 _atom_site_label
 _atom_site_symmetry_multiplicity
 _atom_site_fract_x
 _atom_site_fract_y
 _atom_site_fract_z
 _atom_site_occupancy
  Tb  Tb0  1  0.250000  0.102450  0.789946  1
  Tb  Tb1  1  0.750000  0.897596  0.210037  1
  Tb  Tb2  1  0.250000  0.279377  0.102021  1
  Tb  Tb3  1  0.750000  0.720609  0.897987  1
  Tb  Tb4  1  0.250000  0.520366  0.293772  1
  Dy  Dy5  1  0.750000  0.479571  0.706114  1
  Dy  Dy6  1  0.250000  0.209099  0.437860  1
  Dy  Dy7  1  0.750000  0.790886  0.562166  1
  P  P8  1  0.250000  0.051839  0.100259  1
  P  P9  1  0.750000  0.948154  0.899747  1
  P  P10  1  0.250000  0.312362  0.688807  1
  P  P11  1  0.750000  0.687833  0.311270  1
  P  P12  1  0.250000  0.607728  0.567021  1
  P  P13  1  0.750000  0.392103  0.433206  1
  P  P14  1  0.250000  0.843629  0.717768  1
  P  P15  1  0.750000  0.156229  0.282241  1
  P  P16  1  0.750000  0.258086  0.919787  1
  P  P17  1  0.250000  0.741952  0.080193  1
  P  P18  1  0.750000  0.093424  0.587969  1
  P  P19  1  0.250000  0.906652  0.412038  1
  P  P20  1  0.750000  0.472274  0.129215  1
  P  P21  1  0.250000  0.527699  0.870605  1
  Ir  Ir22  1  0.250000  0.990919  0.576068  1
  Ir  Ir23  1  0.750000  0.009101  0.423921  1
  Ir  Ir24  1  0.250000  0.662844  0.731038  1
  Ir  Ir25  1  0.750000  0.336899  0.268868  1
  Ir  Ir26  1  0.250000  0.555228  0.044568  1
  Ir  Ir27  1  0.750000  0.444774  0.955233  1
  Ir  Ir28  1  0.250000  0.059767  0.272879  1
  Ir  Ir29  1  0.750000  0.940232  0.727116  1
  Ir  Ir30  1  0.250000  0.421791  0.523619  1
  Ir  Ir31  1  0.750000  0.578200  0.476755  1
  Ir  Ir32  1  0.250000  0.914944  0.997601  1
  Ir  Ir33  1  0.750000  0.085050  0.002395  1
  Ir  Ir34  1  0.250000  0.729053  0.395597  1
  Ir  Ir35  1  0.750000  0.271045  0.604517  1
  Ir  Ir36  1  0.250000  0.341958  0.857654  1
  Ir  Ir37  1  0.750000  0.658277  0.142142  1
