# generated using pymatgen
data_SmTmPa2(Al3Ir)6
_symmetry_space_group_name_H-M   'P 1'
_cell_length_a   7.59887313
_cell_length_b   7.60604652
_cell_length_c   9.37295800
_cell_angle_alpha   90.00000000
_cell_angle_beta   90.00000000
_cell_angle_gamma   119.67109732
_symmetry_Int_Tables_number   1
_chemical_formula_structural   SmTmPa2(Al3Ir)6
_chemical_formula_sum   'Sm1 Tm1 Pa2 Al18 Ir6'
_cell_volume   470.70120524
_cell_formula_units_Z   1
loop_
 _symmetry_equiv_pos_site_id
 _symmetry_equiv_pos_as_xyz
  1  'x, y, z'
loop_
 _atom_site_type_symbol
 _atom_site_label
 _atom_site_symmetry_multiplicity
 _atom_site_fract_x
 _atom_site_fract_y
 _atom_site_fract_z
 _atom_site_occupancy
  Sm  Sm0  1  0.669430  0.993351  0.250000  1
  Tm  Tm1  1  0.329649  0.006691  0.750000  1
  Pa  Pa2  1  0.998162  0.671201  0.250000  1
  Pa  Pa3  1  0.001736  0.328624  0.750000  1
  Al  Al4  1  0.132097  0.127636  0.250000  1
  Al  Al5  1  0.869722  0.872776  0.750000  1
  Al  Al6  1  0.001659  0.332485  0.076706  1
  Al  Al7  1  0.000088  0.668918  0.921475  1
  Al  Al8  1  0.000088  0.668918  0.578525  1
  Al  Al9  1  0.337360  0.003384  0.427197  1
  Al  Al10  1  0.001659  0.332485  0.423294  1
  Al  Al11  1  0.660989  0.996623  0.576194  1
  Al  Al12  1  0.660989  0.996623  0.923806  1
  Al  Al13  1  0.337360  0.003384  0.072803  1
  Al  Al14  1  0.335078  0.333015  0.554399  1
  Al  Al15  1  0.664899  0.665792  0.447934  1
  Al  Al16  1  0.664899  0.665792  0.052066  1
  Al  Al17  1  0.335078  0.333015  0.945601  1
  Al  Al18  1  0.340343  0.546438  0.250000  1
  Al  Al19  1  0.658269  0.451520  0.750000  1
  Al  Al20  1  0.548804  0.341440  0.250000  1
  Al  Al21  1  0.450390  0.659103  0.750000  1
  Ir  Ir22  1  0.675893  0.330074  0.998666  1
  Ir  Ir23  1  0.323591  0.669843  0.999690  1
  Ir  Ir24  1  0.323591  0.669843  0.500310  1
  Ir  Ir25  1  0.675893  0.330074  0.501334  1
  Ir  Ir26  1  0.001142  0.000477  0.998865  1
  Ir  Ir27  1  0.001142  0.000477  0.501135  1
