# generated using pymatgen
data_Ho4PdPt2Au
_symmetry_space_group_name_H-M   'P 1'
_cell_length_a   4.61661300
_cell_length_b   5.58866239
_cell_length_c   6.97268609
_cell_angle_alpha   90.13388023
_cell_angle_beta   90.00000000
_cell_angle_gamma   90.00000000
_symmetry_Int_Tables_number   1
_chemical_formula_structural   Ho4PdPt2Au
_chemical_formula_sum   'Ho4 Pd1 Pt2 Au1'
_cell_volume   179.89963115
_cell_formula_units_Z   1
loop_
 _symmetry_equiv_pos_site_id
 _symmetry_equiv_pos_as_xyz
  1  'x, y, z'
loop_
 _atom_site_type_symbol
 _atom_site_label
 _atom_site_symmetry_multiplicity
 _atom_site_fract_x
 _atom_site_fract_y
 _atom_site_fract_z
 _atom_site_occupancy
  Ho  Ho0  1  0.250000  0.357979  0.690439  1
  Ho  Ho1  1  0.250000  0.143941  0.174311  1
  Ho  Ho2  1  0.750000  0.635286  0.307727  1
  Ho  Ho3  1  0.750000  0.858770  0.828695  1
  Pd  Pd4  1  0.750000  0.151754  0.460583  1
  Pt  Pt5  1  0.250000  0.659278  0.043406  1
  Pt  Pt6  1  0.750000  0.342460  0.955482  1
  Au  Au7  1  0.250000  0.850533  0.539358  1
