# generated using pymatgen
data_Zr10TaBi4Sb
_symmetry_space_group_name_H-M   'P 1'
_cell_length_a   5.65598191
_cell_length_b   8.58605279
_cell_length_c   8.58605283
_cell_angle_alpha   96.22797849
_cell_angle_beta   109.23057090
_cell_angle_gamma   70.76943689
_symmetry_Int_Tables_number   1
_chemical_formula_structural   Zr10TaBi4Sb
_chemical_formula_sum   'Zr10 Ta1 Bi4 Sb1'
_cell_volume   371.72677122
_cell_formula_units_Z   1
loop_
 _symmetry_equiv_pos_site_id
 _symmetry_equiv_pos_as_xyz
  1  'x, y, z'
loop_
 _atom_site_type_symbol
 _atom_site_label
 _atom_site_symmetry_multiplicity
 _atom_site_fract_x
 _atom_site_fract_y
 _atom_site_fract_z
 _atom_site_occupancy
  Zr  Zr0  1  0.416892  0.860981  0.709405  1
  Zr  Zr1  1  0.568469  0.139019  0.290595  1
  Zr  Zr2  1  0.931531  0.290595  0.139019  1
  Zr  Zr3  1  0.083108  0.709405  0.860981  1
  Zr  Zr4  1  0.707488  0.709405  0.139019  1
  Zr  Zr5  1  0.277874  0.290595  0.860981  1
  Zr  Zr6  1  0.792512  0.139019  0.709405  1
  Zr  Zr7  1  0.222126  0.860981  0.290595  1
  Zr  Zr8  1  0.250000  0.500000  0.500000  1
  Zr  Zr9  1  0.750000  0.500000  0.500000  1
  Ta  Ta10  1  0.250000  0.000000  0.000000  1
  Bi  Bi11  1  0.335819  0.500000  0.171638  1
  Bi  Bi12  1  0.664181  0.500000  0.828362  1
  Bi  Bi13  1  0.835819  0.828362  0.500000  1
  Bi  Bi14  1  0.164181  0.171638  0.500000  1
  Sb  Sb15  1  0.750000  0.000000  0.000000  1
