# generated using pymatgen
data_SrDyPtRhO7
_symmetry_space_group_name_H-M   'P 1'
_cell_length_a   7.36717859
_cell_length_b   7.34898917
_cell_length_c   7.36717912
_cell_angle_alpha   60.08164394
_cell_angle_beta   59.69587239
_cell_angle_gamma   60.08165219
_symmetry_Int_Tables_number   1
_chemical_formula_structural   SrDyPtRhO7
_chemical_formula_sum   'Sr2 Dy2 Pt2 Rh2 O14'
_cell_volume   281.73403096
_cell_formula_units_Z   2
loop_
 _symmetry_equiv_pos_site_id
 _symmetry_equiv_pos_as_xyz
  1  'x, y, z'
loop_
 _atom_site_type_symbol
 _atom_site_label
 _atom_site_symmetry_multiplicity
 _atom_site_fract_x
 _atom_site_fract_y
 _atom_site_fract_z
 _atom_site_occupancy
  Sr  Sr0  1  0.125000  0.625000  0.125000  1
  Sr  Sr1  1  0.125000  0.125000  0.125000  1
  Dy  Dy2  1  0.125000  0.125000  0.625000  1
  Dy  Dy3  1  0.625000  0.125000  0.125000  1
  Pt  Pt4  1  0.625000  0.625000  0.625000  1
  Pt  Pt5  1  0.625000  0.125000  0.625000  1
  Rh  Rh6  1  0.125000  0.625000  0.625000  1
  Rh  Rh7  1  0.625000  0.625000  0.125000  1
  O  O8  1  0.296487  0.717969  0.690446  1
  O  O9  1  0.559554  0.954903  0.953513  1
  O  O10  1  0.709891  0.290109  0.709891  1
  O  O11  1  0.296487  0.295097  0.690446  1
  O  O12  1  0.690446  0.717969  0.296487  1
  O  O13  1  0.984964  0.015036  0.984964  1
  O  O14  1  0.304567  0.695433  0.304567  1
  O  O15  1  0.945433  0.554567  0.945433  1
  O  O16  1  0.953513  0.954903  0.559554  1
  O  O17  1  0.559554  0.532031  0.953513  1
  O  O18  1  0.265036  0.234964  0.265036  1
  O  O19  1  0.540109  0.959891  0.540109  1
  O  O20  1  0.690446  0.295097  0.296487  1
  O  O21  1  0.953513  0.532031  0.559554  1
