# generated using pymatgen
data_Dy2Y2Si4TcRh3
_symmetry_space_group_name_H-M   'P 1'
_cell_length_a   4.33397400
_cell_length_b   6.96725571
_cell_length_c   7.24919194
_cell_angle_alpha   89.99085430
_cell_angle_beta   90.00000000
_cell_angle_gamma   90.00000000
_symmetry_Int_Tables_number   1
_chemical_formula_structural   Dy2Y2Si4TcRh3
_chemical_formula_sum   'Dy2 Y2 Si4 Tc1 Rh3'
_cell_volume   218.89590914
_cell_formula_units_Z   1
loop_
 _symmetry_equiv_pos_site_id
 _symmetry_equiv_pos_as_xyz
  1  'x, y, z'
loop_
 _atom_site_type_symbol
 _atom_site_label
 _atom_site_symmetry_multiplicity
 _atom_site_fract_x
 _atom_site_fract_y
 _atom_site_fract_z
 _atom_site_occupancy
  Dy  Dy0  1  0.750000  0.505131  0.313889  1
  Dy  Dy1  1  0.250000  0.985600  0.810137  1
  Y  Y2  1  0.750000  0.008466  0.189713  1
  Y  Y3  1  0.250000  0.494618  0.685178  1
  Si  Si4  1  0.250000  0.301170  0.101702  1
  Si  Si5  1  0.250000  0.800053  0.385939  1
  Si  Si6  1  0.750000  0.700530  0.901782  1
  Si  Si7  1  0.750000  0.201129  0.609504  1
  Tc  Tc8  1  0.250000  0.654089  0.068384  1
  Rh  Rh9  1  0.250000  0.156270  0.434275  1
  Rh  Rh10  1  0.750000  0.848096  0.568656  1
  Rh  Rh11  1  0.750000  0.344847  0.930840  1
