# generated using pymatgen
data_Ho2Tm(Al3Ru)4
_symmetry_space_group_name_H-M   'P 1'
_cell_length_a   8.77387200
_cell_length_b   8.78128185
_cell_length_c   9.61316100
_cell_angle_alpha   90.00000000
_cell_angle_beta   90.00000000
_cell_angle_gamma   119.97209046
_symmetry_Int_Tables_number   1
_chemical_formula_structural   Ho2Tm(Al3Ru)4
_chemical_formula_sum   'Ho4 Tm2 Al24 Ru8'
_cell_volume   641.60557500
_cell_formula_units_Z   2
loop_
 _symmetry_equiv_pos_site_id
 _symmetry_equiv_pos_as_xyz
  1  'x, y, z'
loop_
 _atom_site_type_symbol
 _atom_site_label
 _atom_site_symmetry_multiplicity
 _atom_site_fract_x
 _atom_site_fract_y
 _atom_site_fract_z
 _atom_site_occupancy
  Ho  Ho0  1  0.806480  0.193201  0.750000  1
  Ho  Ho1  1  0.193520  0.806799  0.250000  1
  Ho  Ho2  1  0.386721  0.193201  0.750000  1
  Ho  Ho3  1  0.613279  0.806799  0.250000  1
  Tm  Tm4  1  0.805527  0.611056  0.750000  1
  Tm  Tm5  1  0.194473  0.388944  0.250000  1
  Al  Al6  1  0.666641  0.333279  0.980619  1
  Al  Al7  1  0.333359  0.666721  0.019381  1
  Al  Al8  1  0.333359  0.666721  0.480619  1
  Al  Al9  1  0.666641  0.333279  0.519381  1
  Al  Al10  1  0.837326  0.162805  0.423081  1
  Al  Al11  1  0.162674  0.837195  0.576919  1
  Al  Al12  1  0.325479  0.162805  0.423081  1
  Al  Al13  1  0.162674  0.837195  0.923081  1
  Al  Al14  1  0.674521  0.837195  0.576919  1
  Al  Al15  1  0.837326  0.162805  0.076919  1
  Al  Al16  1  0.837194  0.674388  0.423551  1
  Al  Al17  1  0.674521  0.837195  0.923081  1
  Al  Al18  1  0.162806  0.325612  0.576449  1
  Al  Al19  1  0.325479  0.162805  0.076919  1
  Al  Al20  1  0.162806  0.325612  0.923551  1
  Al  Al21  1  0.837194  0.674388  0.076449  1
  Al  Al22  1  0.438744  0.561818  0.750000  1
  Al  Al23  1  0.561256  0.438182  0.250000  1
  Al  Al24  1  0.123073  0.561818  0.750000  1
  Al  Al25  1  0.876927  0.438182  0.250000  1
  Al  Al26  1  0.438178  0.876356  0.750000  1
  Al  Al27  1  0.561822  0.123644  0.250000  1
  Al  Al28  1  0.999018  0.998036  0.750000  1
  Al  Al29  1  0.000982  0.001964  0.250000  1
  Ru  Ru30  1  0.500000  0.500000  0.000000  1
  Ru  Ru31  1  0.000000  0.500000  0.000000  1
  Ru  Ru32  1  0.500000  0.500000  0.500000  1
  Ru  Ru33  1  0.500000  0.000000  0.000000  1
  Ru  Ru34  1  0.000000  0.500000  0.500000  1
  Ru  Ru35  1  0.500000  0.000000  0.500000  1
  Ru  Ru36  1  0.000000  0.000000  0.000000  1
  Ru  Ru37  1  0.000000  0.000000  0.500000  1
