# generated using pymatgen
data_Pr4NdSn15Ir8
_symmetry_space_group_name_H-M   'P 1'
_cell_length_a   4.53054300
_cell_length_b   7.35612429
_cell_length_c   18.77003152
_cell_angle_alpha   89.90048438
_cell_angle_beta   90.00000000
_cell_angle_gamma   90.00000000
_symmetry_Int_Tables_number   1
_chemical_formula_structural   Pr4NdSn15Ir8
_chemical_formula_sum   'Pr4 Nd1 Sn15 Ir8'
_cell_volume   625.55235335
_cell_formula_units_Z   1
loop_
 _symmetry_equiv_pos_site_id
 _symmetry_equiv_pos_as_xyz
  1  'x, y, z'
loop_
 _atom_site_type_symbol
 _atom_site_label
 _atom_site_symmetry_multiplicity
 _atom_site_fract_x
 _atom_site_fract_y
 _atom_site_fract_z
 _atom_site_occupancy
  Pr  Pr0  1  0.500000  0.001705  0.855973  1
  Pr  Pr1  1  0.500000  0.499392  0.357567  1
  Pr  Pr2  1  0.000000  0.999989  0.143830  1
  Pr  Pr3  1  0.000000  0.501268  0.641875  1
  Nd  Nd4  1  0.500000  0.490820  0.930744  1
  Sn  Sn5  1  0.000000  0.718062  0.805671  1
  Sn  Sn6  1  0.000000  0.779899  0.306475  1
  Sn  Sn7  1  0.500000  0.277315  0.193800  1
  Sn  Sn8  1  0.500000  0.219104  0.692747  1
  Sn  Sn9  1  0.000000  0.854043  0.969677  1
  Sn  Sn10  1  0.000000  0.631605  0.467958  1
  Sn  Sn11  1  0.500000  0.134050  0.032595  1
  Sn  Sn12  1  0.500000  0.366354  0.531438  1
  Sn  Sn13  1  0.000000  0.304624  0.818578  1
  Sn  Sn14  1  0.000000  0.198951  0.317826  1
  Sn  Sn15  1  0.500000  0.697511  0.185826  1
  Sn  Sn16  1  0.500000  0.807782  0.678767  1
  Sn  Sn17  1  0.500000  0.021019  0.433578  1
  Sn  Sn18  1  0.000000  0.513523  0.067567  1
  Sn  Sn19  1  0.000000  0.979423  0.567644  1
  Ir  Ir20  1  0.000000  0.229169  0.964691  1
  Ir  Ir21  1  0.000000  0.248016  0.464485  1
  Ir  Ir22  1  0.500000  0.765075  0.044879  1
  Ir  Ir23  1  0.500000  0.750296  0.533619  1
  Ir  Ir24  1  0.000000  0.018709  0.715700  1
  Ir  Ir25  1  0.000000  0.483334  0.214578  1
  Ir  Ir26  1  0.500000  0.987367  0.288620  1
  Ir  Ir27  1  0.500000  0.521593  0.773296  1
