# generated using pymatgen
data_Pu7UO24
_symmetry_space_group_name_H-M   'P 1'
_cell_length_a   8.19872785
_cell_length_b   8.27709811
_cell_length_c   8.26544600
_cell_angle_alpha   89.94565375
_cell_angle_beta   89.73325279
_cell_angle_gamma   89.63975226
_symmetry_Int_Tables_number   1
_chemical_formula_structural   Pu7UO24
_chemical_formula_sum   'Pu7 U1 O24'
_cell_volume   560.88960561
_cell_formula_units_Z   1
loop_
 _symmetry_equiv_pos_site_id
 _symmetry_equiv_pos_as_xyz
  1  'x, y, z'
loop_
 _atom_site_type_symbol
 _atom_site_label
 _atom_site_symmetry_multiplicity
 _atom_site_fract_x
 _atom_site_fract_y
 _atom_site_fract_z
 _atom_site_occupancy
  Pu  Pu0  1  0.750014  0.499529  0.249989  1
  Pu  Pu1  1  0.250059  0.500384  0.250058  1
  Pu  Pu2  1  0.749951  0.999570  0.249902  1
  Pu  Pu3  1  0.249988  0.000341  0.250114  1
  Pu  Pu4  1  0.249991  0.500506  0.750075  1
  Pu  Pu5  1  0.749993  0.499663  0.749993  1
  Pu  Pu6  1  0.250035  0.000482  0.750072  1
  U  U7  1  0.749946  0.999651  0.749832  1
  O  O8  1  0.766842  0.499768  0.525534  1
  O  O9  1  0.267057  0.500707  0.025366  1
  O  O10  1  0.744004  0.999537  0.023332  1
  O  O11  1  0.245280  0.000892  0.524687  1
  O  O12  1  0.233078  0.500476  0.474764  1
  O  O13  1  0.733124  0.499268  0.974453  1
  O  O14  1  0.254648  0.000204  0.975472  1
  O  O15  1  0.755985  0.999374  0.476445  1
  O  O16  1  0.506469  0.989937  0.744279  1
  O  O17  1  0.993471  0.009858  0.755728  1
  O  O18  1  0.014017  0.489267  0.766911  1
  O  O19  1  0.485999  0.511508  0.733210  1
  O  O20  1  0.502984  0.021974  0.255744  1
  O  O21  1  0.997067  0.977972  0.243788  1
  O  O22  1  0.997555  0.520835  0.234202  1
  O  O23  1  0.502460  0.478330  0.265847  1
  O  O24  1  0.772489  0.274692  0.249220  1
  O  O25  1  0.261644  0.271134  0.749849  1
  O  O26  1  0.739720  0.235665  0.749323  1
  O  O27  1  0.238363  0.729862  0.750324  1
  O  O28  1  0.227904  0.225267  0.249184  1
  O  O29  1  0.727526  0.724388  0.250724  1
  O  O30  1  0.272085  0.775383  0.251171  1
  O  O31  1  0.760251  0.763575  0.750408  1
