# generated using pymatgen
data_Tb3DyCo3Si12Ni17
_symmetry_space_group_name_H-M   'P 1'
_cell_length_a   3.77976400
_cell_length_b   6.61514428
_cell_length_c   18.71818530
_cell_angle_alpha   90.12499922
_cell_angle_beta   90.00000000
_cell_angle_gamma   90.00000000
_symmetry_Int_Tables_number   1
_chemical_formula_structural   Tb3DyCo3Si12Ni17
_chemical_formula_sum   'Tb3 Dy1 Co3 Si12 Ni17'
_cell_volume   468.02248008
_cell_formula_units_Z   1
loop_
 _symmetry_equiv_pos_site_id
 _symmetry_equiv_pos_as_xyz
  1  'x, y, z'
loop_
 _atom_site_type_symbol
 _atom_site_label
 _atom_site_symmetry_multiplicity
 _atom_site_fract_x
 _atom_site_fract_y
 _atom_site_fract_z
 _atom_site_occupancy
  Tb  Tb0  1  0.250000  0.874583  0.355731  1
  Tb  Tb1  1  0.750000  0.125073  0.643465  1
  Tb  Tb2  1  0.250000  0.624507  0.856227  1
  Dy  Dy3  1  0.750000  0.374479  0.144038  1
  Co  Co4  1  0.250000  0.064564  0.205777  1
  Co  Co5  1  0.750000  0.936457  0.794612  1
  Co  Co6  1  0.750000  0.564220  0.294192  1
  Si  Si7  1  0.250000  0.079840  0.086587  1
  Si  Si8  1  0.750000  0.919512  0.913924  1
  Si  Si9  1  0.750000  0.580434  0.413713  1
  Si  Si10  1  0.250000  0.421233  0.585876  1
  Si  Si11  1  0.250000  0.655279  0.074529  1
  Si  Si12  1  0.750000  0.343090  0.925528  1
  Si  Si13  1  0.750000  0.156683  0.425349  1
  Si  Si14  1  0.250000  0.844961  0.574151  1
  Si  Si15  1  0.250000  0.375253  0.261454  1
  Si  Si16  1  0.750000  0.627503  0.738822  1
  Si  Si17  1  0.750000  0.875129  0.238247  1
  Si  Si18  1  0.250000  0.120731  0.762265  1
  Ni  Ni19  1  0.250000  0.431635  0.706328  1
  Ni  Ni20  1  0.250000  0.615958  0.484561  1
  Ni  Ni21  1  0.750000  0.386324  0.515320  1
  Ni  Ni22  1  0.750000  0.114833  0.015569  1
  Ni  Ni23  1  0.250000  0.885125  0.985019  1
  Ni  Ni24  1  0.250000  0.682851  0.200359  1
  Ni  Ni25  1  0.750000  0.317350  0.800141  1
  Ni  Ni26  1  0.750000  0.183380  0.299477  1
  Ni  Ni27  1  0.250000  0.815583  0.699741  1
  Ni  Ni28  1  0.250000  0.359941  0.382844  1
  Ni  Ni29  1  0.750000  0.644822  0.616341  1
  Ni  Ni30  1  0.750000  0.859285  0.117076  1
  Ni  Ni31  1  0.250000  0.139498  0.883303  1
  Ni  Ni32  1  0.250000  0.364248  0.004723  1
  Ni  Ni33  1  0.750000  0.634149  0.995407  1
  Ni  Ni34  1  0.750000  0.866393  0.494897  1
  Ni  Ni35  1  0.250000  0.135096  0.504409  1
