# generated using pymatgen
data_YErCo4(PRu)6
_symmetry_space_group_name_H-M   'P 1'
_cell_length_a   3.78505000
_cell_length_b   10.61946700
_cell_length_c   12.09427100
_cell_angle_alpha   90.00000000
_cell_angle_beta   90.00000000
_cell_angle_gamma   90.00000000
_symmetry_Int_Tables_number   1
_chemical_formula_structural   YErCo4(PRu)6
_chemical_formula_sum   'Y2 Er2 Co8 P12 Ru12'
_cell_volume   486.13180580
_cell_formula_units_Z   2
loop_
 _symmetry_equiv_pos_site_id
 _symmetry_equiv_pos_as_xyz
  1  'x, y, z'
loop_
 _atom_site_type_symbol
 _atom_site_label
 _atom_site_symmetry_multiplicity
 _atom_site_fract_x
 _atom_site_fract_y
 _atom_site_fract_z
 _atom_site_occupancy
  Y  Y0  1  0.250000  0.584536  0.706695  1
  Y  Y1  1  0.250000  0.915464  0.206695  1
  Er  Er2  1  0.750000  0.415507  0.293480  1
  Er  Er3  1  0.750000  0.084493  0.793480  1
  Co  Co4  1  0.250000  0.888409  0.696146  1
  Co  Co5  1  0.250000  0.611591  0.196146  1
  Co  Co6  1  0.750000  0.112223  0.304122  1
  Co  Co7  1  0.750000  0.387777  0.804122  1
  Co  Co8  1  0.250000  0.462773  0.935094  1
  Co  Co9  1  0.250000  0.037227  0.435094  1
  Co  Co10  1  0.750000  0.536986  0.065273  1
  Co  Co11  1  0.750000  0.963014  0.565273  1
  P  P12  1  0.250000  0.425734  0.113187  1
  P  P13  1  0.250000  0.074266  0.613187  1
  P  P14  1  0.750000  0.574280  0.887414  1
  P  P15  1  0.750000  0.925720  0.387414  1
  P  P16  1  0.250000  0.271341  0.871603  1
  P  P17  1  0.250000  0.228659  0.371603  1
  P  P18  1  0.750000  0.728170  0.128139  1
  P  P19  1  0.750000  0.771830  0.628139  1
  P  P20  1  0.250000  0.600788  0.386646  1
  P  P21  1  0.250000  0.899212  0.886646  1
  P  P22  1  0.750000  0.398720  0.613069  1
  P  P23  1  0.750000  0.101280  0.113069  1
  Ru  Ru24  1  0.250000  0.706309  0.986423  1
  Ru  Ru25  1  0.250000  0.793691  0.486423  1
  Ru  Ru26  1  0.750000  0.293639  0.013534  1
  Ru  Ru27  1  0.750000  0.206361  0.513534  1
  Ru  Ru28  1  0.250000  0.405417  0.485400  1
  Ru  Ru29  1  0.250000  0.094583  0.985400  1
  Ru  Ru30  1  0.750000  0.594408  0.513597  1
  Ru  Ru31  1  0.750000  0.905592  0.013597  1
  Ru  Ru32  1  0.250000  0.224360  0.180634  1
  Ru  Ru33  1  0.250000  0.275640  0.680634  1
  Ru  Ru34  1  0.750000  0.776473  0.819542  1
  Ru  Ru35  1  0.750000  0.723527  0.319542  1
