# generated using pymatgen
data_ScNb(SiPd)2
_symmetry_space_group_name_H-M   'P 1'
_cell_length_a   3.88919100
_cell_length_b   6.47247400
_cell_length_c   7.58558800
_cell_angle_alpha   90.00000000
_cell_angle_beta   90.00000000
_cell_angle_gamma   90.00000000
_symmetry_Int_Tables_number   1
_chemical_formula_structural   ScNb(SiPd)2
_chemical_formula_sum   'Sc2 Nb2 Si4 Pd4'
_cell_volume   190.94963720
_cell_formula_units_Z   2
loop_
 _symmetry_equiv_pos_site_id
 _symmetry_equiv_pos_as_xyz
  1  'x, y, z'
loop_
 _atom_site_type_symbol
 _atom_site_label
 _atom_site_symmetry_multiplicity
 _atom_site_fract_x
 _atom_site_fract_y
 _atom_site_fract_z
 _atom_site_occupancy
  Sc  Sc0  1  0.750000  0.968220  0.675596  1
  Sc  Sc1  1  0.750000  0.468220  0.824404  1
  Nb  Nb2  1  0.250000  0.029397  0.315901  1
  Nb  Nb3  1  0.250000  0.529397  0.184099  1
  Si  Si4  1  0.250000  0.257011  0.611055  1
  Si  Si5  1  0.250000  0.757011  0.888945  1
  Si  Si6  1  0.750000  0.737858  0.364290  1
  Si  Si7  1  0.750000  0.237858  0.135710  1
  Pd  Pd8  1  0.250000  0.150691  0.932259  1
  Pd  Pd9  1  0.250000  0.650691  0.567741  1
  Pd  Pd10  1  0.750000  0.856822  0.057053  1
  Pd  Pd11  1  0.750000  0.356822  0.442947  1
