# generated using pymatgen
data_Ta6PtRh17
_symmetry_space_group_name_H-M   'P 1'
_cell_length_a   5.55966600
_cell_length_b   5.54921264
_cell_length_c   13.47619161
_cell_angle_alpha   89.87103368
_cell_angle_beta   90.00000000
_cell_angle_gamma   120.06233374
_symmetry_Int_Tables_number   1
_chemical_formula_structural   Ta6PtRh17
_chemical_formula_sum   'Ta6 Pt1 Rh17'
_cell_volume   359.83489649
_cell_formula_units_Z   1
loop_
 _symmetry_equiv_pos_site_id
 _symmetry_equiv_pos_as_xyz
  1  'x, y, z'
loop_
 _atom_site_type_symbol
 _atom_site_label
 _atom_site_symmetry_multiplicity
 _atom_site_fract_x
 _atom_site_fract_y
 _atom_site_fract_z
 _atom_site_occupancy
  Ta  Ta0  1  0.000254  0.000507  0.250758  1
  Ta  Ta1  1  0.998004  0.996007  0.747346  1
  Ta  Ta2  1  0.333165  0.666332  0.411086  1
  Ta  Ta3  1  0.666693  0.333386  0.588665  1
  Ta  Ta4  1  0.666488  0.332976  0.910968  1
  Ta  Ta5  1  0.334979  0.669959  0.091098  1
  Pt  Pt6  1  0.166273  0.332546  0.917689  1
  Rh  Rh7  1  0.504018  0.497493  0.250259  1
  Rh  Rh8  1  0.504344  0.008689  0.249970  1
  Rh  Rh9  1  0.993476  0.497493  0.250259  1
  Rh  Rh10  1  0.496477  0.503028  0.749372  1
  Rh  Rh11  1  0.496179  0.992359  0.749615  1
  Rh  Rh12  1  0.006551  0.503028  0.749372  1
  Rh  Rh13  1  0.669144  0.834523  0.917215  1
  Rh  Rh14  1  0.165379  0.834523  0.917215  1
  Rh  Rh15  1  0.834558  0.669115  0.083105  1
  Rh  Rh16  1  0.331378  0.165019  0.083614  1
  Rh  Rh17  1  0.833640  0.165019  0.083614  1
  Rh  Rh18  1  0.834370  0.668739  0.417107  1
  Rh  Rh19  1  0.331301  0.165259  0.417185  1
  Rh  Rh20  1  0.833957  0.165259  0.417185  1
  Rh  Rh21  1  0.165558  0.331115  0.582445  1
  Rh  Rh22  1  0.668354  0.833813  0.582429  1
  Rh  Rh23  1  0.165459  0.833813  0.582429  1
