# generated using pymatgen
data_NaTb6Co4Sn23Ir2
_symmetry_space_group_name_H-M   'P 1'
_cell_length_a   9.77010017
_cell_length_b   9.77009950
_cell_length_c   10.03026712
_cell_angle_alpha   90.26377535
_cell_angle_beta   89.73622776
_cell_angle_gamma   120.01881242
_symmetry_Int_Tables_number   1
_chemical_formula_structural   NaTb6Co4Sn23Ir2
_chemical_formula_sum   'Na1 Tb6 Co4 Sn23 Ir2'
_cell_volume   828.99639074
_cell_formula_units_Z   1
loop_
 _symmetry_equiv_pos_site_id
 _symmetry_equiv_pos_as_xyz
  1  'x, y, z'
loop_
 _atom_site_type_symbol
 _atom_site_label
 _atom_site_symmetry_multiplicity
 _atom_site_fract_x
 _atom_site_fract_y
 _atom_site_fract_z
 _atom_site_occupancy
  Na  Na0  1  0.000000  0.000000  0.000000  1
  Tb  Tb1  1  0.479507  0.520493  0.306247  1
  Tb  Tb2  1  0.520493  0.479507  0.693753  1
  Tb  Tb3  1  0.481018  0.959625  0.305082  1
  Tb  Tb4  1  0.518982  0.040375  0.694918  1
  Tb  Tb5  1  0.040375  0.518982  0.305082  1
  Tb  Tb6  1  0.959625  0.481018  0.694918  1
  Co  Co7  1  0.827916  0.658298  0.201780  1
  Co  Co8  1  0.172084  0.341702  0.798220  1
  Co  Co9  1  0.341702  0.172084  0.201780  1
  Co  Co10  1  0.658298  0.827916  0.798220  1
  Sn  Sn11  1  0.348614  0.004768  0.005128  1
  Sn  Sn12  1  0.651386  0.995232  0.994872  1
  Sn  Sn13  1  0.004768  0.348614  0.994872  1
  Sn  Sn14  1  0.995232  0.651386  0.005128  1
  Sn  Sn15  1  0.656232  0.656232  0.000000  1
  Sn  Sn16  1  0.343768  0.343768  0.000000  1
  Sn  Sn17  1  0.336225  0.663775  0.817142  1
  Sn  Sn18  1  0.663775  0.336225  0.182858  1
  Sn  Sn19  1  0.000000  0.000000  0.500000  1
  Sn  Sn20  1  0.779375  0.220625  0.460245  1
  Sn  Sn21  1  0.220625  0.779375  0.539755  1
  Sn  Sn22  1  0.781122  0.562431  0.452993  1
  Sn  Sn23  1  0.218878  0.437569  0.547007  1
  Sn  Sn24  1  0.437569  0.218878  0.452993  1
  Sn  Sn25  1  0.562431  0.781122  0.547007  1
  Sn  Sn26  1  0.333963  0.666037  0.116119  1
  Sn  Sn27  1  0.666037  0.333963  0.883881  1
  Sn  Sn28  1  0.115502  0.884498  0.270753  1
  Sn  Sn29  1  0.884498  0.115502  0.729247  1
  Sn  Sn30  1  0.121493  0.232643  0.276200  1
  Sn  Sn31  1  0.878507  0.767357  0.723800  1
  Sn  Sn32  1  0.767357  0.878507  0.276200  1
  Sn  Sn33  1  0.232643  0.121493  0.723800  1
  Ir  Ir34  1  0.829279  0.170721  0.200703  1
  Ir  Ir35  1  0.170721  0.829279  0.799297  1
