# generated using pymatgen
data_DyEr9IrPt5
_symmetry_space_group_name_H-M   'P 1'
_cell_length_a   10.95246801
_cell_length_b   10.95145001
_cell_length_c   6.35546400
_cell_angle_alpha   89.99949652
_cell_angle_beta   90.00366104
_cell_angle_gamma   89.99576245
_symmetry_Int_Tables_number   1
_chemical_formula_structural   DyEr9IrPt5
_chemical_formula_sum   'Dy2 Er18 Ir2 Pt10'
_cell_volume   762.30870592
_cell_formula_units_Z   2
loop_
 _symmetry_equiv_pos_site_id
 _symmetry_equiv_pos_as_xyz
  1  'x, y, z'
loop_
 _atom_site_type_symbol
 _atom_site_label
 _atom_site_symmetry_multiplicity
 _atom_site_fract_x
 _atom_site_fract_y
 _atom_site_fract_z
 _atom_site_occupancy
  Dy  Dy0  1  0.291719  0.088490  0.375428  1
  Dy  Dy1  1  0.291714  0.911494  0.875417  1
  Er  Er2  1  0.707524  0.088246  0.876403  1
  Er  Er3  1  0.707547  0.911733  0.376397  1
  Er  Er4  1  0.588498  0.792252  0.876302  1
  Er  Er5  1  0.588489  0.207727  0.376292  1
  Er  Er6  1  0.412318  0.791853  0.376142  1
  Er  Er7  1  0.412350  0.208179  0.876160  1
  Er  Er8  1  0.205098  0.412655  0.624496  1
  Er  Er9  1  0.205099  0.587339  0.124484  1
  Er  Er10  1  0.794980  0.412583  0.124154  1
  Er  Er11  1  0.794980  0.587432  0.624143  1
  Er  Er12  1  0.912555  0.704973  0.124155  1
  Er  Er13  1  0.912535  0.295033  0.624166  1
  Er  Er14  1  0.087150  0.704822  0.624153  1
  Er  Er15  1  0.087157  0.295154  0.124170  1
  Er  Er16  1  0.999502  0.999976  0.501269  1
  Er  Er17  1  0.999514  0.000049  0.001261  1
  Er  Er18  1  0.500126  0.500157  0.001146  1
  Er  Er19  1  0.500117  0.499868  0.501147  1
  Ir  Ir20  1  0.999927  0.499949  0.879775  1
  Ir  Ir21  1  0.999934  0.500055  0.379797  1
  Pt  Pt22  1  0.845741  0.153000  0.249923  1
  Pt  Pt23  1  0.845756  0.846997  0.749884  1
  Pt  Pt24  1  0.153497  0.153783  0.750889  1
  Pt  Pt25  1  0.153506  0.846205  0.250914  1
  Pt  Pt26  1  0.652963  0.345720  0.749911  1
  Pt  Pt27  1  0.652947  0.654275  0.249931  1
  Pt  Pt28  1  0.347264  0.346512  0.249453  1
  Pt  Pt29  1  0.347243  0.653485  0.749456  1
  Pt  Pt30  1  0.501128  0.000085  0.116377  1
  Pt  Pt31  1  0.501119  0.999917  0.616394  1
