# generated using pymatgen
data_CaHoRe2Si2C
_symmetry_space_group_name_H-M   'P 1'
_cell_length_a   3.97064310
_cell_length_b   5.82312987
_cell_length_c   6.05008321
_cell_angle_alpha   72.81255050
_cell_angle_beta   70.84360307
_cell_angle_gamma   70.06602191
_symmetry_Int_Tables_number   1
_chemical_formula_structural   CaHoRe2Si2C
_chemical_formula_sum   'Ca1 Ho1 Re2 Si2 C1'
_cell_volume   121.53962000
_cell_formula_units_Z   1
loop_
 _symmetry_equiv_pos_site_id
 _symmetry_equiv_pos_as_xyz
  1  'x, y, z'
loop_
 _atom_site_type_symbol
 _atom_site_label
 _atom_site_symmetry_multiplicity
 _atom_site_fract_x
 _atom_site_fract_y
 _atom_site_fract_z
 _atom_site_occupancy
  Ca  Ca0  1  0.424897  0.847362  0.302842  1
  Ho  Ho1  1  0.573459  0.150460  0.702622  1
  Re  Re2  1  0.794341  0.325266  0.086051  1
  Re  Re3  1  0.206819  0.673677  0.912683  1
  Si  Si4  1  0.859590  0.598071  0.682750  1
  Si  Si5  1  0.139166  0.401741  0.319926  1
  C  C6  1  0.001727  0.003422  0.993124  1
