# generated using pymatgen
data_DyHo3(CuTe)12
_symmetry_space_group_name_H-M   'P 1'
_cell_length_a   6.85157213
_cell_length_b   7.72010649
_cell_length_c   12.63570500
_cell_angle_alpha   89.98571336
_cell_angle_beta   90.01105513
_cell_angle_gamma   90.39044292
_symmetry_Int_Tables_number   1
_chemical_formula_structural   DyHo3(CuTe)12
_chemical_formula_sum   'Dy1 Ho3 Cu12 Te12'
_cell_volume   668.34837677
_cell_formula_units_Z   1
loop_
 _symmetry_equiv_pos_site_id
 _symmetry_equiv_pos_as_xyz
  1  'x, y, z'
loop_
 _atom_site_type_symbol
 _atom_site_label
 _atom_site_symmetry_multiplicity
 _atom_site_fract_x
 _atom_site_fract_y
 _atom_site_fract_z
 _atom_site_occupancy
  Dy  Dy0  1  0.244028  0.750013  0.160975  1
  Ho  Ho1  1  0.244161  0.749931  0.838873  1
  Ho  Ho2  1  0.744034  0.250065  0.338619  1
  Ho  Ho3  1  0.744140  0.250069  0.661775  1
  Cu  Cu4  1  0.368661  0.118989  0.824511  1
  Cu  Cu5  1  0.612791  0.626059  0.000179  1
  Cu  Cu6  1  0.867418  0.881066  0.674508  1
  Cu  Cu7  1  0.621145  0.619229  0.674924  1
  Cu  Cu8  1  0.875916  0.872746  0.000048  1
  Cu  Cu9  1  0.113972  0.374678  0.500077  1
  Cu  Cu10  1  0.620296  0.619317  0.325362  1
  Cu  Cu11  1  0.374300  0.126124  0.500369  1
  Cu  Cu12  1  0.867521  0.881240  0.325270  1
  Cu  Cu13  1  0.368611  0.119195  0.175110  1
  Cu  Cu14  1  0.119756  0.380632  0.824294  1
  Cu  Cu15  1  0.119732  0.380641  0.175382  1
  Te  Te16  1  0.007920  0.568262  0.338159  1
  Te  Te17  1  0.507815  0.432558  0.162558  1
  Te  Te18  1  0.980116  0.067526  0.162294  1
  Te  Te19  1  0.008539  0.568637  0.661869  1
  Te  Te20  1  0.992623  0.549487  0.999593  1
  Te  Te21  1  0.507346  0.432957  0.837634  1
  Te  Te22  1  0.479748  0.932009  0.338301  1
  Te  Te23  1  0.479723  0.931523  0.661938  1
  Te  Te24  1  0.993678  0.051727  0.500062  1
  Te  Te25  1  0.496112  0.949764  0.999608  1
  Te  Te26  1  0.980993  0.066795  0.837522  1
  Te  Te27  1  0.494898  0.448762  0.500183  1
