# generated using pymatgen
data_K2CePuB24
_symmetry_space_group_name_H-M   'P 1'
_cell_length_a   4.17156300
_cell_length_b   4.17156300
_cell_length_c   16.68367300
_cell_angle_alpha   90.00000000
_cell_angle_beta   90.00000000
_cell_angle_gamma   90.00000000
_symmetry_Int_Tables_number   1
_chemical_formula_structural   K2CePuB24
_chemical_formula_sum   'K2 Ce1 Pu1 B24'
_cell_volume   290.32824087
_cell_formula_units_Z   1
loop_
 _symmetry_equiv_pos_site_id
 _symmetry_equiv_pos_as_xyz
  1  'x, y, z'
loop_
 _atom_site_type_symbol
 _atom_site_label
 _atom_site_symmetry_multiplicity
 _atom_site_fract_x
 _atom_site_fract_y
 _atom_site_fract_z
 _atom_site_occupancy
  K  K0  1  0.000000  0.000000  0.248653  1
  K  K1  1  0.000000  0.000000  0.751347  1
  Ce  Ce2  1  0.000000  0.000000  0.500000  1
  Pu  Pu3  1  0.000000  0.000000  0.000000  1
  B  B4  1  0.500000  0.500000  0.198038  1
  B  B5  1  0.500000  0.500000  0.450641  1
  B  B6  1  0.500000  0.500000  0.698937  1
  B  B7  1  0.500000  0.500000  0.950918  1
  B  B8  1  0.500000  0.200922  0.122744  1
  B  B9  1  0.500000  0.201700  0.376872  1
  B  B10  1  0.500000  0.201700  0.623128  1
  B  B11  1  0.500000  0.200922  0.877256  1
  B  B12  1  0.200922  0.500000  0.122744  1
  B  B13  1  0.201700  0.500000  0.376872  1
  B  B14  1  0.201700  0.500000  0.623128  1
  B  B15  1  0.200922  0.500000  0.877256  1
  B  B16  1  0.500000  0.500000  0.049082  1
  B  B17  1  0.500000  0.500000  0.301063  1
  B  B18  1  0.500000  0.500000  0.549359  1
  B  B19  1  0.500000  0.500000  0.801962  1
  B  B20  1  0.500000  0.799078  0.122744  1
  B  B21  1  0.500000  0.798300  0.376872  1
  B  B22  1  0.500000  0.798300  0.623128  1
  B  B23  1  0.500000  0.799078  0.877256  1
  B  B24  1  0.799078  0.500000  0.122744  1
  B  B25  1  0.798300  0.500000  0.376872  1
  B  B26  1  0.798300  0.500000  0.623128  1
  B  B27  1  0.799078  0.500000  0.877256  1
