# generated using pymatgen
data_AlBi2(SCl2)2
_symmetry_space_group_name_H-M   'P 1'
_cell_length_a   9.45941858
_cell_length_b   11.50728793
_cell_length_c   12.23880591
_cell_angle_alpha   66.46871804
_cell_angle_beta   77.05058502
_cell_angle_gamma   72.32474851
_symmetry_Int_Tables_number   1
_chemical_formula_structural   AlBi2(SCl2)2
_chemical_formula_sum   'Al4 Bi8 S8 Cl16'
_cell_volume   1155.67893702
_cell_formula_units_Z   4
loop_
 _symmetry_equiv_pos_site_id
 _symmetry_equiv_pos_as_xyz
  1  'x, y, z'
loop_
 _atom_site_type_symbol
 _atom_site_label
 _atom_site_symmetry_multiplicity
 _atom_site_fract_x
 _atom_site_fract_y
 _atom_site_fract_z
 _atom_site_occupancy
  Al  Al0  1  0.805456  0.317419  0.542212  1
  Al  Al1  1  0.194544  0.682581  0.457788  1
  Al  Al2  1  0.886624  0.813877  0.024740  1
  Al  Al3  1  0.113376  0.186123  0.975260  1
  Bi  Bi4  1  0.341478  0.987521  0.437637  1
  Bi  Bi5  1  0.658522  0.012479  0.562363  1
  Bi  Bi6  1  0.559700  0.625236  0.675765  1
  Bi  Bi7  1  0.440300  0.374764  0.324235  1
  Bi  Bi8  1  0.557771  0.850241  0.829753  1
  Bi  Bi9  1  0.442229  0.149759  0.170247  1
  Bi  Bi10  1  0.708151  0.438096  0.005090  1
  Bi  Bi11  1  0.291849  0.561904  0.994910  1
  S  S12  1  0.612682  0.846135  0.479807  1
  S  S13  1  0.387318  0.153865  0.520193  1
  S  S14  1  0.351386  0.777134  0.773589  1
  S  S15  1  0.648614  0.222866  0.226411  1
  S  S16  1  0.752069  0.650949  0.784927  1
  S  S17  1  0.247931  0.349051  0.215073  1
  S  S18  1  0.512140  0.404637  0.907023  1
  S  S19  1  0.487860  0.595363  0.092977  1
  Cl  Cl20  1  0.723526  0.445268  0.372126  1
  Cl  Cl21  1  0.276474  0.554732  0.627874  1
  Cl  Cl22  1  0.621111  0.236031  0.657592  1
  Cl  Cl23  1  0.378889  0.763969  0.342408  1
  Cl  Cl24  1  0.862456  0.430146  0.623726  1
  Cl  Cl25  1  0.137544  0.569854  0.376274  1
  Cl  Cl26  1  0.987404  0.160545  0.520451  1
  Cl  Cl27  1  0.012596  0.839455  0.479549  1
  Cl  Cl28  1  0.893391  0.609643  0.072379  1
  Cl  Cl29  1  0.106609  0.390357  0.927621  1
  Cl  Cl30  1  0.861263  0.910198  0.835113  1
  Cl  Cl31  1  0.138737  0.089802  0.164887  1
  Cl  Cl32  1  0.102682  0.815919  0.054418  1
  Cl  Cl33  1  0.897318  0.184081  0.945582  1
  Cl  Cl34  1  0.702640  0.897498  0.130573  1
  Cl  Cl35  1  0.297360  0.102502  0.869427  1
