# generated using pymatgen
data_Pr3AgP6N13
_symmetry_space_group_name_H-M   'P 1'
_cell_length_a   7.46177258
_cell_length_b   7.46177199
_cell_length_c   7.46177300
_cell_angle_alpha   109.13151245
_cell_angle_beta   109.13151086
_cell_angle_gamma   109.13152036
_symmetry_Int_Tables_number   1
_chemical_formula_structural   Pr3AgP6N13
_chemical_formula_sum   'Pr3 Ag1 P6 N13'
_cell_volume   323.77887667
_cell_formula_units_Z   1
loop_
 _symmetry_equiv_pos_site_id
 _symmetry_equiv_pos_as_xyz
  1  'x, y, z'
loop_
 _atom_site_type_symbol
 _atom_site_label
 _atom_site_symmetry_multiplicity
 _atom_site_fract_x
 _atom_site_fract_y
 _atom_site_fract_z
 _atom_site_occupancy
  Pr  Pr0  1  0.690787  0.011802  0.011802  1
  Pr  Pr1  1  0.011802  0.011802  0.690787  1
  Pr  Pr2  1  0.011802  0.690787  0.011802  1
  Ag  Ag3  1  0.270798  0.270798  0.270798  1
  P  P4  1  0.249053  0.751491  0.502327  1
  P  P5  1  0.751491  0.249053  0.502327  1
  P  P6  1  0.751491  0.502327  0.249053  1
  P  P7  1  0.249053  0.502327  0.751491  1
  P  P8  1  0.502327  0.751491  0.249053  1
  P  P9  1  0.502327  0.249053  0.751491  1
  N  N10  1  0.981578  0.981578  0.981578  1
  N  N11  1  0.736558  0.313811  0.313811  1
  N  N12  1  0.313811  0.736558  0.313811  1
  N  N13  1  0.288896  0.586251  0.586251  1
  N  N14  1  0.586251  0.586251  0.288896  1
  N  N15  1  0.389536  0.713304  0.998116  1
  N  N16  1  0.998116  0.713304  0.389536  1
  N  N17  1  0.586251  0.288896  0.586251  1
  N  N18  1  0.713304  0.998116  0.389536  1
  N  N19  1  0.389536  0.998116  0.713304  1
  N  N20  1  0.713304  0.389536  0.998116  1
  N  N21  1  0.313811  0.313811  0.736558  1
  N  N22  1  0.998116  0.389536  0.713304  1
