# generated using pymatgen
data_CeNd7AlNiPd23
_symmetry_space_group_name_H-M   'P 1'
_cell_length_a   8.46366470
_cell_length_b   8.45108316
_cell_length_c   8.48534907
_cell_angle_alpha   89.83465915
_cell_angle_beta   90.17207948
_cell_angle_gamma   90.15367561
_symmetry_Int_Tables_number   1
_chemical_formula_structural   CeNd7AlNiPd23
_chemical_formula_sum   'Ce1 Nd7 Al1 Ni1 Pd23'
_cell_volume   606.92526799
_cell_formula_units_Z   1
loop_
 _symmetry_equiv_pos_site_id
 _symmetry_equiv_pos_as_xyz
  1  'x, y, z'
loop_
 _atom_site_type_symbol
 _atom_site_label
 _atom_site_symmetry_multiplicity
 _atom_site_fract_x
 _atom_site_fract_y
 _atom_site_fract_z
 _atom_site_occupancy
  Ce  Ce0  1  0.745906  0.253880  0.253929  1
  Nd  Nd1  1  0.250111  0.254281  0.250554  1
  Nd  Nd2  1  0.748550  0.747788  0.747945  1
  Nd  Nd3  1  0.747623  0.749902  0.252174  1
  Nd  Nd4  1  0.747756  0.252180  0.750106  1
  Nd  Nd5  1  0.252280  0.253508  0.749552  1
  Nd  Nd6  1  0.252309  0.745577  0.249720  1
  Nd  Nd7  1  0.252341  0.745624  0.749399  1
  Al  Al8  1  0.001518  0.998101  0.998090  1
  Ni  Ni9  1  0.261089  0.499093  0.999184  1
  Pd  Pd10  1  0.740261  0.497671  0.004796  1
  Pd  Pd11  1  0.995400  0.260451  0.497683  1
  Pd  Pd12  1  0.499320  0.263602  0.004366  1
  Pd  Pd13  1  0.000491  0.739661  0.499175  1
  Pd  Pd14  1  0.498061  0.736341  0.999760  1
  Pd  Pd15  1  0.501826  0.004825  0.260261  1
  Pd  Pd16  1  0.260238  0.999664  0.499079  1
  Pd  Pd17  1  0.500364  0.999621  0.739778  1
  Pd  Pd18  1  0.739687  0.004740  0.497725  1
  Pd  Pd19  1  0.995835  0.497763  0.260564  1
  Pd  Pd20  1  0.001136  0.499104  0.739745  1
  Pd  Pd21  1  0.252879  0.499620  0.499642  1
  Pd  Pd22  1  0.746219  0.497294  0.497225  1
  Pd  Pd23  1  0.502488  0.253853  0.497146  1
  Pd  Pd24  1  0.500119  0.746938  0.499686  1
  Pd  Pd25  1  0.500825  0.497478  0.251569  1
  Pd  Pd26  1  0.498527  0.499588  0.749500  1
  Pd  Pd27  1  0.292319  0.999746  0.999865  1
  Pd  Pd28  1  0.709179  0.002592  0.002525  1
  Pd  Pd29  1  0.002046  0.293056  0.002122  1
  Pd  Pd30  1  0.004723  0.704090  0.999927  1
  Pd  Pd31  1  0.997904  0.002534  0.289080  1
  Pd  Pd32  1  0.000670  0.999836  0.708130  1
