# generated using pymatgen
data_La7Tc2Ru2C9
_symmetry_space_group_name_H-M   'P 1'
_cell_length_a   6.60504238
_cell_length_b   6.60504252
_cell_length_c   12.06724129
_cell_angle_alpha   71.48877732
_cell_angle_beta   71.48877653
_cell_angle_gamma   48.34336118
_symmetry_Int_Tables_number   1
_chemical_formula_structural   La7Tc2Ru2C9
_chemical_formula_sum   'La7 Tc2 Ru2 C9'
_cell_volume   368.74859404
_cell_formula_units_Z   1
loop_
 _symmetry_equiv_pos_site_id
 _symmetry_equiv_pos_as_xyz
  1  'x, y, z'
loop_
 _atom_site_type_symbol
 _atom_site_label
 _atom_site_symmetry_multiplicity
 _atom_site_fract_x
 _atom_site_fract_y
 _atom_site_fract_z
 _atom_site_occupancy
  La  La0  1  0.374245  0.374245  0.844469  1
  La  La1  1  0.143056  0.143056  0.684413  1
  La  La2  1  0.857311  0.857311  0.316710  1
  La  La3  1  0.139059  0.139059  0.379881  1
  La  La4  1  0.860421  0.860421  0.619754  1
  La  La5  1  0.003582  0.003582  0.999431  1
  La  La6  1  0.627224  0.627224  0.157894  1
  Tc  Tc7  1  0.358599  0.358599  0.139193  1
  Tc  Tc8  1  0.563539  0.563539  0.570259  1
  Ru  Ru9  1  0.433420  0.433420  0.428781  1
  Ru  Ru10  1  0.642989  0.642989  0.858642  1
  C  C11  1  0.384028  0.384028  0.288356  1
  C  C12  1  0.921167  0.921167  0.819645  1
  C  C13  1  0.392358  0.392358  0.612196  1
  C  C14  1  0.194637  0.194637  0.142122  1
  C  C15  1  0.804158  0.804158  0.855903  1
  C  C16  1  0.499305  0.499305  0.999310  1
  C  C17  1  0.076806  0.076806  0.183306  1
  C  C18  1  0.615138  0.615138  0.708861  1
  C  C19  1  0.608958  0.608958  0.390873  1
