# generated using pymatgen
data_Er4Sc2B4(IrRh)5
_symmetry_space_group_name_H-M   'P 1'
_cell_length_a   9.69209707
_cell_length_b   9.70186307
_cell_length_c   3.19008200
_cell_angle_alpha   90.00000000
_cell_angle_beta   90.00000000
_cell_angle_gamma   90.01338303
_symmetry_Int_Tables_number   1
_chemical_formula_structural   Er4Sc2B4(IrRh)5
_chemical_formula_sum   'Er4 Sc2 B4 Ir5 Rh5'
_cell_volume   299.96786380
_cell_formula_units_Z   1
loop_
 _symmetry_equiv_pos_site_id
 _symmetry_equiv_pos_as_xyz
  1  'x, y, z'
loop_
 _atom_site_type_symbol
 _atom_site_label
 _atom_site_symmetry_multiplicity
 _atom_site_fract_x
 _atom_site_fract_y
 _atom_site_fract_z
 _atom_site_occupancy
  Er  Er0  1  0.824838  0.324587  0.000000  1
  Er  Er1  1  0.324897  0.174923  0.000000  1
  Er  Er2  1  0.674934  0.824662  0.000000  1
  Er  Er3  1  0.175155  0.674748  0.000000  1
  Sc  Sc4  1  0.999900  0.000075  0.000000  1
  Sc  Sc5  1  0.500176  0.499160  0.000000  1
  B  B6  1  0.621847  0.119910  0.000000  1
  B  B7  1  0.119713  0.378336  0.000000  1
  B  B8  1  0.880226  0.622167  0.000000  1
  B  B9  1  0.379060  0.878760  0.000000  1
  Ir  Ir10  1  0.071322  0.225634  0.500000  1
  Ir  Ir11  1  0.224611  0.929935  0.500000  1
  Ir  Ir12  1  0.774768  0.071163  0.500000  1
  Ir  Ir13  1  0.929068  0.774682  0.500000  1
  Ir  Ir14  1  0.429117  0.724804  0.500000  1
  Rh  Rh15  1  0.571000  0.275248  0.500000  1
  Rh  Rh16  1  0.724555  0.571028  0.500000  1
  Rh  Rh17  1  0.275084  0.429501  0.500000  1
  Rh  Rh18  1  0.500259  0.000761  0.500000  1
  Rh  Rh19  1  0.999472  0.499917  0.500000  1
