# generated using pymatgen
data_Ho3RhI3
_symmetry_space_group_name_H-M   'P 1'
_cell_length_a   4.22916200
_cell_length_b   8.82282737
_cell_length_c   12.34104295
_cell_angle_alpha   86.60873689
_cell_angle_beta   90.00000000
_cell_angle_gamma   90.00000000
_symmetry_Int_Tables_number   1
_chemical_formula_structural   Ho3RhI3
_chemical_formula_sum   'Ho6 Rh2 I6'
_cell_volume   459.67701644
_cell_formula_units_Z   2
loop_
 _symmetry_equiv_pos_site_id
 _symmetry_equiv_pos_as_xyz
  1  'x, y, z'
loop_
 _atom_site_type_symbol
 _atom_site_label
 _atom_site_symmetry_multiplicity
 _atom_site_fract_x
 _atom_site_fract_y
 _atom_site_fract_z
 _atom_site_occupancy
  Ho  Ho0  1  0.750000  0.138581  0.128072  1
  Ho  Ho1  1  0.250000  0.861419  0.871928  1
  Ho  Ho2  1  0.750000  0.095181  0.685674  1
  Ho  Ho3  1  0.250000  0.904819  0.314326  1
  Ho  Ho4  1  0.250000  0.254168  0.898447  1
  Ho  Ho5  1  0.750000  0.745832  0.101553  1
  Rh  Rh6  1  0.750000  0.051899  0.908499  1
  Rh  Rh7  1  0.250000  0.948101  0.091501  1
  I  I8  1  0.250000  0.428394  0.133074  1
  I  I9  1  0.750000  0.571606  0.866926  1
  I  I10  1  0.250000  0.349861  0.638531  1
  I  I11  1  0.750000  0.650139  0.361469  1
  I  I12  1  0.750000  0.143301  0.393570  1
  I  I13  1  0.250000  0.856699  0.606430  1
