# generated using pymatgen
data_LuNb(CoP)3
_symmetry_space_group_name_H-M   'P 1'
_cell_length_a   3.57397600
_cell_length_b   9.79234700
_cell_length_c   12.08631100
_cell_angle_alpha   90.00000000
_cell_angle_beta   90.00000000
_cell_angle_gamma   90.00000000
_symmetry_Int_Tables_number   1
_chemical_formula_structural   LuNb(CoP)3
_chemical_formula_sum   'Lu4 Nb4 Co12 P12'
_cell_volume   422.99203693
_cell_formula_units_Z   4
loop_
 _symmetry_equiv_pos_site_id
 _symmetry_equiv_pos_as_xyz
  1  'x, y, z'
loop_
 _atom_site_type_symbol
 _atom_site_label
 _atom_site_symmetry_multiplicity
 _atom_site_fract_x
 _atom_site_fract_y
 _atom_site_fract_z
 _atom_site_occupancy
  Lu  Lu0  1  0.250000  0.429085  0.706536  1
  Lu  Lu1  1  0.250000  0.070915  0.206536  1
  Lu  Lu2  1  0.750000  0.570915  0.293464  1
  Lu  Lu3  1  0.750000  0.929085  0.793464  1
  Nb  Nb4  1  0.250000  0.339934  0.996324  1
  Nb  Nb5  1  0.250000  0.160066  0.496324  1
  Nb  Nb6  1  0.750000  0.660066  0.003676  1
  Nb  Nb7  1  0.750000  0.839934  0.503676  1
  Co  Co8  1  0.250000  0.900787  0.982601  1
  Co  Co9  1  0.250000  0.599213  0.482601  1
  Co  Co10  1  0.750000  0.099213  0.017399  1
  Co  Co11  1  0.750000  0.400787  0.517399  1
  Co  Co12  1  0.250000  0.133209  0.716842  1
  Co  Co13  1  0.250000  0.366791  0.216842  1
  Co  Co14  1  0.750000  0.866791  0.283158  1
  Co  Co15  1  0.750000  0.633209  0.783158  1
  Co  Co16  1  0.250000  0.768340  0.163631  1
  Co  Co17  1  0.250000  0.731660  0.663631  1
  Co  Co18  1  0.750000  0.231660  0.836369  1
  Co  Co19  1  0.750000  0.268340  0.336369  1
  P  P20  1  0.250000  0.106751  0.899854  1
  P  P21  1  0.250000  0.393249  0.399854  1
  P  P22  1  0.750000  0.893249  0.100146  1
  P  P23  1  0.750000  0.606751  0.600146  1
  P  P24  1  0.250000  0.729437  0.852648  1
  P  P25  1  0.250000  0.770563  0.352648  1
  P  P26  1  0.750000  0.270563  0.147352  1
  P  P27  1  0.750000  0.229437  0.647352  1
  P  P28  1  0.250000  0.552207  0.120689  1
  P  P29  1  0.250000  0.947793  0.620689  1
  P  P30  1  0.750000  0.447793  0.879311  1
  P  P31  1  0.750000  0.052207  0.379311  1
