# generated using pymatgen
data_Sc8Re(B8Ru)3
_symmetry_space_group_name_H-M   'P 1'
_cell_length_a   3.49857800
_cell_length_b   8.87397568
_cell_length_c   11.19052310
_cell_angle_alpha   90.07041142
_cell_angle_beta   90.00000000
_cell_angle_gamma   90.00000000
_symmetry_Int_Tables_number   1
_chemical_formula_structural   Sc8Re(B8Ru)3
_chemical_formula_sum   'Sc8 Re1 B24 Ru3'
_cell_volume   347.42403138
_cell_formula_units_Z   1
loop_
 _symmetry_equiv_pos_site_id
 _symmetry_equiv_pos_as_xyz
  1  'x, y, z'
loop_
 _atom_site_type_symbol
 _atom_site_label
 _atom_site_symmetry_multiplicity
 _atom_site_fract_x
 _atom_site_fract_y
 _atom_site_fract_z
 _atom_site_occupancy
  Sc  Sc0  1  0.000000  0.318867  0.415191  1
  Sc  Sc1  1  0.000000  0.684133  0.588839  1
  Sc  Sc2  1  0.000000  0.819250  0.083732  1
  Sc  Sc3  1  0.000000  0.178838  0.913121  1
  Sc  Sc4  1  0.000000  0.944011  0.372202  1
  Sc  Sc5  1  0.000000  0.055517  0.627071  1
  Sc  Sc6  1  0.000000  0.443292  0.127867  1
  Sc  Sc7  1  0.000000  0.555502  0.872929  1
  Re  Re8  1  0.000000  0.861633  0.820589  1
  B  B9  1  0.500000  0.553646  0.435236  1
  B  B10  1  0.500000  0.446757  0.564790  1
  B  B11  1  0.500000  0.053474  0.065578  1
  B  B12  1  0.500000  0.947500  0.935543  1
  B  B13  1  0.500000  0.752122  0.421292  1
  B  B14  1  0.500000  0.248245  0.578232  1
  B  B15  1  0.500000  0.251533  0.078721  1
  B  B16  1  0.500000  0.747319  0.921584  1
  B  B17  1  0.500000  0.793635  0.264029  1
  B  B18  1  0.500000  0.206424  0.734971  1
  B  B19  1  0.500000  0.294035  0.236005  1
  B  B20  1  0.500000  0.705036  0.763981  1
  B  B21  1  0.500000  0.629538  0.182255  1
  B  B22  1  0.500000  0.369821  0.817272  1
  B  B23  1  0.500000  0.129992  0.317709  1
  B  B24  1  0.500000  0.870545  0.682239  1
  B  B25  1  0.500000  0.979676  0.212713  1
  B  B26  1  0.500000  0.021780  0.787124  1
  B  B27  1  0.500000  0.479528  0.287651  1
  B  B28  1  0.500000  0.520192  0.712422  1
  B  B29  1  0.500000  0.600281  0.028198  1
  B  B30  1  0.500000  0.397620  0.972260  1
  B  B31  1  0.500000  0.102148  0.471613  1
  B  B32  1  0.500000  0.898855  0.527240  1
  Ru  Ru33  1  0.000000  0.638666  0.320076  1
  Ru  Ru34  1  0.000000  0.361365  0.679315  1
  Ru  Ru35  1  0.000000  0.139224  0.180409  1
