# generated using pymatgen
data_MnAl4HgBr16
_symmetry_space_group_name_H-M   'P 1'
_cell_length_a   10.39102050
_cell_length_b   10.39102079
_cell_length_c   12.44958600
_cell_angle_alpha   55.66042893
_cell_angle_beta   55.66042781
_cell_angle_gamma   49.33533999
_symmetry_Int_Tables_number   1
_chemical_formula_structural   MnAl4HgBr16
_chemical_formula_sum   'Mn1 Al4 Hg1 Br16'
_cell_volume   799.41370082
_cell_formula_units_Z   1
loop_
 _symmetry_equiv_pos_site_id
 _symmetry_equiv_pos_as_xyz
  1  'x, y, z'
loop_
 _atom_site_type_symbol
 _atom_site_label
 _atom_site_symmetry_multiplicity
 _atom_site_fract_x
 _atom_site_fract_y
 _atom_site_fract_z
 _atom_site_occupancy
  Mn  Mn0  1  0.004367  0.995633  0.250000  1
  Al  Al1  1  0.160794  0.669700  0.527717  1
  Al  Al2  1  0.330300  0.839206  0.972283  1
  Al  Al3  1  0.839285  0.330581  0.465520  1
  Al  Al4  1  0.669419  0.160715  0.034480  1
  Hg  Hg5  1  0.001317  0.998683  0.750000  1
  Br  Br6  1  0.307403  0.378297  0.545840  1
  Br  Br7  1  0.621703  0.692597  0.954160  1
  Br  Br8  1  0.691762  0.622204  0.447757  1
  Br  Br9  1  0.377796  0.308238  0.052243  1
  Br  Br10  1  0.872296  0.827815  0.513447  1
  Br  Br11  1  0.172185  0.127704  0.986553  1
  Br  Br12  1  0.130534  0.183170  0.470992  1
  Br  Br13  1  0.816830  0.869466  0.029008  1
  Br  Br14  1  0.151274  0.667315  0.722388  1
  Br  Br15  1  0.332685  0.848726  0.777612  1
  Br  Br16  1  0.856578  0.314685  0.275741  1
  Br  Br17  1  0.685315  0.143422  0.224259  1
  Br  Br18  1  0.289421  0.839305  0.324150  1
  Br  Br19  1  0.160695  0.710579  0.175850  1
  Br  Br20  1  0.699046  0.171004  0.668623  1
  Br  Br21  1  0.828996  0.300954  0.831377  1
