# generated using pymatgen
data_Tm2Mn5V(Fe2P3)2
_symmetry_space_group_name_H-M   'P 1'
_cell_length_a   3.63512300
_cell_length_b   10.39982500
_cell_length_c   12.10927400
_cell_angle_alpha   90.00000000
_cell_angle_beta   90.00000000
_cell_angle_gamma   90.00000000
_symmetry_Int_Tables_number   1
_chemical_formula_structural   Tm2Mn5V(Fe2P3)2
_chemical_formula_sum   'Tm4 Mn10 V2 Fe8 P12'
_cell_volume   457.78678121
_cell_formula_units_Z   2
loop_
 _symmetry_equiv_pos_site_id
 _symmetry_equiv_pos_as_xyz
  1  'x, y, z'
loop_
 _atom_site_type_symbol
 _atom_site_label
 _atom_site_symmetry_multiplicity
 _atom_site_fract_x
 _atom_site_fract_y
 _atom_site_fract_z
 _atom_site_occupancy
  Tm  Tm0  1  0.250000  0.580108  0.709649  1
  Tm  Tm1  1  0.250000  0.919892  0.209649  1
  Tm  Tm2  1  0.750000  0.419577  0.290316  1
  Tm  Tm3  1  0.750000  0.080423  0.790316  1
  Mn  Mn4  1  0.750000  0.295648  0.011325  1
  Mn  Mn5  1  0.750000  0.204352  0.511325  1
  Mn  Mn6  1  0.250000  0.403810  0.493305  1
  Mn  Mn7  1  0.250000  0.096190  0.993305  1
  Mn  Mn8  1  0.750000  0.588480  0.508540  1
  Mn  Mn9  1  0.750000  0.911520  0.008540  1
  Mn  Mn10  1  0.250000  0.221589  0.172973  1
  Mn  Mn11  1  0.250000  0.278411  0.672973  1
  Mn  Mn12  1  0.750000  0.782075  0.823412  1
  Mn  Mn13  1  0.750000  0.717925  0.323412  1
  V  V14  1  0.250000  0.703039  0.988769  1
  V  V15  1  0.250000  0.796961  0.488769  1
  Fe  Fe16  1  0.250000  0.873216  0.699948  1
  Fe  Fe17  1  0.250000  0.626784  0.199948  1
  Fe  Fe18  1  0.750000  0.126008  0.301401  1
  Fe  Fe19  1  0.750000  0.373992  0.801401  1
  Fe  Fe20  1  0.250000  0.460962  0.934814  1
  Fe  Fe21  1  0.250000  0.039038  0.434814  1
  Fe  Fe22  1  0.750000  0.536723  0.065462  1
  Fe  Fe23  1  0.750000  0.963277  0.565462  1
  P  P24  1  0.250000  0.428864  0.113771  1
  P  P25  1  0.250000  0.071136  0.613771  1
  P  P26  1  0.750000  0.572312  0.886587  1
  P  P27  1  0.750000  0.927688  0.386587  1
  P  P28  1  0.250000  0.265802  0.866335  1
  P  P29  1  0.250000  0.234198  0.366335  1
  P  P30  1  0.750000  0.734684  0.131105  1
  P  P31  1  0.750000  0.765316  0.631105  1
  P  P32  1  0.250000  0.592106  0.386614  1
  P  P33  1  0.250000  0.907894  0.886614  1
  P  P34  1  0.750000  0.402465  0.615672  1
  P  P35  1  0.750000  0.097535  0.115672  1
