# generated using pymatgen
data_Zr3Ga3NiPt2
_symmetry_space_group_name_H-M   'P 1'
_cell_length_a   7.13774400
_cell_length_b   7.13774382
_cell_length_c   7.03293800
_cell_angle_alpha   90.00000000
_cell_angle_beta   90.00000000
_cell_angle_gamma   119.99999156
_symmetry_Int_Tables_number   1
_chemical_formula_structural   Zr3Ga3NiPt2
_chemical_formula_sum   'Zr6 Ga6 Ni2 Pt4'
_cell_volume   310.30543464
_cell_formula_units_Z   2
loop_
 _symmetry_equiv_pos_site_id
 _symmetry_equiv_pos_as_xyz
  1  'x, y, z'
loop_
 _atom_site_type_symbol
 _atom_site_label
 _atom_site_symmetry_multiplicity
 _atom_site_fract_x
 _atom_site_fract_y
 _atom_site_fract_z
 _atom_site_occupancy
  Zr  Zr0  1  0.381886  0.403744  0.750000  1
  Zr  Zr1  1  0.021858  0.618114  0.750000  1
  Zr  Zr2  1  0.596256  0.978142  0.750000  1
  Zr  Zr3  1  0.618114  0.021858  0.250000  1
  Zr  Zr4  1  0.978142  0.596256  0.250000  1
  Zr  Zr5  1  0.403744  0.381886  0.250000  1
  Ga  Ga6  1  0.254047  0.000000  0.000000  1
  Ga  Ga7  1  0.745953  0.745953  0.000000  1
  Ga  Ga8  1  0.000000  0.254047  0.000000  1
  Ga  Ga9  1  0.745953  0.745953  0.500000  1
  Ga  Ga10  1  0.254047  0.000000  0.500000  1
  Ga  Ga11  1  0.000000  0.254047  0.500000  1
  Ni  Ni12  1  0.000000  0.000000  0.750000  1
  Ni  Ni13  1  0.000000  0.000000  0.250000  1
  Pt  Pt14  1  0.666667  0.333333  0.969822  1
  Pt  Pt15  1  0.666667  0.333333  0.530178  1
  Pt  Pt16  1  0.333333  0.666667  0.469822  1
  Pt  Pt17  1  0.333333  0.666667  0.030178  1
