# generated using pymatgen
data_Zr6TiAl(Ir2N)2
_symmetry_space_group_name_H-M   'P 1'
_cell_length_a   8.62152869
_cell_length_b   8.62152980
_cell_length_c   8.60517900
_cell_angle_alpha   60.06272000
_cell_angle_beta   60.06271575
_cell_angle_gamma   60.04598050
_symmetry_Int_Tables_number   1
_chemical_formula_structural   Zr6TiAl(Ir2N)2
_chemical_formula_sum   'Zr12 Ti2 Al2 Ir8 N4'
_cell_volume   452.87208275
_cell_formula_units_Z   2
loop_
 _symmetry_equiv_pos_site_id
 _symmetry_equiv_pos_as_xyz
  1  'x, y, z'
loop_
 _atom_site_type_symbol
 _atom_site_label
 _atom_site_symmetry_multiplicity
 _atom_site_fract_x
 _atom_site_fract_y
 _atom_site_fract_z
 _atom_site_occupancy
  Zr  Zr0  1  0.811251  0.811251  0.188749  1
  Zr  Zr1  1  0.190005  0.190005  0.809995  1
  Zr  Zr2  1  0.809878  0.188456  0.809476  1
  Zr  Zr3  1  0.188456  0.809878  0.192190  1
  Zr  Zr4  1  0.188456  0.809878  0.809476  1
  Zr  Zr5  1  0.809878  0.188456  0.192190  1
  Zr  Zr6  1  0.438749  0.438749  0.061251  1
  Zr  Zr7  1  0.059995  0.059995  0.440005  1
  Zr  Zr8  1  0.440122  0.061544  0.440524  1
  Zr  Zr9  1  0.061544  0.440122  0.057810  1
  Zr  Zr10  1  0.061544  0.440122  0.440524  1
  Zr  Zr11  1  0.440122  0.061544  0.057810  1
  Ti  Ti12  1  0.625000  0.625000  0.125000  1
  Ti  Ti13  1  0.625000  0.625000  0.625000  1
  Al  Al14  1  0.125000  0.625000  0.625000  1
  Al  Al15  1  0.625000  0.125000  0.625000  1
  Ir  Ir16  1  0.751558  0.417152  0.415646  1
  Ir  Ir17  1  0.417152  0.751558  0.415646  1
  Ir  Ir18  1  0.417525  0.417525  0.749696  1
  Ir  Ir19  1  0.417525  0.417525  0.415257  1
  Ir  Ir20  1  0.498442  0.832848  0.834354  1
  Ir  Ir21  1  0.832848  0.498442  0.834354  1
  Ir  Ir22  1  0.832475  0.832475  0.500304  1
  Ir  Ir23  1  0.832475  0.832475  0.834743  1
  N  N24  1  0.625000  0.125000  0.125000  1
  N  N25  1  0.125000  0.625000  0.125000  1
  N  N26  1  0.125000  0.125000  0.625000  1
  N  N27  1  0.125000  0.125000  0.125000  1
