# generated using pymatgen
data_Eu2YAl3Si2Pt
_symmetry_space_group_name_H-M   'P 1'
_cell_length_a   7.08560217
_cell_length_b   7.08560257
_cell_length_c   4.33704900
_cell_angle_alpha   90.00000000
_cell_angle_beta   90.00000000
_cell_angle_gamma   120.19413449
_symmetry_Int_Tables_number   1
_chemical_formula_structural   Eu2YAl3Si2Pt
_chemical_formula_sum   'Eu2 Y1 Al3 Si2 Pt1'
_cell_volume   188.20259479
_cell_formula_units_Z   1
loop_
 _symmetry_equiv_pos_site_id
 _symmetry_equiv_pos_as_xyz
  1  'x, y, z'
loop_
 _atom_site_type_symbol
 _atom_site_label
 _atom_site_symmetry_multiplicity
 _atom_site_fract_x
 _atom_site_fract_y
 _atom_site_fract_z
 _atom_site_occupancy
  Eu  Eu0  1  0.423940  0.001256  0.000000  1
  Eu  Eu1  1  0.001256  0.423940  0.000000  1
  Y  Y2  1  0.580603  0.580603  0.000000  1
  Al  Al3  1  0.766157  0.996835  0.500000  1
  Al  Al4  1  0.235124  0.235124  0.500000  1
  Al  Al5  1  0.996835  0.766157  0.500000  1
  Si  Si6  1  0.663569  0.341292  0.500000  1
  Si  Si7  1  0.341292  0.663568  0.500000  1
  Pt  Pt8  1  0.991224  0.991224  0.000000  1
