# generated using pymatgen
data_Ti6Mn2Tc3Pt
_symmetry_space_group_name_H-M   'P 1'
_cell_length_a   4.36617600
_cell_length_b   6.14603500
_cell_length_c   13.06414200
_cell_angle_alpha   90.00000000
_cell_angle_beta   90.00000000
_cell_angle_gamma   90.00000000
_symmetry_Int_Tables_number   1
_chemical_formula_structural   Ti6Mn2Tc3Pt
_chemical_formula_sum   'Ti12 Mn4 Tc6 Pt2'
_cell_volume   350.57194609
_cell_formula_units_Z   2
loop_
 _symmetry_equiv_pos_site_id
 _symmetry_equiv_pos_as_xyz
  1  'x, y, z'
loop_
 _atom_site_type_symbol
 _atom_site_label
 _atom_site_symmetry_multiplicity
 _atom_site_fract_x
 _atom_site_fract_y
 _atom_site_fract_z
 _atom_site_occupancy
  Ti  Ti0  1  0.500011  0.257263  0.005007  1
  Ti  Ti1  1  0.500011  0.742737  0.005007  1
  Ti  Ti2  1  0.000129  0.249948  0.166428  1
  Ti  Ti3  1  0.000129  0.750052  0.166428  1
  Ti  Ti4  1  0.500125  0.250068  0.333716  1
  Ti  Ti5  1  0.500125  0.749933  0.333716  1
  Ti  Ti6  1  0.000012  0.242478  0.494959  1
  Ti  Ti7  1  0.000012  0.757522  0.494959  1
  Ti  Ti8  1  0.499896  0.242117  0.658956  1
  Ti  Ti9  1  0.499896  0.757884  0.658956  1
  Ti  Ti10  1  0.999896  0.257677  0.840938  1
  Ti  Ti11  1  0.999896  0.742323  0.840938  1
  Mn  Mn12  1  0.999992  0.500000  0.998755  1
  Mn  Mn13  1  0.500036  0.000000  0.166774  1
  Mn  Mn14  1  0.000042  0.500000  0.333126  1
  Mn  Mn15  1  0.499979  0.000000  0.501266  1
  Tc  Tc16  1  0.000009  0.000000  0.002097  1
  Tc  Tc17  1  0.500141  0.500000  0.168867  1
  Tc  Tc18  1  0.000138  0.000000  0.331162  1
  Tc  Tc19  1  0.500009  0.500000  0.497882  1
  Tc  Tc20  1  0.999889  0.000000  0.667454  1
  Tc  Tc21  1  0.499890  0.500000  0.832563  1
  Pt  Pt22  1  0.999870  0.500000  0.666367  1
  Pt  Pt23  1  0.499864  0.000000  0.833682  1
