# generated using pymatgen
data_Er5LuCo2
_symmetry_space_group_name_H-M   'P 1'
_cell_length_a   6.14941861
_cell_length_b   6.89888600
_cell_length_c   9.24185196
_cell_angle_alpha   90.00000000
_cell_angle_beta   90.10584474
_cell_angle_gamma   90.00000000
_symmetry_Int_Tables_number   1
_chemical_formula_structural   Er5LuCo2
_chemical_formula_sum   'Er10 Lu2 Co4'
_cell_volume   392.07693361
_cell_formula_units_Z   2
loop_
 _symmetry_equiv_pos_site_id
 _symmetry_equiv_pos_as_xyz
  1  'x, y, z'
loop_
 _atom_site_type_symbol
 _atom_site_label
 _atom_site_symmetry_multiplicity
 _atom_site_fract_x
 _atom_site_fract_y
 _atom_site_fract_z
 _atom_site_occupancy
  Er  Er0  1  0.323333  0.676162  0.068149  1
  Er  Er1  1  0.176667  0.176162  0.431851  1
  Er  Er2  1  0.676314  0.324090  0.566504  1
  Er  Er3  1  0.823686  0.824090  0.933496  1
  Er  Er4  1  0.676553  0.323591  0.933911  1
  Er  Er5  1  0.823447  0.823591  0.566089  1
  Er  Er6  1  0.864055  0.541289  0.250623  1
  Er  Er7  1  0.635945  0.041289  0.249377  1
  Er  Er8  1  0.138456  0.459142  0.749976  1
  Er  Er9  1  0.361544  0.959142  0.750024  1
  Lu  Lu10  1  0.324665  0.675910  0.433234  1
  Lu  Lu11  1  0.175335  0.175910  0.066766  1
  Co  Co12  1  0.047681  0.887107  0.249899  1
  Co  Co13  1  0.452319  0.387107  0.250101  1
  Co  Co14  1  0.952917  0.112709  0.751510  1
  Co  Co15  1  0.547083  0.612709  0.748490  1
