# generated using pymatgen
data_Y4ReTc5Os2
_symmetry_space_group_name_H-M   'P 1'
_cell_length_a   5.28380303
_cell_length_b   5.28380373
_cell_length_c   9.08147400
_cell_angle_alpha   90.00000000
_cell_angle_beta   90.00000000
_cell_angle_gamma   118.75464668
_symmetry_Int_Tables_number   1
_chemical_formula_structural   Y4ReTc5Os2
_chemical_formula_sum   'Y4 Re1 Tc5 Os2'
_cell_volume   222.27702519
_cell_formula_units_Z   1
loop_
 _symmetry_equiv_pos_site_id
 _symmetry_equiv_pos_as_xyz
  1  'x, y, z'
loop_
 _atom_site_type_symbol
 _atom_site_label
 _atom_site_symmetry_multiplicity
 _atom_site_fract_x
 _atom_site_fract_y
 _atom_site_fract_z
 _atom_site_occupancy
  Y  Y0  1  0.332365  0.667635  0.436809  1
  Y  Y1  1  0.667416  0.332584  0.562702  1
  Y  Y2  1  0.667416  0.332584  0.937298  1
  Y  Y3  1  0.332365  0.667635  0.063191  1
  Re  Re4  1  0.833030  0.166970  0.250000  1
  Tc  Tc5  1  0.830567  0.655850  0.250000  1
  Tc  Tc6  1  0.344150  0.169433  0.250000  1
  Tc  Tc7  1  0.170315  0.829685  0.750000  1
  Tc  Tc8  1  0.170242  0.340199  0.750000  1
  Tc  Tc9  1  0.659801  0.829758  0.750000  1
  Os  Os10  1  0.996167  0.003833  0.499973  1
  Os  Os11  1  0.996167  0.003833  0.000027  1
