# generated using pymatgen
data_Dy16ZnIn3Ir4
_symmetry_space_group_name_H-M   'P 1'
_cell_length_a   9.62470817
_cell_length_b   9.62470762
_cell_length_c   9.62470747
_cell_angle_alpha   60.05178029
_cell_angle_beta   60.05178168
_cell_angle_gamma   60.05178426
_symmetry_Int_Tables_number   1
_chemical_formula_structural   Dy16ZnIn3Ir4
_chemical_formula_sum   'Dy16 Zn1 In3 Ir4'
_cell_volume   631.18557506
_cell_formula_units_Z   1
loop_
 _symmetry_equiv_pos_site_id
 _symmetry_equiv_pos_as_xyz
  1  'x, y, z'
loop_
 _atom_site_type_symbol
 _atom_site_label
 _atom_site_symmetry_multiplicity
 _atom_site_fract_x
 _atom_site_fract_y
 _atom_site_fract_z
 _atom_site_occupancy
  Dy  Dy0  1  0.598313  0.598313  0.598313  1
  Dy  Dy1  1  0.601624  0.601624  0.199078  1
  Dy  Dy2  1  0.601624  0.199078  0.601624  1
  Dy  Dy3  1  0.199078  0.601624  0.601624  1
  Dy  Dy4  1  0.058047  0.440764  0.440764  1
  Dy  Dy5  1  0.438769  0.059323  0.059323  1
  Dy  Dy6  1  0.440764  0.058047  0.440764  1
  Dy  Dy7  1  0.059323  0.438769  0.059323  1
  Dy  Dy8  1  0.440764  0.440764  0.058047  1
  Dy  Dy9  1  0.059323  0.059323  0.438769  1
  Dy  Dy10  1  0.184042  0.812248  0.812248  1
  Dy  Dy11  1  0.810542  0.189630  0.189630  1
  Dy  Dy12  1  0.812248  0.184042  0.812248  1
  Dy  Dy13  1  0.189630  0.810542  0.189630  1
  Dy  Dy14  1  0.812248  0.812248  0.184042  1
  Dy  Dy15  1  0.189630  0.189630  0.810542  1
  Zn  Zn16  1  0.833131  0.833131  0.833131  1
  In  In17  1  0.832210  0.832210  0.505717  1
  In  In18  1  0.832210  0.505717  0.832210  1
  In  In19  1  0.505717  0.832210  0.832210  1
  Ir  Ir20  1  0.392521  0.392521  0.392521  1
  Ir  Ir21  1  0.391395  0.391395  0.825454  1
  Ir  Ir22  1  0.391395  0.825454  0.391395  1
  Ir  Ir23  1  0.825454  0.391395  0.391395  1
