# generated using pymatgen
data_La13Ho7Si15Pd
_symmetry_space_group_name_H-M   'P 1'
_cell_length_a   7.94916428
_cell_length_b   7.96424473
_cell_length_c   14.63590134
_cell_angle_alpha   89.99176160
_cell_angle_beta   89.37564586
_cell_angle_gamma   90.30482139
_symmetry_Int_Tables_number   1
_chemical_formula_structural   La13Ho7Si15Pd
_chemical_formula_sum   'La13 Ho7 Si15 Pd1'
_cell_volume   926.51744645
_cell_formula_units_Z   1
loop_
 _symmetry_equiv_pos_site_id
 _symmetry_equiv_pos_as_xyz
  1  'x, y, z'
loop_
 _atom_site_type_symbol
 _atom_site_label
 _atom_site_symmetry_multiplicity
 _atom_site_fract_x
 _atom_site_fract_y
 _atom_site_fract_z
 _atom_site_occupancy
  La  La0  1  0.135585  0.992449  0.875600  1
  La  La1  1  0.993471  0.633703  0.047427  1
  La  La2  1  0.015728  0.356272  0.535986  1
  La  La3  1  0.637527  0.986022  0.959742  1
  La  La4  1  0.140452  0.507554  0.791311  1
  La  La5  1  0.849503  0.484201  0.285950  1
  La  La6  1  0.501070  0.134000  0.207044  1
  La  La7  1  0.498544  0.866525  0.703508  1
  La  La8  1  0.369096  0.017688  0.459385  1
  La  La9  1  0.695410  0.693430  0.497295  1
  La  La10  1  0.824290  0.178251  0.751257  1
  La  La11  1  0.172626  0.809269  0.263939  1
  La  La12  1  0.306135  0.307491  0.996196  1
  Ho  Ho13  1  0.366037  0.488660  0.377745  1
  Ho  Ho14  1  0.849257  0.017651  0.366417  1
  Ho  Ho15  1  0.989026  0.137184  0.129310  1
  Ho  Ho16  1  0.019886  0.865475  0.623799  1
  Ho  Ho17  1  0.638859  0.509318  0.877156  1
  Ho  Ho18  1  0.501622  0.367423  0.621657  1
  Ho  Ho19  1  0.500876  0.632256  0.126320  1
  Si  Si20  1  0.918172  0.292767  0.946168  1
  Si  Si21  1  0.712948  0.077726  0.556685  1
  Si  Si22  1  0.211579  0.426204  0.194116  1
  Si  Si23  1  0.792125  0.570662  0.690815  1
  Si  Si24  1  0.437749  0.217580  0.802269  1
  Si  Si25  1  0.565662  0.788360  0.306664  1
  Si  Si26  1  0.289617  0.923244  0.065227  1
  Si  Si27  1  0.844992  0.787000  0.807732  1
  Si  Si28  1  0.147812  0.212207  0.315307  1
  Si  Si29  1  0.784789  0.846314  0.185663  1
  Si  Si30  1  0.299974  0.652722  0.560815  1
  Si  Si31  1  0.702702  0.347434  0.064263  1
  Si  Si32  1  0.653754  0.297274  0.437993  1
  Si  Si33  1  0.349438  0.698282  0.945250  1
  Si  Si34  1  0.217260  0.158402  0.681851  1
  Pd  Pd35  1  0.066430  0.719001  0.442133  1
