# generated using pymatgen
data_Sc3Ga3PtAu2
_symmetry_space_group_name_H-M   'P 1'
_cell_length_a   7.36444400
_cell_length_b   7.36444299
_cell_length_c   3.49831400
_cell_angle_alpha   90.00000000
_cell_angle_beta   90.00000000
_cell_angle_gamma   119.99999555
_symmetry_Int_Tables_number   1
_chemical_formula_structural   Sc3Ga3PtAu2
_chemical_formula_sum   'Sc3 Ga3 Pt1 Au2'
_cell_volume   164.31200983
_cell_formula_units_Z   1
loop_
 _symmetry_equiv_pos_site_id
 _symmetry_equiv_pos_as_xyz
  1  'x, y, z'
loop_
 _atom_site_type_symbol
 _atom_site_label
 _atom_site_symmetry_multiplicity
 _atom_site_fract_x
 _atom_site_fract_y
 _atom_site_fract_z
 _atom_site_occupancy
  Sc  Sc0  1  0.610124  0.000000  0.000000  1
  Sc  Sc1  1  0.389876  0.389876  0.000000  1
  Sc  Sc2  1  0.000000  0.610124  0.000000  1
  Ga  Ga3  1  0.732926  0.732926  0.500000  1
  Ga  Ga4  1  0.000000  0.267074  0.500000  1
  Ga  Ga5  1  0.267074  0.000000  0.500000  1
  Pt  Pt6  1  0.000000  0.000000  0.000000  1
  Au  Au7  1  0.666667  0.333333  0.500000  1
  Au  Au8  1  0.333333  0.666667  0.500000  1
