# generated using pymatgen
data_Yb4Pr3Tm(Cu2Sn5)2
_symmetry_space_group_name_H-M   'P 1'
_cell_length_a   4.46852300
_cell_length_b   8.79247200
_cell_length_c   14.28869300
_cell_angle_alpha   90.00000000
_cell_angle_beta   90.00000000
_cell_angle_gamma   90.00000000
_symmetry_Int_Tables_number   1
_chemical_formula_structural   Yb4Pr3Tm(Cu2Sn5)2
_chemical_formula_sum   'Yb4 Pr3 Tm1 Cu4 Sn10'
_cell_volume   561.39365120
_cell_formula_units_Z   1
loop_
 _symmetry_equiv_pos_site_id
 _symmetry_equiv_pos_as_xyz
  1  'x, y, z'
loop_
 _atom_site_type_symbol
 _atom_site_label
 _atom_site_symmetry_multiplicity
 _atom_site_fract_x
 _atom_site_fract_y
 _atom_site_fract_z
 _atom_site_occupancy
  Yb  Yb0  1  0.500000  0.792791  0.746785  1
  Yb  Yb1  1  0.000000  0.207614  0.756513  1
  Yb  Yb2  1  0.000000  0.207614  0.243487  1
  Yb  Yb3  1  0.500000  0.792791  0.253215  1
  Pr  Pr4  1  0.000000  0.305284  0.500000  1
  Pr  Pr5  1  0.500000  0.140657  0.000000  1
  Pr  Pr6  1  0.000000  0.853324  0.500000  1
  Tm  Tm7  1  0.500000  0.695785  0.000000  1
  Cu  Cu8  1  0.500000  0.377882  0.650150  1
  Cu  Cu9  1  0.000000  0.623801  0.856734  1
  Cu  Cu10  1  0.000000  0.623801  0.143266  1
  Cu  Cu11  1  0.500000  0.377882  0.349850  1
  Sn  Sn12  1  0.500000  0.080702  0.395517  1
  Sn  Sn13  1  0.000000  0.558650  0.667827  1
  Sn  Sn14  1  0.000000  0.416089  0.000000  1
  Sn  Sn15  1  0.500000  0.445332  0.162233  1
  Sn  Sn16  1  0.500000  0.584094  0.500000  1
  Sn  Sn17  1  0.500000  0.445332  0.837767  1
  Sn  Sn18  1  0.000000  0.915612  0.897449  1
  Sn  Sn19  1  0.000000  0.558650  0.332173  1
  Sn  Sn20  1  0.500000  0.080702  0.604483  1
  Sn  Sn21  1  0.000000  0.915612  0.102551  1
