# generated using pymatgen
data_Ca2Ga6CoNi3
_symmetry_space_group_name_H-M   'P 1'
_cell_length_a   5.20021031
_cell_length_b   6.27224385
_cell_length_c   6.27224352
_cell_angle_alpha   77.56181549
_cell_angle_beta   90.02440707
_cell_angle_gamma   89.97559261
_symmetry_Int_Tables_number   1
_chemical_formula_structural   Ca2Ga6CoNi3
_chemical_formula_sum   'Ca2 Ga6 Co1 Ni3'
_cell_volume   199.77989326
_cell_formula_units_Z   1
loop_
 _symmetry_equiv_pos_site_id
 _symmetry_equiv_pos_as_xyz
  1  'x, y, z'
loop_
 _atom_site_type_symbol
 _atom_site_label
 _atom_site_symmetry_multiplicity
 _atom_site_fract_x
 _atom_site_fract_y
 _atom_site_fract_z
 _atom_site_occupancy
  Ca  Ca0  1  0.749669  0.342309  0.653873  1
  Ca  Ca1  1  0.250331  0.653873  0.342309  1
  Ga  Ga2  1  0.752008  0.952692  0.050205  1
  Ga  Ga3  1  0.247992  0.050205  0.952692  1
  Ga  Ga4  1  0.751397  0.534029  0.084732  1
  Ga  Ga5  1  0.248603  0.084732  0.534029  1
  Ga  Ga6  1  0.246039  0.470375  0.903740  1
  Ga  Ga7  1  0.753961  0.903740  0.470375  1
  Co  Co8  1  0.000000  0.793604  0.793604  1
  Ni  Ni9  1  0.500000  0.210582  0.210582  1
  Ni  Ni10  1  0.000000  0.211882  0.211882  1
  Ni  Ni11  1  0.500000  0.791976  0.791976  1
