# generated using pymatgen
data_Y5RuWC7
_symmetry_space_group_name_H-M   'P 1'
_cell_length_a   8.32546519
_cell_length_b   8.32546517
_cell_length_c   3.48074000
_cell_angle_alpha   90.00000000
_cell_angle_beta   90.00000000
_cell_angle_gamma   122.27014616
_symmetry_Int_Tables_number   1
_chemical_formula_structural   Y5RuWC7
_chemical_formula_sum   'Y5 Ru1 W1 C7'
_cell_volume   203.99655426
_cell_formula_units_Z   1
loop_
 _symmetry_equiv_pos_site_id
 _symmetry_equiv_pos_as_xyz
  1  'x, y, z'
loop_
 _atom_site_type_symbol
 _atom_site_label
 _atom_site_symmetry_multiplicity
 _atom_site_fract_x
 _atom_site_fract_y
 _atom_site_fract_z
 _atom_site_occupancy
  Y  Y0  1  0.502017  0.497983  0.000000  1
  Y  Y1  1  0.072717  0.333829  0.500000  1
  Y  Y2  1  0.921777  0.661661  0.500000  1
  Y  Y3  1  0.666171  0.927283  0.500000  1
  Y  Y4  1  0.338339  0.078223  0.500000  1
  Ru  Ru5  1  0.710409  0.289591  0.000000  1
  W  W6  1  0.287143  0.712857  0.000000  1
  C  C7  1  0.630681  0.369319  0.500000  1
  C  C8  1  0.375314  0.624686  0.500000  1
  C  C9  1  0.999076  0.000924  0.000000  1
  C  C10  1  0.168125  0.169264  0.000000  1
  C  C11  1  0.830736  0.831875  0.000000  1
  C  C12  1  0.001583  0.504088  0.000000  1
  C  C13  1  0.495912  0.998417  0.000000  1
