# generated using pymatgen
data_CeHo9(Zn2Ru3)2
_symmetry_space_group_name_H-M   'P 1'
_cell_length_a   8.27167156
_cell_length_b   8.27167104
_cell_length_c   8.27167204
_cell_angle_alpha   109.40266056
_cell_angle_beta   109.40266396
_cell_angle_gamma   109.40267642
_symmetry_Int_Tables_number   1
_chemical_formula_structural   CeHo9(Zn2Ru3)2
_chemical_formula_sum   'Ce1 Ho9 Zn4 Ru6'
_cell_volume   436.77258665
_cell_formula_units_Z   1
loop_
 _symmetry_equiv_pos_site_id
 _symmetry_equiv_pos_as_xyz
  1  'x, y, z'
loop_
 _atom_site_type_symbol
 _atom_site_label
 _atom_site_symmetry_multiplicity
 _atom_site_fract_x
 _atom_site_fract_y
 _atom_site_fract_z
 _atom_site_occupancy
  Ce  Ce0  1  0.606593  0.606593  0.606593  1
  Ho  Ho1  1  0.473525  0.150501  0.217583  1
  Ho  Ho2  1  0.150501  0.217583  0.473525  1
  Ho  Ho3  1  0.217583  0.473525  0.150501  1
  Ho  Ho4  1  0.409967  0.683883  0.910395  1
  Ho  Ho5  1  0.683883  0.910395  0.409967  1
  Ho  Ho6  1  0.910395  0.409967  0.683883  1
  Ho  Ho7  1  0.659976  0.092098  0.840579  1
  Ho  Ho8  1  0.092098  0.840579  0.659976  1
  Ho  Ho9  1  0.840579  0.659976  0.092098  1
  Zn  Zn10  1  0.411156  0.319030  0.913946  1
  Zn  Zn11  1  0.319030  0.913946  0.411156  1
  Zn  Zn12  1  0.913946  0.411156  0.319030  1
  Zn  Zn13  1  0.994412  0.994412  0.994412  1
  Ru  Ru14  1  0.027434  0.160338  0.776712  1
  Ru  Ru15  1  0.160338  0.776712  0.027434  1
  Ru  Ru16  1  0.776712  0.027434  0.160338  1
  Ru  Ru17  1  0.658006  0.540178  0.303689  1
  Ru  Ru18  1  0.540178  0.303689  0.658006  1
  Ru  Ru19  1  0.303689  0.658006  0.540178  1
