# generated using pymatgen
data_Pr4U2(TcRu)3
_symmetry_space_group_name_H-M   'P 1'
_cell_length_a   5.88355900
_cell_length_b   5.88356136
_cell_length_c   8.28287400
_cell_angle_alpha   90.00000000
_cell_angle_beta   90.00000000
_cell_angle_gamma   119.99999233
_symmetry_Int_Tables_number   1
_chemical_formula_structural   Pr4U2(TcRu)3
_chemical_formula_sum   'Pr4 U2 Tc3 Ru3'
_cell_volume   248.30880533
_cell_formula_units_Z   1
loop_
 _symmetry_equiv_pos_site_id
 _symmetry_equiv_pos_as_xyz
  1  'x, y, z'
loop_
 _atom_site_type_symbol
 _atom_site_label
 _atom_site_symmetry_multiplicity
 _atom_site_fract_x
 _atom_site_fract_y
 _atom_site_fract_z
 _atom_site_occupancy
  Pr  Pr0  1  0.333333  0.666667  0.434578  1
  Pr  Pr1  1  0.666667  0.333333  0.558186  1
  Pr  Pr2  1  0.666667  0.333333  0.941814  1
  Pr  Pr3  1  0.333333  0.666667  0.065422  1
  U  U4  1  0.000000  0.000000  0.500620  1
  U  U5  1  0.000000  0.000000  0.999380  1
  Tc  Tc6  1  0.159833  0.840167  0.750000  1
  Tc  Tc7  1  0.159833  0.319666  0.750000  1
  Tc  Tc8  1  0.680334  0.840167  0.750000  1
  Ru  Ru9  1  0.837659  0.162341  0.250000  1
  Ru  Ru10  1  0.837659  0.675316  0.250000  1
  Ru  Ru11  1  0.324684  0.162341  0.250000  1
