# generated using pymatgen
data_Lu3Sc(ReOs3)2
_symmetry_space_group_name_H-M   'P 1'
_cell_length_a   5.33357160
_cell_length_b   5.19690851
_cell_length_c   8.75169030
_cell_angle_alpha   89.95702299
_cell_angle_beta   90.05938504
_cell_angle_gamma   119.33235660
_symmetry_Int_Tables_number   1
_chemical_formula_structural   Lu3Sc(ReOs3)2
_chemical_formula_sum   'Lu3 Sc1 Re2 Os6'
_cell_volume   211.47944014
_cell_formula_units_Z   1
loop_
 _symmetry_equiv_pos_site_id
 _symmetry_equiv_pos_as_xyz
  1  'x, y, z'
loop_
 _atom_site_type_symbol
 _atom_site_label
 _atom_site_symmetry_multiplicity
 _atom_site_fract_x
 _atom_site_fract_y
 _atom_site_fract_z
 _atom_site_occupancy
  Lu  Lu0  1  0.329785  0.662014  0.433754  1
  Lu  Lu1  1  0.669544  0.331277  0.937313  1
  Lu  Lu2  1  0.670184  0.331856  0.564623  1
  Sc  Sc3  1  0.327860  0.661271  0.066207  1
  Re  Re4  1  0.168370  0.834190  0.751076  1
  Re  Re5  1  0.830889  0.667736  0.248405  1
  Os  Os6  1  0.652683  0.830205  0.751325  1
  Os  Os7  1  0.346636  0.177602  0.247903  1
  Os  Os8  1  0.826069  0.179696  0.247947  1
  Os  Os9  1  0.174220  0.353161  0.751606  1
  Os  Os10  1  0.001122  0.985596  0.499965  1
  Os  Os11  1  0.002637  0.985398  0.999876  1
