# generated using pymatgen
data_ErTm15InAg3Rh4
_symmetry_space_group_name_H-M   'P 1'
_cell_length_a   9.47320911
_cell_length_b   9.47321105
_cell_length_c   9.45297261
_cell_angle_alpha   59.71443703
_cell_angle_beta   59.71443213
_cell_angle_gamma   59.76898864
_symmetry_Int_Tables_number   1
_chemical_formula_structural   ErTm15InAg3Rh4
_chemical_formula_sum   'Er1 Tm15 In1 Ag3 Rh4'
_cell_volume   596.21413294
_cell_formula_units_Z   1
loop_
 _symmetry_equiv_pos_site_id
 _symmetry_equiv_pos_as_xyz
  1  'x, y, z'
loop_
 _atom_site_type_symbol
 _atom_site_label
 _atom_site_symmetry_multiplicity
 _atom_site_fract_x
 _atom_site_fract_y
 _atom_site_fract_z
 _atom_site_occupancy
  Er  Er0  1  0.062956  0.062956  0.437995  1
  Tm  Tm1  1  0.435913  0.062018  0.438338  1
  Tm  Tm2  1  0.061413  0.435149  0.068203  1
  Tm  Tm3  1  0.053668  0.646871  0.649250  1
  Tm  Tm4  1  0.435102  0.435102  0.067408  1
  Tm  Tm5  1  0.646871  0.053668  0.649250  1
  Tm  Tm6  1  0.189058  0.813388  0.188026  1
  Tm  Tm7  1  0.190192  0.190192  0.811431  1
  Tm  Tm8  1  0.812295  0.812295  0.188687  1
  Tm  Tm9  1  0.435149  0.061413  0.068203  1
  Tm  Tm10  1  0.813388  0.189058  0.188026  1
  Tm  Tm11  1  0.062018  0.435913  0.438338  1
  Tm  Tm12  1  0.809775  0.190718  0.812192  1
  Tm  Tm13  1  0.190718  0.809775  0.812192  1
  Tm  Tm14  1  0.647880  0.647880  0.053362  1
  Tm  Tm15  1  0.648387  0.648387  0.649216  1
  In  In16  1  0.420575  0.420575  0.739676  1
  Ag  Ag17  1  0.417807  0.417807  0.414074  1
  Ag  Ag18  1  0.750129  0.418093  0.413805  1
  Ag  Ag19  1  0.418093  0.750129  0.413805  1
  Rh  Rh20  1  0.855937  0.855937  0.429832  1
  Rh  Rh21  1  0.857787  0.857787  0.856404  1
  Rh  Rh22  1  0.428547  0.856345  0.856143  1
  Rh  Rh23  1  0.856345  0.428547  0.856143  1
