# generated using pymatgen
data_La2Co2P4IrRh
_symmetry_space_group_name_H-M   'P 1'
_cell_length_a   4.10182700
_cell_length_b   4.10182700
_cell_length_c   9.46396000
_cell_angle_alpha   90.00000000
_cell_angle_beta   90.00000000
_cell_angle_gamma   90.00000000
_symmetry_Int_Tables_number   1
_chemical_formula_structural   La2Co2P4IrRh
_chemical_formula_sum   'La2 Co2 P4 Ir1 Rh1'
_cell_volume   159.23098256
_cell_formula_units_Z   1
loop_
 _symmetry_equiv_pos_site_id
 _symmetry_equiv_pos_as_xyz
  1  'x, y, z'
loop_
 _atom_site_type_symbol
 _atom_site_label
 _atom_site_symmetry_multiplicity
 _atom_site_fract_x
 _atom_site_fract_y
 _atom_site_fract_z
 _atom_site_occupancy
  La  La0  1  0.000000  0.500000  0.264762  1
  La  La1  1  0.500000  0.000000  0.735238  1
  Co  Co2  1  0.000000  0.500000  0.606207  1
  Co  Co3  1  0.500000  0.000000  0.393793  1
  P  P4  1  0.000000  0.000000  0.500000  1
  P  P5  1  0.500000  0.500000  0.500000  1
  P  P6  1  0.000000  0.500000  0.852881  1
  P  P7  1  0.500000  0.000000  0.147119  1
  Ir  Ir8  1  0.000000  0.000000  0.000000  1
  Rh  Rh9  1  0.500000  0.500000  0.000000  1
