# generated using pymatgen
data_BaRuO4
_symmetry_space_group_name_H-M   'P 1'
_cell_length_a   5.65010248
_cell_length_b   7.69521389
_cell_length_c   11.09072128
_cell_angle_alpha   71.37763769
_cell_angle_beta   75.26810830
_cell_angle_gamma   68.45948051
_symmetry_Int_Tables_number   1
_chemical_formula_structural   BaRuO4
_chemical_formula_sum   'Ba4 Ru4 O16'
_cell_volume   419.87957147
_cell_formula_units_Z   4
loop_
 _symmetry_equiv_pos_site_id
 _symmetry_equiv_pos_as_xyz
  1  'x, y, z'
loop_
 _atom_site_type_symbol
 _atom_site_label
 _atom_site_symmetry_multiplicity
 _atom_site_fract_x
 _atom_site_fract_y
 _atom_site_fract_z
 _atom_site_occupancy
  Ba  Ba0  1  0.625095  0.437768  0.312477  1
  Ba  Ba1  1  0.624776  0.937305  0.812604  1
  Ba  Ba2  1  0.375114  0.562076  0.687711  1
  Ba  Ba3  1  0.375060  0.062845  0.187284  1
  Ru  Ru4  1  0.125497  0.687611  0.062629  1
  Ru  Ru5  1  0.124516  0.187183  0.562475  1
  Ru  Ru6  1  0.874870  0.312634  0.937192  1
  Ru  Ru7  1  0.875200  0.812534  0.437702  1
  O  O8  1  0.317235  0.454794  0.144042  1
  O  O9  1  0.317467  0.954582  0.643615  1
  O  O10  1  0.084726  0.693226  0.905646  1
  O  O11  1  0.083370  0.192806  0.405415  1
  O  O12  1  0.188894  0.258075  0.841007  1
  O  O13  1  0.189325  0.757629  0.341480  1
  O  O14  1  0.711854  0.140879  0.957949  1
  O  O15  1  0.711750  0.640976  0.458569  1
  O  O16  1  0.682541  0.545160  0.855639  1
  O  O17  1  0.682539  0.044961  0.356154  1
  O  O18  1  0.916451  0.306566  0.094201  1
  O  O19  1  0.916838  0.806143  0.594801  1
  O  O20  1  0.811315  0.743315  0.158487  1
  O  O21  1  0.810535  0.242254  0.658828  1
  O  O22  1  0.287889  0.859596  0.042200  1
  O  O23  1  0.287142  0.359079  0.541893  1
