# generated using pymatgen
data_Dy2Y3Bi2Os
_symmetry_space_group_name_H-M   'P 1'
_cell_length_a   7.98724001
_cell_length_b   9.03104400
_cell_length_c   12.52767901
_cell_angle_alpha   90.00000000
_cell_angle_beta   89.99522647
_cell_angle_gamma   90.00000000
_symmetry_Int_Tables_number   1
_chemical_formula_structural   Dy2Y3Bi2Os
_chemical_formula_sum   'Dy8 Y12 Bi8 Os4'
_cell_volume   903.66051943
_cell_formula_units_Z   4
loop_
 _symmetry_equiv_pos_site_id
 _symmetry_equiv_pos_as_xyz
  1  'x, y, z'
loop_
 _atom_site_type_symbol
 _atom_site_label
 _atom_site_symmetry_multiplicity
 _atom_site_fract_x
 _atom_site_fract_y
 _atom_site_fract_z
 _atom_site_occupancy
  Dy  Dy0  1  0.673428  0.041696  0.563601  1
  Dy  Dy1  1  0.326572  0.958304  0.436399  1
  Dy  Dy2  1  0.173461  0.958312  0.936386  1
  Dy  Dy3  1  0.326572  0.541696  0.436399  1
  Dy  Dy4  1  0.826539  0.041688  0.063614  1
  Dy  Dy5  1  0.673428  0.458304  0.563601  1
  Dy  Dy6  1  0.826539  0.458312  0.063614  1
  Dy  Dy7  1  0.173461  0.541688  0.936386  1
  Y  Y8  1  0.840690  0.750000  0.790880  1
  Y  Y9  1  0.159310  0.250000  0.209120  1
  Y  Y10  1  0.340661  0.250000  0.709158  1
  Y  Y11  1  0.659339  0.750000  0.290842  1
  Y  Y12  1  0.372939  0.750000  0.693615  1
  Y  Y13  1  0.627061  0.250000  0.306385  1
  Y  Y14  1  0.872909  0.250000  0.806394  1
  Y  Y15  1  0.127091  0.750000  0.193606  1
  Y  Y16  1  0.943273  0.750000  0.504204  1
  Y  Y17  1  0.056727  0.250000  0.495796  1
  Y  Y18  1  0.443297  0.250000  0.995793  1
  Y  Y19  1  0.556703  0.750000  0.004207  1
  Bi  Bi20  1  0.567932  0.493608  0.828046  1
  Bi  Bi21  1  0.432068  0.506392  0.171954  1
  Bi  Bi22  1  0.067922  0.506397  0.671961  1
  Bi  Bi23  1  0.432068  0.993608  0.171954  1
  Bi  Bi24  1  0.932078  0.493603  0.328039  1
  Bi  Bi25  1  0.567932  0.006392  0.828046  1
  Bi  Bi26  1  0.932078  0.006397  0.328039  1
  Bi  Bi27  1  0.067922  0.993603  0.671961  1
  Os  Os28  1  0.574171  0.750000  0.510774  1
  Os  Os29  1  0.425829  0.250000  0.489226  1
  Os  Os30  1  0.074187  0.250000  0.989212  1
  Os  Os31  1  0.925813  0.750000  0.010788  1
