# generated using pymatgen
data_Co3Ni5(Mo4C)4
_symmetry_space_group_name_H-M   'P 1'
_cell_length_a   8.00706604
_cell_length_b   8.01173356
_cell_length_c   8.00953500
_cell_angle_alpha   60.00908138
_cell_angle_beta   59.98980354
_cell_angle_gamma   60.00654992
_symmetry_Int_Tables_number   1
_chemical_formula_structural   Co3Ni5(Mo4C)4
_chemical_formula_sum   'Co3 Ni5 Mo16 C4'
_cell_volume   363.33733179
_cell_formula_units_Z   1
loop_
 _symmetry_equiv_pos_site_id
 _symmetry_equiv_pos_as_xyz
  1  'x, y, z'
loop_
 _atom_site_type_symbol
 _atom_site_label
 _atom_site_symmetry_multiplicity
 _atom_site_fract_x
 _atom_site_fract_y
 _atom_site_fract_z
 _atom_site_occupancy
  Co  Co0  1  0.920303  0.919581  0.919535  1
  Co  Co1  1  0.920303  0.919581  0.240580  1
  Co  Co2  1  0.330073  0.008370  0.330779  1
  Ni  Ni3  1  0.917140  0.250170  0.916345  1
  Ni  Ni4  1  0.332577  0.333575  0.000579  1
  Ni  Ni5  1  0.002623  0.332765  0.332307  1
  Ni  Ni6  1  0.332577  0.333575  0.333270  1
  Ni  Ni7  1  0.247990  0.917492  0.917258  1
  Mo  Mo8  1  0.121619  0.627026  0.125677  1
  Mo  Mo9  1  0.124890  0.120248  0.625216  1
  Mo  Mo10  1  0.625902  0.119429  0.127334  1
  Mo  Mo11  1  0.124890  0.120248  0.129645  1
  Mo  Mo12  1  0.935022  0.934981  0.564998  1
  Mo  Mo13  1  0.689380  0.311482  0.310919  1
  Mo  Mo14  1  0.312811  0.689719  0.684667  1
  Mo  Mo15  1  0.683673  0.687404  0.314461  1
  Mo  Mo16  1  0.689380  0.311482  0.688219  1
  Mo  Mo17  1  0.312811  0.689719  0.312803  1
  Mo  Mo18  1  0.564925  0.937591  0.560693  1
  Mo  Mo19  1  0.564925  0.937591  0.936791  1
  Mo  Mo20  1  0.938703  0.564371  0.558789  1
  Mo  Mo21  1  0.938703  0.564371  0.938137  1
  Mo  Mo22  1  0.309404  0.309680  0.690458  1
  Mo  Mo23  1  0.559331  0.560449  0.940110  1
  C  C24  1  0.623605  0.127108  0.624643  1
  C  C25  1  0.625224  0.624382  0.124379  1
  C  C26  1  0.125990  0.623229  0.625391  1
  C  C27  1  0.625224  0.624382  0.626015  1
