# generated using pymatgen
data_Rb5Ca(MoH9)3
_symmetry_space_group_name_H-M   'P 1'
_cell_length_a   10.01627008
_cell_length_b   9.82704658
_cell_length_c   5.70064100
_cell_angle_alpha   90.00000000
_cell_angle_beta   90.00000000
_cell_angle_gamma   119.37702739
_symmetry_Int_Tables_number   1
_chemical_formula_structural   Rb5Ca(MoH9)3
_chemical_formula_sum   'Rb5 Ca1 Mo3 H27'
_cell_volume   488.96250291
_cell_formula_units_Z   1
loop_
 _symmetry_equiv_pos_site_id
 _symmetry_equiv_pos_as_xyz
  1  'x, y, z'
loop_
 _atom_site_type_symbol
 _atom_site_label
 _atom_site_symmetry_multiplicity
 _atom_site_fract_x
 _atom_site_fract_y
 _atom_site_fract_z
 _atom_site_occupancy
  Rb  Rb0  1  0.747954  0.768168  0.500000  1
  Rb  Rb1  1  0.252046  0.020214  0.500000  1
  Rb  Rb2  1  0.000000  0.576372  0.000000  1
  Rb  Rb3  1  0.385901  0.392173  0.000000  1
  Rb  Rb4  1  0.614099  0.006272  0.000000  1
  Ca  Ca5  1  0.000000  0.248768  0.500000  1
  Mo  Mo6  1  0.688530  0.310864  0.500000  1
  Mo  Mo7  1  0.311470  0.622335  0.500000  1
  Mo  Mo8  1  0.000000  0.034969  0.000000  1
  H  H9  1  0.819657  0.299006  0.698052  1
  H  H10  1  0.659591  0.444531  0.683448  1
  H  H11  1  0.560146  0.209282  0.730109  1
  H  H12  1  0.180343  0.479350  0.301948  1
  H  H13  1  0.560146  0.209282  0.269891  1
  H  H14  1  0.819657  0.299006  0.301948  1
  H  H15  1  0.659591  0.444531  0.316552  1
  H  H16  1  0.340409  0.784941  0.683448  1
  H  H17  1  0.439854  0.649137  0.730109  1
  H  H18  1  0.173292  0.034621  0.000000  1
  H  H19  1  0.826708  0.861329  0.000000  1
  H  H20  1  0.000000  0.214535  0.000000  1
  H  H21  1  0.877856  0.035627  0.227439  1
  H  H22  1  0.122144  0.157771  0.772561  1
  H  H23  1  0.000000  0.900991  0.793862  1
  H  H24  1  0.000000  0.900991  0.206138  1
  H  H25  1  0.122144  0.157771  0.227439  1
  H  H26  1  0.877856  0.035627  0.772561  1
  H  H27  1  0.143310  0.634081  0.500000  1
  H  H28  1  0.370476  0.825899  0.500000  1
  H  H29  1  0.348141  0.465037  0.500000  1
  H  H30  1  0.629524  0.455424  0.500000  1
  H  H31  1  0.856690  0.490771  0.500000  1
  H  H32  1  0.651859  0.116896  0.500000  1
  H  H33  1  0.180343  0.479350  0.698052  1
  H  H34  1  0.340409  0.784941  0.316552  1
  H  H35  1  0.439854  0.649137  0.269891  1
