# generated using pymatgen
data_ErLu7(Hf2Pb5)2
_symmetry_space_group_name_H-M   'P 1'
_cell_length_a   6.16526435
_cell_length_b   9.33608857
_cell_length_c   11.45840171
_cell_angle_alpha   114.06685575
_cell_angle_beta   105.60644031
_cell_angle_gamma   90.00000516
_symmetry_Int_Tables_number   1
_chemical_formula_structural   ErLu7(Hf2Pb5)2
_chemical_formula_sum   'Er1 Lu7 Hf4 Pb10'
_cell_volume   575.47259919
_cell_formula_units_Z   1
loop_
 _symmetry_equiv_pos_site_id
 _symmetry_equiv_pos_as_xyz
  1  'x, y, z'
loop_
 _atom_site_type_symbol
 _atom_site_label
 _atom_site_symmetry_multiplicity
 _atom_site_fract_x
 _atom_site_fract_y
 _atom_site_fract_z
 _atom_site_occupancy
  Er  Er0  1  0.438896  0.668645  0.877793  1
  Lu  Lu1  1  0.561350  0.332059  0.122701  1
  Lu  Lu2  1  0.938753  0.209381  0.877505  1
  Lu  Lu3  1  0.061379  0.790999  0.122758  1
  Lu  Lu4  1  0.147069  0.258317  0.294137  1
  Lu  Lu5  1  0.852621  0.741845  0.705242  1
  Lu  Lu6  1  0.647040  0.035975  0.294081  1
  Lu  Lu7  1  0.352610  0.963632  0.705220  1
  Hf  Hf8  1  0.555794  0.305493  0.611421  1
  Hf  Hf9  1  0.444249  0.694137  0.388615  1
  Hf  Hf10  1  0.944366  0.694137  0.388615  1
  Hf  Hf11  1  0.055626  0.305493  0.611421  1
  Pb  Pb12  1  0.290415  0.591035  0.580829  1
  Pb  Pb13  1  0.709090  0.408406  0.418181  1
  Pb  Pb14  1  0.790898  0.990373  0.581795  1
  Pb  Pb15  1  0.209046  0.009505  0.418092  1
  Pb  Pb16  1  0.249900  0.000614  0.000298  1
  Pb  Pb17  1  0.750399  0.000614  0.000298  1
  Pb  Pb18  1  0.076175  0.471233  0.152352  1
  Pb  Pb19  1  0.923931  0.529026  0.847861  1
  Pb  Pb20  1  0.576573  0.681330  0.153149  1
  Pb  Pb21  1  0.423820  0.317752  0.847637  1
