# generated using pymatgen
data_Tb2Ho6Ti12Si15As
_symmetry_space_group_name_H-M   'P 1'
_cell_length_a   7.05001044
_cell_length_b   7.04294464
_cell_length_c   12.95032054
_cell_angle_alpha   89.97276451
_cell_angle_beta   89.80198213
_cell_angle_gamma   89.92973266
_symmetry_Int_Tables_number   1
_chemical_formula_structural   Tb2Ho6Ti12Si15As
_chemical_formula_sum   'Tb2 Ho6 Ti12 Si15 As1'
_cell_volume   643.01571075
_cell_formula_units_Z   1
loop_
 _symmetry_equiv_pos_site_id
 _symmetry_equiv_pos_as_xyz
  1  'x, y, z'
loop_
 _atom_site_type_symbol
 _atom_site_label
 _atom_site_symmetry_multiplicity
 _atom_site_fract_x
 _atom_site_fract_y
 _atom_site_fract_z
 _atom_site_occupancy
  Tb  Tb0  1  0.341320  0.002593  0.466045  1
  Tb  Tb1  1  0.496656  0.841827  0.717500  1
  Ho  Ho2  1  0.502469  0.158897  0.216345  1
  Ho  Ho3  1  0.840750  0.497132  0.283178  1
  Ho  Ho4  1  0.158584  0.501652  0.783478  1
  Ho  Ho5  1  0.660301  0.995454  0.967599  1
  Ho  Ho6  1  0.999777  0.343536  0.531981  1
  Ho  Ho7  1  0.998032  0.658978  0.033563  1
  Ti  Ti8  1  0.325741  0.326520  0.999809  1
  Ti  Ti9  1  0.173056  0.826951  0.249891  1
  Ti  Ti10  1  0.823989  0.173864  0.750289  1
  Ti  Ti11  1  0.673422  0.672840  0.499929  1
  Ti  Ti12  1  0.153666  0.009204  0.875671  1
  Ti  Ti13  1  0.491913  0.651413  0.125741  1
  Ti  Ti14  1  0.509355  0.347744  0.626986  1
  Ti  Ti15  1  0.654115  0.494300  0.874862  1
  Ti  Ti16  1  0.347696  0.507679  0.373814  1
  Ti  Ti17  1  0.847511  0.992378  0.375580  1
  Ti  Ti18  1  0.007767  0.151645  0.124121  1
  Ti  Ti19  1  0.989841  0.844181  0.623275  1
  Si  Si20  1  0.368372  0.702944  0.933997  1
  Si  Si21  1  0.630662  0.298107  0.434375  1
  Si  Si22  1  0.702891  0.369284  0.066188  1
  Si  Si23  1  0.296851  0.629750  0.565878  1
  Si  Si24  1  0.797174  0.869260  0.184384  1
  Si  Si25  1  0.130391  0.203037  0.315701  1
  Si  Si26  1  0.870612  0.797618  0.815730  1
  Si  Si27  1  0.290846  0.952835  0.064576  1
  Si  Si28  1  0.547741  0.790215  0.314296  1
  Si  Si29  1  0.460923  0.211772  0.819582  1
  Si  Si30  1  0.791298  0.546643  0.685197  1
  Si  Si31  1  0.208893  0.452675  0.185322  1
  Si  Si32  1  0.709967  0.046870  0.564157  1
  Si  Si33  1  0.953515  0.290741  0.935518  1
  Si  Si34  1  0.046556  0.709340  0.434916  1
  As  As35  1  0.197349  0.130119  0.680526  1
