# generated using pymatgen
data_Er4Cu3Ni
_symmetry_space_group_name_H-M   'P 1'
_cell_length_a   4.40472200
_cell_length_b   5.31122595
_cell_length_c   6.99322705
_cell_angle_alpha   89.90020930
_cell_angle_beta   90.00000000
_cell_angle_gamma   90.00000000
_symmetry_Int_Tables_number   1
_chemical_formula_structural   Er4Cu3Ni
_chemical_formula_sum   'Er4 Cu3 Ni1'
_cell_volume   163.60261900
_cell_formula_units_Z   1
loop_
 _symmetry_equiv_pos_site_id
 _symmetry_equiv_pos_as_xyz
  1  'x, y, z'
loop_
 _atom_site_type_symbol
 _atom_site_label
 _atom_site_symmetry_multiplicity
 _atom_site_fract_x
 _atom_site_fract_y
 _atom_site_fract_z
 _atom_site_occupancy
  Er  Er0  1  0.000000  0.635112  0.322896  1
  Er  Er1  1  0.000000  0.868726  0.812977  1
  Er  Er2  1  0.500000  0.357390  0.675127  1
  Er  Er3  1  0.500000  0.138751  0.190334  1
  Cu  Cu4  1  0.000000  0.375728  0.966482  1
  Cu  Cu5  1  0.500000  0.865844  0.535072  1
  Cu  Cu6  1  0.500000  0.629786  0.029855  1
  Ni  Ni7  1  0.000000  0.128663  0.467257  1
