# generated using pymatgen
data_Ho8Er8Sc4Si15Pt
_symmetry_space_group_name_H-M   'P 1'
_cell_length_a   7.20737418
_cell_length_b   7.65002837
_cell_length_c   14.29987600
_cell_angle_alpha   90.00000000
_cell_angle_beta   90.00000000
_cell_angle_gamma   89.96091014
_symmetry_Int_Tables_number   1
_chemical_formula_structural   Ho8Er8Sc4Si15Pt
_chemical_formula_sum   'Ho8 Er8 Sc4 Si15 Pt1'
_cell_volume   788.44660255
_cell_formula_units_Z   1
loop_
 _symmetry_equiv_pos_site_id
 _symmetry_equiv_pos_as_xyz
  1  'x, y, z'
loop_
 _atom_site_type_symbol
 _atom_site_label
 _atom_site_symmetry_multiplicity
 _atom_site_fract_x
 _atom_site_fract_y
 _atom_site_fract_z
 _atom_site_occupancy
  Ho  Ho0  1  0.019309  0.183940  0.096619  1
  Ho  Ho1  1  0.982509  0.818687  0.904626  1
  Ho  Ho2  1  0.481900  0.681177  0.906022  1
  Ho  Ho3  1  0.982509  0.818687  0.595374  1
  Ho  Ho4  1  0.519948  0.317876  0.096812  1
  Ho  Ho5  1  0.019309  0.183940  0.403381  1
  Ho  Ho6  1  0.519948  0.317876  0.403188  1
  Ho  Ho7  1  0.481900  0.681177  0.593978  1
  Er  Er8  1  0.313573  0.173615  0.627008  1
  Er  Er9  1  0.680087  0.825687  0.373370  1
  Er  Er10  1  0.178478  0.679295  0.373876  1
  Er  Er11  1  0.680087  0.825687  0.126630  1
  Er  Er12  1  0.824895  0.320314  0.627131  1
  Er  Er13  1  0.313573  0.173615  0.872992  1
  Er  Er14  1  0.824895  0.320314  0.872869  1
  Er  Er15  1  0.178478  0.679295  0.126124  1
  Sc  Sc16  1  0.153385  0.520265  0.750000  1
  Sc  Sc17  1  0.845868  0.486621  0.250000  1
  Sc  Sc18  1  0.346665  0.016417  0.250000  1
  Sc  Sc19  1  0.657132  0.983799  0.750000  1
  Si  Si20  1  0.983586  0.906738  0.250000  1
  Si  Si21  1  0.482917  0.596976  0.250000  1
  Si  Si22  1  0.516557  0.404141  0.750000  1
  Si  Si23  1  0.284732  0.860305  0.750000  1
  Si  Si24  1  0.721452  0.138129  0.250000  1
  Si  Si25  1  0.221021  0.365085  0.250000  1
  Si  Si26  1  0.771865  0.630180  0.750000  1
  Si  Si27  1  0.153700  0.472058  0.539533  1
  Si  Si28  1  0.846491  0.530494  0.460005  1
  Si  Si29  1  0.348697  0.971358  0.459394  1
  Si  Si30  1  0.846491  0.530494  0.039995  1
  Si  Si31  1  0.651908  0.029064  0.540555  1
  Si  Si32  1  0.153700  0.472058  0.960467  1
  Si  Si33  1  0.651908  0.029064  0.959445  1
  Si  Si34  1  0.348697  0.971358  0.040606  1
  Pt  Pt35  1  0.011830  0.084213  0.750000  1
