# generated using pymatgen
data_Pa4Fe5Si2Ni
_symmetry_space_group_name_H-M   'P 1'
_cell_length_a   5.20115100
_cell_length_b   5.20115076
_cell_length_c   7.67221200
_cell_angle_alpha   90.00000000
_cell_angle_beta   90.00000000
_cell_angle_gamma   118.21615363
_symmetry_Int_Tables_number   1
_chemical_formula_structural   Pa4Fe5Si2Ni
_chemical_formula_sum   'Pa4 Fe5 Si2 Ni1'
_cell_volume   182.88550920
_cell_formula_units_Z   1
loop_
 _symmetry_equiv_pos_site_id
 _symmetry_equiv_pos_as_xyz
  1  'x, y, z'
loop_
 _atom_site_type_symbol
 _atom_site_label
 _atom_site_symmetry_multiplicity
 _atom_site_fract_x
 _atom_site_fract_y
 _atom_site_fract_z
 _atom_site_occupancy
  Pa  Pa0  1  0.338461  0.661539  0.436606  1
  Pa  Pa1  1  0.658967  0.341033  0.561861  1
  Pa  Pa2  1  0.658967  0.341033  0.938139  1
  Pa  Pa3  1  0.338461  0.661539  0.063394  1
  Fe  Fe4  1  0.839673  0.666682  0.250000  1
  Fe  Fe5  1  0.333318  0.160327  0.250000  1
  Fe  Fe6  1  0.168108  0.831892  0.750000  1
  Fe  Fe7  1  0.158437  0.333643  0.750000  1
  Fe  Fe8  1  0.666357  0.841563  0.750000  1
  Si  Si9  1  0.001662  0.998338  0.499156  1
  Si  Si10  1  0.001662  0.998338  0.000844  1
  Ni  Ni11  1  0.835925  0.164075  0.250000  1
