# generated using pymatgen
data_BaThTe6
_symmetry_space_group_name_H-M   'P 1'
_cell_length_a   15.35052600
_cell_length_b   8.38803003
_cell_length_c   9.15680921
_cell_angle_alpha   88.30723450
_cell_angle_beta   90.00000000
_cell_angle_gamma   90.00000000
_symmetry_Int_Tables_number   1
_chemical_formula_structural   BaThTe6
_chemical_formula_sum   'Ba4 Th4 Te24'
_cell_volume   1178.52238320
_cell_formula_units_Z   4
loop_
 _symmetry_equiv_pos_site_id
 _symmetry_equiv_pos_as_xyz
  1  'x, y, z'
loop_
 _atom_site_type_symbol
 _atom_site_label
 _atom_site_symmetry_multiplicity
 _atom_site_fract_x
 _atom_site_fract_y
 _atom_site_fract_z
 _atom_site_occupancy
  Ba  Ba0  1  0.089817  0.231310  0.237342  1
  Ba  Ba1  1  0.589817  0.268690  0.762658  1
  Ba  Ba2  1  0.910183  0.768690  0.762658  1
  Ba  Ba3  1  0.410183  0.731310  0.237342  1
  Th  Th4  1  0.751315  0.392415  0.272567  1
  Th  Th5  1  0.251315  0.107585  0.727433  1
  Th  Th6  1  0.248685  0.607585  0.727433  1
  Th  Th7  1  0.748685  0.892415  0.272567  1
  Te  Te8  1  0.763378  0.150587  0.998790  1
  Te  Te9  1  0.263378  0.349413  0.001210  1
  Te  Te10  1  0.236622  0.849413  0.001210  1
  Te  Te11  1  0.736622  0.650587  0.998790  1
  Te  Te12  1  0.898006  0.390001  0.023995  1
  Te  Te13  1  0.398006  0.109999  0.976005  1
  Te  Te14  1  0.101994  0.609999  0.976005  1
  Te  Te15  1  0.601994  0.890001  0.023995  1
  Te  Te16  1  0.550829  0.388733  0.182020  1
  Te  Te17  1  0.050829  0.111267  0.817980  1
  Te  Te18  1  0.449171  0.611267  0.817980  1
  Te  Te19  1  0.949171  0.888733  0.182020  1
  Te  Te20  1  0.603893  0.137459  0.394189  1
  Te  Te21  1  0.103893  0.362541  0.605811  1
  Te  Te22  1  0.396107  0.862541  0.605811  1
  Te  Te23  1  0.896107  0.637459  0.394189  1
  Te  Te24  1  0.887082  0.132803  0.420954  1
  Te  Te25  1  0.387082  0.367197  0.579046  1
  Te  Te26  1  0.112918  0.867197  0.579046  1
  Te  Te27  1  0.612918  0.632803  0.420954  1
  Te  Te28  1  0.809690  0.377902  0.606548  1
  Te  Te29  1  0.309690  0.122098  0.393452  1
  Te  Te30  1  0.190310  0.622098  0.393452  1
  Te  Te31  1  0.690310  0.877902  0.606548  1
