# generated using pymatgen
data_CeDyHo2(Al3Ir)6
_symmetry_space_group_name_H-M   'P 1'
_cell_length_a   7.56680200
_cell_length_b   7.56224509
_cell_length_c   9.46153500
_cell_angle_alpha   90.00000000
_cell_angle_beta   90.00000000
_cell_angle_gamma   119.48819546
_symmetry_Int_Tables_number   1
_chemical_formula_structural   CeDyHo2(Al3Ir)6
_chemical_formula_sum   'Ce1 Dy1 Ho2 Al18 Ir6'
_cell_volume   471.27250863
_cell_formula_units_Z   1
loop_
 _symmetry_equiv_pos_site_id
 _symmetry_equiv_pos_as_xyz
  1  'x, y, z'
loop_
 _atom_site_type_symbol
 _atom_site_label
 _atom_site_symmetry_multiplicity
 _atom_site_fract_x
 _atom_site_fract_y
 _atom_site_fract_z
 _atom_site_occupancy
  Ce  Ce0  1  0.994968  0.670891  0.750000  1
  Dy  Dy1  1  0.327778  0.003185  0.250000  1
  Ho  Ho2  1  0.004406  0.329704  0.250000  1
  Ho  Ho3  1  0.672969  0.995717  0.750000  1
  Al  Al4  1  0.130433  0.130627  0.750000  1
  Al  Al5  1  0.872913  0.873800  0.250000  1
  Al  Al6  1  0.001127  0.333701  0.573976  1
  Al  Al7  1  0.998597  0.664329  0.422539  1
  Al  Al8  1  0.998597  0.664329  0.077461  1
  Al  Al9  1  0.337402  0.002663  0.925857  1
  Al  Al10  1  0.001127  0.333701  0.926024  1
  Al  Al11  1  0.664904  0.999492  0.075654  1
  Al  Al12  1  0.664904  0.999492  0.424346  1
  Al  Al13  1  0.337402  0.002663  0.574143  1
  Al  Al14  1  0.332702  0.332673  0.053079  1
  Al  Al15  1  0.664719  0.666481  0.950224  1
  Al  Al16  1  0.664719  0.666481  0.549776  1
  Al  Al17  1  0.332702  0.332673  0.446921  1
  Al  Al18  1  0.341231  0.548493  0.750000  1
  Al  Al19  1  0.659899  0.450069  0.250000  1
  Al  Al20  1  0.546527  0.339335  0.750000  1
  Al  Al21  1  0.451328  0.660622  0.250000  1
  Ir  Ir22  1  0.671929  0.328260  0.500236  1
  Ir  Ir23  1  0.327443  0.671548  0.500129  1
  Ir  Ir24  1  0.327443  0.671548  0.999871  1
  Ir  Ir25  1  0.671929  0.328260  0.999764  1
  Ir  Ir26  1  0.999951  0.999631  0.500700  1
  Ir  Ir27  1  0.999951  0.999631  0.999300  1
