# generated using pymatgen
data_Lu9MgCu3NiSb2
_symmetry_space_group_name_H-M   'P 1'
_cell_length_a   8.36926266
_cell_length_b   8.36926172
_cell_length_c   8.42783764
_cell_angle_alpha   126.79940080
_cell_angle_beta   126.47411729
_cell_angle_gamma   78.35613811
_symmetry_Int_Tables_number   1
_chemical_formula_structural   Lu9MgCu3NiSb2
_chemical_formula_sum   'Lu9 Mg1 Cu3 Ni1 Sb2'
_cell_volume   369.03611043
_cell_formula_units_Z   1
loop_
 _symmetry_equiv_pos_site_id
 _symmetry_equiv_pos_as_xyz
  1  'x, y, z'
loop_
 _atom_site_type_symbol
 _atom_site_label
 _atom_site_symmetry_multiplicity
 _atom_site_fract_x
 _atom_site_fract_y
 _atom_site_fract_z
 _atom_site_occupancy
  Lu  Lu0  1  0.499049  0.496407  0.995456  1
  Lu  Lu1  1  0.797467  0.290169  0.810620  1
  Lu  Lu2  1  0.197290  0.717153  0.190245  1
  Lu  Lu3  1  0.473092  0.992955  0.190245  1
  Lu  Lu4  1  0.296596  0.466088  0.487487  1
  Lu  Lu5  1  0.021398  0.190890  0.487487  1
  Lu  Lu6  1  0.520451  0.013154  0.810620  1
  Lu  Lu7  1  0.707326  0.524115  0.510135  1
  Lu  Lu8  1  0.986021  0.802809  0.510135  1
  Mg  Mg9  1  0.999371  0.000815  0.000186  1
  Cu  Cu10  1  0.131443  0.625503  0.756946  1
  Cu  Cu11  1  0.870223  0.374686  0.244908  1
  Cu  Cu12  1  0.626114  0.867737  0.493851  1
  Ni  Ni13  1  0.378780  0.133426  0.512206  1
  Sb  Sb14  1  0.252161  0.256517  0.999736  1
  Sb  Sb15  1  0.743219  0.747575  0.999736  1
