# generated using pymatgen
data_CeCo3P2
_symmetry_space_group_name_H-M   'P 1'
_cell_length_a   3.75972500
_cell_length_b   10.50068900
_cell_length_c   12.33259400
_cell_angle_alpha   90.00000000
_cell_angle_beta   90.00000000
_cell_angle_gamma   90.00000000
_symmetry_Int_Tables_number   1
_chemical_formula_structural   CeCo3P2
_chemical_formula_sum   'Ce6 Co18 P12'
_cell_volume   486.88714773
_cell_formula_units_Z   6
loop_
 _symmetry_equiv_pos_site_id
 _symmetry_equiv_pos_as_xyz
  1  'x, y, z'
loop_
 _atom_site_type_symbol
 _atom_site_label
 _atom_site_symmetry_multiplicity
 _atom_site_fract_x
 _atom_site_fract_y
 _atom_site_fract_z
 _atom_site_occupancy
  Ce  Ce0  1  0.000000  0.500000  0.522809  1
  Ce  Ce1  1  0.500000  0.000000  0.477191  1
  Ce  Ce2  1  0.500000  0.816699  0.207832  1
  Ce  Ce3  1  0.500000  0.183301  0.207832  1
  Ce  Ce4  1  0.000000  0.683301  0.792168  1
  Ce  Ce5  1  0.000000  0.316699  0.792168  1
  Co  Co6  1  0.500000  0.500000  0.158917  1
  Co  Co7  1  0.000000  0.000000  0.841083  1
  Co  Co8  1  0.500000  0.500000  0.703366  1
  Co  Co9  1  0.000000  0.000000  0.296634  1
  Co  Co10  1  0.000000  0.500000  0.983970  1
  Co  Co11  1  0.500000  0.000000  0.016030  1
  Co  Co12  1  0.500000  0.333911  0.995901  1
  Co  Co13  1  0.500000  0.666089  0.995901  1
  Co  Co14  1  0.000000  0.166089  0.004099  1
  Co  Co15  1  0.000000  0.833911  0.004099  1
  Co  Co16  1  0.500000  0.301368  0.428081  1
  Co  Co17  1  0.500000  0.698632  0.428081  1
  Co  Co18  1  0.000000  0.198632  0.571919  1
  Co  Co19  1  0.000000  0.801368  0.571919  1
  Co  Co20  1  0.500000  0.880268  0.713105  1
  Co  Co21  1  0.500000  0.119732  0.713105  1
  Co  Co22  1  0.000000  0.619732  0.286895  1
  Co  Co23  1  0.000000  0.380268  0.286895  1
  P  P24  1  0.500000  0.500000  0.885176  1
  P  P25  1  0.000000  0.000000  0.114824  1
  P  P26  1  0.500000  0.500000  0.340793  1
  P  P27  1  0.000000  0.000000  0.659207  1
  P  P28  1  0.500000  0.306422  0.612510  1
  P  P29  1  0.500000  0.693578  0.612510  1
  P  P30  1  0.000000  0.193578  0.387490  1
  P  P31  1  0.000000  0.806422  0.387490  1
  P  P32  1  0.500000  0.848458  0.895778  1
  P  P33  1  0.500000  0.151542  0.895778  1
  P  P34  1  0.000000  0.651542  0.104222  1
  P  P35  1  0.000000  0.348458  0.104222  1
