# generated using pymatgen
data_Th2Zr3Sn4
_symmetry_space_group_name_H-M   'P 1'
_cell_length_a   7.94583500
_cell_length_b   7.83799738
_cell_length_c   7.95595548
_cell_angle_alpha   69.69746241
_cell_angle_beta   90.00000000
_cell_angle_gamma   90.00000000
_symmetry_Int_Tables_number   1
_chemical_formula_structural   Th2Zr3Sn4
_chemical_formula_sum   'Th4 Zr6 Sn8'
_cell_volume   464.70922853
_cell_formula_units_Z   2
loop_
 _symmetry_equiv_pos_site_id
 _symmetry_equiv_pos_as_xyz
  1  'x, y, z'
loop_
 _atom_site_type_symbol
 _atom_site_label
 _atom_site_symmetry_multiplicity
 _atom_site_fract_x
 _atom_site_fract_y
 _atom_site_fract_z
 _atom_site_occupancy
  Th  Th0  1  0.669705  0.943860  0.687237  1
  Th  Th1  1  0.330295  0.056140  0.312763  1
  Th  Th2  1  0.169705  0.556140  0.312763  1
  Th  Th3  1  0.830295  0.443860  0.687237  1
  Zr  Zr4  1  0.668133  0.747171  0.248867  1
  Zr  Zr5  1  0.331867  0.252829  0.751133  1
  Zr  Zr6  1  0.168133  0.752829  0.751133  1
  Zr  Zr7  1  0.831867  0.247171  0.248867  1
  Zr  Zr8  1  0.000000  0.000000  0.000000  1
  Zr  Zr9  1  0.500000  0.500000  0.000000  1
  Sn  Sn10  1  0.959001  0.853911  0.412902  1
  Sn  Sn11  1  0.040999  0.146089  0.587098  1
  Sn  Sn12  1  0.459001  0.646089  0.587098  1
  Sn  Sn13  1  0.540999  0.353911  0.412902  1
  Sn  Sn14  1  0.864937  0.637446  0.996155  1
  Sn  Sn15  1  0.135063  0.362554  0.003845  1
  Sn  Sn16  1  0.364937  0.862554  0.003845  1
  Sn  Sn17  1  0.635063  0.137446  0.996155  1
