# generated using pymatgen
data_CsNd(ZnSb)2
_symmetry_space_group_name_H-M   'P 1'
_cell_length_a   4.58028700
_cell_length_b   4.58028820
_cell_length_c   20.52851000
_cell_angle_alpha   90.00000000
_cell_angle_beta   90.00000000
_cell_angle_gamma   119.99999853
_symmetry_Int_Tables_number   1
_chemical_formula_structural   CsNd(ZnSb)2
_chemical_formula_sum   'Cs2 Nd2 Zn4 Sb4'
_cell_volume   372.96971113
_cell_formula_units_Z   2
loop_
 _symmetry_equiv_pos_site_id
 _symmetry_equiv_pos_as_xyz
  1  'x, y, z'
loop_
 _atom_site_type_symbol
 _atom_site_label
 _atom_site_symmetry_multiplicity
 _atom_site_fract_x
 _atom_site_fract_y
 _atom_site_fract_z
 _atom_site_occupancy
  Cs  Cs0  1  0.000000  0.000000  0.500000  1
  Cs  Cs1  1  0.000000  0.000000  0.000000  1
  Nd  Nd2  1  0.000000  0.000000  0.250000  1
  Nd  Nd3  1  0.000000  0.000000  0.750000  1
  Zn  Zn4  1  0.666667  0.333333  0.321232  1
  Zn  Zn5  1  0.333333  0.666667  0.678768  1
  Zn  Zn6  1  0.333333  0.666667  0.821232  1
  Zn  Zn7  1  0.666667  0.333333  0.178768  1
  Sb  Sb8  1  0.333333  0.666667  0.360805  1
  Sb  Sb9  1  0.666667  0.333333  0.639195  1
  Sb  Sb10  1  0.666667  0.333333  0.860805  1
  Sb  Sb11  1  0.333333  0.666667  0.139195  1
