# generated using pymatgen
data_Tb4Er8Ni5Sn
_symmetry_space_group_name_H-M   'P 1'
_cell_length_a   8.26785804
_cell_length_b   8.26785730
_cell_length_c   8.26785868
_cell_angle_alpha   107.21044308
_cell_angle_beta   109.71325465
_cell_angle_gamma   111.51869931
_symmetry_Int_Tables_number   1
_chemical_formula_structural   Tb4Er8Ni5Sn
_chemical_formula_sum   'Tb4 Er8 Ni5 Sn1'
_cell_volume   434.44989449
_cell_formula_units_Z   1
loop_
 _symmetry_equiv_pos_site_id
 _symmetry_equiv_pos_as_xyz
  1  'x, y, z'
loop_
 _atom_site_type_symbol
 _atom_site_label
 _atom_site_symmetry_multiplicity
 _atom_site_fract_x
 _atom_site_fract_y
 _atom_site_fract_z
 _atom_site_occupancy
  Tb  Tb0  1  0.476338  0.294135  0.182203  1
  Tb  Tb1  1  0.111933  0.294135  0.817797  1
  Tb  Tb2  1  0.888067  0.705865  0.182203  1
  Tb  Tb3  1  0.523662  0.705865  0.817797  1
  Er  Er4  1  0.306586  0.628526  0.321940  1
  Er  Er5  1  0.306586  0.984647  0.678060  1
  Er  Er6  1  0.693414  0.371474  0.678060  1
  Er  Er7  1  0.693414  0.015353  0.321940  1
  Er  Er8  1  0.190916  0.211807  0.402723  1
  Er  Er9  1  0.809084  0.788193  0.597277  1
  Er  Er10  1  0.190916  0.788193  0.979108  1
  Er  Er11  1  0.809084  0.211807  0.020892  1
  Ni  Ni12  1  0.500000  0.626302  0.126302  1
  Ni  Ni13  1  0.500000  0.373698  0.873698  1
  Ni  Ni14  1  0.364508  0.000000  0.364508  1
  Ni  Ni15  1  0.635492  0.000000  0.635492  1
  Ni  Ni16  1  0.000000  0.000000  0.000000  1
  Sn  Sn17  1  0.000000  0.500000  0.500000  1
