# generated using pymatgen
data_Nd7Dy(Si3Pt)4
_symmetry_space_group_name_H-M   'P 1'
_cell_length_a   8.23446503
_cell_length_b   8.23573945
_cell_length_c   8.53425500
_cell_angle_alpha   90.00000000
_cell_angle_beta   90.00000000
_cell_angle_gamma   120.00511530
_symmetry_Int_Tables_number   1
_chemical_formula_structural   Nd7Dy(Si3Pt)4
_chemical_formula_sum   'Nd7 Dy1 Si12 Pt4'
_cell_volume   501.20090567
_cell_formula_units_Z   1
loop_
 _symmetry_equiv_pos_site_id
 _symmetry_equiv_pos_as_xyz
  1  'x, y, z'
loop_
 _atom_site_type_symbol
 _atom_site_label
 _atom_site_symmetry_multiplicity
 _atom_site_fract_x
 _atom_site_fract_y
 _atom_site_fract_z
 _atom_site_occupancy
  Nd  Nd0  1  0.499844  0.500115  0.750000  1
  Nd  Nd1  1  0.500094  0.499878  0.250000  1
  Nd  Nd2  1  0.999744  0.499872  0.250000  1
  Nd  Nd3  1  0.499844  0.999729  0.750000  1
  Nd  Nd4  1  0.500094  0.000216  0.250000  1
  Nd  Nd5  1  0.000003  0.000002  0.750000  1
  Nd  Nd6  1  0.999979  0.999989  0.250000  1
  Dy  Dy7  1  0.000362  0.500181  0.750000  1
  Si  Si8  1  0.835037  0.166831  0.997936  1
  Si  Si9  1  0.164978  0.833192  0.999331  1
  Si  Si10  1  0.331912  0.165956  0.999297  1
  Si  Si11  1  0.164978  0.833192  0.500669  1
  Si  Si12  1  0.668083  0.834042  0.000609  1
  Si  Si13  1  0.835037  0.166831  0.502064  1
  Si  Si14  1  0.835037  0.668206  0.997936  1
  Si  Si15  1  0.668083  0.834042  0.499391  1
  Si  Si16  1  0.164978  0.331787  0.999331  1
  Si  Si17  1  0.331912  0.165956  0.500703  1
  Si  Si18  1  0.164978  0.331787  0.500669  1
  Si  Si19  1  0.835037  0.668206  0.502064  1
  Pt  Pt20  1  0.668550  0.334275  0.996652  1
  Pt  Pt21  1  0.331442  0.665721  0.996944  1
  Pt  Pt22  1  0.331442  0.665721  0.503056  1
  Pt  Pt23  1  0.668550  0.334275  0.503348  1
