# generated using pymatgen
data_NdErSi6AsRh12
_symmetry_space_group_name_H-M   'P 1'
_cell_length_a   9.78765762
_cell_length_b   9.83512173
_cell_length_c   3.88494462
_cell_angle_alpha   89.99651192
_cell_angle_beta   90.01998731
_cell_angle_gamma   120.15286038
_symmetry_Int_Tables_number   1
_chemical_formula_structural   NdErSi6AsRh12
_chemical_formula_sum   'Nd1 Er1 Si6 As1 Rh12'
_cell_volume   323.37238236
_cell_formula_units_Z   1
loop_
 _symmetry_equiv_pos_site_id
 _symmetry_equiv_pos_as_xyz
  1  'x, y, z'
loop_
 _atom_site_type_symbol
 _atom_site_label
 _atom_site_symmetry_multiplicity
 _atom_site_fract_x
 _atom_site_fract_y
 _atom_site_fract_z
 _atom_site_occupancy
  Nd  Nd0  1  0.671016  0.333360  0.749340  1
  Er  Er1  1  0.331236  0.667674  0.251830  1
  Si  Si2  1  0.998606  0.999602  0.583627  1
  Si  Si3  1  0.288171  0.886774  0.751042  1
  Si  Si4  1  0.108962  0.400670  0.751991  1
  Si  Si5  1  0.600699  0.713029  0.750863  1
  Si  Si6  1  0.709341  0.105187  0.249766  1
  Si  Si7  1  0.892963  0.602810  0.249888  1
  As  As8  1  0.402882  0.290361  0.249515  1
  Rh  Rh9  1  0.066322  0.621520  0.752247  1
  Rh  Rh10  1  0.376644  0.451284  0.752037  1
  Rh  Rh11  1  0.554303  0.931206  0.752104  1
  Rh  Rh12  1  0.940973  0.382539  0.249349  1
  Rh  Rh13  1  0.618848  0.563399  0.248769  1
  Rh  Rh14  1  0.440823  0.053252  0.248844  1
  Rh  Rh15  1  0.264812  0.116907  0.748430  1
  Rh  Rh16  1  0.877778  0.145536  0.747417  1
  Rh  Rh17  1  0.854634  0.733289  0.747080  1
  Rh  Rh18  1  0.746654  0.883980  0.255637  1
  Rh  Rh19  1  0.116187  0.861330  0.255439  1
  Rh  Rh20  1  0.138144  0.256294  0.258406  1
