# generated using pymatgen
data_Dy3Y7(IrRh2)2
_symmetry_space_group_name_H-M   'P 1'
_cell_length_a   10.94173180
_cell_length_b   10.94021200
_cell_length_c   6.39467047
_cell_angle_alpha   90.00000000
_cell_angle_beta   89.95605290
_cell_angle_gamma   90.00000000
_symmetry_Int_Tables_number   1
_chemical_formula_structural   Dy3Y7(IrRh2)2
_chemical_formula_sum   'Dy6 Y14 Ir4 Rh8'
_cell_volume   765.47294396
_cell_formula_units_Z   2
loop_
 _symmetry_equiv_pos_site_id
 _symmetry_equiv_pos_as_xyz
  1  'x, y, z'
loop_
 _atom_site_type_symbol
 _atom_site_label
 _atom_site_symmetry_multiplicity
 _atom_site_fract_x
 _atom_site_fract_y
 _atom_site_fract_z
 _atom_site_occupancy
  Dy  Dy0  1  0.291952  0.090280  0.380076  1
  Dy  Dy1  1  0.291952  0.909720  0.880076  1
  Dy  Dy2  1  0.000058  0.000056  0.499853  1
  Dy  Dy3  1  0.000058  0.999944  0.999853  1
  Dy  Dy4  1  0.499999  0.499950  0.000181  1
  Dy  Dy5  1  0.499999  0.500050  0.500181  1
  Y  Y6  1  0.708590  0.090213  0.879497  1
  Y  Y7  1  0.708590  0.909787  0.379497  1
  Y  Y8  1  0.587840  0.789864  0.880299  1
  Y  Y9  1  0.587840  0.210136  0.380299  1
  Y  Y10  1  0.412112  0.789868  0.380114  1
  Y  Y11  1  0.412112  0.210132  0.880114  1
  Y  Y12  1  0.210217  0.412118  0.619994  1
  Y  Y13  1  0.210217  0.587882  0.119994  1
  Y  Y14  1  0.789839  0.412182  0.119740  1
  Y  Y15  1  0.789839  0.587818  0.619740  1
  Y  Y16  1  0.909693  0.708653  0.120687  1
  Y  Y17  1  0.909693  0.291347  0.620687  1
  Y  Y18  1  0.090343  0.708788  0.620340  1
  Y  Y19  1  0.090343  0.291212  0.120340  1
  Ir  Ir20  1  0.653440  0.346521  0.749991  1
  Ir  Ir21  1  0.653440  0.653479  0.249991  1
  Ir  Ir22  1  0.346422  0.345622  0.250514  1
  Ir  Ir23  1  0.346422  0.654378  0.750514  1
  Rh  Rh24  1  0.848143  0.152167  0.250045  1
  Rh  Rh25  1  0.848143  0.847833  0.750045  1
  Rh  Rh26  1  0.153063  0.151487  0.748562  1
  Rh  Rh27  1  0.153063  0.848513  0.248562  1
  Rh  Rh28  1  0.498305  0.999925  0.126312  1
  Rh  Rh29  1  0.498305  0.000075  0.626312  1
  Rh  Rh30  1  0.999985  0.500008  0.873794  1
  Rh  Rh31  1  0.999985  0.499992  0.373794  1
