# generated using pymatgen
data_Zr12Al4CoIr7N4
_symmetry_space_group_name_H-M   'P 1'
_cell_length_a   8.54925525
_cell_length_b   8.56978175
_cell_length_c   8.56978100
_cell_angle_alpha   60.00000676
_cell_angle_beta   59.92055151
_cell_angle_gamma   59.92054936
_symmetry_Int_Tables_number   1
_chemical_formula_structural   Zr12Al4CoIr7N4
_chemical_formula_sum   'Zr12 Al4 Co1 Ir7 N4'
_cell_volume   443.43524925
_cell_formula_units_Z   1
loop_
 _symmetry_equiv_pos_site_id
 _symmetry_equiv_pos_as_xyz
  1  'x, y, z'
loop_
 _atom_site_type_symbol
 _atom_site_label
 _atom_site_symmetry_multiplicity
 _atom_site_fract_x
 _atom_site_fract_y
 _atom_site_fract_z
 _atom_site_occupancy
  Zr  Zr0  1  0.806771  0.808158  0.192535  1
  Zr  Zr1  1  0.191966  0.192056  0.807989  1
  Zr  Zr2  1  0.806771  0.192535  0.808158  1
  Zr  Zr3  1  0.191966  0.807989  0.192056  1
  Zr  Zr4  1  0.191966  0.807989  0.807989  1
  Zr  Zr5  1  0.806771  0.192535  0.192535  1
  Zr  Zr6  1  0.442028  0.442105  0.057934  1
  Zr  Zr7  1  0.056663  0.060113  0.441612  1
  Zr  Zr8  1  0.442028  0.057934  0.442105  1
  Zr  Zr9  1  0.056663  0.441612  0.060113  1
  Zr  Zr10  1  0.056663  0.441612  0.441612  1
  Zr  Zr11  1  0.442028  0.057934  0.057934  1
  Al  Al12  1  0.125426  0.624858  0.624858  1
  Al  Al13  1  0.626495  0.128301  0.622602  1
  Al  Al14  1  0.626495  0.622602  0.128301  1
  Al  Al15  1  0.626495  0.622602  0.622602  1
  Co  Co16  1  0.749190  0.416937  0.416937  1
  Ir  Ir17  1  0.418996  0.749922  0.415542  1
  Ir  Ir18  1  0.418996  0.415542  0.749922  1
  Ir  Ir19  1  0.418996  0.415542  0.415542  1
  Ir  Ir20  1  0.497618  0.834127  0.834127  1
  Ir  Ir21  1  0.833658  0.497421  0.834460  1
  Ir  Ir22  1  0.833658  0.834460  0.497421  1
  Ir  Ir23  1  0.833658  0.834460  0.834460  1
  N  N24  1  0.625137  0.124954  0.124954  1
  N  N25  1  0.124299  0.624706  0.125497  1
  N  N26  1  0.124299  0.125497  0.624706  1
  N  N27  1  0.124299  0.125497  0.125497  1
