# generated using pymatgen
data_Dy4Er4Ti9Si16W3
_symmetry_space_group_name_H-M   'P 1'
_cell_length_a   6.98859944
_cell_length_b   6.98893421
_cell_length_c   12.84885947
_cell_angle_alpha   90.03470547
_cell_angle_beta   89.97650811
_cell_angle_gamma   89.98689776
_symmetry_Int_Tables_number   1
_chemical_formula_structural   Dy4Er4Ti9Si16W3
_chemical_formula_sum   'Dy4 Er4 Ti9 Si16 W3'
_cell_volume   627.57488198
_cell_formula_units_Z   1
loop_
 _symmetry_equiv_pos_site_id
 _symmetry_equiv_pos_as_xyz
  1  'x, y, z'
loop_
 _atom_site_type_symbol
 _atom_site_label
 _atom_site_symmetry_multiplicity
 _atom_site_fract_x
 _atom_site_fract_y
 _atom_site_fract_z
 _atom_site_occupancy
  Dy  Dy0  1  0.339903  0.001884  0.466864  1
  Dy  Dy1  1  0.498245  0.841379  0.718526  1
  Dy  Dy2  1  0.500633  0.158767  0.216606  1
  Dy  Dy3  1  0.841275  0.498119  0.281517  1
  Er  Er4  1  0.158338  0.499850  0.783452  1
  Er  Er5  1  0.659883  0.000391  0.967031  1
  Er  Er6  1  0.001448  0.340207  0.533576  1
  Er  Er7  1  0.000376  0.659994  0.032538  1
  Ti  Ti8  1  0.673251  0.672873  0.500222  1
  Ti  Ti9  1  0.152134  0.009445  0.876366  1
  Ti  Ti10  1  0.491101  0.653526  0.124738  1
  Ti  Ti11  1  0.508073  0.346154  0.628032  1
  Ti  Ti12  1  0.653263  0.491550  0.874788  1
  Ti  Ti13  1  0.345472  0.507266  0.372531  1
  Ti  Ti14  1  0.848076  0.990897  0.374939  1
  Ti  Ti15  1  0.009074  0.152320  0.123266  1
  Ti  Ti16  1  0.991959  0.847846  0.625380  1
  Si  Si17  1  0.200509  0.130932  0.684481  1
  Si  Si18  1  0.369142  0.700905  0.933764  1
  Si  Si19  1  0.630924  0.298186  0.435094  1
  Si  Si20  1  0.701066  0.369980  0.065383  1
  Si  Si21  1  0.297264  0.629335  0.565840  1
  Si  Si22  1  0.799755  0.869383  0.183854  1
  Si  Si23  1  0.129441  0.200994  0.315501  1
  Si  Si24  1  0.870057  0.799128  0.816111  1
  Si  Si25  1  0.292607  0.953281  0.064535  1
  Si  Si26  1  0.545873  0.790685  0.314886  1
  Si  Si27  1  0.452858  0.208706  0.816073  1
  Si  Si28  1  0.792254  0.545710  0.685116  1
  Si  Si29  1  0.208067  0.453638  0.183876  1
  Si  Si30  1  0.708412  0.048059  0.566306  1
  Si  Si31  1  0.953515  0.293315  0.934988  1
  Si  Si32  1  0.047537  0.706651  0.434084  1
  W  W33  1  0.326964  0.327527  0.999756  1
  W  W34  1  0.173851  0.826822  0.248848  1
  W  W35  1  0.827402  0.174295  0.751132  1
