# generated using pymatgen
data_NaTbCr2O8
_symmetry_space_group_name_H-M   'P 1'
_cell_length_a   6.02256391
_cell_length_b   6.02256366
_cell_length_c   6.02256300
_cell_angle_alpha   105.60118111
_cell_angle_beta   105.60118368
_cell_angle_gamma   117.52403139
_symmetry_Int_Tables_number   1
_chemical_formula_structural   NaTbCr2O8
_chemical_formula_sum   'Na1 Tb1 Cr2 O8'
_cell_volume   165.63603311
_cell_formula_units_Z   1
loop_
 _symmetry_equiv_pos_site_id
 _symmetry_equiv_pos_as_xyz
  1  'x, y, z'
loop_
 _atom_site_type_symbol
 _atom_site_label
 _atom_site_symmetry_multiplicity
 _atom_site_fract_x
 _atom_site_fract_y
 _atom_site_fract_z
 _atom_site_occupancy
  Na  Na0  1  0.000000  0.000000  0.000000  1
  Tb  Tb1  1  0.250000  0.750000  0.500000  1
  Cr  Cr2  1  0.750000  0.250000  0.500000  1
  Cr  Cr3  1  0.500000  0.500000  0.000000  1
  O  O4  1  0.344261  0.529965  0.185704  1
  O  O5  1  0.403873  0.080562  0.323311  1
  O  O6  1  0.757252  0.080562  0.676689  1
  O  O7  1  0.344261  0.158558  0.814296  1
  O  O8  1  0.841442  0.655739  0.185704  1
  O  O9  1  0.919438  0.242748  0.323311  1
  O  O10  1  0.919438  0.596127  0.676689  1
  O  O11  1  0.470035  0.655739  0.814296  1
