# generated using pymatgen
data_Tm12FeCo3BiRh
_symmetry_space_group_name_H-M   'P 1'
_cell_length_a   8.20170665
_cell_length_b   8.20159118
_cell_length_c   8.20170497
_cell_angle_alpha   111.03236289
_cell_angle_beta   111.36524153
_cell_angle_gamma   106.06941438
_symmetry_Int_Tables_number   1
_chemical_formula_structural   Tm12FeCo3BiRh
_chemical_formula_sum   'Tm12 Fe1 Co3 Bi1 Rh1'
_cell_volume   423.58125380
_cell_formula_units_Z   1
loop_
 _symmetry_equiv_pos_site_id
 _symmetry_equiv_pos_as_xyz
  1  'x, y, z'
loop_
 _atom_site_type_symbol
 _atom_site_label
 _atom_site_symmetry_multiplicity
 _atom_site_fract_x
 _atom_site_fract_y
 _atom_site_fract_z
 _atom_site_occupancy
  Tm  Tm0  1  0.284330  0.185407  0.469723  1
  Tm  Tm1  1  0.713887  0.815540  0.529416  1
  Tm  Tm2  1  0.286124  0.815540  0.101652  1
  Tm  Tm3  1  0.715684  0.185407  0.901078  1
  Tm  Tm4  1  0.618437  0.308564  0.306300  1
  Tm  Tm5  1  0.381558  0.687846  0.690138  1
  Tm  Tm6  1  0.002264  0.308564  0.690126  1
  Tm  Tm7  1  0.997708  0.687846  0.306288  1
  Tm  Tm8  1  0.212323  0.411340  0.199018  1
  Tm  Tm9  1  0.788253  0.589094  0.800840  1
  Tm  Tm10  1  0.211741  0.012586  0.800844  1
  Tm  Tm11  1  0.787676  0.986702  0.199026  1
  Fe  Fe12  1  0.000003  0.383276  0.383273  1
  Co  Co13  1  0.000001  0.623269  0.623267  1
  Co  Co14  1  0.389113  0.888789  0.499676  1
  Co  Co15  1  0.610899  0.110578  0.499679  1
  Bi  Bi16  1  0.499998  0.499472  0.999474  1
  Rh  Rh17  1  0.000001  0.000182  0.000181  1
