# generated using pymatgen
data_Cu(NF7)2
_symmetry_space_group_name_H-M   'P 1'
_cell_length_a   6.78511862
_cell_length_b   6.78511839
_cell_length_c   6.78511824
_cell_angle_alpha   118.20777292
_cell_angle_beta   118.20777468
_cell_angle_gamma   93.13330946
_symmetry_Int_Tables_number   1
_chemical_formula_structural   Cu(NF7)2
_chemical_formula_sum   'Cu1 N2 F14'
_cell_volume   226.49763483
_cell_formula_units_Z   1
loop_
 _symmetry_equiv_pos_site_id
 _symmetry_equiv_pos_as_xyz
  1  'x, y, z'
loop_
 _atom_site_type_symbol
 _atom_site_label
 _atom_site_symmetry_multiplicity
 _atom_site_fract_x
 _atom_site_fract_y
 _atom_site_fract_z
 _atom_site_occupancy
  Cu  Cu0  1  0.000000  0.000000  0.000000  1
  N  N1  1  0.750000  0.250000  0.500000  1
  N  N2  1  0.250000  0.750000  0.500000  1
  F  F3  1  0.407074  0.971216  0.713333  1
  F  F4  1  0.236639  0.137800  0.374438  1
  F  F5  1  0.137800  0.763361  0.901160  1
  F  F6  1  0.862200  0.236639  0.098840  1
  F  F7  1  0.763361  0.862200  0.625562  1
  F  F8  1  0.191549  0.191549  0.000000  1
  F  F9  1  0.808451  0.808451  0.000000  1
  F  F10  1  0.742117  0.306259  0.713333  1
  F  F11  1  0.306259  0.592926  0.564142  1
  F  F12  1  0.028784  0.742117  0.435858  1
  F  F13  1  0.592926  0.028784  0.286667  1
  F  F14  1  0.257883  0.693741  0.286667  1
  F  F15  1  0.693741  0.407074  0.435858  1
  F  F16  1  0.971216  0.257883  0.564142  1
