# generated using pymatgen
data_LaPr6Gd(WO6)4
_symmetry_space_group_name_H-M   'P 1'
_cell_length_a   5.46658329
_cell_length_b   9.46221553
_cell_length_c   10.34430642
_cell_angle_alpha   90.11447084
_cell_angle_beta   89.95949587
_cell_angle_gamma   90.15470264
_symmetry_Int_Tables_number   1
_chemical_formula_structural   LaPr6Gd(WO6)4
_chemical_formula_sum   'La1 Pr6 Gd1 W4 O24'
_cell_volume   535.06633299
_cell_formula_units_Z   1
loop_
 _symmetry_equiv_pos_site_id
 _symmetry_equiv_pos_as_xyz
  1  'x, y, z'
loop_
 _atom_site_type_symbol
 _atom_site_label
 _atom_site_symmetry_multiplicity
 _atom_site_fract_x
 _atom_site_fract_y
 _atom_site_fract_z
 _atom_site_occupancy
  La  La0  1  0.033036  0.280784  0.632473  1
  Pr  Pr1  1  0.478384  0.602217  0.536110  1
  Pr  Pr2  1  0.976778  0.895282  0.462664  1
  Pr  Pr3  1  0.523650  0.104746  0.963548  1
  Pr  Pr4  1  0.020624  0.396386  0.037466  1
  Pr  Pr5  1  0.966579  0.783831  0.868697  1
  Pr  Pr6  1  0.466455  0.718931  0.133300  1
  Gd  Gd7  1  0.536146  0.217908  0.369134  1
  W  W8  1  0.460274  0.997130  0.646480  1
  W  W9  1  0.958708  0.499981  0.351099  1
  W  W10  1  0.540546  0.498222  0.852242  1
  W  W11  1  0.041249  0.005592  0.150963  1
  O  O12  1  0.258500  0.088805  0.506184  1
  O  O13  1  0.749549  0.407011  0.488612  1
  O  O14  1  0.748430  0.590347  0.990457  1
  O  O15  1  0.249884  0.913342  0.011927  1
  O  O16  1  0.722488  0.111332  0.561981  1
  O  O17  1  0.227303  0.385369  0.428250  1
  O  O18  1  0.277667  0.613106  0.933853  1
  O  O19  1  0.777818  0.889688  0.067430  1
  O  O20  1  0.189290  0.868281  0.677546  1
  O  O21  1  0.691302  0.632256  0.320778  1
  O  O22  1  0.807520  0.366710  0.822808  1
  O  O23  1  0.310480  0.135018  0.185441  1
  O  O24  1  0.178393  0.861714  0.260090  1
  O  O25  1  0.684377  0.638254  0.740651  1
  O  O26  1  0.809795  0.358957  0.241461  1
  O  O27  1  0.319244  0.137831  0.758599  1
  O  O28  1  0.827350  0.053009  0.289367  1
  O  O29  1  0.332887  0.450974  0.711344  1
  O  O30  1  0.163541  0.549717  0.210326  1
  O  O31  1  0.670981  0.952382  0.786903  1
  O  O32  1  0.931441  0.150411  0.027559  1
  O  O33  1  0.425078  0.350279  0.972462  1
  O  O34  1  0.070768  0.646653  0.473559  1
  O  O35  1  0.573484  0.847544  0.528237  1
