# generated using pymatgen
data_GdPu3(MgSi2)2
_symmetry_space_group_name_H-M   'P 1'
_cell_length_a   7.08857662
_cell_length_b   7.06139077
_cell_length_c   4.36294900
_cell_angle_alpha   90.00000000
_cell_angle_beta   90.00000000
_cell_angle_gamma   90.73160705
_symmetry_Int_Tables_number   1
_chemical_formula_structural   GdPu3(MgSi2)2
_chemical_formula_sum   'Gd1 Pu3 Mg2 Si4'
_cell_volume   218.37052272
_cell_formula_units_Z   1
loop_
 _symmetry_equiv_pos_site_id
 _symmetry_equiv_pos_as_xyz
  1  'x, y, z'
loop_
 _atom_site_type_symbol
 _atom_site_label
 _atom_site_symmetry_multiplicity
 _atom_site_fract_x
 _atom_site_fract_y
 _atom_site_fract_z
 _atom_site_occupancy
  Gd  Gd0  1  0.825877  0.674341  0.500000  1
  Pu  Pu1  1  0.670925  0.173394  0.500000  1
  Pu  Pu2  1  0.326290  0.829131  0.500000  1
  Pu  Pu3  1  0.177577  0.322751  0.500000  1
  Mg  Mg4  1  0.999006  0.999580  0.000000  1
  Mg  Mg5  1  0.500383  0.500984  0.000000  1
  Si  Si6  1  0.121183  0.619924  0.000000  1
  Si  Si7  1  0.880156  0.378697  0.000000  1
  Si  Si8  1  0.618795  0.880921  0.000000  1
  Si  Si9  1  0.379808  0.120277  0.000000  1
