# generated using pymatgen
data_LuCu4AgO8
_symmetry_space_group_name_H-M   'P 1'
_cell_length_a   6.20341978
_cell_length_b   6.20342007
_cell_length_c   6.20341943
_cell_angle_alpha   125.19885728
_cell_angle_beta   125.19886113
_cell_angle_gamma   81.20891771
_symmetry_Int_Tables_number   1
_chemical_formula_structural   LuCu4AgO8
_chemical_formula_sum   'Lu1 Cu4 Ag1 O8'
_cell_volume   153.54335345
_cell_formula_units_Z   1
loop_
 _symmetry_equiv_pos_site_id
 _symmetry_equiv_pos_as_xyz
  1  'x, y, z'
loop_
 _atom_site_type_symbol
 _atom_site_label
 _atom_site_symmetry_multiplicity
 _atom_site_fract_x
 _atom_site_fract_y
 _atom_site_fract_z
 _atom_site_occupancy
  Lu  Lu0  1  0.750000  0.250000  0.500000  1
  Cu  Cu1  1  0.872944  0.635916  0.260101  1
  Cu  Cu2  1  0.375816  0.612844  0.739899  1
  Cu  Cu3  1  0.387156  0.127056  0.762972  1
  Cu  Cu4  1  0.364084  0.624184  0.237028  1
  Ag  Ag5  1  0.000000  0.000000  0.000000  1
  O  O6  1  0.431085  0.267430  0.587807  1
  O  O7  1  0.041960  0.420827  0.064718  1
  O  O8  1  0.022759  0.958040  0.378868  1
  O  O9  1  0.156722  0.568915  0.836345  1
  O  O10  1  0.579173  0.643891  0.621132  1
  O  O11  1  0.732570  0.320378  0.163655  1
  O  O12  1  0.679622  0.843278  0.412193  1
  O  O13  1  0.356109  0.977241  0.935282  1
