# generated using pymatgen
data_Nd2Y3Ho3(Si3Rh)4
_symmetry_space_group_name_H-M   'P 1'
_cell_length_a   8.19415100
_cell_length_b   8.19415081
_cell_length_c   8.01752300
_cell_angle_alpha   90.00000000
_cell_angle_beta   90.00000000
_cell_angle_gamma   119.99999672
_symmetry_Int_Tables_number   1
_chemical_formula_structural   Nd2Y3Ho3(Si3Rh)4
_chemical_formula_sum   'Nd2 Y3 Ho3 Si12 Rh4'
_cell_volume   466.20698499
_cell_formula_units_Z   1
loop_
 _symmetry_equiv_pos_site_id
 _symmetry_equiv_pos_as_xyz
  1  'x, y, z'
loop_
 _atom_site_type_symbol
 _atom_site_label
 _atom_site_symmetry_multiplicity
 _atom_site_fract_x
 _atom_site_fract_y
 _atom_site_fract_z
 _atom_site_occupancy
  Nd  Nd0  1  0.000000  0.000000  0.250000  1
  Nd  Nd1  1  0.000000  0.000000  0.750000  1
  Y  Y2  1  0.491650  0.508350  0.750000  1
  Y  Y3  1  0.491650  0.983301  0.750000  1
  Y  Y4  1  0.016699  0.508350  0.750000  1
  Ho  Ho5  1  0.508358  0.491642  0.250000  1
  Ho  Ho6  1  0.508358  0.016715  0.250000  1
  Ho  Ho7  1  0.983285  0.491642  0.250000  1
  Si  Si8  1  0.168356  0.831644  0.500490  1
  Si  Si9  1  0.168356  0.336712  0.500490  1
  Si  Si10  1  0.663288  0.831644  0.500490  1
  Si  Si11  1  0.831784  0.168216  0.497873  1
  Si  Si12  1  0.831784  0.663568  0.497873  1
  Si  Si13  1  0.336432  0.168216  0.497873  1
  Si  Si14  1  0.831784  0.168216  0.002127  1
  Si  Si15  1  0.831784  0.663568  0.002127  1
  Si  Si16  1  0.336432  0.168216  0.002127  1
  Si  Si17  1  0.168356  0.831644  0.999510  1
  Si  Si18  1  0.168356  0.336712  0.999510  1
  Si  Si19  1  0.663288  0.831644  0.999510  1
  Rh  Rh20  1  0.333333  0.666667  0.464200  1
  Rh  Rh21  1  0.666667  0.333333  0.531212  1
  Rh  Rh22  1  0.666667  0.333333  0.968788  1
  Rh  Rh23  1  0.333333  0.666667  0.035800  1
