# generated using pymatgen
data_Sr4Si7GePt8
_symmetry_space_group_name_H-M   'P 1'
_cell_length_a   6.88347091
_cell_length_b   7.73036163
_cell_length_c   7.98005138
_cell_angle_alpha   92.55326939
_cell_angle_beta   88.99977463
_cell_angle_gamma   89.39985286
_symmetry_Int_Tables_number   1
_chemical_formula_structural   Sr4Si7GePt8
_chemical_formula_sum   'Sr4 Si7 Ge1 Pt8'
_cell_volume   424.11914427
_cell_formula_units_Z   1
loop_
 _symmetry_equiv_pos_site_id
 _symmetry_equiv_pos_as_xyz
  1  'x, y, z'
loop_
 _atom_site_type_symbol
 _atom_site_label
 _atom_site_symmetry_multiplicity
 _atom_site_fract_x
 _atom_site_fract_y
 _atom_site_fract_z
 _atom_site_occupancy
  Sr  Sr0  1  0.873263  0.501335  0.751477  1
  Sr  Sr1  1  0.369095  0.004023  0.246154  1
  Sr  Sr2  1  0.633097  0.996508  0.745985  1
  Sr  Sr3  1  0.135798  0.502826  0.256102  1
  Si  Si4  1  0.908694  0.855649  0.430495  1
  Si  Si5  1  0.086551  0.864076  0.928987  1
  Si  Si6  1  0.596190  0.361868  0.426973  1
  Si  Si7  1  0.083483  0.131244  0.566801  1
  Si  Si8  1  0.596053  0.646700  0.077831  1
  Si  Si9  1  0.904515  0.142465  0.068296  1
  Si  Si10  1  0.411318  0.628004  0.585255  1
  Ge  Ge11  1  0.409737  0.361674  0.919401  1
  Pt  Pt12  1  0.845731  0.156251  0.368756  1
  Pt  Pt13  1  0.148452  0.829394  0.626939  1
  Pt  Pt14  1  0.141550  0.159875  0.864237  1
  Pt  Pt15  1  0.344440  0.321251  0.611367  1
  Pt  Pt16  1  0.358844  0.683632  0.882927  1
  Pt  Pt17  1  0.847141  0.844055  0.133059  1
  Pt  Pt18  1  0.656324  0.345738  0.129499  1
  Pt  Pt19  1  0.649722  0.663434  0.379458  1
