# generated using pymatgen
data_MnFe3(SiTc)6
_symmetry_space_group_name_H-M   'P 1'
_cell_length_a   6.93344500
_cell_length_b   6.93344481
_cell_length_c   4.78425300
_cell_angle_alpha   90.00000000
_cell_angle_beta   90.00000000
_cell_angle_gamma   120.00000567
_symmetry_Int_Tables_number   1
_chemical_formula_structural   MnFe3(SiTc)6
_chemical_formula_sum   'Mn1 Fe3 Si6 Tc6'
_cell_volume   199.17869503
_cell_formula_units_Z   1
loop_
 _symmetry_equiv_pos_site_id
 _symmetry_equiv_pos_as_xyz
  1  'x, y, z'
loop_
 _atom_site_type_symbol
 _atom_site_label
 _atom_site_symmetry_multiplicity
 _atom_site_fract_x
 _atom_site_fract_y
 _atom_site_fract_z
 _atom_site_occupancy
  Mn  Mn0  1  0.333333  0.666667  0.500000  1
  Fe  Fe1  1  0.666667  0.333333  0.000000  1
  Fe  Fe2  1  0.666667  0.333333  0.500000  1
  Fe  Fe3  1  0.333333  0.666667  0.000000  1
  Si  Si4  1  0.405163  0.002503  0.750873  1
  Si  Si5  1  0.405163  0.402660  0.249127  1
  Si  Si6  1  0.997497  0.594837  0.249127  1
  Si  Si7  1  0.997497  0.402660  0.750873  1
  Si  Si8  1  0.597340  0.594837  0.750873  1
  Si  Si9  1  0.597340  0.002503  0.249127  1
  Tc  Tc10  1  0.001500  0.759650  0.750712  1
  Tc  Tc11  1  0.001500  0.241849  0.249288  1
  Tc  Tc12  1  0.758151  0.759650  0.249288  1
  Tc  Tc13  1  0.758151  0.998500  0.750712  1
  Tc  Tc14  1  0.240350  0.241849  0.750712  1
  Tc  Tc15  1  0.240350  0.998500  0.249288  1
