# generated using pymatgen
data_Nd6Ho13ThSn16
_symmetry_space_group_name_H-M   'P 1'
_cell_length_a   8.12873155
_cell_length_b   8.28278598
_cell_length_c   15.63014800
_cell_angle_alpha   90.06243002
_cell_angle_beta   90.24703133
_cell_angle_gamma   89.81074052
_symmetry_Int_Tables_number   1
_chemical_formula_structural   Nd6Ho13ThSn16
_chemical_formula_sum   'Nd6 Ho13 Th1 Sn16'
_cell_volume   1052.33897207
_cell_formula_units_Z   1
loop_
 _symmetry_equiv_pos_site_id
 _symmetry_equiv_pos_as_xyz
  1  'x, y, z'
loop_
 _atom_site_type_symbol
 _atom_site_label
 _atom_site_symmetry_multiplicity
 _atom_site_fract_x
 _atom_site_fract_y
 _atom_site_fract_z
 _atom_site_occupancy
  Nd  Nd0  1  0.017678  0.179630  0.598502  1
  Nd  Nd1  1  0.483739  0.679013  0.403138  1
  Nd  Nd2  1  0.981872  0.821304  0.097090  1
  Nd  Nd3  1  0.482578  0.677876  0.096874  1
  Nd  Nd4  1  0.983710  0.820861  0.403250  1
  Nd  Nd5  1  0.515462  0.321806  0.596537  1
  Ho  Ho6  1  0.363103  0.835303  0.877347  1
  Ho  Ho7  1  0.861931  0.664284  0.623586  1
  Ho  Ho8  1  0.637524  0.164192  0.376995  1
  Ho  Ho9  1  0.135229  0.336111  0.122112  1
  Ho  Ho10  1  0.635540  0.163503  0.122038  1
  Ho  Ho11  1  0.138205  0.336444  0.377275  1
  Ho  Ho12  1  0.361983  0.837121  0.624295  1
  Ho  Ho13  1  0.863654  0.663034  0.877614  1
  Ho  Ho14  1  0.522725  0.322298  0.901332  1
  Ho  Ho15  1  0.195450  0.500897  0.750659  1
  Ho  Ho16  1  0.694530  0.997201  0.750250  1
  Ho  Ho17  1  0.804109  0.497359  0.250140  1
  Ho  Ho18  1  0.304470  0.002348  0.249510  1
  Th  Th19  1  0.016522  0.179793  0.902505  1
  Sn  Sn20  1  0.297519  0.039827  0.040848  1
  Sn  Sn21  1  0.801206  0.459967  0.458136  1
  Sn  Sn22  1  0.699186  0.961268  0.542577  1
  Sn  Sn23  1  0.205782  0.532479  0.955695  1
  Sn  Sn24  1  0.700389  0.964024  0.956746  1
  Sn  Sn25  1  0.198127  0.541995  0.542328  1
  Sn  Sn26  1  0.301413  0.039989  0.458463  1
  Sn  Sn27  1  0.796630  0.456732  0.039601  1
  Sn  Sn28  1  0.560639  0.622055  0.750586  1
  Sn  Sn29  1  0.060530  0.877543  0.751934  1
  Sn  Sn30  1  0.438346  0.376668  0.249367  1
  Sn  Sn31  1  0.938334  0.123606  0.249790  1
  Sn  Sn32  1  0.328946  0.146577  0.752653  1
  Sn  Sn33  1  0.823579  0.357455  0.750468  1
  Sn  Sn34  1  0.674767  0.856594  0.249843  1
  Sn  Sn35  1  0.174589  0.642843  0.249915  1
