# generated using pymatgen
data_Tb2Dy3Co16(ReP4)3
_symmetry_space_group_name_H-M   'P 1'
_cell_length_a   12.05008300
_cell_length_b   12.05008225
_cell_length_c   3.67025700
_cell_angle_alpha   90.00000000
_cell_angle_beta   90.00000000
_cell_angle_gamma   119.99999381
_symmetry_Int_Tables_number   1
_chemical_formula_structural   Tb2Dy3Co16(ReP4)3
_chemical_formula_sum   'Tb2 Dy3 Co16 Re3 P12'
_cell_volume   461.53770280
_cell_formula_units_Z   1
loop_
 _symmetry_equiv_pos_site_id
 _symmetry_equiv_pos_as_xyz
  1  'x, y, z'
loop_
 _atom_site_type_symbol
 _atom_site_label
 _atom_site_symmetry_multiplicity
 _atom_site_fract_x
 _atom_site_fract_y
 _atom_site_fract_z
 _atom_site_occupancy
  Tb  Tb0  1  0.666667  0.333333  0.000000  1
  Tb  Tb1  1  0.333333  0.666667  0.000000  1
  Dy  Dy2  1  0.184949  0.184949  0.500000  1
  Dy  Dy3  1  0.815051  0.000000  0.500000  1
  Dy  Dy4  1  0.000000  0.815051  0.500000  1
  Co  Co5  1  0.821865  0.197293  0.000000  1
  Co  Co6  1  0.802707  0.624571  0.000000  1
  Co  Co7  1  0.375429  0.178135  0.000000  1
  Co  Co8  1  0.197293  0.821865  0.000000  1
  Co  Co9  1  0.624571  0.802707  0.000000  1
  Co  Co10  1  0.178135  0.375429  0.000000  1
  Co  Co11  1  0.642976  0.125769  0.500000  1
  Co  Co12  1  0.874231  0.517206  0.500000  1
  Co  Co13  1  0.482794  0.357024  0.500000  1
  Co  Co14  1  0.125769  0.642976  0.500000  1
  Co  Co15  1  0.517206  0.874231  0.500000  1
  Co  Co16  1  0.357024  0.482794  0.500000  1
  Co  Co17  1  0.717576  0.717576  0.500000  1
  Co  Co18  1  0.282424  0.000000  0.500000  1
  Co  Co19  1  0.000000  0.282424  0.500000  1
  Co  Co20  1  0.000000  0.000000  0.000000  1
  Re  Re21  1  0.554137  0.554137  0.000000  1
  Re  Re22  1  0.445863  0.000000  0.000000  1
  Re  Re23  1  0.000000  0.445863  0.000000  1
  P  P24  1  0.362169  0.362169  0.000000  1
  P  P25  1  0.637831  0.000000  0.000000  1
  P  P26  1  0.000000  0.637831  0.000000  1
  P  P27  1  0.835480  0.314314  0.500000  1
  P  P28  1  0.685686  0.521166  0.500000  1
  P  P29  1  0.478834  0.164520  0.500000  1
  P  P30  1  0.314314  0.835480  0.500000  1
  P  P31  1  0.521166  0.685686  0.500000  1
  P  P32  1  0.164520  0.478834  0.500000  1
  P  P33  1  0.822098  0.822098  0.000000  1
  P  P34  1  0.177902  0.000000  0.000000  1
  P  P35  1  0.000000  0.177902  0.000000  1
