# generated using pymatgen
data_Er11Th(Si3Ir)4
_symmetry_space_group_name_H-M   'P 1'
_cell_length_a   4.19010600
_cell_length_b   10.56912437
_cell_length_c   12.14041200
_cell_angle_alpha   89.87951702
_cell_angle_beta   90.00000000
_cell_angle_gamma   90.00000000
_symmetry_Int_Tables_number   1
_chemical_formula_structural   Er11Th(Si3Ir)4
_chemical_formula_sum   'Er11 Th1 Si12 Ir4'
_cell_volume   537.64607936
_cell_formula_units_Z   1
loop_
 _symmetry_equiv_pos_site_id
 _symmetry_equiv_pos_as_xyz
  1  'x, y, z'
loop_
 _atom_site_type_symbol
 _atom_site_label
 _atom_site_symmetry_multiplicity
 _atom_site_fract_x
 _atom_site_fract_y
 _atom_site_fract_z
 _atom_site_occupancy
  Er  Er0  1  0.250000  0.878617  0.022599  1
  Er  Er1  1  0.250000  0.620470  0.522013  1
  Er  Er2  1  0.750000  0.119968  0.982318  1
  Er  Er3  1  0.750000  0.383234  0.476224  1
  Er  Er4  1  0.250000  0.917514  0.602514  1
  Er  Er5  1  0.250000  0.580811  0.102974  1
  Er  Er6  1  0.750000  0.082255  0.394779  1
  Er  Er7  1  0.750000  0.420695  0.898357  1
  Er  Er8  1  0.250000  0.659241  0.801917  1
  Er  Er9  1  0.250000  0.839709  0.301592  1
  Er  Er10  1  0.750000  0.345733  0.198383  1
  Th  Th11  1  0.750000  0.158102  0.695765  1
  Si  Si12  1  0.250000  0.006485  0.822292  1
  Si  Si13  1  0.250000  0.490342  0.321512  1
  Si  Si14  1  0.750000  0.986838  0.178698  1
  Si  Si15  1  0.750000  0.510725  0.678955  1
  Si  Si16  1  0.250000  0.246756  0.846360  1
  Si  Si17  1  0.250000  0.255353  0.335989  1
  Si  Si18  1  0.750000  0.752958  0.159676  1
  Si  Si19  1  0.750000  0.746473  0.659711  1
  Si  Si20  1  0.250000  0.203407  0.533756  1
  Si  Si21  1  0.250000  0.300231  0.045797  1
  Si  Si22  1  0.750000  0.800664  0.456190  1
  Si  Si23  1  0.750000  0.698254  0.958041  1
  Ir  Ir24  1  0.250000  0.388901  0.682045  1
  Ir  Ir25  1  0.250000  0.110264  0.178856  1
  Ir  Ir26  1  0.750000  0.609870  0.319441  1
  Ir  Ir27  1  0.750000  0.886126  0.823247  1
