# generated using pymatgen
data_Ba4Cr3FeN8
_symmetry_space_group_name_H-M   'P 1'
_cell_length_a   6.46540295
_cell_length_b   6.46540178
_cell_length_c   7.82149220
_cell_angle_alpha   90.41590165
_cell_angle_beta   89.58409887
_cell_angle_gamma   125.50415056
_symmetry_Int_Tables_number   1
_chemical_formula_structural   Ba4Cr3FeN8
_chemical_formula_sum   'Ba4 Cr3 Fe1 N8'
_cell_volume   266.15206907
_cell_formula_units_Z   1
loop_
 _symmetry_equiv_pos_site_id
 _symmetry_equiv_pos_as_xyz
  1  'x, y, z'
loop_
 _atom_site_type_symbol
 _atom_site_label
 _atom_site_symmetry_multiplicity
 _atom_site_fract_x
 _atom_site_fract_y
 _atom_site_fract_z
 _atom_site_occupancy
  Ba  Ba0  1  0.836625  0.163375  0.563500  1
  Ba  Ba1  1  0.156321  0.843679  0.443207  1
  Ba  Ba2  1  0.660531  0.339469  0.052790  1
  Ba  Ba3  1  0.342739  0.657261  0.932530  1
  Cr  Cr4  1  0.451691  0.548309  0.366763  1
  Cr  Cr5  1  0.949296  0.050704  0.137942  1
  Cr  Cr6  1  0.052530  0.947470  0.865642  1
  Fe  Fe7  1  0.551086  0.448914  0.635074  1
  N  N8  1  0.891476  0.108524  0.916225  1
  N  N9  1  0.107084  0.892916  0.090935  1
  N  N10  1  0.606311  0.393689  0.400178  1
  N  N11  1  0.386462  0.613538  0.579084  1
  N  N12  1  0.337944  0.146059  0.756215  1
  N  N13  1  0.156657  0.340697  0.251850  1
  N  N14  1  0.659303  0.843343  0.251850  1
  N  N15  1  0.853941  0.662056  0.756215  1
