# generated using pymatgen
data_Cd2BiIr4PbO14
_symmetry_space_group_name_H-M   'P 1'
_cell_length_a   7.28982529
_cell_length_b   7.37363525
_cell_length_c   7.28982470
_cell_angle_alpha   59.75243154
_cell_angle_beta   59.41894635
_cell_angle_gamma   59.75243232
_symmetry_Int_Tables_number   1
_chemical_formula_structural   Cd2BiIr4PbO14
_chemical_formula_sum   'Cd2 Bi1 Ir4 Pb1 O14'
_cell_volume   274.81240017
_cell_formula_units_Z   1
loop_
 _symmetry_equiv_pos_site_id
 _symmetry_equiv_pos_as_xyz
  1  'x, y, z'
loop_
 _atom_site_type_symbol
 _atom_site_label
 _atom_site_symmetry_multiplicity
 _atom_site_fract_x
 _atom_site_fract_y
 _atom_site_fract_z
 _atom_site_occupancy
  Cd  Cd0  1  0.625000  0.125000  0.125000  1
  Cd  Cd1  1  0.125000  0.125000  0.625000  1
  Bi  Bi2  1  0.125000  0.625000  0.125000  1
  Ir  Ir3  1  0.125000  0.625000  0.625000  1
  Ir  Ir4  1  0.625000  0.125000  0.625000  1
  Ir  Ir5  1  0.625000  0.625000  0.125000  1
  Ir  Ir6  1  0.625000  0.625000  0.625000  1
  Pb  Pb7  1  0.125000  0.125000  0.125000  1
  O  O8  1  0.708985  0.695957  0.296001  1
  O  O9  1  0.297021  0.300281  0.708298  1
  O  O10  1  0.695454  0.304407  0.695454  1
  O  O11  1  0.293968  0.705573  0.293968  1
  O  O12  1  0.296001  0.695957  0.708985  1
  O  O13  1  0.708298  0.300281  0.297021  1
  O  O14  1  0.541015  0.554043  0.953999  1
  O  O15  1  0.952979  0.949719  0.541702  1
  O  O16  1  0.554546  0.945593  0.554546  1
  O  O17  1  0.956032  0.544427  0.956032  1
  O  O18  1  0.953999  0.554043  0.541015  1
  O  O19  1  0.541702  0.949719  0.952979  1
  O  O20  1  0.259261  0.244140  0.259261  1
  O  O21  1  0.990739  0.005860  0.990739  1
