# generated using pymatgen
data_Mg2Sc4B4Ir9Rh
_symmetry_space_group_name_H-M   'P 1'
_cell_length_a   9.54305029
_cell_length_b   9.52017530
_cell_length_c   3.04088000
_cell_angle_alpha   90.00000000
_cell_angle_beta   90.00000000
_cell_angle_gamma   90.07955147
_symmetry_Int_Tables_number   1
_chemical_formula_structural   Mg2Sc4B4Ir9Rh
_chemical_formula_sum   'Mg2 Sc4 B4 Ir9 Rh1'
_cell_volume   276.26827859
_cell_formula_units_Z   1
loop_
 _symmetry_equiv_pos_site_id
 _symmetry_equiv_pos_as_xyz
  1  'x, y, z'
loop_
 _atom_site_type_symbol
 _atom_site_label
 _atom_site_symmetry_multiplicity
 _atom_site_fract_x
 _atom_site_fract_y
 _atom_site_fract_z
 _atom_site_occupancy
  Mg  Mg0  1  0.000136  0.000178  0.000000  1
  Mg  Mg1  1  0.499408  0.498499  0.000000  1
  Sc  Sc2  1  0.678426  0.176652  0.000000  1
  Sc  Sc3  1  0.322777  0.822260  0.000000  1
  Sc  Sc4  1  0.176880  0.322138  0.000000  1
  Sc  Sc5  1  0.822540  0.677290  0.000000  1
  B  B6  1  0.126040  0.626066  0.000000  1
  B  B7  1  0.874125  0.374181  0.000000  1
  B  B8  1  0.625912  0.873971  0.000000  1
  B  B9  1  0.373866  0.125022  0.000000  1
  Ir  Ir10  1  0.499800  0.001023  0.500000  1
  Ir  Ir11  1  0.000535  0.499891  0.500000  1
  Ir  Ir12  1  0.220567  0.071039  0.500000  1
  Ir  Ir13  1  0.779677  0.930578  0.500000  1
  Ir  Ir14  1  0.069307  0.780309  0.500000  1
  Ir  Ir15  1  0.720375  0.430394  0.500000  1
  Ir  Ir16  1  0.930193  0.219988  0.500000  1
  Ir  Ir17  1  0.279909  0.570527  0.500000  1
  Ir  Ir18  1  0.569595  0.719958  0.500000  1
  Rh  Rh19  1  0.429931  0.280033  0.500000  1
