# generated using pymatgen
data_Ho4Fe5Si10Rh
_symmetry_space_group_name_H-M   'P 1'
_cell_length_a   8.00169280
_cell_length_b   8.00169212
_cell_length_c   8.00169170
_cell_angle_alpha   140.41182909
_cell_angle_beta   108.19848209
_cell_angle_gamma   85.24158719
_symmetry_Int_Tables_number   1
_chemical_formula_structural   Ho4Fe5Si10Rh
_chemical_formula_sum   'Ho4 Fe5 Si10 Rh1'
_cell_volume   299.44449810
_cell_formula_units_Z   1
loop_
 _symmetry_equiv_pos_site_id
 _symmetry_equiv_pos_as_xyz
  1  'x, y, z'
loop_
 _atom_site_type_symbol
 _atom_site_label
 _atom_site_symmetry_multiplicity
 _atom_site_fract_x
 _atom_site_fract_y
 _atom_site_fract_z
 _atom_site_occupancy
  Ho  Ho0  1  0.631780  0.868169  0.776283  1
  Ho  Ho1  1  0.368220  0.144502  0.236389  1
  Ho  Ho2  1  0.091886  0.355498  0.723717  1
  Ho  Ho3  1  0.908114  0.631831  0.263611  1
  Fe  Fe4  1  0.233947  0.643611  0.589708  1
  Fe  Fe5  1  0.766053  0.355761  0.409664  1
  Fe  Fe6  1  0.053902  0.144239  0.910292  1
  Fe  Fe7  1  0.946098  0.856389  0.090336  1
  Fe  Fe8  1  0.500000  0.750000  0.250000  1
  Si  Si9  1  0.285321  0.035321  0.750000  1
  Si  Si10  1  0.711655  0.961655  0.250000  1
  Si  Si11  1  0.714679  0.464679  0.750000  1
  Si  Si12  1  0.288345  0.538345  0.250000  1
  Si  Si13  1  0.423528  0.610171  0.838826  1
  Si  Si14  1  0.576472  0.415297  0.186642  1
  Si  Si15  1  0.771346  0.084703  0.661174  1
  Si  Si16  1  0.228654  0.889829  0.313358  1
  Si  Si17  1  0.000000  0.750000  0.750000  1
  Si  Si18  1  0.000000  0.250000  0.250000  1
  Rh  Rh19  1  0.500000  0.250000  0.750000  1
