# generated using pymatgen
data_Hf2Ta3Ga3Ge
_symmetry_space_group_name_H-M   'P 1'
_cell_length_a   6.86236000
_cell_length_b   6.97227400
_cell_length_c   13.29548800
_cell_angle_alpha   90.00000000
_cell_angle_beta   90.00000000
_cell_angle_gamma   90.00000000
_symmetry_Int_Tables_number   1
_chemical_formula_structural   Hf2Ta3Ga3Ge
_chemical_formula_sum   'Hf8 Ta12 Ga12 Ge4'
_cell_volume   636.13929865
_cell_formula_units_Z   4
loop_
 _symmetry_equiv_pos_site_id
 _symmetry_equiv_pos_as_xyz
  1  'x, y, z'
loop_
 _atom_site_type_symbol
 _atom_site_label
 _atom_site_symmetry_multiplicity
 _atom_site_fract_x
 _atom_site_fract_y
 _atom_site_fract_z
 _atom_site_occupancy
  Hf  Hf0  1  0.490514  0.674637  0.592641  1
  Hf  Hf1  1  0.990514  0.825363  0.907359  1
  Hf  Hf2  1  0.509486  0.325363  0.092641  1
  Hf  Hf3  1  0.009486  0.174637  0.407359  1
  Hf  Hf4  1  0.504531  0.325637  0.406963  1
  Hf  Hf5  1  0.004531  0.174363  0.093037  1
  Hf  Hf6  1  0.495469  0.674363  0.906963  1
  Hf  Hf7  1  0.995469  0.825637  0.593037  1
  Ta  Ta8  1  0.654263  0.176277  0.627597  1
  Ta  Ta9  1  0.154263  0.323723  0.872403  1
  Ta  Ta10  1  0.345737  0.823723  0.127597  1
  Ta  Ta11  1  0.845737  0.676277  0.372403  1
  Ta  Ta12  1  0.344231  0.823327  0.372853  1
  Ta  Ta13  1  0.844231  0.676673  0.127147  1
  Ta  Ta14  1  0.655769  0.176673  0.872853  1
  Ta  Ta15  1  0.155769  0.323327  0.627147  1
  Ta  Ta16  1  0.834736  0.485965  0.751005  1
  Ta  Ta17  1  0.334736  0.014035  0.748995  1
  Ta  Ta18  1  0.165264  0.514035  0.251005  1
  Ta  Ta19  1  0.665264  0.985965  0.248995  1
  Ga  Ga20  1  0.682115  0.967279  0.460893  1
  Ga  Ga21  1  0.182115  0.532721  0.039107  1
  Ga  Ga22  1  0.317885  0.032721  0.960893  1
  Ga  Ga23  1  0.817885  0.467279  0.539107  1
  Ga  Ga24  1  0.456071  0.397305  0.750022  1
  Ga  Ga25  1  0.956071  0.102695  0.749978  1
  Ga  Ga26  1  0.543929  0.602695  0.250022  1
  Ga  Ga27  1  0.043929  0.897305  0.249978  1
  Ga  Ga28  1  0.695589  0.850355  0.749235  1
  Ga  Ga29  1  0.195589  0.649645  0.750765  1
  Ga  Ga30  1  0.304411  0.149645  0.249235  1
  Ga  Ga31  1  0.804411  0.350355  0.250765  1
  Ge  Ge32  1  0.323191  0.034502  0.538003  1
  Ge  Ge33  1  0.823191  0.465498  0.961997  1
  Ge  Ge34  1  0.676809  0.965498  0.038003  1
  Ge  Ge35  1  0.176809  0.534502  0.461997  1
