# generated using pymatgen
data_YTmCo12SiP6
_symmetry_space_group_name_H-M   'P 1'
_cell_length_a   9.02379400
_cell_length_b   9.02379327
_cell_length_c   3.58248900
_cell_angle_alpha   90.00000000
_cell_angle_beta   90.00000000
_cell_angle_gamma   120.00000267
_symmetry_Int_Tables_number   1
_chemical_formula_structural   YTmCo12SiP6
_chemical_formula_sum   'Y1 Tm1 Co12 Si1 P6'
_cell_volume   252.63516165
_cell_formula_units_Z   1
loop_
 _symmetry_equiv_pos_site_id
 _symmetry_equiv_pos_as_xyz
  1  'x, y, z'
loop_
 _atom_site_type_symbol
 _atom_site_label
 _atom_site_symmetry_multiplicity
 _atom_site_fract_x
 _atom_site_fract_y
 _atom_site_fract_z
 _atom_site_occupancy
  Y  Y0  1  0.666667  0.333333  0.000000  1
  Tm  Tm1  1  0.000000  0.000000  0.500000  1
  Co  Co2  1  0.767783  0.728091  0.000000  1
  Co  Co3  1  0.271909  0.039692  0.000000  1
  Co  Co4  1  0.960308  0.232217  0.000000  1
  Co  Co5  1  0.719728  0.102017  0.500000  1
  Co  Co6  1  0.897983  0.617711  0.500000  1
  Co  Co7  1  0.382289  0.280272  0.500000  1
  Co  Co8  1  0.492277  0.947505  0.000000  1
  Co  Co9  1  0.052495  0.544772  0.000000  1
  Co  Co10  1  0.455228  0.507723  0.000000  1
  Co  Co11  1  0.564807  0.767982  0.500000  1
  Co  Co12  1  0.232018  0.796826  0.500000  1
  Co  Co13  1  0.203174  0.435193  0.500000  1
  Si  Si14  1  0.333333  0.666667  0.000000  1
  P  P15  1  0.444863  0.068226  0.500000  1
  P  P16  1  0.931774  0.376637  0.500000  1
  P  P17  1  0.623363  0.555137  0.500000  1
  P  P18  1  0.741011  0.960722  0.000000  1
  P  P19  1  0.039278  0.780289  0.000000  1
  P  P20  1  0.219711  0.258989  0.000000  1
