# generated using pymatgen
data_Lu2ThIn2GaNi3
_symmetry_space_group_name_H-M   'P 1'
_cell_length_a   7.32224000
_cell_length_b   7.23924824
_cell_length_c   3.82483600
_cell_angle_alpha   90.00000000
_cell_angle_beta   90.00000000
_cell_angle_gamma   120.37995172
_symmetry_Int_Tables_number   1
_chemical_formula_structural   Lu2ThIn2GaNi3
_chemical_formula_sum   'Lu2 Th1 In2 Ga1 Ni3'
_cell_volume   174.90626035
_cell_formula_units_Z   1
loop_
 _symmetry_equiv_pos_site_id
 _symmetry_equiv_pos_as_xyz
  1  'x, y, z'
loop_
 _atom_site_type_symbol
 _atom_site_label
 _atom_site_symmetry_multiplicity
 _atom_site_fract_x
 _atom_site_fract_y
 _atom_site_fract_z
 _atom_site_occupancy
  Lu  Lu0  1  0.007924  0.600210  0.000000  1
  Lu  Lu1  1  0.407714  0.399790  0.000000  1
  Th  Th2  1  0.571539  0.000000  0.000000  1
  In  In3  1  0.011114  0.261629  0.500000  1
  In  In4  1  0.749485  0.738371  0.500000  1
  Ga  Ga5  1  0.237982  0.000000  0.500000  1
  Ni  Ni6  1  0.340183  0.679404  0.500000  1
  Ni  Ni7  1  0.660779  0.320596  0.500000  1
  Ni  Ni8  1  0.013278  0.000000  0.000000  1
