# generated using pymatgen
data_La5Pr(PtBr3)2
_symmetry_space_group_name_H-M   'P 1'
_cell_length_a   10.72124174
_cell_length_b   10.72123977
_cell_length_c   10.73002764
_cell_angle_alpha   109.50452461
_cell_angle_beta   109.52490611
_cell_angle_gamma   109.35100720
_symmetry_Int_Tables_number   1
_chemical_formula_structural   La5Pr(PtBr3)2
_chemical_formula_sum   'La10 Pr2 Pt4 Br12'
_cell_volume   949.83046669
_cell_formula_units_Z   2
loop_
 _symmetry_equiv_pos_site_id
 _symmetry_equiv_pos_as_xyz
  1  'x, y, z'
loop_
 _atom_site_type_symbol
 _atom_site_label
 _atom_site_symmetry_multiplicity
 _atom_site_fract_x
 _atom_site_fract_y
 _atom_site_fract_z
 _atom_site_occupancy
  La  La0  1  0.749262  0.014498  0.484405  1
  La  La1  1  0.235652  0.471624  0.485352  1
  La  La2  1  0.264205  0.748584  0.235173  1
  La  La3  1  0.030093  0.264857  0.015595  1
  La  La4  1  0.013411  0.029031  0.264827  1
  La  La5  1  0.486272  0.750300  0.014648  1
  La  La6  1  0.485710  0.236517  0.470832  1
  La  La7  1  0.012870  0.484611  0.747670  1
  La  La8  1  0.265685  0.014877  0.029168  1
  La  La9  1  0.236942  0.265200  0.752330  1
  Pr  Pr10  1  0.471146  0.485189  0.235673  1
  Pr  Pr11  1  0.749516  0.235475  0.264327  1
  Pt  Pt12  1  0.250070  0.249853  0.250187  1
  Pt  Pt13  1  0.499666  0.999883  0.249813  1
  Pt  Pt14  1  0.000767  0.250411  0.500427  1
  Pt  Pt15  1  0.249984  0.500340  0.999573  1
  Br  Br16  1  0.250002  0.753759  0.746027  1
  Br  Br17  1  0.507731  0.503975  0.753973  1
  Br  Br18  1  0.992341  0.746094  0.996132  1
  Br  Br19  1  0.746047  0.250279  0.754309  1
  Br  Br20  1  0.995971  0.991738  0.745691  1
  Br  Br21  1  0.249963  0.996210  0.503868  1
  Br  Br22  1  0.752783  0.507256  0.502003  1
  Br  Br23  1  0.505253  0.250780  0.997997  1
  Br  Br24  1  0.752865  0.744907  0.249678  1
  Br  Br25  1  0.746176  0.996802  0.992410  1
  Br  Br26  1  0.995227  0.503186  0.250322  1
  Br  Br27  1  0.504392  0.753765  0.507590  1
