# generated using pymatgen
data_Dy5Lu3As2(P5Ir8)2
_symmetry_space_group_name_H-M   'P 1'
_cell_length_a   13.03688100
_cell_length_b   13.01845560
_cell_length_c   3.99745900
_cell_angle_alpha   90.00000000
_cell_angle_beta   90.00000000
_cell_angle_gamma   120.04683231
_symmetry_Int_Tables_number   1
_chemical_formula_structural   Dy5Lu3As2(P5Ir8)2
_chemical_formula_sum   'Dy5 Lu3 As2 P10 Ir16'
_cell_volume   587.27656975
_cell_formula_units_Z   1
loop_
 _symmetry_equiv_pos_site_id
 _symmetry_equiv_pos_as_xyz
  1  'x, y, z'
loop_
 _atom_site_type_symbol
 _atom_site_label
 _atom_site_symmetry_multiplicity
 _atom_site_fract_x
 _atom_site_fract_y
 _atom_site_fract_z
 _atom_site_occupancy
  Dy  Dy0  1  0.333849  0.667307  0.500000  1
  Dy  Dy1  1  0.666543  0.332693  0.500000  1
  Dy  Dy2  1  0.999988  0.816680  0.000000  1
  Dy  Dy3  1  0.183309  0.183320  0.000000  1
  Dy  Dy4  1  0.812673  0.000000  0.000000  1
  Lu  Lu5  1  0.998452  0.442578  0.500000  1
  Lu  Lu6  1  0.555874  0.557422  0.500000  1
  Lu  Lu7  1  0.447622  0.000000  0.500000  1
  As  As8  1  0.000320  0.650699  0.500000  1
  As  As9  1  0.349620  0.349301  0.500000  1
  P  P10  1  0.651652  0.000000  0.500000  1
  P  P11  1  0.517550  0.689918  0.000000  1
  P  P12  1  0.312731  0.829010  0.000000  1
  P  P13  1  0.171374  0.483021  0.000000  1
  P  P14  1  0.483721  0.170990  0.000000  1
  P  P15  1  0.688355  0.516979  0.000000  1
  P  P16  1  0.827633  0.310082  0.000000  1
  P  P17  1  0.999214  0.175934  0.500000  1
  P  P18  1  0.823280  0.824066  0.500000  1
  P  P19  1  0.177070  0.000000  0.500000  1
  Ir  Ir20  1  0.509297  0.866673  0.000000  1
  Ir  Ir21  1  0.137628  0.642911  0.000000  1
  Ir  Ir22  1  0.357007  0.494911  0.000000  1
  Ir  Ir23  1  0.494718  0.357089  0.000000  1
  Ir  Ir24  1  0.862097  0.505089  0.000000  1
  Ir  Ir25  1  0.642624  0.133327  0.000000  1
  Ir  Ir26  1  0.997798  0.273215  0.000000  1
  Ir  Ir27  1  0.724583  0.726785  0.000000  1
  Ir  Ir28  1  0.274336  0.000000  0.000000  1
  Ir  Ir29  1  0.630266  0.809580  0.500000  1
  Ir  Ir30  1  0.200152  0.826215  0.500000  1
  Ir  Ir31  1  0.173174  0.372784  0.500000  1
  Ir  Ir32  1  0.373937  0.173785  0.500000  1
  Ir  Ir33  1  0.800390  0.627216  0.500000  1
  Ir  Ir34  1  0.820686  0.190420  0.500000  1
  Ir  Ir35  1  0.000475  0.000000  0.500000  1
