# generated using pymatgen
data_K3RbZrSe4
_symmetry_space_group_name_H-M   'P 1'
_cell_length_a   8.56975100
_cell_length_b   10.32614400
_cell_length_c   15.42031300
_cell_angle_alpha   90.00000000
_cell_angle_beta   90.00000000
_cell_angle_gamma   90.00000000
_symmetry_Int_Tables_number   1
_chemical_formula_structural   K3RbZrSe4
_chemical_formula_sum   'K12 Rb4 Zr4 Se16'
_cell_volume   1364.58178400
_cell_formula_units_Z   4
loop_
 _symmetry_equiv_pos_site_id
 _symmetry_equiv_pos_as_xyz
  1  'x, y, z'
loop_
 _atom_site_type_symbol
 _atom_site_label
 _atom_site_symmetry_multiplicity
 _atom_site_fract_x
 _atom_site_fract_y
 _atom_site_fract_z
 _atom_site_occupancy
  K  K0  1  0.980139  0.750000  0.430655  1
  K  K1  1  0.480139  0.250000  0.069345  1
  K  K2  1  0.019861  0.250000  0.569345  1
  K  K3  1  0.519861  0.750000  0.930655  1
  K  K4  1  0.844933  0.055017  0.274369  1
  K  K5  1  0.344933  0.944983  0.225631  1
  K  K6  1  0.155067  0.555017  0.725631  1
  K  K7  1  0.655067  0.444983  0.774369  1
  K  K8  1  0.155067  0.944983  0.725631  1
  K  K9  1  0.655067  0.055017  0.774369  1
  K  K10  1  0.844933  0.444983  0.274369  1
  K  K11  1  0.344933  0.555017  0.225631  1
  Rb  Rb12  1  0.000000  0.000000  0.000000  1
  Rb  Rb13  1  0.500000  0.000000  0.500000  1
  Rb  Rb14  1  0.000000  0.500000  0.000000  1
  Rb  Rb15  1  0.500000  0.500000  0.500000  1
  Zr  Zr16  1  0.757755  0.750000  0.669908  1
  Zr  Zr17  1  0.242245  0.250000  0.330092  1
  Zr  Zr18  1  0.742245  0.750000  0.169908  1
  Zr  Zr19  1  0.257755  0.250000  0.830092  1
  Se  Se20  1  0.959796  0.250000  0.822465  1
  Se  Se21  1  0.540204  0.250000  0.322465  1
  Se  Se22  1  0.459796  0.750000  0.677535  1
  Se  Se23  1  0.040204  0.750000  0.177535  1
  Se  Se24  1  0.647075  0.547272  0.093514  1
  Se  Se25  1  0.147075  0.452728  0.406486  1
  Se  Se26  1  0.352925  0.047272  0.906486  1
  Se  Se27  1  0.852925  0.952728  0.593514  1
  Se  Se28  1  0.352925  0.452728  0.906486  1
  Se  Se29  1  0.852925  0.547272  0.593514  1
  Se  Se30  1  0.647075  0.952728  0.093514  1
  Se  Se31  1  0.147075  0.047272  0.406486  1
  Se  Se32  1  0.629844  0.750000  0.323975  1
  Se  Se33  1  0.129844  0.250000  0.176025  1
  Se  Se34  1  0.370156  0.250000  0.676025  1
  Se  Se35  1  0.870156  0.750000  0.823975  1
