# generated using pymatgen
data_Mg7Cd(As2O5)4
_symmetry_space_group_name_H-M   'P 1'
_cell_length_a   6.32217016
_cell_length_b   9.28154728
_cell_length_c   9.51449177
_cell_angle_alpha   68.30228330
_cell_angle_beta   82.75428069
_cell_angle_gamma   80.65539190
_symmetry_Int_Tables_number   1
_chemical_formula_structural   Mg7Cd(As2O5)4
_chemical_formula_sum   'Mg7 Cd1 As8 O20'
_cell_volume   510.53250847
_cell_formula_units_Z   1
loop_
 _symmetry_equiv_pos_site_id
 _symmetry_equiv_pos_as_xyz
  1  'x, y, z'
loop_
 _atom_site_type_symbol
 _atom_site_label
 _atom_site_symmetry_multiplicity
 _atom_site_fract_x
 _atom_site_fract_y
 _atom_site_fract_z
 _atom_site_occupancy
  Mg  Mg0  1  0.148663  0.894371  0.630984  1
  Mg  Mg1  1  0.598469  0.411487  0.151142  1
  Mg  Mg2  1  0.896672  0.600698  0.851905  1
  Mg  Mg3  1  0.106180  0.397990  0.143168  1
  Mg  Mg4  1  0.403689  0.588041  0.843959  1
  Mg  Mg5  1  0.841790  0.102009  0.371863  1
  Mg  Mg6  1  0.672705  0.755985  0.532599  1
  Cd  Cd7  1  0.324059  0.232350  0.476842  1
  As  As8  1  0.793470  0.398926  0.476332  1
  As  As9  1  0.255716  0.278437  0.838252  1
  As  As10  1  0.382517  0.033888  0.254438  1
  As  As11  1  0.742436  0.723298  0.162554  1
  As  As12  1  0.210221  0.609844  0.517271  1
  As  As13  1  0.769686  0.218271  0.986575  1
  As  As14  1  0.624040  0.952001  0.757230  1
  As  As15  1  0.229086  0.778568  0.012052  1
  O  O16  1  0.830240  0.000529  0.604174  1
  O  O17  1  0.378131  0.681459  0.611011  1
  O  O18  1  0.967511  0.665697  0.612354  1
  O  O19  1  0.726479  0.616921  0.374228  1
  O  O20  1  0.825854  0.564366  0.094677  1
  O  O21  1  0.615914  0.966060  0.366677  1
  O  O22  1  0.373797  0.015252  0.665322  1
  O  O23  1  0.881706  0.238532  0.144885  1
  O  O24  1  0.032808  0.362986  0.369555  1
  O  O25  1  0.115475  0.756404  0.855047  1
  O  O26  1  0.164893  0.011300  0.401179  1
  O  O27  1  0.002353  0.205489  0.855013  1
  O  O28  1  0.672803  0.427230  0.911836  1
  O  O29  1  0.382968  0.243771  0.206198  1
  O  O30  1  0.169854  0.438256  0.904215  1
  O  O31  1  0.636674  0.323276  0.379422  1
  O  O32  1  0.628314  0.748261  0.776133  1
  O  O33  1  0.330024  0.570789  0.084369  1
  O  O34  1  0.265952  0.394314  0.631430  1
  O  O35  1  0.998853  0.792942  0.145112  1
