# generated using pymatgen
data_Na4HoRuO6
_symmetry_space_group_name_H-M   'P 1'
_cell_length_a   5.66556275
_cell_length_b   5.66556452
_cell_length_c   5.80028373
_cell_angle_alpha   99.23915747
_cell_angle_beta   99.23981689
_cell_angle_gamma   120.12232683
_symmetry_Int_Tables_number   1
_chemical_formula_structural   Na4HoRuO6
_chemical_formula_sum   'Na4 Ho1 Ru1 O6'
_cell_volume   152.47688686
_cell_formula_units_Z   1
loop_
 _symmetry_equiv_pos_site_id
 _symmetry_equiv_pos_as_xyz
  1  'x, y, z'
loop_
 _atom_site_type_symbol
 _atom_site_label
 _atom_site_symmetry_multiplicity
 _atom_site_fract_x
 _atom_site_fract_y
 _atom_site_fract_z
 _atom_site_occupancy
  Na  Na0  1  0.499246  0.500753  0.999999  1
  Na  Na1  1  0.015466  0.984526  0.499998  1
  Na  Na2  1  0.655860  0.344140  0.499999  1
  Na  Na3  1  0.334421  0.665583  0.500003  1
  Ho  Ho4  1  0.833613  0.166390  0.000000  1
  Ru  Ru5  1  0.166917  0.833086  0.999999  1
  O  O6  1  0.949424  0.599293  0.207419  1
  O  O7  1  0.536076  0.921079  0.213126  1
  O  O8  1  0.218807  0.189453  0.213165  1
  O  O9  1  0.810546  0.781197  0.786837  1
  O  O10  1  0.078921  0.463927  0.786876  1
  O  O11  1  0.400706  0.050576  0.792583  1
