# generated using pymatgen
data_Zr20Si12S
_symmetry_space_group_name_H-M   'P 1'
_cell_length_a   5.63392400
_cell_length_b   8.05455865
_cell_length_c   13.91657600
_cell_angle_alpha   89.99999289
_cell_angle_beta   90.00000000
_cell_angle_gamma   89.97692394
_symmetry_Int_Tables_number   1
_chemical_formula_structural   Zr20Si12S
_chemical_formula_sum   'Zr20 Si12 S1'
_cell_volume   631.51706845
_cell_formula_units_Z   1
loop_
 _symmetry_equiv_pos_site_id
 _symmetry_equiv_pos_as_xyz
  1  'x, y, z'
loop_
 _atom_site_type_symbol
 _atom_site_label
 _atom_site_symmetry_multiplicity
 _atom_site_fract_x
 _atom_site_fract_y
 _atom_site_fract_z
 _atom_site_occupancy
  Zr  Zr0  1  0.499999  0.000001  0.335351  1
  Zr  Zr1  1  0.500002  0.500000  0.831868  1
  Zr  Zr2  1  0.500002  0.500000  0.168132  1
  Zr  Zr3  1  0.499999  0.000001  0.664649  1
  Zr  Zr4  1  0.999998  0.500000  0.165746  1
  Zr  Zr5  1  0.000002  0.999999  0.667437  1
  Zr  Zr6  1  0.000002  0.999999  0.332563  1
  Zr  Zr7  1  0.999998  0.500000  0.834254  1
  Zr  Zr8  1  0.739595  0.259146  0.000000  1
  Zr  Zr9  1  0.749508  0.756122  0.500000  1
  Zr  Zr10  1  0.749461  0.375365  0.375390  1
  Zr  Zr11  1  0.739467  0.869619  0.869013  1
  Zr  Zr12  1  0.739467  0.869619  0.130987  1
  Zr  Zr13  1  0.749461  0.375365  0.624610  1
  Zr  Zr14  1  0.260405  0.740854  0.000000  1
  Zr  Zr15  1  0.250490  0.243877  0.500000  1
  Zr  Zr16  1  0.260534  0.130381  0.130987  1
  Zr  Zr17  1  0.250539  0.624635  0.624610  1
  Zr  Zr18  1  0.250539  0.624635  0.375390  1
  Zr  Zr19  1  0.260534  0.130381  0.869013  1
  Si  Si20  1  0.745923  0.608374  0.000000  1
  Si  Si21  1  0.752457  0.112648  0.500000  1
  Si  Si22  1  0.747778  0.197702  0.198449  1
  Si  Si23  1  0.750930  0.694041  0.693193  1
  Si  Si24  1  0.750930  0.694041  0.306807  1
  Si  Si25  1  0.747778  0.197702  0.801551  1
  Si  Si26  1  0.254077  0.391626  0.000000  1
  Si  Si27  1  0.247542  0.887352  0.500000  1
  Si  Si28  1  0.249069  0.305959  0.306807  1
  Si  Si29  1  0.252224  0.802299  0.801551  1
  Si  Si30  1  0.252224  0.802299  0.198449  1
  Si  Si31  1  0.249069  0.305959  0.693193  1
  S  S32  1  0.000001  0.000001  0.000000  1
