# generated using pymatgen
data_Yb5CdPd2
_symmetry_space_group_name_H-M   'P 1'
_cell_length_a   9.09375092
_cell_length_b   9.09375036
_cell_length_c   9.09375043
_cell_angle_alpha   128.91919890
_cell_angle_beta   128.91919301
_cell_angle_gamma   75.14061986
_symmetry_Int_Tables_number   1
_chemical_formula_structural   Yb5CdPd2
_chemical_formula_sum   'Yb10 Cd2 Pd4'
_cell_volume   443.19814738
_cell_formula_units_Z   2
loop_
 _symmetry_equiv_pos_site_id
 _symmetry_equiv_pos_as_xyz
  1  'x, y, z'
loop_
 _atom_site_type_symbol
 _atom_site_label
 _atom_site_symmetry_multiplicity
 _atom_site_fract_x
 _atom_site_fract_y
 _atom_site_fract_z
 _atom_site_occupancy
  Yb  Yb0  1  0.500000  0.500000  0.000000  1
  Yb  Yb1  1  0.000000  0.000000  0.000000  1
  Yb  Yb2  1  0.533025  0.033025  0.828940  1
  Yb  Yb3  1  0.204086  0.704086  0.171060  1
  Yb  Yb4  1  0.033025  0.204086  0.500000  1
  Yb  Yb5  1  0.704086  0.533025  0.500000  1
  Yb  Yb6  1  0.466975  0.966975  0.171060  1
  Yb  Yb7  1  0.795914  0.295914  0.828940  1
  Yb  Yb8  1  0.966975  0.795914  0.500000  1
  Yb  Yb9  1  0.295914  0.466975  0.500000  1
  Cd  Cd10  1  0.250000  0.250000  0.000000  1
  Cd  Cd11  1  0.750000  0.750000  0.000000  1
  Pd  Pd12  1  0.133733  0.633733  0.767467  1
  Pd  Pd13  1  0.866267  0.366267  0.232533  1
  Pd  Pd14  1  0.633733  0.866267  0.500000  1
  Pd  Pd15  1  0.366267  0.133733  0.500000  1
