# generated using pymatgen
data_LiCo5As3
_symmetry_space_group_name_H-M   'P 1'
_cell_length_a   3.64873100
_cell_length_b   12.13558000
_cell_length_c   10.50062800
_cell_angle_alpha   90.00000000
_cell_angle_beta   90.00000000
_cell_angle_gamma   90.00000000
_symmetry_Int_Tables_number   1
_chemical_formula_structural   LiCo5As3
_chemical_formula_sum   'Li4 Co20 As12'
_cell_volume   464.96221047
_cell_formula_units_Z   4
loop_
 _symmetry_equiv_pos_site_id
 _symmetry_equiv_pos_as_xyz
  1  'x, y, z'
loop_
 _atom_site_type_symbol
 _atom_site_label
 _atom_site_symmetry_multiplicity
 _atom_site_fract_x
 _atom_site_fract_y
 _atom_site_fract_z
 _atom_site_occupancy
  Li  Li0  1  0.750000  0.702872  0.078024  1
  Li  Li1  1  0.250000  0.297128  0.921976  1
  Li  Li2  1  0.250000  0.797128  0.578024  1
  Li  Li3  1  0.750000  0.202872  0.421976  1
  Co  Co4  1  0.750000  0.696367  0.380641  1
  Co  Co5  1  0.250000  0.303633  0.619359  1
  Co  Co6  1  0.250000  0.803633  0.880641  1
  Co  Co7  1  0.750000  0.196367  0.119359  1
  Co  Co8  1  0.750000  0.985990  0.209564  1
  Co  Co9  1  0.250000  0.014010  0.790436  1
  Co  Co10  1  0.250000  0.514010  0.709564  1
  Co  Co11  1  0.750000  0.485990  0.290436  1
  Co  Co12  1  0.750000  0.676553  0.785848  1
  Co  Co13  1  0.250000  0.323447  0.214152  1
  Co  Co14  1  0.250000  0.823447  0.285848  1
  Co  Co15  1  0.750000  0.176553  0.714152  1
  Co  Co16  1  0.750000  0.934371  0.963030  1
  Co  Co17  1  0.250000  0.065629  0.036970  1
  Co  Co18  1  0.250000  0.565629  0.463030  1
  Co  Co19  1  0.750000  0.434371  0.536970  1
  Co  Co20  1  0.750000  0.988352  0.592343  1
  Co  Co21  1  0.250000  0.011648  0.407657  1
  Co  Co22  1  0.250000  0.511648  0.092343  1
  Co  Co23  1  0.750000  0.488351  0.907657  1
  As  As24  1  0.750000  0.620226  0.583276  1
  As  As25  1  0.250000  0.379774  0.416724  1
  As  As26  1  0.250000  0.879774  0.083276  1
  As  As27  1  0.750000  0.120226  0.916724  1
  As  As28  1  0.750000  0.886694  0.406753  1
  As  As29  1  0.250000  0.113306  0.593247  1
  As  As30  1  0.250000  0.613306  0.906753  1
  As  As31  1  0.750000  0.386694  0.093247  1
  As  As32  1  0.750000  0.866619  0.758313  1
  As  As33  1  0.250000  0.133381  0.241687  1
  As  As34  1  0.250000  0.633381  0.258313  1
  As  As35  1  0.750000  0.366619  0.741687  1
