# generated using pymatgen
data_NdDyCo6(SiB)2
_symmetry_space_group_name_H-M   'P 1'
_cell_length_a   5.19137200
_cell_length_b   5.19125073
_cell_length_c   6.47006900
_cell_angle_alpha   90.00000000
_cell_angle_beta   90.00000000
_cell_angle_gamma   120.00077277
_symmetry_Int_Tables_number   1
_chemical_formula_structural   NdDyCo6(SiB)2
_chemical_formula_sum   'Nd1 Dy1 Co6 Si2 B2'
_cell_volume   151.00464877
_cell_formula_units_Z   1
loop_
 _symmetry_equiv_pos_site_id
 _symmetry_equiv_pos_as_xyz
  1  'x, y, z'
loop_
 _atom_site_type_symbol
 _atom_site_label
 _atom_site_symmetry_multiplicity
 _atom_site_fract_x
 _atom_site_fract_y
 _atom_site_fract_z
 _atom_site_occupancy
  Nd  Nd0  1  0.999967  0.000000  0.000000  1
  Dy  Dy1  1  0.999992  0.000000  0.500000  1
  Co  Co2  1  0.499987  0.000000  0.285284  1
  Co  Co3  1  0.499986  0.500003  0.285331  1
  Co  Co4  1  0.999983  0.499997  0.285331  1
  Co  Co5  1  0.499987  0.000000  0.714716  1
  Co  Co6  1  0.499986  0.500003  0.714669  1
  Co  Co7  1  0.999983  0.499997  0.714669  1
  Si  Si8  1  0.333281  0.666602  0.000000  1
  Si  Si9  1  0.666679  0.333398  0.000000  1
  B  B10  1  0.333348  0.666729  0.500000  1
  B  B11  1  0.666619  0.333271  0.500000  1
