# generated using pymatgen
data_TbYbSm5PtI12
_symmetry_space_group_name_H-M   'P 1'
_cell_length_a   9.92436944
_cell_length_b   9.91698583
_cell_length_c   9.93050766
_cell_angle_alpha   106.93338158
_cell_angle_beta   107.11080326
_cell_angle_gamma   107.02435947
_symmetry_Int_Tables_number   1
_chemical_formula_structural   TbYbSm5PtI12
_chemical_formula_sum   'Tb1 Yb1 Sm5 Pt1 I12'
_cell_volume   813.44447993
_cell_formula_units_Z   1
loop_
 _symmetry_equiv_pos_site_id
 _symmetry_equiv_pos_as_xyz
  1  'x, y, z'
loop_
 _atom_site_type_symbol
 _atom_site_label
 _atom_site_symmetry_multiplicity
 _atom_site_fract_x
 _atom_site_fract_y
 _atom_site_fract_z
 _atom_site_occupancy
  Tb  Tb0  1  0.972290  0.697693  0.900846  1
  Yb  Yb1  1  0.500072  0.499866  0.499991  1
  Sm  Sm2  1  0.100372  0.026905  0.305708  1
  Sm  Sm3  1  0.305779  0.099415  0.027353  1
  Sm  Sm4  1  0.027540  0.305827  0.100006  1
  Sm  Sm5  1  0.899628  0.972455  0.694025  1
  Sm  Sm6  1  0.693728  0.898810  0.972156  1
  Pt  Pt7  1  0.999756  0.999410  0.999791  1
  I  I8  1  0.072365  0.679201  0.221643  1
  I  I9  1  0.226058  0.073864  0.679969  1
  I  I10  1  0.680008  0.225730  0.073768  1
  I  I11  1  0.926799  0.322876  0.775093  1
  I  I12  1  0.773882  0.926113  0.320029  1
  I  I13  1  0.316485  0.771925  0.925452  1
  I  I14  1  0.462248  0.156807  0.384590  1
  I  I15  1  0.384570  0.461942  0.156916  1
  I  I16  1  0.156951  0.384395  0.461952  1
  I  I17  1  0.537729  0.843054  0.615441  1
  I  I18  1  0.618919  0.538168  0.843470  1
  I  I19  1  0.844820  0.615544  0.541803  1
