# generated using pymatgen
data_Co6Re3Si2Tc
_symmetry_space_group_name_H-M   'P 1'
_cell_length_a   4.70930400
_cell_length_b   4.70930309
_cell_length_c   7.34941700
_cell_angle_alpha   90.00000000
_cell_angle_beta   90.00000000
_cell_angle_gamma   119.99997831
_symmetry_Int_Tables_number   1
_chemical_formula_structural   Co6Re3Si2Tc
_chemical_formula_sum   'Co6 Re3 Si2 Tc1'
_cell_volume   141.15523355
_cell_formula_units_Z   1
loop_
 _symmetry_equiv_pos_site_id
 _symmetry_equiv_pos_as_xyz
  1  'x, y, z'
loop_
 _atom_site_type_symbol
 _atom_site_label
 _atom_site_symmetry_multiplicity
 _atom_site_fract_x
 _atom_site_fract_y
 _atom_site_fract_z
 _atom_site_occupancy
  Co  Co0  1  0.828898  0.171102  0.250970  1
  Co  Co1  1  0.828898  0.657796  0.250970  1
  Co  Co2  1  0.342204  0.171102  0.250970  1
  Co  Co3  1  0.171304  0.828696  0.749518  1
  Co  Co4  1  0.171304  0.342609  0.749518  1
  Co  Co5  1  0.657391  0.828696  0.749518  1
  Re  Re6  1  0.333333  0.666667  0.431022  1
  Re  Re7  1  0.666667  0.333333  0.567959  1
  Re  Re8  1  0.666667  0.333333  0.931917  1
  Si  Si9  1  0.000000  0.000000  0.500628  1
  Si  Si10  1  0.000000  0.000000  0.000379  1
  Tc  Tc11  1  0.333333  0.666667  0.066631  1
