# generated using pymatgen
data_CsTm6(CI6)2
_symmetry_space_group_name_H-M   'P 1'
_cell_length_a   9.44460035
_cell_length_b   9.50321391
_cell_length_c   9.76763863
_cell_angle_alpha   72.80851498
_cell_angle_beta   72.32047875
_cell_angle_gamma   73.33023578
_symmetry_Int_Tables_number   1
_chemical_formula_structural   CsTm6(CI6)2
_chemical_formula_sum   'Cs1 Tm6 C2 I12'
_cell_volume   779.02872264
_cell_formula_units_Z   1
loop_
 _symmetry_equiv_pos_site_id
 _symmetry_equiv_pos_as_xyz
  1  'x, y, z'
loop_
 _atom_site_type_symbol
 _atom_site_label
 _atom_site_symmetry_multiplicity
 _atom_site_fract_x
 _atom_site_fract_y
 _atom_site_fract_z
 _atom_site_occupancy
  Cs  Cs0  1  0.999999  0.500004  0.000000  1
  Tm  Tm1  1  0.468418  0.105946  0.198092  1
  Tm  Tm2  1  0.756100  0.031034  0.414179  1
  Tm  Tm3  1  0.583451  0.748428  0.475337  1
  Tm  Tm4  1  0.416549  0.251571  0.524665  1
  Tm  Tm5  1  0.243902  0.968963  0.585822  1
  Tm  Tm6  1  0.531583  0.894053  0.801909  1
  C  C7  1  0.491499  0.025304  0.425312  1
  C  C8  1  0.508503  0.974696  0.574689  1
  I  I9  1  0.790027  0.149814  0.082358  1
  I  I10  1  0.575355  0.785642  0.142588  1
  I  I11  1  0.355051  0.426536  0.223224  1
  I  I12  1  0.136100  0.066352  0.294927  1
  I  I13  1  0.915245  0.724372  0.358800  1
  I  I14  1  0.710118  0.356487  0.435488  1
  I  I15  1  0.289883  0.643514  0.564506  1
  I  I16  1  0.084754  0.275628  0.641200  1
  I  I17  1  0.863900  0.933648  0.705073  1
  I  I18  1  0.644949  0.573462  0.776777  1
  I  I19  1  0.424645  0.214358  0.857412  1
  I  I20  1  0.209974  0.850187  0.917642  1
