# generated using pymatgen
data_DyY2Lu17Bi12
_symmetry_space_group_name_H-M   'P 1'
_cell_length_a   8.15621004
_cell_length_b   9.39430400
_cell_length_c   11.84432000
_cell_angle_alpha   90.00000000
_cell_angle_beta   90.02893517
_cell_angle_gamma   90.00000000
_symmetry_Int_Tables_number   1
_chemical_formula_structural   DyY2Lu17Bi12
_chemical_formula_sum   'Dy1 Y2 Lu17 Bi12'
_cell_volume   907.53438355
_cell_formula_units_Z   1
loop_
 _symmetry_equiv_pos_site_id
 _symmetry_equiv_pos_as_xyz
  1  'x, y, z'
loop_
 _atom_site_type_symbol
 _atom_site_label
 _atom_site_symmetry_multiplicity
 _atom_site_fract_x
 _atom_site_fract_y
 _atom_site_fract_z
 _atom_site_occupancy
  Dy  Dy0  1  0.687345  0.250000  0.717018  1
  Y  Y1  1  0.813519  0.750000  0.217923  1
  Y  Y2  1  0.313563  0.750000  0.282219  1
  Lu  Lu3  1  0.024040  0.250000  0.511311  1
  Lu  Lu4  1  0.976195  0.750000  0.489985  1
  Lu  Lu5  1  0.475805  0.750000  0.009944  1
  Lu  Lu6  1  0.523739  0.250000  0.988731  1
  Lu  Lu7  1  0.354563  0.250000  0.281669  1
  Lu  Lu8  1  0.644977  0.750000  0.718503  1
  Lu  Lu9  1  0.144967  0.750000  0.781570  1
  Lu  Lu10  1  0.855131  0.250000  0.218045  1
  Lu  Lu11  1  0.187658  0.250000  0.783531  1
  Lu  Lu12  1  0.193024  0.067279  0.060099  1
  Lu  Lu13  1  0.806716  0.932775  0.939543  1
  Lu  Lu14  1  0.307106  0.932698  0.560500  1
  Lu  Lu15  1  0.806716  0.567225  0.939543  1
  Lu  Lu16  1  0.692791  0.067257  0.439851  1
  Lu  Lu17  1  0.193024  0.432721  0.060099  1
  Lu  Lu18  1  0.692791  0.432743  0.439851  1
  Lu  Lu19  1  0.307106  0.567302  0.560500  1
  Bi  Bi20  1  0.402675  0.250000  0.541510  1
  Bi  Bi21  1  0.596536  0.750000  0.459237  1
  Bi  Bi22  1  0.096095  0.750000  0.040747  1
  Bi  Bi23  1  0.904614  0.250000  0.957742  1
  Bi  Bi24  1  0.066508  0.005345  0.326366  1
  Bi  Bi25  1  0.934314  0.995488  0.674514  1
  Bi  Bi26  1  0.431981  0.995763  0.825923  1
  Bi  Bi27  1  0.934314  0.504512  0.674514  1
  Bi  Bi28  1  0.566845  0.005426  0.173359  1
  Bi  Bi29  1  0.066508  0.494655  0.326366  1
  Bi  Bi30  1  0.566845  0.494574  0.173359  1
  Bi  Bi31  1  0.431981  0.504237  0.825923  1
