# generated using pymatgen
data_NaY(TlCl3)2
_symmetry_space_group_name_H-M   'P 1'
_cell_length_a   7.57969040
_cell_length_b   7.57969029
_cell_length_c   7.57969000
_cell_angle_alpha   121.37149085
_cell_angle_beta   121.37149035
_cell_angle_gamma   87.64047822
_symmetry_Int_Tables_number   1
_chemical_formula_structural   NaY(TlCl3)2
_chemical_formula_sum   'Na1 Y1 Tl2 Cl6'
_cell_volume   301.26029470
_cell_formula_units_Z   1
loop_
 _symmetry_equiv_pos_site_id
 _symmetry_equiv_pos_as_xyz
  1  'x, y, z'
loop_
 _atom_site_type_symbol
 _atom_site_label
 _atom_site_symmetry_multiplicity
 _atom_site_fract_x
 _atom_site_fract_y
 _atom_site_fract_z
 _atom_site_occupancy
  Na  Na0  1  0.000000  0.000000  0.000000  1
  Y  Y1  1  0.500000  0.500000  0.000000  1
  Tl  Tl2  1  0.750001  0.250000  0.500001  1
  Tl  Tl3  1  0.250000  0.750001  0.500001  1
  Cl  Cl4  1  0.258055  0.258055  0.000000  1
  Cl  Cl5  1  0.741945  0.741945  0.000000  1
  Cl  Cl6  1  0.325481  0.810444  0.135926  1
  Cl  Cl7  1  0.810444  0.674518  0.484962  1
  Cl  Cl8  1  0.189557  0.325482  0.515039  1
  Cl  Cl9  1  0.674519  0.189557  0.864075  1
