# generated using pymatgen
data_MnGa2(CuPd2)3
_symmetry_space_group_name_H-M   'P 1'
_cell_length_a   4.13463700
_cell_length_b   6.69404200
_cell_length_c   12.39344600
_cell_angle_alpha   90.00000000
_cell_angle_beta   90.00000000
_cell_angle_gamma   90.00000000
_symmetry_Int_Tables_number   1
_chemical_formula_structural   MnGa2(CuPd2)3
_chemical_formula_sum   'Mn2 Ga4 Cu6 Pd12'
_cell_volume   343.01878039
_cell_formula_units_Z   2
loop_
 _symmetry_equiv_pos_site_id
 _symmetry_equiv_pos_as_xyz
  1  'x, y, z'
loop_
 _atom_site_type_symbol
 _atom_site_label
 _atom_site_symmetry_multiplicity
 _atom_site_fract_x
 _atom_site_fract_y
 _atom_site_fract_z
 _atom_site_occupancy
  Mn  Mn0  1  0.000475  0.500001  0.664610  1
  Mn  Mn1  1  0.500476  0.000000  0.835390  1
  Ga  Ga2  1  0.000061  0.500001  0.003469  1
  Ga  Ga3  1  0.499585  0.000000  0.163952  1
  Ga  Ga4  1  0.999587  0.500001  0.336048  1
  Ga  Ga5  1  0.500060  0.000000  0.496531  1
  Cu  Cu6  1  0.000213  0.000000  0.996595  1
  Cu  Cu7  1  0.498806  0.500001  0.169340  1
  Cu  Cu8  1  0.998805  0.000000  0.330661  1
  Cu  Cu9  1  0.500212  0.500001  0.503405  1
  Cu  Cu10  1  0.000601  0.000000  0.678149  1
  Cu  Cu11  1  0.500602  0.500001  0.821851  1
  Pd  Pd12  1  0.500238  0.258483  0.001705  1
  Pd  Pd13  1  0.500238  0.741518  0.001705  1
  Pd  Pd14  1  0.999446  0.248458  0.167118  1
  Pd  Pd15  1  0.999446  0.751541  0.167118  1
  Pd  Pd16  1  0.499447  0.251540  0.332882  1
  Pd  Pd17  1  0.499447  0.748459  0.332882  1
  Pd  Pd18  1  0.000239  0.241518  0.498295  1
  Pd  Pd19  1  0.000239  0.758482  0.498295  1
  Pd  Pd20  1  0.500442  0.239703  0.662778  1
  Pd  Pd21  1  0.500442  0.760296  0.662778  1
  Pd  Pd22  1  0.000443  0.260295  0.837222  1
  Pd  Pd23  1  0.000443  0.739704  0.837222  1
