# generated using pymatgen
data_Tb2Ni5As4Ru
_symmetry_space_group_name_H-M   'P 1'
_cell_length_a   3.90921500
_cell_length_b   10.94516372
_cell_length_c   12.90435990
_cell_angle_alpha   90.04213760
_cell_angle_beta   90.00000000
_cell_angle_gamma   90.00000000
_symmetry_Int_Tables_number   1
_chemical_formula_structural   Tb2Ni5As4Ru
_chemical_formula_sum   'Tb6 Ni15 As12 Ru3'
_cell_volume   552.13867424
_cell_formula_units_Z   3
loop_
 _symmetry_equiv_pos_site_id
 _symmetry_equiv_pos_as_xyz
  1  'x, y, z'
loop_
 _atom_site_type_symbol
 _atom_site_label
 _atom_site_symmetry_multiplicity
 _atom_site_fract_x
 _atom_site_fract_y
 _atom_site_fract_z
 _atom_site_occupancy
  Tb  Tb0  1  0.000000  0.499362  0.523475  1
  Tb  Tb1  1  0.500000  0.000554  0.476377  1
  Tb  Tb2  1  0.500000  0.815656  0.208065  1
  Tb  Tb3  1  0.500000  0.183247  0.209646  1
  Tb  Tb4  1  0.000000  0.688632  0.790626  1
  Tb  Tb5  1  0.000000  0.314041  0.793109  1
  Ni  Ni6  1  0.500000  0.500426  0.697801  1
  Ni  Ni7  1  0.000000  0.999741  0.301783  1
  Ni  Ni8  1  0.000000  0.503212  0.979766  1
  Ni  Ni9  1  0.500000  0.000194  0.020760  1
  Ni  Ni10  1  0.500000  0.667047  0.990607  1
  Ni  Ni11  1  0.000000  0.165529  0.009886  1
  Ni  Ni12  1  0.000000  0.830770  0.007519  1
  Ni  Ni13  1  0.500000  0.303735  0.426636  1
  Ni  Ni14  1  0.500000  0.696364  0.426974  1
  Ni  Ni15  1  0.000000  0.195959  0.573362  1
  Ni  Ni16  1  0.000000  0.803909  0.572270  1
  Ni  Ni17  1  0.500000  0.878564  0.707882  1
  Ni  Ni18  1  0.500000  0.119000  0.707040  1
  Ni  Ni19  1  0.000000  0.621318  0.293487  1
  Ni  Ni20  1  0.000000  0.379881  0.293103  1
  As  As21  1  0.500000  0.504454  0.871927  1
  As  As22  1  0.000000  0.998114  0.125501  1
  As  As23  1  0.500000  0.500101  0.349071  1
  As  As24  1  0.000000  0.999299  0.650416  1
  As  As25  1  0.500000  0.313351  0.613699  1
  As  As26  1  0.500000  0.685917  0.612700  1
  As  As27  1  0.000000  0.186078  0.387304  1
  As  As28  1  0.000000  0.813976  0.386660  1
  As  As29  1  0.500000  0.849810  0.891303  1
  As  As30  1  0.500000  0.144739  0.889175  1
  As  As31  1  0.000000  0.651545  0.110737  1
  As  As32  1  0.000000  0.349807  0.111325  1
  Ru  Ru33  1  0.500000  0.504386  0.158744  1
  Ru  Ru34  1  0.000000  0.997984  0.840964  1
  Ru  Ru35  1  0.500000  0.333295  0.990300  1
