# generated using pymatgen
data_Dy3Y(B4Ru)4
_symmetry_space_group_name_H-M   'P 1'
_cell_length_a   3.56148000
_cell_length_b   5.96439500
_cell_length_c   11.54222701
_cell_angle_alpha   90.00420852
_cell_angle_beta   90.00000000
_cell_angle_gamma   90.00000000
_symmetry_Int_Tables_number   1
_chemical_formula_structural   Dy3Y(B4Ru)4
_chemical_formula_sum   'Dy3 Y1 B16 Ru4'
_cell_volume   245.18083401
_cell_formula_units_Z   1
loop_
 _symmetry_equiv_pos_site_id
 _symmetry_equiv_pos_as_xyz
  1  'x, y, z'
loop_
 _atom_site_type_symbol
 _atom_site_label
 _atom_site_symmetry_multiplicity
 _atom_site_fract_x
 _atom_site_fract_y
 _atom_site_fract_z
 _atom_site_occupancy
  Dy  Dy0  1  0.000000  0.871247  0.350079  1
  Dy  Dy1  1  0.000000  0.628782  0.850133  1
  Dy  Dy2  1  0.000000  0.371293  0.149874  1
  Y  Y3  1  0.000000  0.128781  0.649843  1
  B  B4  1  0.500000  0.476582  0.691829  1
  B  B5  1  0.500000  0.523731  0.308226  1
  B  B6  1  0.500000  0.976086  0.808389  1
  B  B7  1  0.500000  0.023715  0.191727  1
  B  B8  1  0.500000  0.288777  0.814528  1
  B  B9  1  0.500000  0.711417  0.185644  1
  B  B10  1  0.500000  0.788273  0.685734  1
  B  B11  1  0.500000  0.211357  0.314325  1
  B  B12  1  0.500000  0.363917  0.969966  1
  B  B13  1  0.500000  0.636120  0.030094  1
  B  B14  1  0.500000  0.863712  0.529943  1
  B  B15  1  0.500000  0.136106  0.469765  1
  B  B16  1  0.500000  0.388092  0.546682  1
  B  B17  1  0.500000  0.612047  0.453169  1
  B  B18  1  0.500000  0.887964  0.953283  1
  B  B19  1  0.500000  0.112009  0.046782  1
  Ru  Ru20  1  0.000000  0.140475  0.907468  1
  Ru  Ru21  1  0.000000  0.859527  0.092675  1
  Ru  Ru22  1  0.000000  0.640330  0.592615  1
  Ru  Ru23  1  0.000000  0.359660  0.407229  1
