# generated using pymatgen
data_Dy2ErTm5Pt4
_symmetry_space_group_name_H-M   'P 1'
_cell_length_a   4.74077400
_cell_length_b   7.08839972
_cell_length_c   8.69274114
_cell_angle_alpha   89.94972395
_cell_angle_beta   90.00000000
_cell_angle_gamma   90.00000000
_symmetry_Int_Tables_number   1
_chemical_formula_structural   Dy2ErTm5Pt4
_chemical_formula_sum   'Dy2 Er1 Tm5 Pt4'
_cell_volume   292.11511668
_cell_formula_units_Z   1
loop_
 _symmetry_equiv_pos_site_id
 _symmetry_equiv_pos_as_xyz
  1  'x, y, z'
loop_
 _atom_site_type_symbol
 _atom_site_label
 _atom_site_symmetry_multiplicity
 _atom_site_fract_x
 _atom_site_fract_y
 _atom_site_fract_z
 _atom_site_occupancy
  Dy  Dy0  1  0.250000  0.510459  0.170786  1
  Dy  Dy1  1  0.750000  0.489542  0.829571  1
  Er  Er2  1  0.750000  0.989168  0.668999  1
  Tm  Tm3  1  0.250000  0.143737  0.921063  1
  Tm  Tm4  1  0.250000  0.644848  0.578453  1
  Tm  Tm5  1  0.750000  0.856308  0.079801  1
  Tm  Tm6  1  0.750000  0.354966  0.421099  1
  Tm  Tm7  1  0.250000  0.010715  0.331549  1
  Pt  Pt8  1  0.250000  0.242208  0.592104  1
  Pt  Pt9  1  0.250000  0.743364  0.906401  1
  Pt  Pt10  1  0.750000  0.758353  0.406582  1
  Pt  Pt11  1  0.750000  0.256332  0.093592  1
