# generated using pymatgen
data_Na5Zr3(Cu4P3)4
_symmetry_space_group_name_H-M   'P 1'
_cell_length_a   12.73679600
_cell_length_b   12.73679659
_cell_length_c   3.86635800
_cell_angle_alpha   90.00000000
_cell_angle_beta   90.00000000
_cell_angle_gamma   120.00000367
_symmetry_Int_Tables_number   1
_chemical_formula_structural   Na5Zr3(Cu4P3)4
_chemical_formula_sum   'Na5 Zr3 Cu16 P12'
_cell_volume   543.19165090
_cell_formula_units_Z   1
loop_
 _symmetry_equiv_pos_site_id
 _symmetry_equiv_pos_as_xyz
  1  'x, y, z'
loop_
 _atom_site_type_symbol
 _atom_site_label
 _atom_site_symmetry_multiplicity
 _atom_site_fract_x
 _atom_site_fract_y
 _atom_site_fract_z
 _atom_site_occupancy
  Na  Na0  1  0.183985  0.183985  0.500000  1
  Na  Na1  1  0.816015  0.000000  0.500000  1
  Na  Na2  1  0.000000  0.816015  0.500000  1
  Na  Na3  1  0.333333  0.666667  0.000000  1
  Na  Na4  1  0.666667  0.333333  0.000000  1
  Zr  Zr5  1  0.566002  0.566002  0.000000  1
  Zr  Zr6  1  0.433998  0.000000  0.000000  1
  Zr  Zr7  1  0.000000  0.433998  0.000000  1
  Cu  Cu8  1  0.728472  0.728472  0.500000  1
  Cu  Cu9  1  0.271528  0.000000  0.500000  1
  Cu  Cu10  1  0.000000  0.271528  0.500000  1
  Cu  Cu11  1  0.185122  0.371204  0.000000  1
  Cu  Cu12  1  0.628796  0.813919  0.000000  1
  Cu  Cu13  1  0.186081  0.814878  0.000000  1
  Cu  Cu14  1  0.813919  0.628796  0.000000  1
  Cu  Cu15  1  0.814878  0.186081  0.000000  1
  Cu  Cu16  1  0.371204  0.185122  0.000000  1
  Cu  Cu17  1  0.357176  0.483167  0.500000  1
  Cu  Cu18  1  0.516833  0.874010  0.500000  1
  Cu  Cu19  1  0.125990  0.642824  0.500000  1
  Cu  Cu20  1  0.874010  0.516833  0.500000  1
  Cu  Cu21  1  0.642824  0.125990  0.500000  1
  Cu  Cu22  1  0.483167  0.357176  0.500000  1
  Cu  Cu23  1  0.000000  0.000000  0.000000  1
  P  P24  1  0.823572  0.823572  0.000000  1
  P  P25  1  0.176428  0.000000  0.000000  1
  P  P26  1  0.000000  0.176428  0.000000  1
  P  P27  1  0.168259  0.481484  0.500000  1
  P  P28  1  0.518516  0.686775  0.500000  1
  P  P29  1  0.313225  0.831741  0.500000  1
  P  P30  1  0.686775  0.518516  0.500000  1
  P  P31  1  0.831741  0.313225  0.500000  1
  P  P32  1  0.481484  0.168259  0.500000  1
  P  P33  1  0.363853  0.363853  0.000000  1
  P  P34  1  0.636147  0.000000  0.000000  1
  P  P35  1  0.000000  0.636147  0.000000  1
