# generated using pymatgen
data_Ho2TmMg3Ga2Hg
_symmetry_space_group_name_H-M   'P 1'
_cell_length_a   7.36393500
_cell_length_b   7.35016770
_cell_length_c   4.38834100
_cell_angle_alpha   90.00000000
_cell_angle_beta   90.00000000
_cell_angle_gamma   120.06197515
_symmetry_Int_Tables_number   1
_chemical_formula_structural   Ho2TmMg3Ga2Hg
_chemical_formula_sum   'Ho2 Tm1 Mg3 Ga2 Hg1'
_cell_volume   205.57326649
_cell_formula_units_Z   1
loop_
 _symmetry_equiv_pos_site_id
 _symmetry_equiv_pos_as_xyz
  1  'x, y, z'
loop_
 _atom_site_type_symbol
 _atom_site_label
 _atom_site_symmetry_multiplicity
 _atom_site_fract_x
 _atom_site_fract_y
 _atom_site_fract_z
 _atom_site_occupancy
  Ho  Ho0  1  0.000096  0.571524  0.000000  1
  Ho  Ho1  1  0.428572  0.428476  0.000000  1
  Tm  Tm2  1  0.571617  0.000000  0.000000  1
  Mg  Mg3  1  0.999821  0.248523  0.500000  1
  Mg  Mg4  1  0.751298  0.751477  0.500000  1
  Mg  Mg5  1  0.248890  0.000000  0.500000  1
  Ga  Ga6  1  0.666504  0.332760  0.500000  1
  Ga  Ga7  1  0.333743  0.667240  0.500000  1
  Hg  Hg8  1  0.999459  0.000000  0.000000  1
