# generated using pymatgen
data_Tm8BeZn2Si12Pd
_symmetry_space_group_name_H-M   'P 1'
_cell_length_a   8.02917800
_cell_length_b   8.02917876
_cell_length_c   7.90623500
_cell_angle_alpha   90.00000000
_cell_angle_beta   90.00000000
_cell_angle_gamma   119.99999686
_symmetry_Int_Tables_number   1
_chemical_formula_structural   Tm8BeZn2Si12Pd
_chemical_formula_sum   'Tm8 Be1 Zn2 Si12 Pd1'
_cell_volume   441.41041648
_cell_formula_units_Z   1
loop_
 _symmetry_equiv_pos_site_id
 _symmetry_equiv_pos_as_xyz
  1  'x, y, z'
loop_
 _atom_site_type_symbol
 _atom_site_label
 _atom_site_symmetry_multiplicity
 _atom_site_fract_x
 _atom_site_fract_y
 _atom_site_fract_z
 _atom_site_occupancy
  Tm  Tm0  1  0.502088  0.004175  0.246903  1
  Tm  Tm1  1  0.501880  0.003759  0.753119  1
  Tm  Tm2  1  0.995825  0.497912  0.246903  1
  Tm  Tm3  1  0.996241  0.498120  0.753119  1
  Tm  Tm4  1  0.502088  0.497912  0.246903  1
  Tm  Tm5  1  0.501880  0.498120  0.753119  1
  Tm  Tm6  1  0.000000  0.000000  0.248201  1
  Tm  Tm7  1  0.000000  0.000000  0.751649  1
  Be  Be8  1  0.666667  0.333333  0.999839  1
  Zn  Zn9  1  0.333333  0.666667  0.000784  1
  Zn  Zn10  1  0.666667  0.333333  0.500206  1
  Si  Si11  1  0.164772  0.329541  0.999883  1
  Si  Si12  1  0.825075  0.650151  0.999931  1
  Si  Si13  1  0.670459  0.835228  0.999883  1
  Si  Si14  1  0.835002  0.670004  0.500066  1
  Si  Si15  1  0.349849  0.174925  0.999931  1
  Si  Si16  1  0.167362  0.334723  0.499895  1
  Si  Si17  1  0.164772  0.835228  0.999883  1
  Si  Si18  1  0.329996  0.164998  0.500066  1
  Si  Si19  1  0.825075  0.174925  0.999931  1
  Si  Si20  1  0.665277  0.832638  0.499895  1
  Si  Si21  1  0.835002  0.164998  0.500066  1
  Si  Si22  1  0.167362  0.832638  0.499895  1
  Pd  Pd23  1  0.333333  0.666667  0.499928  1
