# generated using pymatgen
data_Np7SbF30
_symmetry_space_group_name_H-M   'P 1'
_cell_length_a   8.68587355
_cell_length_b   8.71466929
_cell_length_c   8.68587343
_cell_angle_alpha   100.61164208
_cell_angle_beta   100.32181930
_cell_angle_gamma   100.61164245
_symmetry_Int_Tables_number   1
_chemical_formula_structural   Np7SbF30
_chemical_formula_sum   'Np7 Sb1 F30'
_cell_volume   619.53356619
_cell_formula_units_Z   1
loop_
 _symmetry_equiv_pos_site_id
 _symmetry_equiv_pos_as_xyz
  1  'x, y, z'
loop_
 _atom_site_type_symbol
 _atom_site_label
 _atom_site_symmetry_multiplicity
 _atom_site_fract_x
 _atom_site_fract_y
 _atom_site_fract_z
 _atom_site_occupancy
  Np  Np0  1  0.251280  0.250000  0.248720  1
  Np  Np1  1  0.178374  0.750000  0.321626  1
  Np  Np2  1  0.248559  0.676723  0.821575  1
  Np  Np3  1  0.678425  0.823277  0.251441  1
  Np  Np4  1  0.749091  0.750000  0.750909  1
  Np  Np5  1  0.325422  0.177840  0.747680  1
  Np  Np6  1  0.752320  0.322160  0.174578  1
  Sb  Sb7  1  0.835182  0.250000  0.664818  1
  F  F8  1  0.970135  0.532026  0.258674  1
  F  F9  1  0.826776  0.335360  0.451128  1
  F  F10  1  0.485647  0.716077  0.718648  1
  F  F11  1  0.338030  0.446776  0.823344  1
  F  F12  1  0.012730  0.781044  0.784594  1
  F  F13  1  0.759328  0.033151  0.469518  1
  F  F14  1  0.946434  0.836121  0.320932  1
  F  F15  1  0.218074  0.214739  0.986743  1
  F  F16  1  0.778860  0.001756  0.785083  1
  F  F17  1  0.323263  0.946827  0.836446  1
  F  F18  1  0.277790  0.283909  0.509629  1
  F  F19  1  0.447727  0.826446  0.341468  1
  F  F20  1  0.531030  0.250000  0.968970  1
  F  F21  1  0.282897  0.511942  0.280978  1
  F  F22  1  0.158532  0.673554  0.052273  1
  F  F23  1  0.847544  0.324669  0.963886  1
  F  F24  1  0.714917  0.498244  0.721140  1
  F  F25  1  0.466152  0.750000  0.033848  1
  F  F26  1  0.536114  0.175331  0.652456  1
  F  F27  1  0.715406  0.718956  0.487270  1
  F  F28  1  0.676656  0.053224  0.161970  1
  F  F29  1  0.219022  0.988058  0.217103  1
  F  F30  1  0.781352  0.783923  0.014353  1
  F  F31  1  0.048872  0.164640  0.673224  1
  F  F32  1  0.241326  0.967974  0.529865  1
  F  F33  1  0.990371  0.216091  0.222210  1
  F  F34  1  0.663554  0.553173  0.176737  1
  F  F35  1  0.513257  0.285261  0.281926  1
  F  F36  1  0.179068  0.663879  0.553566  1
  F  F37  1  0.030482  0.466849  0.740672  1
