# generated using pymatgen
data_LiCoNi4As3
_symmetry_space_group_name_H-M   'P 1'
_cell_length_a   3.69364600
_cell_length_b   10.66546000
_cell_length_c   12.21473900
_cell_angle_alpha   90.00000000
_cell_angle_beta   90.00000000
_cell_angle_gamma   90.00000000
_symmetry_Int_Tables_number   1
_chemical_formula_structural   LiCoNi4As3
_chemical_formula_sum   'Li4 Co4 Ni16 As12'
_cell_volume   481.19272530
_cell_formula_units_Z   4
loop_
 _symmetry_equiv_pos_site_id
 _symmetry_equiv_pos_as_xyz
  1  'x, y, z'
loop_
 _atom_site_type_symbol
 _atom_site_label
 _atom_site_symmetry_multiplicity
 _atom_site_fract_x
 _atom_site_fract_y
 _atom_site_fract_z
 _atom_site_occupancy
  Li  Li0  1  0.250000  0.577495  0.703353  1
  Li  Li1  1  0.250000  0.922505  0.203353  1
  Li  Li2  1  0.750000  0.422505  0.296647  1
  Li  Li3  1  0.750000  0.077495  0.796647  1
  Co  Co4  1  0.250000  0.463905  0.932190  1
  Co  Co5  1  0.250000  0.036095  0.432190  1
  Co  Co6  1  0.750000  0.536095  0.067810  1
  Co  Co7  1  0.750000  0.963905  0.567810  1
  Ni  Ni8  1  0.250000  0.709601  0.990193  1
  Ni  Ni9  1  0.250000  0.790399  0.490193  1
  Ni  Ni10  1  0.750000  0.290399  0.009807  1
  Ni  Ni11  1  0.750000  0.209601  0.509807  1
  Ni  Ni12  1  0.250000  0.407031  0.486678  1
  Ni  Ni13  1  0.250000  0.092969  0.986678  1
  Ni  Ni14  1  0.750000  0.592969  0.513322  1
  Ni  Ni15  1  0.750000  0.907031  0.013322  1
  Ni  Ni16  1  0.250000  0.214303  0.177135  1
  Ni  Ni17  1  0.250000  0.285697  0.677135  1
  Ni  Ni18  1  0.750000  0.785697  0.822865  1
  Ni  Ni19  1  0.750000  0.714303  0.322865  1
  Ni  Ni20  1  0.250000  0.881559  0.698070  1
  Ni  Ni21  1  0.250000  0.618441  0.198070  1
  Ni  Ni22  1  0.750000  0.118441  0.301930  1
  Ni  Ni23  1  0.750000  0.381559  0.801930  1
  As  As24  1  0.250000  0.416965  0.117779  1
  As  As25  1  0.250000  0.083035  0.617779  1
  As  As26  1  0.750000  0.583035  0.882221  1
  As  As27  1  0.750000  0.916965  0.382221  1
  As  As28  1  0.250000  0.260197  0.868019  1
  As  As29  1  0.250000  0.239803  0.368019  1
  As  As30  1  0.750000  0.739803  0.131981  1
  As  As31  1  0.750000  0.760197  0.631981  1
  As  As32  1  0.250000  0.594357  0.388888  1
  As  As33  1  0.250000  0.905643  0.888888  1
  As  As34  1  0.750000  0.405643  0.611112  1
  As  As35  1  0.750000  0.094357  0.111112  1
