# generated using pymatgen
data_Sm4Ho5ErSn8
_symmetry_space_group_name_H-M   'P 1'
_cell_length_a   8.07133500
_cell_length_b   8.22468500
_cell_length_c   15.53593400
_cell_angle_alpha   90.00000000
_cell_angle_beta   90.00000000
_cell_angle_gamma   90.00000000
_symmetry_Int_Tables_number   1
_chemical_formula_structural   Sm4Ho5ErSn8
_chemical_formula_sum   'Sm8 Ho10 Er2 Sn16'
_cell_volume   1031.34036193
_cell_formula_units_Z   2
loop_
 _symmetry_equiv_pos_site_id
 _symmetry_equiv_pos_as_xyz
  1  'x, y, z'
loop_
 _atom_site_type_symbol
 _atom_site_label
 _atom_site_symmetry_multiplicity
 _atom_site_fract_x
 _atom_site_fract_y
 _atom_site_fract_z
 _atom_site_occupancy
  Sm  Sm0  1  0.519272  0.320791  0.902326  1
  Sm  Sm1  1  0.019272  0.179209  0.597674  1
  Sm  Sm2  1  0.480740  0.679208  0.402318  1
  Sm  Sm3  1  0.980740  0.820792  0.097682  1
  Sm  Sm4  1  0.480740  0.679208  0.097682  1
  Sm  Sm5  1  0.980740  0.820792  0.402318  1
  Sm  Sm6  1  0.519272  0.320791  0.597674  1
  Sm  Sm7  1  0.019272  0.179209  0.902326  1
  Ho  Ho8  1  0.366028  0.835525  0.877652  1
  Ho  Ho9  1  0.866028  0.664475  0.622348  1
  Ho  Ho10  1  0.633956  0.164479  0.377647  1
  Ho  Ho11  1  0.133956  0.335521  0.122353  1
  Ho  Ho12  1  0.633956  0.164479  0.122353  1
  Ho  Ho13  1  0.133956  0.335521  0.377647  1
  Ho  Ho14  1  0.366028  0.835525  0.622348  1
  Ho  Ho15  1  0.866028  0.664475  0.877652  1
  Ho  Ho16  1  0.197762  0.503659  0.750000  1
  Ho  Ho17  1  0.697762  0.996341  0.750000  1
  Er  Er18  1  0.802215  0.496337  0.250000  1
  Er  Er19  1  0.302215  0.003663  0.250000  1
  Sn  Sn20  1  0.296782  0.037677  0.041907  1
  Sn  Sn21  1  0.796782  0.462323  0.458093  1
  Sn  Sn22  1  0.703213  0.962316  0.541867  1
  Sn  Sn23  1  0.203213  0.537684  0.958133  1
  Sn  Sn24  1  0.703213  0.962316  0.958133  1
  Sn  Sn25  1  0.203213  0.537684  0.541867  1
  Sn  Sn26  1  0.296782  0.037677  0.458093  1
  Sn  Sn27  1  0.796782  0.462323  0.041907  1
  Sn  Sn28  1  0.564380  0.622446  0.750000  1
  Sn  Sn29  1  0.064380  0.877554  0.750000  1
  Sn  Sn30  1  0.435702  0.377530  0.250000  1
  Sn  Sn31  1  0.935702  0.122470  0.250000  1
  Sn  Sn32  1  0.327437  0.143977  0.750000  1
  Sn  Sn33  1  0.827437  0.356023  0.750000  1
  Sn  Sn34  1  0.672523  0.855944  0.250000  1
  Sn  Sn35  1  0.172523  0.644056  0.250000  1
