# generated using pymatgen
data_Tb4Co8P12Ru5Rh7
_symmetry_space_group_name_H-M   'P 1'
_cell_length_a   3.79520600
_cell_length_b   10.68089977
_cell_length_c   12.11346880
_cell_angle_alpha   90.04263182
_cell_angle_beta   90.00000000
_cell_angle_gamma   90.00000000
_symmetry_Int_Tables_number   1
_chemical_formula_structural   Tb4Co8P12Ru5Rh7
_chemical_formula_sum   'Tb4 Co8 P12 Ru5 Rh7'
_cell_volume   491.03403861
_cell_formula_units_Z   1
loop_
 _symmetry_equiv_pos_site_id
 _symmetry_equiv_pos_as_xyz
  1  'x, y, z'
loop_
 _atom_site_type_symbol
 _atom_site_label
 _atom_site_symmetry_multiplicity
 _atom_site_fract_x
 _atom_site_fract_y
 _atom_site_fract_z
 _atom_site_occupancy
  Tb  Tb0  1  0.250000  0.583944  0.706665  1
  Tb  Tb1  1  0.250000  0.915417  0.208034  1
  Tb  Tb2  1  0.750000  0.415912  0.293427  1
  Tb  Tb3  1  0.750000  0.084445  0.792092  1
  Co  Co4  1  0.250000  0.886812  0.697880  1
  Co  Co5  1  0.250000  0.613248  0.198431  1
  Co  Co6  1  0.750000  0.113182  0.302005  1
  Co  Co7  1  0.750000  0.387193  0.800253  1
  Co  Co8  1  0.250000  0.464072  0.932181  1
  Co  Co9  1  0.250000  0.036543  0.432160  1
  Co  Co10  1  0.750000  0.535786  0.067117  1
  Co  Co11  1  0.750000  0.964037  0.567063  1
  P  P12  1  0.250000  0.429908  0.110519  1
  P  P13  1  0.250000  0.069795  0.609949  1
  P  P14  1  0.750000  0.569617  0.889150  1
  P  P15  1  0.750000  0.929804  0.389533  1
  P  P16  1  0.250000  0.274667  0.873394  1
  P  P17  1  0.250000  0.228342  0.375774  1
  P  P18  1  0.750000  0.724849  0.126507  1
  P  P19  1  0.750000  0.774924  0.626317  1
  P  P20  1  0.250000  0.598569  0.385198  1
  P  P21  1  0.250000  0.898359  0.883431  1
  P  P22  1  0.750000  0.399041  0.612267  1
  P  P23  1  0.750000  0.101988  0.117043  1
  Ru  Ru24  1  0.250000  0.715155  0.992372  1
  Ru  Ru25  1  0.250000  0.785808  0.491243  1
  Ru  Ru26  1  0.750000  0.284843  0.007545  1
  Ru  Ru27  1  0.750000  0.213012  0.508625  1
  Ru  Ru28  1  0.250000  0.407520  0.487813  1
  Rh  Rh29  1  0.250000  0.091870  0.985178  1
  Rh  Rh30  1  0.750000  0.594638  0.515486  1
  Rh  Rh31  1  0.750000  0.908081  0.015058  1
  Rh  Rh32  1  0.250000  0.227424  0.181868  1
  Rh  Rh33  1  0.250000  0.270827  0.681452  1
  Rh  Rh34  1  0.750000  0.772401  0.818744  1
  Rh  Rh35  1  0.750000  0.727965  0.318230  1
