# generated using pymatgen
data_NaInCoF6
_symmetry_space_group_name_H-M   'P 1'
_cell_length_a   5.00678700
_cell_length_b   5.00678700
_cell_length_c   9.94686500
_cell_angle_alpha   90.00000000
_cell_angle_beta   90.00000000
_cell_angle_gamma   90.00000000
_symmetry_Int_Tables_number   1
_chemical_formula_structural   NaInCoF6
_chemical_formula_sum   'Na2 In2 Co2 F12'
_cell_volume   249.34717691
_cell_formula_units_Z   2
loop_
 _symmetry_equiv_pos_site_id
 _symmetry_equiv_pos_as_xyz
  1  'x, y, z'
loop_
 _atom_site_type_symbol
 _atom_site_label
 _atom_site_symmetry_multiplicity
 _atom_site_fract_x
 _atom_site_fract_y
 _atom_site_fract_z
 _atom_site_occupancy
  Na  Na0  1  0.500000  0.500000  0.499020  1
  Na  Na1  1  0.000000  0.000000  0.999020  1
  In  In2  1  0.500000  0.500000  0.832261  1
  In  In3  1  0.000000  0.000000  0.332261  1
  Co  Co4  1  0.500000  0.500000  0.167355  1
  Co  Co5  1  0.000000  0.000000  0.667355  1
  F  F6  1  0.181597  0.818403  0.502364  1
  F  F7  1  0.818403  0.181597  0.502364  1
  F  F8  1  0.318403  0.318403  0.002364  1
  F  F9  1  0.681597  0.681597  0.002364  1
  F  F10  1  0.208265  0.791735  0.178886  1
  F  F11  1  0.791735  0.208265  0.178886  1
  F  F12  1  0.291735  0.291735  0.678886  1
  F  F13  1  0.708265  0.708265  0.678886  1
  F  F14  1  0.798504  0.201496  0.819432  1
  F  F15  1  0.201496  0.798504  0.819432  1
  F  F16  1  0.701496  0.701496  0.319432  1
  F  F17  1  0.298504  0.298504  0.319432  1
