# generated using pymatgen
data_Th3Al2ZnNi3
_symmetry_space_group_name_H-M   'P 1'
_cell_length_a   7.00415898
_cell_length_b   7.04510570
_cell_length_c   4.09582400
_cell_angle_alpha   90.00000000
_cell_angle_beta   90.00000000
_cell_angle_gamma   120.19356985
_symmetry_Int_Tables_number   1
_chemical_formula_structural   Th3Al2ZnNi3
_chemical_formula_sum   'Th3 Al2 Zn1 Ni3'
_cell_volume   174.68877908
_cell_formula_units_Z   1
loop_
 _symmetry_equiv_pos_site_id
 _symmetry_equiv_pos_as_xyz
  1  'x, y, z'
loop_
 _atom_site_type_symbol
 _atom_site_label
 _atom_site_symmetry_multiplicity
 _atom_site_fract_x
 _atom_site_fract_y
 _atom_site_fract_z
 _atom_site_occupancy
  Th  Th0  1  0.000000  0.423117  0.500000  1
  Th  Th1  1  0.583955  0.579678  0.500000  1
  Th  Th2  1  0.416045  0.995723  0.500000  1
  Al  Al3  1  0.229410  0.229273  0.000000  1
  Al  Al4  1  0.770590  0.999864  0.000000  1
  Zn  Zn5  1  0.000000  0.768554  0.000000  1
  Ni  Ni6  1  0.343909  0.665898  0.000000  1
  Ni  Ni7  1  0.656091  0.321988  0.000000  1
  Ni  Ni8  1  0.000000  0.015906  0.500000  1
