# generated using pymatgen
data_NdSn6PdRu3
_symmetry_space_group_name_H-M   'P 1'
_cell_length_a   7.01496278
_cell_length_b   7.01496357
_cell_length_c   7.01805814
_cell_angle_alpha   120.38987044
_cell_angle_beta   120.38987424
_cell_angle_gamma   89.45142138
_symmetry_Int_Tables_number   1
_chemical_formula_structural   NdSn6PdRu3
_chemical_formula_sum   'Nd1 Sn6 Pd1 Ru3'
_cell_volume   242.48288388
_cell_formula_units_Z   1
loop_
 _symmetry_equiv_pos_site_id
 _symmetry_equiv_pos_as_xyz
  1  'x, y, z'
loop_
 _atom_site_type_symbol
 _atom_site_label
 _atom_site_symmetry_multiplicity
 _atom_site_fract_x
 _atom_site_fract_y
 _atom_site_fract_z
 _atom_site_occupancy
  Nd  Nd0  1  0.989346  0.989346  0.996914  1
  Sn  Sn1  1  0.466151  0.466151  0.596776  1
  Sn  Sn2  1  0.124403  0.124403  0.588637  1
  Sn  Sn3  1  0.889644  0.536473  0.409690  1
  Sn  Sn4  1  0.536473  0.889644  0.409690  1
  Sn  Sn5  1  0.989970  0.496070  0.985313  1
  Sn  Sn6  1  0.496070  0.989970  0.985313  1
  Pd  Pd7  1  0.402161  0.402161  0.165303  1
  Ru  Ru8  1  0.758650  0.758650  0.159388  1
  Ru  Ru9  1  0.249615  0.597518  0.851488  1
  Ru  Ru10  1  0.597518  0.249615  0.851488  1
