# generated using pymatgen
data_MnTe14
_symmetry_space_group_name_H-M   'P 1'
_cell_length_a   4.24400991
_cell_length_b   4.24401018
_cell_length_c   30.48397388
_cell_angle_alpha   91.22875862
_cell_angle_beta   91.22875847
_cell_angle_gamma   60.10156474
_symmetry_Int_Tables_number   1
_chemical_formula_structural   MnTe14
_chemical_formula_sum   'Mn1 Te14'
_cell_volume   475.84472752
_cell_formula_units_Z   1
loop_
 _symmetry_equiv_pos_site_id
 _symmetry_equiv_pos_as_xyz
  1  'x, y, z'
loop_
 _atom_site_type_symbol
 _atom_site_label
 _atom_site_symmetry_multiplicity
 _atom_site_fract_x
 _atom_site_fract_y
 _atom_site_fract_z
 _atom_site_occupancy
  Mn  Mn0  1  0.000000  0.000000  0.800000  1
  Te  Te1  1  0.662381  0.662381  0.055313  1
  Te  Te2  1  0.671415  0.671415  0.260131  1
  Te  Te3  1  0.679845  0.679845  0.464151  1
  Te  Te4  1  0.686472  0.686472  0.667495  1
  Te  Te5  1  0.671534  0.671534  0.844508  1
  Te  Te6  1  0.320155  0.320155  0.135849  1
  Te  Te7  1  0.328585  0.328585  0.339869  1
  Te  Te8  1  0.337619  0.337619  0.544687  1
  Te  Te9  1  0.328466  0.328466  0.755492  1
  Te  Te10  1  0.313528  0.313528  0.932505  1
  Te  Te11  1  0.988378  0.988378  0.993550  1
  Te  Te12  1  0.996398  0.996398  0.198084  1
  Te  Te13  1  0.003602  0.003602  0.401916  1
  Te  Te14  1  0.011622  0.011622  0.606450  1
