# generated using pymatgen
data_Tm2Si3(AsRh3)4
_symmetry_space_group_name_H-M   'P 1'
_cell_length_a   9.90250100
_cell_length_b   9.90250175
_cell_length_c   3.86816500
_cell_angle_alpha   90.00000000
_cell_angle_beta   90.00000000
_cell_angle_gamma   120.00000085
_symmetry_Int_Tables_number   1
_chemical_formula_structural   Tm2Si3(AsRh3)4
_chemical_formula_sum   'Tm2 Si3 As4 Rh12'
_cell_volume   328.49248731
_cell_formula_units_Z   1
loop_
 _symmetry_equiv_pos_site_id
 _symmetry_equiv_pos_as_xyz
  1  'x, y, z'
loop_
 _atom_site_type_symbol
 _atom_site_label
 _atom_site_symmetry_multiplicity
 _atom_site_fract_x
 _atom_site_fract_y
 _atom_site_fract_z
 _atom_site_occupancy
  Tm  Tm0  1  0.333333  0.666667  0.243470  1
  Tm  Tm1  1  0.666667  0.333333  0.742897  1
  Si  Si2  1  0.404631  0.113566  0.241997  1
  Si  Si3  1  0.708935  0.595369  0.241997  1
  Si  Si4  1  0.886434  0.291065  0.241997  1
  As  As5  1  0.000000  0.000000  0.645766  1
  As  As6  1  0.594954  0.882116  0.744382  1
  As  As7  1  0.287162  0.405046  0.744382  1
  As  As8  1  0.117884  0.712838  0.744382  1
  Rh  Rh9  1  0.451120  0.379541  0.241694  1
  Rh  Rh10  1  0.928420  0.548880  0.241694  1
  Rh  Rh11  1  0.620459  0.071580  0.241694  1
  Rh  Rh12  1  0.557161  0.616152  0.743425  1
  Rh  Rh13  1  0.058991  0.442839  0.743425  1
  Rh  Rh14  1  0.383848  0.941009  0.743425  1
  Rh  Rh15  1  0.145814  0.888623  0.243790  1
  Rh  Rh16  1  0.742809  0.854186  0.243790  1
  Rh  Rh17  1  0.111377  0.257191  0.243790  1
  Rh  Rh18  1  0.847914  0.125447  0.740669  1
  Rh  Rh19  1  0.277532  0.152086  0.740669  1
  Rh  Rh20  1  0.874553  0.722468  0.740669  1
