# generated using pymatgen
data_K3Li2ZrSb3
_symmetry_space_group_name_H-M   'P 1'
_cell_length_a   11.10885039
_cell_length_b   11.10884881
_cell_length_c   16.06528000
_cell_angle_alpha   90.00000000
_cell_angle_beta   90.00000000
_cell_angle_gamma   143.40658276
_symmetry_Int_Tables_number   1
_chemical_formula_structural   K3Li2ZrSb3
_chemical_formula_sum   'K12 Li8 Zr4 Sb12'
_cell_volume   1181.86907934
_cell_formula_units_Z   4
loop_
 _symmetry_equiv_pos_site_id
 _symmetry_equiv_pos_as_xyz
  1  'x, y, z'
loop_
 _atom_site_type_symbol
 _atom_site_label
 _atom_site_symmetry_multiplicity
 _atom_site_fract_x
 _atom_site_fract_y
 _atom_site_fract_z
 _atom_site_occupancy
  K  K0  1  0.599295  0.942246  0.828597  1
  K  K1  1  0.275323  0.275323  0.323999  1
  K  K2  1  0.224677  0.224677  0.823999  1
  K  K3  1  0.724677  0.724677  0.676001  1
  K  K4  1  0.442246  0.099295  0.671403  1
  K  K5  1  0.900705  0.557754  0.328597  1
  K  K6  1  0.057754  0.400705  0.171403  1
  K  K7  1  0.400705  0.057754  0.171403  1
  K  K8  1  0.557754  0.900705  0.328597  1
  K  K9  1  0.099295  0.442246  0.671403  1
  K  K10  1  0.942246  0.599295  0.828597  1
  K  K11  1  0.775323  0.775323  0.176001  1
  Li  Li12  1  0.084057  0.915943  0.000000  1
  Li  Li13  1  0.584057  0.415943  0.500000  1
  Li  Li14  1  0.915943  0.084057  0.000000  1
  Li  Li15  1  0.749566  0.250434  0.000000  1
  Li  Li16  1  0.750434  0.249566  0.500000  1
  Li  Li17  1  0.250434  0.749566  0.000000  1
  Li  Li18  1  0.249566  0.750434  0.500000  1
  Li  Li19  1  0.415943  0.584057  0.500000  1
  Zr  Zr20  1  0.087386  0.912614  0.500000  1
  Zr  Zr21  1  0.412614  0.587386  0.000000  1
  Zr  Zr22  1  0.912614  0.087386  0.500000  1
  Zr  Zr23  1  0.587386  0.412614  0.000000  1
  Sb  Sb24  1  0.074522  0.402998  0.403200  1
  Sb  Sb25  1  0.902998  0.574522  0.096800  1
  Sb  Sb26  1  0.425478  0.097002  0.903200  1
  Sb  Sb27  1  0.597002  0.925478  0.596800  1
  Sb  Sb28  1  0.925478  0.597002  0.596800  1
  Sb  Sb29  1  0.097002  0.425478  0.903200  1
  Sb  Sb30  1  0.574522  0.902998  0.096800  1
  Sb  Sb31  1  0.402998  0.074522  0.403200  1
  Sb  Sb32  1  0.234983  0.234983  0.593865  1
  Sb  Sb33  1  0.734983  0.734983  0.906135  1
  Sb  Sb34  1  0.265017  0.265017  0.093865  1
  Sb  Sb35  1  0.765017  0.765017  0.406135  1
