# generated using pymatgen
data_DyFeTe2ClO6
_symmetry_space_group_name_H-M   'P 1'
_cell_length_a   15.49271600
_cell_length_b   5.52922361
_cell_length_c   9.39902891
_cell_angle_alpha   81.49434044
_cell_angle_beta   90.00000000
_cell_angle_gamma   90.00000000
_symmetry_Int_Tables_number   1
_chemical_formula_structural   DyFeTe2ClO6
_chemical_formula_sum   'Dy4 Fe4 Te8 Cl4 O24'
_cell_volume   796.29051621
_cell_formula_units_Z   4
loop_
 _symmetry_equiv_pos_site_id
 _symmetry_equiv_pos_as_xyz
  1  'x, y, z'
loop_
 _atom_site_type_symbol
 _atom_site_label
 _atom_site_symmetry_multiplicity
 _atom_site_fract_x
 _atom_site_fract_y
 _atom_site_fract_z
 _atom_site_occupancy
  Dy  Dy0  1  0.915246  0.255239  0.972485  1
  Dy  Dy1  1  0.084754  0.744761  0.027515  1
  Dy  Dy2  1  0.415246  0.744761  0.527515  1
  Dy  Dy3  1  0.584754  0.255239  0.472485  1
  Fe  Fe4  1  0.285448  0.721033  0.850635  1
  Fe  Fe5  1  0.785448  0.278967  0.649365  1
  Fe  Fe6  1  0.714552  0.278967  0.149365  1
  Fe  Fe7  1  0.214552  0.721033  0.350635  1
  Te  Te8  1  0.649314  0.751123  0.706780  1
  Te  Te9  1  0.415944  0.223642  0.787168  1
  Te  Te10  1  0.850686  0.751123  0.206780  1
  Te  Te11  1  0.149314  0.248877  0.793220  1
  Te  Te12  1  0.350686  0.248877  0.293220  1
  Te  Te13  1  0.084056  0.223642  0.287168  1
  Te  Te14  1  0.915944  0.776358  0.712832  1
  Te  Te15  1  0.584056  0.776358  0.212832  1
  Cl  Cl16  1  0.890726  0.276762  0.454980  1
  Cl  Cl17  1  0.609274  0.276762  0.954980  1
  Cl  Cl18  1  0.109274  0.723238  0.545020  1
  Cl  Cl19  1  0.390726  0.723238  0.045020  1
  O  O20  1  0.634610  0.032834  0.297326  1
  O  O21  1  0.984818  0.621640  0.866869  1
  O  O22  1  0.543815  0.882317  0.622719  1
  O  O23  1  0.671672  0.504466  0.591669  1
  O  O24  1  0.365390  0.967166  0.702674  1
  O  O25  1  0.293124  0.980664  0.405871  1
  O  O26  1  0.865390  0.032834  0.797326  1
  O  O27  1  0.328297  0.464233  0.733862  1
  O  O28  1  0.484818  0.378360  0.633131  1
  O  O29  1  0.171672  0.495534  0.908331  1
  O  O30  1  0.828297  0.535767  0.766138  1
  O  O31  1  0.206876  0.980664  0.905871  1
  O  O32  1  0.671703  0.535767  0.266138  1
  O  O33  1  0.015182  0.378360  0.133131  1
  O  O34  1  0.793124  0.019336  0.094129  1
  O  O35  1  0.043815  0.117683  0.877281  1
  O  O36  1  0.134610  0.967166  0.202674  1
  O  O37  1  0.515182  0.621640  0.366869  1
  O  O38  1  0.456185  0.117683  0.377281  1
  O  O39  1  0.328328  0.495534  0.408331  1
  O  O40  1  0.706876  0.019336  0.594129  1
  O  O41  1  0.171703  0.464233  0.233862  1
  O  O42  1  0.828328  0.504466  0.091669  1
  O  O43  1  0.956185  0.882317  0.122719  1
