# generated using pymatgen
data_TmLuThFe9
_symmetry_space_group_name_H-M   'P 1'
_cell_length_a   8.66805421
_cell_length_b   8.66805454
_cell_length_c   8.66805400
_cell_angle_alpha   33.99330883
_cell_angle_beta   33.99330533
_cell_angle_gamma   33.99330163
_symmetry_Int_Tables_number   1
_chemical_formula_structural   TmLuThFe9
_chemical_formula_sum   'Tm1 Lu1 Th1 Fe9'
_cell_volume   181.46540502
_cell_formula_units_Z   1
loop_
 _symmetry_equiv_pos_site_id
 _symmetry_equiv_pos_as_xyz
  1  'x, y, z'
loop_
 _atom_site_type_symbol
 _atom_site_label
 _atom_site_symmetry_multiplicity
 _atom_site_fract_x
 _atom_site_fract_y
 _atom_site_fract_z
 _atom_site_occupancy
  Tm  Tm0  1  0.856978  0.856978  0.856978  1
  Lu  Lu1  1  0.142900  0.142900  0.142900  1
  Th  Th2  1  0.000106  0.000106  0.000106  1
  Fe  Fe3  1  0.416101  0.916167  0.416101  1
  Fe  Fe4  1  0.416101  0.416101  0.916167  1
  Fe  Fe5  1  0.916167  0.416101  0.416101  1
  Fe  Fe6  1  0.583852  0.084010  0.583852  1
  Fe  Fe7  1  0.583852  0.583852  0.084010  1
  Fe  Fe8  1  0.084010  0.583852  0.583852  1
  Fe  Fe9  1  0.667371  0.667371  0.667371  1
  Fe  Fe10  1  0.332617  0.332617  0.332617  1
  Fe  Fe11  1  0.499945  0.499945  0.499945  1
