# generated using pymatgen
data_Ta4Al3V3GaCu
_symmetry_space_group_name_H-M   'P 1'
_cell_length_a   4.96464253
_cell_length_b   4.96452450
_cell_length_c   8.42176768
_cell_angle_alpha   90.03977627
_cell_angle_beta   90.03948211
_cell_angle_gamma   61.30082414
_symmetry_Int_Tables_number   1
_chemical_formula_structural   Ta4Al3V3GaCu
_chemical_formula_sum   'Ta4 Al3 V3 Ga1 Cu1'
_cell_volume   182.07241245
_cell_formula_units_Z   1
loop_
 _symmetry_equiv_pos_site_id
 _symmetry_equiv_pos_as_xyz
  1  'x, y, z'
loop_
 _atom_site_type_symbol
 _atom_site_label
 _atom_site_symmetry_multiplicity
 _atom_site_fract_x
 _atom_site_fract_y
 _atom_site_fract_z
 _atom_site_occupancy
  Ta  Ta0  1  0.334933  0.334911  0.556782  1
  Ta  Ta1  1  0.663899  0.663894  0.437727  1
  Ta  Ta2  1  0.663409  0.663405  0.063357  1
  Ta  Ta3  1  0.334580  0.334564  0.943070  1
  Al  Al4  1  0.993896  0.993910  0.999250  1
  Al  Al5  1  0.835233  0.350625  0.749525  1
  Al  Al6  1  0.350626  0.835226  0.749528  1
  V  V7  1  0.171631  0.650029  0.250005  1
  V  V8  1  0.650017  0.171644  0.250003  1
  V  V9  1  0.171158  0.171166  0.250311  1
  Ga  Ga10  1  0.994091  0.994115  0.500003  1
  Cu  Cu11  1  0.836527  0.836511  0.750440  1
