# generated using pymatgen
data_Dy3Al3CuSiGe
_symmetry_space_group_name_H-M   'P 1'
_cell_length_a   6.99497200
_cell_length_b   6.99497161
_cell_length_c   4.15848900
_cell_angle_alpha   90.00000000
_cell_angle_beta   90.00000000
_cell_angle_gamma   120.00000185
_symmetry_Int_Tables_number   1
_chemical_formula_structural   Dy3Al3CuSiGe
_chemical_formula_sum   'Dy3 Al3 Cu1 Si1 Ge1'
_cell_volume   176.21306986
_cell_formula_units_Z   1
loop_
 _symmetry_equiv_pos_site_id
 _symmetry_equiv_pos_as_xyz
  1  'x, y, z'
loop_
 _atom_site_type_symbol
 _atom_site_label
 _atom_site_symmetry_multiplicity
 _atom_site_fract_x
 _atom_site_fract_y
 _atom_site_fract_z
 _atom_site_occupancy
  Dy  Dy0  1  0.402758  0.997335  0.000000  1
  Dy  Dy1  1  0.002665  0.405422  0.000000  1
  Dy  Dy2  1  0.594577  0.597241  0.000000  1
  Al  Al3  1  0.763915  0.996845  0.500001  1
  Al  Al4  1  0.232930  0.236086  0.500001  1
  Al  Al5  1  0.003155  0.767069  0.500001  1
  Cu  Cu6  1  0.000000  0.000000  0.000000  1
  Si  Si7  1  0.333333  0.666666  0.500001  1
  Ge  Ge8  1  0.666667  0.333334  0.500001  1
