# generated using pymatgen
data_NdHo4Si12Ir19
_symmetry_space_group_name_H-M   'P 1'
_cell_length_a   12.84303900
_cell_length_b   12.84303922
_cell_length_c   3.98918000
_cell_angle_alpha   90.00000000
_cell_angle_beta   90.00000000
_cell_angle_gamma   120.00000201
_symmetry_Int_Tables_number   1
_chemical_formula_structural   NdHo4Si12Ir19
_chemical_formula_sum   'Nd1 Ho4 Si12 Ir19'
_cell_volume   569.83597802
_cell_formula_units_Z   1
loop_
 _symmetry_equiv_pos_site_id
 _symmetry_equiv_pos_as_xyz
  1  'x, y, z'
loop_
 _atom_site_type_symbol
 _atom_site_label
 _atom_site_symmetry_multiplicity
 _atom_site_fract_x
 _atom_site_fract_y
 _atom_site_fract_z
 _atom_site_occupancy
  Nd  Nd0  1  0.666667  0.333333  0.000000  1
  Ho  Ho1  1  0.999860  0.814592  0.500000  1
  Ho  Ho2  1  0.185408  0.185268  0.500000  1
  Ho  Ho3  1  0.814732  0.000140  0.500000  1
  Ho  Ho4  1  0.333333  0.666667  0.000000  1
  Si  Si5  1  0.000780  0.181363  0.000000  1
  Si  Si6  1  0.818637  0.819416  0.000000  1
  Si  Si7  1  0.180584  0.999220  0.000000  1
  Si  Si8  1  0.518872  0.688259  0.500000  1
  Si  Si9  1  0.311741  0.830613  0.500000  1
  Si  Si10  1  0.169387  0.481128  0.500000  1
  Si  Si11  1  0.478797  0.166776  0.500000  1
  Si  Si12  1  0.687980  0.521203  0.500000  1
  Si  Si13  1  0.833224  0.312020  0.500000  1
  Si  Si14  1  0.000104  0.631912  0.000000  1
  Si  Si15  1  0.368088  0.368192  0.000000  1
  Si  Si16  1  0.631808  0.999896  0.000000  1
  Ir  Ir17  1  0.001119  0.282477  0.500000  1
  Ir  Ir18  1  0.717523  0.718642  0.500000  1
  Ir  Ir19  1  0.281358  0.998881  0.500000  1
  Ir  Ir20  1  0.623114  0.806243  0.000000  1
  Ir  Ir21  1  0.193757  0.816871  0.000000  1
  Ir  Ir22  1  0.183129  0.376886  0.000000  1
  Ir  Ir23  1  0.374642  0.181682  0.000000  1
  Ir  Ir24  1  0.807040  0.625358  0.000000  1
  Ir  Ir25  1  0.818318  0.192960  0.000000  1
  Ir  Ir26  1  0.511317  0.873057  0.500000  1
  Ir  Ir27  1  0.126943  0.638261  0.500000  1
  Ir  Ir28  1  0.361739  0.488683  0.500000  1
  Ir  Ir29  1  0.485904  0.361369  0.500000  1
  Ir  Ir30  1  0.875466  0.514096  0.500000  1
  Ir  Ir31  1  0.638631  0.124534  0.500000  1
  Ir  Ir32  1  0.000000  0.000000  0.000000  1
  Ir  Ir33  1  0.999990  0.446982  0.000000  1
  Ir  Ir34  1  0.553018  0.553008  0.000000  1
  Ir  Ir35  1  0.446992  0.000010  0.000000  1
