# generated using pymatgen
data_Ba6Dy4TeIrO18
_symmetry_space_group_name_H-M   'P 1'
_cell_length_a   6.09883100
_cell_length_b   6.09882888
_cell_length_c   14.82720600
_cell_angle_alpha   90.00000000
_cell_angle_beta   90.00000000
_cell_angle_gamma   119.99999521
_symmetry_Int_Tables_number   1
_chemical_formula_structural   Ba6Dy4TeIrO18
_chemical_formula_sum   'Ba6 Dy4 Te1 Ir1 O18'
_cell_volume   477.62056882
_cell_formula_units_Z   1
loop_
 _symmetry_equiv_pos_site_id
 _symmetry_equiv_pos_as_xyz
  1  'x, y, z'
loop_
 _atom_site_type_symbol
 _atom_site_label
 _atom_site_symmetry_multiplicity
 _atom_site_fract_x
 _atom_site_fract_y
 _atom_site_fract_z
 _atom_site_occupancy
  Ba  Ba0  1  0.333333  0.666667  0.089027  1
  Ba  Ba1  1  0.666667  0.333333  0.910973  1
  Ba  Ba2  1  0.333333  0.666667  0.590585  1
  Ba  Ba3  1  0.666667  0.333333  0.409415  1
  Ba  Ba4  1  0.000000  0.000000  0.248239  1
  Ba  Ba5  1  0.000000  0.000000  0.751761  1
  Dy  Dy6  1  0.333333  0.666667  0.833953  1
  Dy  Dy7  1  0.666667  0.333333  0.166047  1
  Dy  Dy8  1  0.333333  0.666667  0.333687  1
  Dy  Dy9  1  0.666667  0.333333  0.666313  1
  Te  Te10  1  0.000000  0.000000  0.500000  1
  Ir  Ir11  1  0.000000  0.000000  0.000000  1
  O  O12  1  0.884680  0.696463  0.575471  1
  O  O13  1  0.000488  0.548434  0.249653  1
  O  O14  1  0.189129  0.304280  0.924903  1
  O  O15  1  0.884847  0.189129  0.075097  1
  O  O16  1  0.811782  0.115320  0.575471  1
  O  O17  1  0.810871  0.695720  0.075097  1
  O  O18  1  0.696463  0.811782  0.424529  1
  O  O19  1  0.452055  0.000488  0.750347  1
  O  O20  1  0.548434  0.547945  0.750347  1
  O  O21  1  0.303537  0.188218  0.575471  1
  O  O22  1  0.115320  0.303537  0.424529  1
  O  O23  1  0.188218  0.884680  0.424529  1
  O  O24  1  0.304280  0.115153  0.075097  1
  O  O25  1  0.547945  0.999512  0.249653  1
  O  O26  1  0.451566  0.452055  0.249653  1
  O  O27  1  0.999512  0.451566  0.750347  1
  O  O28  1  0.115153  0.810871  0.924903  1
  O  O29  1  0.695720  0.884847  0.924903  1
