# generated using pymatgen
data_La3GaPt3Au2
_symmetry_space_group_name_H-M   'P 1'
_cell_length_a   7.80003850
_cell_length_b   7.56203197
_cell_length_c   3.97159100
_cell_angle_alpha   90.00000000
_cell_angle_beta   90.00000000
_cell_angle_gamma   118.99565743
_symmetry_Int_Tables_number   1
_chemical_formula_structural   La3GaPt3Au2
_chemical_formula_sum   'La3 Ga1 Pt3 Au2'
_cell_volume   204.89779078
_cell_formula_units_Z   1
loop_
 _symmetry_equiv_pos_site_id
 _symmetry_equiv_pos_as_xyz
  1  'x, y, z'
loop_
 _atom_site_type_symbol
 _atom_site_label
 _atom_site_symmetry_multiplicity
 _atom_site_fract_x
 _atom_site_fract_y
 _atom_site_fract_z
 _atom_site_occupancy
  La  La0  1  0.400999  0.392078  0.500000  1
  La  La1  1  0.599001  0.991080  0.500000  1
  La  La2  1  0.000000  0.615079  0.500000  1
  Ga  Ga3  1  0.000000  0.258157  0.000000  1
  Pt  Pt4  1  0.688958  0.326899  0.000000  1
  Pt  Pt5  1  0.311042  0.637943  0.000000  1
  Pt  Pt6  1  0.000000  0.041615  0.500000  1
  Au  Au7  1  0.735054  0.736102  0.000000  1
  Au  Au8  1  0.264946  0.001047  0.000000  1
