# generated using pymatgen
data_ThReH7
_symmetry_space_group_name_H-M   'P 1'
_cell_length_a   4.68129270
_cell_length_b   4.68191436
_cell_length_c   8.06642900
_cell_angle_alpha   90.00000000
_cell_angle_beta   90.00000000
_cell_angle_gamma   61.80383849
_symmetry_Int_Tables_number   1
_chemical_formula_structural   ThReH7
_chemical_formula_sum   'Th2 Re2 H14'
_cell_volume   155.81585513
_cell_formula_units_Z   2
loop_
 _symmetry_equiv_pos_site_id
 _symmetry_equiv_pos_as_xyz
  1  'x, y, z'
loop_
 _atom_site_type_symbol
 _atom_site_label
 _atom_site_symmetry_multiplicity
 _atom_site_fract_x
 _atom_site_fract_y
 _atom_site_fract_z
 _atom_site_occupancy
  Th  Th0  1  0.000000  0.000000  0.000000  1
  Th  Th1  1  0.000000  0.000000  0.500000  1
  Re  Re2  1  0.641564  0.641520  0.250000  1
  Re  Re3  1  0.358436  0.358480  0.750000  1
  H  H4  1  0.858294  0.857992  0.250000  1
  H  H5  1  0.141706  0.142008  0.750000  1
  H  H6  1  0.695586  0.696852  0.459630  1
  H  H7  1  0.304414  0.303148  0.959630  1
  H  H8  1  0.304414  0.303148  0.540370  1
  H  H9  1  0.695586  0.696852  0.040370  1
  H  H10  1  0.465355  0.464418  0.365113  1
  H  H11  1  0.534645  0.535582  0.865113  1
  H  H12  1  0.534645  0.535582  0.634887  1
  H  H13  1  0.465355  0.464418  0.134887  1
  H  H14  1  0.301110  0.013087  0.250000  1
  H  H15  1  0.698890  0.986913  0.750000  1
  H  H16  1  0.013938  0.302195  0.250000  1
  H  H17  1  0.986062  0.697805  0.750000  1
