# generated using pymatgen
data_Dy4Y8In2CoTc2Ni
_symmetry_space_group_name_H-M   'P 1'
_cell_length_a   8.46595189
_cell_length_b   8.46595213
_cell_length_c   8.46595100
_cell_angle_alpha   112.84525708
_cell_angle_beta   110.87198300
_cell_angle_gamma   104.80175087
_symmetry_Int_Tables_number   1
_chemical_formula_structural   Dy4Y8In2CoTc2Ni
_chemical_formula_sum   'Dy4 Y8 In2 Co1 Tc2 Ni1'
_cell_volume   464.64286615
_cell_formula_units_Z   1
loop_
 _symmetry_equiv_pos_site_id
 _symmetry_equiv_pos_as_xyz
  1  'x, y, z'
loop_
 _atom_site_type_symbol
 _atom_site_label
 _atom_site_symmetry_multiplicity
 _atom_site_fract_x
 _atom_site_fract_y
 _atom_site_fract_z
 _atom_site_occupancy
  Dy  Dy0  1  0.330627  0.649483  0.318856  1
  Dy  Dy1  1  0.672833  0.352424  0.679591  1
  Dy  Dy2  1  0.330423  0.011747  0.681325  1
  Dy  Dy3  1  0.673117  0.993380  0.320262  1
  Y  Y4  1  0.441886  0.242986  0.198561  1
  Y  Y5  1  0.558185  0.756432  0.801930  1
  Y  Y6  1  0.044425  0.242986  0.801097  1
  Y  Y7  1  0.954502  0.756432  0.198250  1
  Y  Y8  1  0.182322  0.283208  0.468731  1
  Y  Y9  1  0.814009  0.713208  0.531068  1
  Y  Y10  1  0.182140  0.713208  0.899199  1
  Y  Y11  1  0.814477  0.283208  0.100886  1
  In  In12  1  0.499258  0.499537  0.000278  1
  In  In13  1  0.000301  0.000259  0.999958  1
  Co  Co14  1  0.888772  0.388723  0.499951  1
  Tc  Tc15  1  0.323695  0.998713  0.324987  1
  Tc  Tc16  1  0.673726  0.998713  0.675018  1
  Ni  Ni17  1  0.115301  0.615354  0.500052  1
