# generated using pymatgen
data_TbY5IrO12
_symmetry_space_group_name_H-M   'P 1'
_cell_length_a   6.50251112
_cell_length_b   6.49847606
_cell_length_c   6.49844850
_cell_angle_alpha   98.62475961
_cell_angle_beta   98.68631758
_cell_angle_gamma   98.63190177
_symmetry_Int_Tables_number   1
_chemical_formula_structural   TbY5IrO12
_chemical_formula_sum   'Tb1 Y5 Ir1 O12'
_cell_volume   264.15695522
_cell_formula_units_Z   1
loop_
 _symmetry_equiv_pos_site_id
 _symmetry_equiv_pos_as_xyz
  1  'x, y, z'
loop_
 _atom_site_type_symbol
 _atom_site_label
 _atom_site_symmetry_multiplicity
 _atom_site_fract_x
 _atom_site_fract_y
 _atom_site_fract_z
 _atom_site_occupancy
  Tb  Tb0  1  0.856469  0.388765  0.686600  1
  Y  Y1  1  0.610328  0.314031  0.143767  1
  Y  Y2  1  0.314162  0.143688  0.610454  1
  Y  Y3  1  0.685628  0.856047  0.389299  1
  Y  Y4  1  0.389431  0.686088  0.856213  1
  Y  Y5  1  0.144023  0.610636  0.313929  1
  Ir  Ir6  1  0.000034  0.000016  0.000198  1
  O  O7  1  0.928729  0.035044  0.702343  1
  O  O8  1  0.964827  0.297540  0.071268  1
  O  O9  1  0.592012  0.177197  0.433048  1
  O  O10  1  0.823163  0.566671  0.407678  1
  O  O11  1  0.296876  0.071219  0.964972  1
  O  O12  1  0.566049  0.407655  0.823137  1
  O  O13  1  0.432927  0.592381  0.177376  1
  O  O14  1  0.703032  0.928880  0.034943  1
  O  O15  1  0.178003  0.433438  0.591596  1
  O  O16  1  0.407914  0.822990  0.566889  1
  O  O17  1  0.035156  0.702738  0.928902  1
  O  O18  1  0.071237  0.964972  0.297387  1
