# generated using pymatgen
data_OsI13
_symmetry_space_group_name_H-M   'P 1'
_cell_length_a   12.46148939
_cell_length_b   10.89662352
_cell_length_c   14.13442323
_cell_angle_alpha   116.01913660
_cell_angle_beta   93.25379659
_cell_angle_gamma   104.04120045
_symmetry_Int_Tables_number   1
_chemical_formula_structural   OsI13
_chemical_formula_sum   'Os2 I26'
_cell_volume   1643.65405887
_cell_formula_units_Z   2
loop_
 _symmetry_equiv_pos_site_id
 _symmetry_equiv_pos_as_xyz
  1  'x, y, z'
loop_
 _atom_site_type_symbol
 _atom_site_label
 _atom_site_symmetry_multiplicity
 _atom_site_fract_x
 _atom_site_fract_y
 _atom_site_fract_z
 _atom_site_occupancy
  Os  Os0  1  0.338369  0.881571  0.925653  1
  Os  Os1  1  0.661631  0.118429  0.074347  1
  I  I2  1  0.375548  0.675462  0.969371  1
  I  I3  1  0.624452  0.324538  0.030629  1
  I  I4  1  0.576085  0.811631  0.386541  1
  I  I5  1  0.423915  0.188369  0.613459  1
  I  I6  1  0.721155  0.678185  0.996258  1
  I  I7  1  0.278845  0.321815  0.003742  1
  I  I8  1  0.701697  0.947037  0.148706  1
  I  I9  1  0.298303  0.052963  0.851294  1
  I  I10  1  0.449772  0.089858  0.120122  1
  I  I11  1  0.550228  0.910142  0.879878  1
  I  I12  1  0.241310  0.675231  0.719367  1
  I  I13  1  0.758690  0.324769  0.280633  1
  I  I14  1  0.139991  0.842331  0.986054  1
  I  I15  1  0.860009  0.157669  0.013946  1
  I  I16  1  0.107533  0.074804  0.198121  1
  I  I17  1  0.892467  0.925196  0.801879  1
  I  I18  1  0.269545  0.911262  0.464768  1
  I  I19  1  0.730455  0.088738  0.535232  1
  I  I20  1  0.330866  0.431584  0.661523  1
  I  I21  1  0.669134  0.568416  0.338477  1
  I  I22  1  0.864626  0.381833  0.694184  1
  I  I23  1  0.135374  0.618167  0.305816  1
  I  I24  1  0.957123  0.735880  0.618848  1
  I  I25  1  0.042877  0.264120  0.381152  1
  I  I26  1  0.252078  0.641890  0.133369  1
  I  I27  1  0.747922  0.358110  0.866631  1
