# generated using pymatgen
data_Ta7B8Os5Ru
_symmetry_space_group_name_H-M   'P 1'
_cell_length_a   9.64515556
_cell_length_b   9.62437871
_cell_length_c   3.11781300
_cell_angle_alpha   90.00000000
_cell_angle_beta   90.00000000
_cell_angle_gamma   119.87893080
_symmetry_Int_Tables_number   1
_chemical_formula_structural   Ta7B8Os5Ru
_chemical_formula_sum   'Ta7 B8 Os5 Ru1'
_cell_volume   250.95229465
_cell_formula_units_Z   1
loop_
 _symmetry_equiv_pos_site_id
 _symmetry_equiv_pos_as_xyz
  1  'x, y, z'
loop_
 _atom_site_type_symbol
 _atom_site_label
 _atom_site_symmetry_multiplicity
 _atom_site_fract_x
 _atom_site_fract_y
 _atom_site_fract_z
 _atom_site_occupancy
  Ta  Ta0  1  0.999601  0.999406  0.000000  1
  Ta  Ta1  1  0.725422  0.639935  0.000000  1
  Ta  Ta2  1  0.360837  0.087854  0.000000  1
  Ta  Ta3  1  0.914184  0.274098  0.000000  1
  Ta  Ta4  1  0.274466  0.359379  0.000000  1
  Ta  Ta5  1  0.640244  0.913816  0.000000  1
  Ta  Ta6  1  0.085981  0.726177  0.000000  1
  B  B7  1  0.666808  0.333528  0.000000  1
  B  B8  1  0.333548  0.666619  0.000000  1
  B  B9  1  0.154724  0.936521  0.500000  1
  B  B10  1  0.065452  0.217548  0.500000  1
  B  B11  1  0.783110  0.847085  0.500000  1
  B  B12  1  0.845903  0.063987  0.500000  1
  B  B13  1  0.934053  0.780738  0.500000  1
  B  B14  1  0.215707  0.151825  0.500000  1
  Os  Os15  1  0.359663  0.847313  0.500000  1
  Os  Os16  1  0.153142  0.513768  0.500000  1
  Os  Os17  1  0.485859  0.639226  0.500000  1
  Os  Os18  1  0.638987  0.153180  0.500000  1
  Os  Os19  1  0.847366  0.486144  0.500000  1
  Ru  Ru20  1  0.514944  0.361852  0.500000  1
