# generated using pymatgen
data_Nb2Cr2CoOs
_symmetry_space_group_name_H-M   'P 1'
_cell_length_a   4.86612472
_cell_length_b   4.86612307
_cell_length_c   8.22899500
_cell_angle_alpha   90.00000000
_cell_angle_beta   90.00000000
_cell_angle_gamma   119.03170141
_symmetry_Int_Tables_number   1
_chemical_formula_structural   Nb2Cr2CoOs
_chemical_formula_sum   'Nb4 Cr4 Co2 Os2'
_cell_volume   170.37234413
_cell_formula_units_Z   2
loop_
 _symmetry_equiv_pos_site_id
 _symmetry_equiv_pos_as_xyz
  1  'x, y, z'
loop_
 _atom_site_type_symbol
 _atom_site_label
 _atom_site_symmetry_multiplicity
 _atom_site_fract_x
 _atom_site_fract_y
 _atom_site_fract_z
 _atom_site_occupancy
  Nb  Nb0  1  0.335779  0.664221  0.437618  1
  Nb  Nb1  1  0.667598  0.332402  0.565520  1
  Nb  Nb2  1  0.667598  0.332402  0.934480  1
  Nb  Nb3  1  0.335779  0.664221  0.062382  1
  Cr  Cr4  1  0.827502  0.172498  0.250000  1
  Cr  Cr5  1  0.828518  0.650759  0.250000  1
  Cr  Cr6  1  0.349241  0.171482  0.250000  1
  Cr  Cr7  1  0.170289  0.829711  0.750000  1
  Co  Co8  1  0.164567  0.351591  0.750000  1
  Co  Co9  1  0.648409  0.835433  0.750000  1
  Os  Os10  1  0.002361  0.997639  0.506268  1
  Os  Os11  1  0.002361  0.997639  0.993732  1
