# generated using pymatgen
data_Rb2Ni(PtS2)2
_symmetry_space_group_name_H-M   'P 1'
_cell_length_a   8.49814994
_cell_length_b   7.56630653
_cell_length_c   6.05210609
_cell_angle_alpha   76.32073329
_cell_angle_beta   59.89327594
_cell_angle_gamma   43.78598634
_symmetry_Int_Tables_number   1
_chemical_formula_structural   Rb2Ni(PtS2)2
_chemical_formula_sum   'Rb2 Ni1 Pt2 S4'
_cell_volume   227.76106834
_cell_formula_units_Z   1
loop_
 _symmetry_equiv_pos_site_id
 _symmetry_equiv_pos_as_xyz
  1  'x, y, z'
loop_
 _atom_site_type_symbol
 _atom_site_label
 _atom_site_symmetry_multiplicity
 _atom_site_fract_x
 _atom_site_fract_y
 _atom_site_fract_z
 _atom_site_occupancy
  Rb  Rb0  1  0.655476  0.655476  0.344524  1
  Rb  Rb1  1  0.344524  0.344524  0.655476  1
  Ni  Ni2  1  0.000000  0.000000  0.000000  1
  Pt  Pt3  1  0.000000  0.000000  0.500000  1
  Pt  Pt4  1  0.500000  0.500000  0.000000  1
  S  S5  1  0.056792  0.727918  0.272082  1
  S  S6  1  0.272082  0.943208  0.056792  1
  S  S7  1  0.727918  0.056792  0.943208  1
  S  S8  1  0.943208  0.272082  0.727918  1
