# generated using pymatgen
data_Ho2Co5(NiAs)7
_symmetry_space_group_name_H-M   'P 1'
_cell_length_a   3.77183600
_cell_length_b   9.39974879
_cell_length_c   9.36585201
_cell_angle_alpha   119.95068332
_cell_angle_beta   90.00000000
_cell_angle_gamma   90.00000000
_symmetry_Int_Tables_number   1
_chemical_formula_structural   Ho2Co5(NiAs)7
_chemical_formula_sum   'Ho2 Co5 Ni7 As7'
_cell_volume   287.71504915
_cell_formula_units_Z   1
loop_
 _symmetry_equiv_pos_site_id
 _symmetry_equiv_pos_as_xyz
  1  'x, y, z'
loop_
 _atom_site_type_symbol
 _atom_site_label
 _atom_site_symmetry_multiplicity
 _atom_site_fract_x
 _atom_site_fract_y
 _atom_site_fract_z
 _atom_site_occupancy
  Ho  Ho0  1  0.000000  0.665023  0.333599  1
  Ho  Ho1  1  0.500000  0.336002  0.667061  1
  Co  Co2  1  0.000000  0.874855  0.155134  1
  Co  Co3  1  0.000000  0.277230  0.123247  1
  Co  Co4  1  0.000000  0.847606  0.722815  1
  Co  Co5  1  0.500000  0.426828  0.047170  1
  Co  Co6  1  0.500000  0.620970  0.571823  1
  Ni  Ni7  1  0.000000  0.560673  0.940048  1
  Ni  Ni8  1  0.000000  0.382081  0.438670  1
  Ni  Ni9  1  0.000000  0.059204  0.618806  1
  Ni  Ni10  1  0.500000  0.791577  0.909031  1
  Ni  Ni11  1  0.500000  0.119424  0.210708  1
  Ni  Ni12  1  0.500000  0.089991  0.883950  1
  Ni  Ni13  1  0.500000  0.949850  0.379962  1
  As  As14  1  0.000000  0.999673  0.001561  1
  As  As15  1  0.500000  0.703933  0.110666  1
  As  As16  1  0.500000  0.405781  0.291971  1
  As  As17  1  0.500000  0.885434  0.596279  1
  As  As18  1  0.000000  0.596648  0.710293  1
  As  As19  1  0.000000  0.118027  0.402947  1
  As  As20  1  0.000000  0.289192  0.884259  1
