# generated using pymatgen
data_Er16Tm4Ir5Pt7
_symmetry_space_group_name_H-M   'P 1'
_cell_length_a   10.94962507
_cell_length_b   10.94962454
_cell_length_c   6.28665305
_cell_angle_alpha   90.01772133
_cell_angle_beta   90.01771662
_cell_angle_gamma   90.23111338
_symmetry_Int_Tables_number   1
_chemical_formula_structural   Er16Tm4Ir5Pt7
_chemical_formula_sum   'Er16 Tm4 Ir5 Pt7'
_cell_volume   753.72755833
_cell_formula_units_Z   1
loop_
 _symmetry_equiv_pos_site_id
 _symmetry_equiv_pos_as_xyz
  1  'x, y, z'
loop_
 _atom_site_type_symbol
 _atom_site_label
 _atom_site_symmetry_multiplicity
 _atom_site_fract_x
 _atom_site_fract_y
 _atom_site_fract_z
 _atom_site_occupancy
  Er  Er0  1  0.294890  0.086283  0.373690  1
  Er  Er1  1  0.294966  0.908587  0.874277  1
  Er  Er2  1  0.704748  0.086812  0.873482  1
  Er  Er3  1  0.704703  0.912220  0.372905  1
  Er  Er4  1  0.583544  0.792489  0.872196  1
  Er  Er5  1  0.587305  0.205754  0.374606  1
  Er  Er6  1  0.410736  0.792142  0.378031  1
  Er  Er7  1  0.412334  0.204187  0.874462  1
  Er  Er8  1  0.207511  0.416456  0.627804  1
  Er  Er9  1  0.207858  0.589264  0.121969  1
  Er  Er10  1  0.794246  0.412695  0.125394  1
  Er  Er11  1  0.795813  0.587666  0.625538  1
  Er  Er12  1  0.913717  0.705110  0.126310  1
  Er  Er13  1  0.913188  0.295252  0.626518  1
  Er  Er14  1  0.091413  0.705034  0.625723  1
  Er  Er15  1  0.087780  0.295297  0.127095  1
  Tm  Tm16  1  0.999507  0.999920  0.500420  1
  Tm  Tm17  1  0.000080  0.000493  0.999580  1
  Tm  Tm18  1  0.497950  0.500648  0.999625  1
  Tm  Tm19  1  0.499352  0.502050  0.500375  1
  Ir  Ir20  1  0.347460  0.652540  0.750000  1
  Ir  Ir21  1  0.499932  0.999876  0.121630  1
  Ir  Ir22  1  0.499762  0.000044  0.620300  1
  Ir  Ir23  1  0.999956  0.500238  0.879700  1
  Ir  Ir24  1  0.000124  0.500068  0.378370  1
  Pt  Pt25  1  0.846842  0.153158  0.250000  1
  Pt  Pt26  1  0.845715  0.846982  0.750795  1
  Pt  Pt27  1  0.153018  0.154285  0.749205  1
  Pt  Pt28  1  0.152320  0.847680  0.250000  1
  Pt  Pt29  1  0.652726  0.347274  0.750000  1
  Pt  Pt30  1  0.654317  0.653813  0.249698  1
  Pt  Pt31  1  0.346187  0.345683  0.250302  1
