# generated using pymatgen
data_Yb7Pr3(Si9Au)2
_symmetry_space_group_name_H-M   'P 1'
_cell_length_a   4.15391680
_cell_length_b   4.22703808
_cell_length_c   34.57179300
_cell_angle_alpha   86.49801056
_cell_angle_beta   86.52837757
_cell_angle_gamma   90.04228182
_symmetry_Int_Tables_number   1
_chemical_formula_structural   Yb7Pr3(Si9Au)2
_chemical_formula_sum   'Yb7 Pr3 Si18 Au2'
_cell_volume   604.78655117
_cell_formula_units_Z   1
loop_
 _symmetry_equiv_pos_site_id
 _symmetry_equiv_pos_as_xyz
  1  'x, y, z'
loop_
 _atom_site_type_symbol
 _atom_site_label
 _atom_site_symmetry_multiplicity
 _atom_site_fract_x
 _atom_site_fract_y
 _atom_site_fract_z
 _atom_site_occupancy
  Yb  Yb0  1  0.949037  0.449549  0.101572  1
  Yb  Yb1  1  0.350463  0.850008  0.298592  1
  Yb  Yb2  1  0.751594  0.251206  0.496746  1
  Yb  Yb3  1  0.149986  0.650354  0.699195  1
  Yb  Yb4  1  0.547895  0.048473  0.904141  1
  Yb  Yb5  1  0.999275  0.999749  0.002003  1
  Yb  Yb6  1  0.400223  0.400733  0.199313  1
  Pr  Pr7  1  0.801702  0.800723  0.396945  1
  Pr  Pr8  1  0.203128  0.202609  0.594509  1
  Pr  Pr9  1  0.601072  0.600783  0.798746  1
  Si  Si10  1  0.465648  0.966376  0.067899  1
  Si  Si11  1  0.866984  0.367425  0.264999  1
  Si  Si12  1  0.268910  0.768526  0.462188  1
  Si  Si13  1  0.667364  0.167130  0.665395  1
  Si  Si14  1  0.064817  0.565306  0.870732  1
  Si  Si15  1  0.915979  0.916648  0.167415  1
  Si  Si16  1  0.318026  0.317537  0.364115  1
  Si  Si17  1  0.718850  0.719098  0.561599  1
  Si  Si18  1  0.116671  0.117550  0.766035  1
  Si  Si19  1  0.515244  0.515824  0.969825  1
  Si  Si20  1  0.432778  0.933084  0.134163  1
  Si  Si21  1  0.834293  0.333543  0.331459  1
  Si  Si22  1  0.235514  0.734621  0.528906  1
  Si  Si23  1  0.634055  0.133617  0.732168  1
  Si  Si24  1  0.031870  0.531633  0.937192  1
  Si  Si25  1  0.481991  0.482329  0.035872  1
  Si  Si26  1  0.883204  0.883223  0.233512  1
  Si  Si27  1  0.284893  0.283991  0.431051  1
  Au  Au28  1  0.684031  0.683556  0.632386  1
  Au  Au29  1  0.081700  0.081999  0.836926  1
