# generated using pymatgen
data_La9Pr11(CoBi2)4
_symmetry_space_group_name_H-M   'P 1'
_cell_length_a   8.51769476
_cell_length_b   9.27328305
_cell_length_c   12.84712249
_cell_angle_alpha   90.04722018
_cell_angle_beta   90.06886217
_cell_angle_gamma   90.02821006
_symmetry_Int_Tables_number   1
_chemical_formula_structural   La9Pr11(CoBi2)4
_chemical_formula_sum   'La9 Pr11 Co4 Bi8'
_cell_volume   1014.75439199
_cell_formula_units_Z   1
loop_
 _symmetry_equiv_pos_site_id
 _symmetry_equiv_pos_as_xyz
  1  'x, y, z'
loop_
 _atom_site_type_symbol
 _atom_site_label
 _atom_site_symmetry_multiplicity
 _atom_site_fract_x
 _atom_site_fract_y
 _atom_site_fract_z
 _atom_site_occupancy
  La  La0  1  0.353115  0.750265  0.696224  1
  La  La1  1  0.647350  0.250182  0.302702  1
  La  La2  1  0.852960  0.249883  0.803824  1
  La  La3  1  0.146861  0.750019  0.196079  1
  La  La4  1  0.883907  0.749967  0.811847  1
  La  La5  1  0.116079  0.250031  0.188634  1
  La  La6  1  0.383166  0.249554  0.689317  1
  La  La7  1  0.615890  0.750608  0.311562  1
  La  La8  1  0.679391  0.533281  0.562428  1
  Pr  Pr9  1  0.318894  0.463910  0.436243  1
  Pr  Pr10  1  0.180478  0.464140  0.936627  1
  Pr  Pr11  1  0.320259  0.036243  0.436741  1
  Pr  Pr12  1  0.819798  0.535762  0.063139  1
  Pr  Pr13  1  0.680516  0.963942  0.563219  1
  Pr  Pr14  1  0.819526  0.964006  0.063287  1
  Pr  Pr15  1  0.180145  0.036098  0.936613  1
  Pr  Pr16  1  0.049374  0.750067  0.497101  1
  Pr  Pr17  1  0.951319  0.249440  0.502859  1
  Pr  Pr18  1  0.548490  0.249733  0.002934  1
  Pr  Pr19  1  0.451148  0.750038  0.997329  1
  Co  Co20  1  0.068677  0.749921  0.992840  1
  Co  Co21  1  0.931526  0.249863  0.006860  1
  Co  Co22  1  0.570206  0.252765  0.508236  1
  Co  Co23  1  0.430952  0.750788  0.492727  1
  Bi  Bi24  1  0.574037  0.506937  0.827362  1
  Bi  Bi25  1  0.425318  0.492991  0.173260  1
  Bi  Bi26  1  0.075289  0.492858  0.673346  1
  Bi  Bi27  1  0.425342  0.007089  0.173177  1
  Bi  Bi28  1  0.925350  0.506919  0.326449  1
  Bi  Bi29  1  0.574484  0.992867  0.826838  1
  Bi  Bi30  1  0.925841  0.993068  0.326724  1
  Bi  Bi31  1  0.074312  0.006766  0.673470  1
