# generated using pymatgen
data_Lu16In6RhAu
_symmetry_space_group_name_H-M   'P 1'
_cell_length_a   10.33096800
_cell_length_b   10.33096736
_cell_length_c   6.78352700
_cell_angle_alpha   90.00000000
_cell_angle_beta   90.00000000
_cell_angle_gamma   120.00000203
_symmetry_Int_Tables_number   1
_chemical_formula_structural   Lu16In6RhAu
_chemical_formula_sum   'Lu16 In6 Rh1 Au1'
_cell_volume   627.00093241
_cell_formula_units_Z   1
loop_
 _symmetry_equiv_pos_site_id
 _symmetry_equiv_pos_as_xyz
  1  'x, y, z'
loop_
 _atom_site_type_symbol
 _atom_site_label
 _atom_site_symmetry_multiplicity
 _atom_site_fract_x
 _atom_site_fract_y
 _atom_site_fract_z
 _atom_site_occupancy
  Lu  Lu0  1  0.523850  0.047700  0.528216  1
  Lu  Lu1  1  0.952300  0.476150  0.528216  1
  Lu  Lu2  1  0.523850  0.476150  0.528216  1
  Lu  Lu3  1  0.468545  0.937091  0.024984  1
  Lu  Lu4  1  0.062909  0.531455  0.024984  1
  Lu  Lu5  1  0.468545  0.531455  0.024984  1
  Lu  Lu6  1  0.176740  0.353479  0.734544  1
  Lu  Lu7  1  0.646521  0.823260  0.734544  1
  Lu  Lu8  1  0.176740  0.823260  0.734544  1
  Lu  Lu9  1  0.826175  0.652352  0.233900  1
  Lu  Lu10  1  0.347648  0.173825  0.233900  1
  Lu  Lu11  1  0.826175  0.173825  0.233900  1
  Lu  Lu12  1  0.666667  0.333333  0.886238  1
  Lu  Lu13  1  0.333333  0.666667  0.401028  1
  Lu  Lu14  1  0.000000  0.000000  0.504404  1
  Lu  Lu15  1  0.000000  0.000000  0.006681  1
  In  In16  1  0.837433  0.674866  0.763173  1
  In  In17  1  0.325134  0.162567  0.763173  1
  In  In18  1  0.837433  0.162567  0.763173  1
  In  In19  1  0.162163  0.324327  0.268345  1
  In  In20  1  0.675673  0.837837  0.268345  1
  In  In21  1  0.162163  0.837837  0.268345  1
  Rh  Rh22  1  0.333333  0.666667  0.799995  1
  Au  Au23  1  0.666667  0.333333  0.297849  1
