# generated using pymatgen
data_Ce8Ta7Nb4Si16Mo
_symmetry_space_group_name_H-M   'P 1'
_cell_length_a   6.85226613
_cell_length_b   7.05040703
_cell_length_c   13.43834300
_cell_angle_alpha   89.99843157
_cell_angle_beta   90.01100384
_cell_angle_gamma   89.99540878
_symmetry_Int_Tables_number   1
_chemical_formula_structural   Ce8Ta7Nb4Si16Mo
_chemical_formula_sum   'Ce8 Ta7 Nb4 Si16 Mo1'
_cell_volume   649.22333871
_cell_formula_units_Z   1
loop_
 _symmetry_equiv_pos_site_id
 _symmetry_equiv_pos_as_xyz
  1  'x, y, z'
loop_
 _atom_site_type_symbol
 _atom_site_label
 _atom_site_symmetry_multiplicity
 _atom_site_fract_x
 _atom_site_fract_y
 _atom_site_fract_z
 _atom_site_occupancy
  Ce  Ce0  1  0.501795  0.332058  0.094126  1
  Ce  Ce1  1  0.001893  0.168183  0.406001  1
  Ce  Ce2  1  0.497626  0.668350  0.593861  1
  Ce  Ce3  1  0.997682  0.831291  0.906173  1
  Ce  Ce4  1  0.497433  0.668740  0.906368  1
  Ce  Ce5  1  0.997444  0.830723  0.593843  1
  Ce  Ce6  1  0.502012  0.331427  0.405835  1
  Ce  Ce7  1  0.002171  0.168714  0.093875  1
  Ta  Ta8  1  0.163192  0.671641  0.373487  1
  Ta  Ta9  1  0.664253  0.827765  0.126338  1
  Ta  Ta10  1  0.836772  0.327881  0.874667  1
  Ta  Ta11  1  0.336275  0.172281  0.625792  1
  Ta  Ta12  1  0.662209  0.004978  0.750106  1
  Ta  Ta13  1  0.162247  0.494646  0.749978  1
  Ta  Ta14  1  0.337744  0.995181  0.249986  1
  Nb  Nb15  1  0.836587  0.328364  0.625150  1
  Nb  Nb16  1  0.336200  0.171992  0.874557  1
  Nb  Nb17  1  0.163981  0.671376  0.125966  1
  Nb  Nb18  1  0.664280  0.828563  0.373942  1
  Si  Si19  1  0.659836  0.041091  0.542703  1
  Si  Si20  1  0.160239  0.458891  0.957538  1
  Si  Si21  1  0.340475  0.959461  0.043345  1
  Si  Si22  1  0.840107  0.541531  0.456052  1
  Si  Si23  1  0.339069  0.959048  0.457334  1
  Si  Si24  1  0.839090  0.541359  0.043293  1
  Si  Si25  1  0.661215  0.041135  0.958043  1
  Si  Si26  1  0.161610  0.458834  0.541817  1
  Si  Si27  1  0.539091  0.376293  0.750324  1
  Si  Si28  1  0.038354  0.123100  0.749736  1
  Si  Si29  1  0.463902  0.622850  0.250343  1
  Si  Si30  1  0.960429  0.875161  0.249569  1
  Si  Si31  1  0.796663  0.626172  0.750283  1
  Si  Si32  1  0.296563  0.873464  0.749800  1
  Si  Si33  1  0.200531  0.374395  0.250106  1
  Si  Si34  1  0.702858  0.128255  0.249649  1
  Mo  Mo35  1  0.838165  0.504801  0.250015  1
