# generated using pymatgen
data_Er3AlZn2C
_symmetry_space_group_name_H-M   'P 1'
_cell_length_a   9.11076171
_cell_length_b   9.11076267
_cell_length_c   9.11076100
_cell_angle_alpha   60.00000243
_cell_angle_beta   59.99999893
_cell_angle_gamma   60.00000488
_symmetry_Int_Tables_number   1
_chemical_formula_structural   Er3AlZn2C
_chemical_formula_sum   'Er12 Al4 Zn8 C4'
_cell_volume   534.74791270
_cell_formula_units_Z   4
loop_
 _symmetry_equiv_pos_site_id
 _symmetry_equiv_pos_as_xyz
  1  'x, y, z'
loop_
 _atom_site_type_symbol
 _atom_site_label
 _atom_site_symmetry_multiplicity
 _atom_site_fract_x
 _atom_site_fract_y
 _atom_site_fract_z
 _atom_site_occupancy
  Er  Er0  1  0.804795  0.195205  0.804795  1
  Er  Er1  1  0.054795  0.445205  0.445205  1
  Er  Er2  1  0.445205  0.054795  0.054795  1
  Er  Er3  1  0.054795  0.445205  0.054795  1
  Er  Er4  1  0.445205  0.445205  0.054795  1
  Er  Er5  1  0.054795  0.054795  0.445205  1
  Er  Er6  1  0.804795  0.804795  0.195205  1
  Er  Er7  1  0.195205  0.804795  0.804795  1
  Er  Er8  1  0.804795  0.195205  0.195205  1
  Er  Er9  1  0.195205  0.195205  0.804795  1
  Er  Er10  1  0.445205  0.054795  0.445205  1
  Er  Er11  1  0.195205  0.804795  0.195205  1
  Al  Al12  1  0.625000  0.625000  0.625000  1
  Al  Al13  1  0.125000  0.625000  0.625000  1
  Al  Al14  1  0.625000  0.125000  0.625000  1
  Al  Al15  1  0.625000  0.625000  0.125000  1
  Zn  Zn16  1  0.421780  0.421780  0.421780  1
  Zn  Zn17  1  0.515341  0.828220  0.828220  1
  Zn  Zn18  1  0.828220  0.515341  0.828220  1
  Zn  Zn19  1  0.828220  0.828220  0.515341  1
  Zn  Zn20  1  0.421780  0.734659  0.421780  1
  Zn  Zn21  1  0.421780  0.421780  0.734659  1
  Zn  Zn22  1  0.734659  0.421780  0.421780  1
  Zn  Zn23  1  0.828220  0.828220  0.828220  1
  C  C24  1  0.125000  0.125000  0.125000  1
  C  C25  1  0.625000  0.125000  0.125000  1
  C  C26  1  0.125000  0.625000  0.125000  1
  C  C27  1  0.125000  0.125000  0.625000  1
