# generated using pymatgen
data_Sc5BiAsPb
_symmetry_space_group_name_H-M   'P 1'
_cell_length_a   7.51238600
_cell_length_b   8.67153700
_cell_length_c   11.26618400
_cell_angle_alpha   90.00000000
_cell_angle_beta   90.00000000
_cell_angle_gamma   90.00000000
_symmetry_Int_Tables_number   1
_chemical_formula_structural   Sc5BiAsPb
_chemical_formula_sum   'Sc20 Bi4 As4 Pb4'
_cell_volume   733.92353743
_cell_formula_units_Z   4
loop_
 _symmetry_equiv_pos_site_id
 _symmetry_equiv_pos_as_xyz
  1  'x, y, z'
loop_
 _atom_site_type_symbol
 _atom_site_label
 _atom_site_symmetry_multiplicity
 _atom_site_fract_x
 _atom_site_fract_y
 _atom_site_fract_z
 _atom_site_occupancy
  Sc  Sc0  1  0.815085  0.943651  0.061392  1
  Sc  Sc1  1  0.315085  0.056349  0.438608  1
  Sc  Sc2  1  0.184915  0.443651  0.938608  1
  Sc  Sc3  1  0.684915  0.556349  0.561392  1
  Sc  Sc4  1  0.184595  0.055288  0.935227  1
  Sc  Sc5  1  0.684595  0.944712  0.564773  1
  Sc  Sc6  1  0.815405  0.555288  0.064773  1
  Sc  Sc7  1  0.315405  0.444712  0.435227  1
  Sc  Sc8  1  0.162045  0.744580  0.213416  1
  Sc  Sc9  1  0.662045  0.255420  0.286584  1
  Sc  Sc10  1  0.837955  0.244580  0.786584  1
  Sc  Sc11  1  0.337955  0.755420  0.713416  1
  Sc  Sc12  1  0.465337  0.749724  0.002911  1
  Sc  Sc13  1  0.965337  0.250276  0.497089  1
  Sc  Sc14  1  0.534663  0.249724  0.997089  1
  Sc  Sc15  1  0.034663  0.750276  0.502911  1
  Sc  Sc16  1  0.641589  0.745338  0.289350  1
  Sc  Sc17  1  0.141589  0.254662  0.210650  1
  Sc  Sc18  1  0.358411  0.245338  0.710650  1
  Sc  Sc19  1  0.858411  0.754662  0.789350  1
  Bi  Bi20  1  0.070660  0.489507  0.675500  1
  Bi  Bi21  1  0.570660  0.510493  0.824500  1
  Bi  Bi22  1  0.929340  0.989507  0.324500  1
  Bi  Bi23  1  0.429340  0.010493  0.175500  1
  As  As24  1  0.415078  0.750348  0.477551  1
  As  As25  1  0.915078  0.249652  0.022449  1
  As  As26  1  0.584922  0.250348  0.522449  1
  As  As27  1  0.084922  0.749652  0.977551  1
  Pb  Pb28  1  0.930911  0.509819  0.328099  1
  Pb  Pb29  1  0.430911  0.490181  0.171901  1
  Pb  Pb30  1  0.069089  0.009819  0.671901  1
  Pb  Pb31  1  0.569089  0.990181  0.828099  1
