# generated using pymatgen
data_NdZr3U4(Co4As3)4
_symmetry_space_group_name_H-M   'P 1'
_cell_length_a   12.67748900
_cell_length_b   12.67748742
_cell_length_c   3.85386900
_cell_angle_alpha   90.00000000
_cell_angle_beta   90.00000000
_cell_angle_gamma   120.00000150
_symmetry_Int_Tables_number   1
_chemical_formula_structural   NdZr3U4(Co4As3)4
_chemical_formula_sum   'Nd1 Zr3 U4 Co16 As12'
_cell_volume   536.40646568
_cell_formula_units_Z   1
loop_
 _symmetry_equiv_pos_site_id
 _symmetry_equiv_pos_as_xyz
  1  'x, y, z'
loop_
 _atom_site_type_symbol
 _atom_site_label
 _atom_site_symmetry_multiplicity
 _atom_site_fract_x
 _atom_site_fract_y
 _atom_site_fract_z
 _atom_site_occupancy
  Nd  Nd0  1  0.666667  0.333333  0.000000  1
  Zr  Zr1  1  0.561407  0.562042  0.000000  1
  Zr  Zr2  1  0.437958  0.999365  0.000000  1
  Zr  Zr3  1  0.000635  0.438593  0.000000  1
  U  U4  1  0.181293  0.180464  0.500000  1
  U  U5  1  0.819536  0.000829  0.500000  1
  U  U6  1  0.999171  0.818707  0.500000  1
  U  U7  1  0.333333  0.666667  0.000000  1
  Co  Co8  1  0.720895  0.722375  0.500000  1
  Co  Co9  1  0.277625  0.998520  0.500000  1
  Co  Co10  1  0.001480  0.279105  0.500000  1
  Co  Co11  1  0.180422  0.374523  0.000000  1
  Co  Co12  1  0.625477  0.805899  0.000000  1
  Co  Co13  1  0.194101  0.819578  0.000000  1
  Co  Co14  1  0.806462  0.629332  0.000000  1
  Co  Co15  1  0.822870  0.193538  0.000000  1
  Co  Co16  1  0.370668  0.177130  0.000000  1
  Co  Co17  1  0.357982  0.480747  0.500000  1
  Co  Co18  1  0.519253  0.877236  0.500000  1
  Co  Co19  1  0.122764  0.642018  0.500000  1
  Co  Co20  1  0.880814  0.524275  0.500000  1
  Co  Co21  1  0.643462  0.119186  0.500000  1
  Co  Co22  1  0.475725  0.356538  0.500000  1
  Co  Co23  1  0.000000  0.000000  0.000000  1
  As  As24  1  0.819410  0.821381  0.000000  1
  As  As25  1  0.178619  0.998029  0.000000  1
  As  As26  1  0.001971  0.180590  0.000000  1
  As  As27  1  0.173561  0.481105  0.500000  1
  As  As28  1  0.518895  0.692457  0.500000  1
  As  As29  1  0.307543  0.826439  0.500000  1
  As  As30  1  0.693448  0.522459  0.500000  1
  As  As31  1  0.829011  0.306552  0.500000  1
  As  As32  1  0.477541  0.170989  0.500000  1
  As  As33  1  0.352866  0.352392  0.000000  1
  As  As34  1  0.647608  0.000475  0.000000  1
  As  As35  1  0.999525  0.647134  0.000000  1
