# generated using pymatgen
data_Hf7Zr12Si16Tc
_symmetry_space_group_name_H-M   'P 1'
_cell_length_a   7.08945037
_cell_length_b   7.08809658
_cell_length_c   12.92738434
_cell_angle_alpha   89.85887535
_cell_angle_beta   89.84087434
_cell_angle_gamma   90.00106025
_symmetry_Int_Tables_number   1
_chemical_formula_structural   Hf7Zr12Si16Tc
_chemical_formula_sum   'Hf7 Zr12 Si16 Tc1'
_cell_volume   649.60575143
_cell_formula_units_Z   1
loop_
 _symmetry_equiv_pos_site_id
 _symmetry_equiv_pos_as_xyz
  1  'x, y, z'
loop_
 _atom_site_type_symbol
 _atom_site_label
 _atom_site_symmetry_multiplicity
 _atom_site_fract_x
 _atom_site_fract_y
 _atom_site_fract_z
 _atom_site_occupancy
  Hf  Hf0  1  0.324466  0.675241  0.249976  1
  Hf  Hf1  1  0.855004  0.001029  0.876268  1
  Hf  Hf2  1  0.146091  0.998897  0.377762  1
  Hf  Hf3  1  0.646003  0.501120  0.376242  1
  Hf  Hf4  1  0.355647  0.495966  0.870860  1
  Hf  Hf5  1  0.001348  0.853637  0.122210  1
  Hf  Hf6  1  0.998693  0.145441  0.623732  1
  Zr  Zr7  1  0.823800  0.823952  0.502181  1
  Zr  Zr8  1  0.176274  0.176124  0.997626  1
  Zr  Zr9  1  0.496572  0.151639  0.532851  1
  Zr  Zr10  1  0.503892  0.848957  0.031414  1
  Zr  Zr11  1  0.651586  0.003248  0.284621  1
  Zr  Zr12  1  0.345011  0.998286  0.782812  1
  Zr  Zr13  1  0.848377  0.503345  0.967062  1
  Zr  Zr14  1  0.151483  0.496240  0.468662  1
  Zr  Zr15  1  0.001442  0.654825  0.717306  1
  Zr  Zr16  1  0.996773  0.348317  0.215506  1
  Zr  Zr17  1  0.499381  0.354397  0.123649  1
  Zr  Zr18  1  0.503550  0.644442  0.629159  1
  Si  Si19  1  0.795347  0.144968  0.071272  1
  Si  Si20  1  0.204808  0.853214  0.572295  1
  Si  Si21  1  0.645889  0.703914  0.823913  1
  Si  Si22  1  0.354946  0.295387  0.322413  1
  Si  Si23  1  0.854550  0.205627  0.428316  1
  Si  Si24  1  0.147207  0.794109  0.927346  1
  Si  Si25  1  0.705062  0.646103  0.178565  1
  Si  Si26  1  0.295322  0.353451  0.676971  1
  Si  Si27  1  0.556315  0.203279  0.931361  1
  Si  Si28  1  0.448711  0.799684  0.436485  1
  Si  Si29  1  0.697741  0.959261  0.688334  1
  Si  Si30  1  0.300590  0.049007  0.187272  1
  Si  Si31  1  0.796978  0.443481  0.567748  1
  Si  Si32  1  0.199623  0.551659  0.062587  1
  Si  Si33  1  0.950156  0.698972  0.312952  1
  Si  Si34  1  0.042165  0.302429  0.811966  1
  Tc  Tc35  1  0.679197  0.320353  0.750303  1
