# generated using pymatgen
data_Ba3HoTlO6
_symmetry_space_group_name_H-M   'P 1'
_cell_length_a   7.33453675
_cell_length_b   7.33434960
_cell_length_c   7.33457100
_cell_angle_alpha   93.36870002
_cell_angle_beta   93.36314409
_cell_angle_gamma   93.36537292
_symmetry_Int_Tables_number   1
_chemical_formula_structural   Ba3HoTlO6
_chemical_formula_sum   'Ba6 Ho2 Tl2 O12'
_cell_volume   392.43082548
_cell_formula_units_Z   2
loop_
 _symmetry_equiv_pos_site_id
 _symmetry_equiv_pos_as_xyz
  1  'x, y, z'
loop_
 _atom_site_type_symbol
 _atom_site_label
 _atom_site_symmetry_multiplicity
 _atom_site_fract_x
 _atom_site_fract_y
 _atom_site_fract_z
 _atom_site_occupancy
  Ba  Ba0  1  0.614232  0.885754  0.250002  1
  Ba  Ba1  1  0.250006  0.614236  0.885767  1
  Ba  Ba2  1  0.885773  0.250010  0.614237  1
  Ba  Ba3  1  0.385770  0.114244  0.749992  1
  Ba  Ba4  1  0.749992  0.385758  0.114226  1
  Ba  Ba5  1  0.114228  0.749985  0.385759  1
  Ho  Ho6  1  0.250031  0.249871  0.250068  1
  Ho  Ho7  1  0.749987  0.750151  0.750002  1
  Tl  Tl8  1  0.999995  0.999991  0.999990  1
  Tl  Tl9  1  0.499990  0.499991  0.499988  1
  O  O10  1  0.299832  0.971177  0.101640  1
  O  O11  1  0.101685  0.299827  0.971196  1
  O  O12  1  0.971194  0.101668  0.299828  1
  O  O13  1  0.528805  0.200169  0.398318  1
  O  O14  1  0.398323  0.528802  0.200174  1
  O  O15  1  0.200173  0.398348  0.528805  1
  O  O16  1  0.700168  0.028827  0.898356  1
  O  O17  1  0.898315  0.700172  0.028803  1
  O  O18  1  0.028802  0.898331  0.700163  1
  O  O19  1  0.471197  0.799832  0.601678  1
  O  O20  1  0.601677  0.471197  0.799819  1
  O  O21  1  0.799826  0.601656  0.471192  1
