# generated using pymatgen
data_LuPbF7
_symmetry_space_group_name_H-M   'P 1'
_cell_length_a   5.74995400
_cell_length_b   6.03242713
_cell_length_c   8.29856983
_cell_angle_alpha   103.33511343
_cell_angle_beta   90.00000000
_cell_angle_gamma   90.00000000
_symmetry_Int_Tables_number   1
_chemical_formula_structural   LuPbF7
_chemical_formula_sum   'Lu2 Pb2 F14'
_cell_volume   280.08469456
_cell_formula_units_Z   2
loop_
 _symmetry_equiv_pos_site_id
 _symmetry_equiv_pos_as_xyz
  1  'x, y, z'
loop_
 _atom_site_type_symbol
 _atom_site_label
 _atom_site_symmetry_multiplicity
 _atom_site_fract_x
 _atom_site_fract_y
 _atom_site_fract_z
 _atom_site_occupancy
  Lu  Lu0  1  0.700179  0.649660  0.683992  1
  Lu  Lu1  1  0.200179  0.350340  0.316008  1
  Pb  Pb2  1  0.706415  0.814736  0.228403  1
  Pb  Pb3  1  0.206415  0.185264  0.771597  1
  F  F4  1  0.925160  0.488367  0.488448  1
  F  F5  1  0.425160  0.511633  0.511552  1
  F  F6  1  0.424610  0.901495  0.762329  1
  F  F7  1  0.924610  0.098505  0.237671  1
  F  F8  1  0.936195  0.942519  0.758756  1
  F  F9  1  0.436195  0.057481  0.241244  1
  F  F10  1  0.983261  0.467197  0.796837  1
  F  F11  1  0.483261  0.532803  0.203163  1
  F  F12  1  0.695137  0.765410  0.972634  1
  F  F13  1  0.195137  0.234590  0.027366  1
  F  F14  1  0.690790  0.877067  0.486347  1
  F  F15  1  0.190790  0.122933  0.513653  1
  F  F16  1  0.514613  0.381599  0.783733  1
  F  F17  1  0.014613  0.618401  0.216267  1
