# generated using pymatgen
data_Cs3RbMn3Zn3Te8
_symmetry_space_group_name_H-M   'P 1'
_cell_length_a   10.56007403
_cell_length_b   10.56490659
_cell_length_c   10.57730975
_cell_angle_alpha   143.95222503
_cell_angle_beta   104.96386443
_cell_angle_gamma   86.17889661
_symmetry_Int_Tables_number   1
_chemical_formula_structural   Cs3RbMn3Zn3Te8
_chemical_formula_sum   'Cs3 Rb1 Mn3 Zn3 Te8'
_cell_volume   649.57130099
_cell_formula_units_Z   1
loop_
 _symmetry_equiv_pos_site_id
 _symmetry_equiv_pos_as_xyz
  1  'x, y, z'
loop_
 _atom_site_type_symbol
 _atom_site_label
 _atom_site_symmetry_multiplicity
 _atom_site_fract_x
 _atom_site_fract_y
 _atom_site_fract_z
 _atom_site_occupancy
  Cs  Cs0  1  0.123399  0.266978  0.389404  1
  Cs  Cs1  1  0.876770  0.733978  0.611252  1
  Cs  Cs2  1  0.621897  0.233085  0.855977  1
  Rb  Rb3  1  0.376197  0.764579  0.140441  1
  Mn  Mn4  1  0.486683  0.749476  0.736184  1
  Mn  Mn5  1  0.986100  0.249776  0.735932  1
  Mn  Mn6  1  0.012612  0.750397  0.262444  1
  Zn  Zn7  1  0.249182  0.249925  0.999009  1
  Zn  Zn8  1  0.749043  0.749858  0.999136  1
  Zn  Zn9  1  0.516501  0.250051  0.266924  1
  Te  Te10  1  0.478849  0.573298  0.353173  1
  Te  Te11  1  0.521053  0.418874  0.640604  1
  Te  Te12  1  0.223267  0.126394  0.645525  1
  Te  Te13  1  0.281883  0.926759  0.908499  1
  Te  Te14  1  0.775030  0.874868  0.352797  1
  Te  Te15  1  0.720573  0.080246  0.102138  1
  Te  Te16  1  0.020061  0.375800  0.097542  1
  Te  Te17  1  0.980902  0.625657  0.903020  1
