# generated using pymatgen
data_YHfSn2IrRh
_symmetry_space_group_name_H-M   'P 1'
_cell_length_a   7.46382100
_cell_length_b   7.46382160
_cell_length_c   7.58696300
_cell_angle_alpha   90.00000000
_cell_angle_beta   90.00000000
_cell_angle_gamma   120.00000177
_symmetry_Int_Tables_number   1
_chemical_formula_structural   YHfSn2IrRh
_chemical_formula_sum   'Y3 Hf3 Sn6 Ir3 Rh3'
_cell_volume   366.03368655
_cell_formula_units_Z   3
loop_
 _symmetry_equiv_pos_site_id
 _symmetry_equiv_pos_as_xyz
  1  'x, y, z'
loop_
 _atom_site_type_symbol
 _atom_site_label
 _atom_site_symmetry_multiplicity
 _atom_site_fract_x
 _atom_site_fract_y
 _atom_site_fract_z
 _atom_site_occupancy
  Y  Y0  1  0.001871  0.409069  0.749219  1
  Y  Y1  1  0.590931  0.592802  0.749219  1
  Y  Y2  1  0.407198  0.998129  0.749219  1
  Hf  Hf3  1  0.000255  0.393906  0.250409  1
  Hf  Hf4  1  0.606094  0.606349  0.250409  1
  Hf  Hf5  1  0.393651  0.999745  0.250409  1
  Sn  Sn6  1  0.264981  0.265056  0.493215  1
  Sn  Sn7  1  0.000075  0.735019  0.493215  1
  Sn  Sn8  1  0.998128  0.733504  0.006804  1
  Sn  Sn9  1  0.734944  0.999925  0.493215  1
  Sn  Sn10  1  0.735376  0.001872  0.006804  1
  Sn  Sn11  1  0.266496  0.264624  0.006804  1
  Ir  Ir12  1  0.333333  0.666667  0.459132  1
  Ir  Ir13  1  0.666667  0.333333  0.461503  1
  Ir  Ir14  1  0.333333  0.666667  0.039852  1
  Rh  Rh15  1  0.000000  0.000000  0.749613  1
  Rh  Rh16  1  0.000000  0.000000  0.250543  1
  Rh  Rh17  1  0.666667  0.333333  0.040417  1
