# generated using pymatgen
data_Sm2Co9Tc3As7
_symmetry_space_group_name_H-M   'P 1'
_cell_length_a   3.84110800
_cell_length_b   9.38266850
_cell_length_c   9.38267000
_cell_angle_alpha   120.00000339
_cell_angle_beta   90.00000000
_cell_angle_gamma   90.00000000
_symmetry_Int_Tables_number   1
_chemical_formula_structural   Sm2Co9Tc3As7
_chemical_formula_sum   'Sm2 Co9 Tc3 As7'
_cell_volume   292.84644055
_cell_formula_units_Z   1
loop_
 _symmetry_equiv_pos_site_id
 _symmetry_equiv_pos_as_xyz
  1  'x, y, z'
loop_
 _atom_site_type_symbol
 _atom_site_label
 _atom_site_symmetry_multiplicity
 _atom_site_fract_x
 _atom_site_fract_y
 _atom_site_fract_z
 _atom_site_occupancy
  Sm  Sm0  1  0.000000  0.666667  0.333333  1
  Sm  Sm1  1  0.500000  0.333333  0.666667  1
  Co  Co2  1  0.000000  0.569900  0.941132  1
  Co  Co3  1  0.000000  0.371232  0.430100  1
  Co  Co4  1  0.000000  0.058868  0.628768  1
  Co  Co5  1  0.000000  0.875117  0.155469  1
  Co  Co6  1  0.000000  0.280351  0.124883  1
  Co  Co7  1  0.000000  0.844531  0.719649  1
  Co  Co8  1  0.500000  0.946792  0.379570  1
  Co  Co9  1  0.500000  0.432776  0.053208  1
  Co  Co10  1  0.500000  0.620430  0.567224  1
  Tc  Tc11  1  0.500000  0.783650  0.899878  1
  Tc  Tc12  1  0.500000  0.116228  0.216350  1
  Tc  Tc13  1  0.500000  0.100122  0.883772  1
  As  As14  1  0.000000  0.000000  0.000000  1
  As  As15  1  0.500000  0.705993  0.113856  1
  As  As16  1  0.500000  0.407864  0.294007  1
  As  As17  1  0.500000  0.886144  0.592136  1
  As  As18  1  0.000000  0.589737  0.701343  1
  As  As19  1  0.000000  0.111606  0.410263  1
  As  As20  1  0.000000  0.298657  0.888394  1
