# generated using pymatgen
data_Na3Yb2IrO6
_symmetry_space_group_name_H-M   'P 1'
_cell_length_a   5.65556791
_cell_length_b   5.65556746
_cell_length_c   5.79462674
_cell_angle_alpha   80.51944967
_cell_angle_beta   80.51945449
_cell_angle_gamma   119.91975109
_symmetry_Int_Tables_number   1
_chemical_formula_structural   Na3Yb2IrO6
_chemical_formula_sum   'Na3 Yb2 Ir1 O6'
_cell_volume   151.69757351
_cell_formula_units_Z   1
loop_
 _symmetry_equiv_pos_site_id
 _symmetry_equiv_pos_as_xyz
  1  'x, y, z'
loop_
 _atom_site_type_symbol
 _atom_site_label
 _atom_site_symmetry_multiplicity
 _atom_site_fract_x
 _atom_site_fract_y
 _atom_site_fract_z
 _atom_site_occupancy
  Na  Na0  1  0.500000  0.500000  0.500000  1
  Na  Na1  1  0.163446  0.836554  0.500000  1
  Na  Na2  1  0.836554  0.163446  0.500000  1
  Yb  Yb3  1  0.331952  0.668048  0.000000  1
  Yb  Yb4  1  0.668048  0.331952  0.000000  1
  Ir  Ir5  1  0.000000  0.000000  0.000000  1
  O  O6  1  0.224971  0.224971  0.204831  1
  O  O7  1  0.775029  0.775029  0.795169  1
  O  O8  1  0.630660  0.928067  0.214722  1
  O  O9  1  0.071933  0.369340  0.785278  1
  O  O10  1  0.928067  0.630660  0.214722  1
  O  O11  1  0.369340  0.071933  0.785278  1
