# generated using pymatgen
data_Ti2V3Fe
_symmetry_space_group_name_H-M   'P 1'
_cell_length_a   4.86291842
_cell_length_b   4.86291931
_cell_length_c   4.86291915
_cell_angle_alpha   62.10038033
_cell_angle_beta   62.10037413
_cell_angle_gamma   62.10037560
_symmetry_Int_Tables_number   1
_chemical_formula_structural   Ti2V3Fe
_chemical_formula_sum   'Ti2 V3 Fe1'
_cell_volume   85.13348090
_cell_formula_units_Z   1
loop_
 _symmetry_equiv_pos_site_id
 _symmetry_equiv_pos_as_xyz
  1  'x, y, z'
loop_
 _atom_site_type_symbol
 _atom_site_label
 _atom_site_symmetry_multiplicity
 _atom_site_fract_x
 _atom_site_fract_y
 _atom_site_fract_z
 _atom_site_occupancy
  Ti  Ti0  1  0.625230  0.625230  0.625230  1
  Ti  Ti1  1  0.374770  0.374770  0.374770  1
  V  V2  1  0.000000  0.500000  0.000000  1
  V  V3  1  0.500000  0.000000  0.000000  1
  V  V4  1  0.000000  0.000000  0.500000  1
  Fe  Fe5  1  0.000000  0.000000  0.000000  1
