# generated using pymatgen
data_Er6Zn17TeIr6
_symmetry_space_group_name_H-M   'P 1'
_cell_length_a   8.97566483
_cell_length_b   8.97566484
_cell_length_c   8.97566500
_cell_angle_alpha   60.00000309
_cell_angle_beta   60.00000306
_cell_angle_gamma   60.00000420
_symmetry_Int_Tables_number   1
_chemical_formula_structural   Er6Zn17TeIr6
_chemical_formula_sum   'Er6 Zn17 Te1 Ir6'
_cell_volume   511.31075184
_cell_formula_units_Z   1
loop_
 _symmetry_equiv_pos_site_id
 _symmetry_equiv_pos_as_xyz
  1  'x, y, z'
loop_
 _atom_site_type_symbol
 _atom_site_label
 _atom_site_symmetry_multiplicity
 _atom_site_fract_x
 _atom_site_fract_y
 _atom_site_fract_z
 _atom_site_occupancy
  Er  Er0  1  0.731439  0.268542  0.268189  1
  Er  Er1  1  0.731458  0.268561  0.731811  1
  Er  Er2  1  0.731597  0.731597  0.268413  1
  Er  Er3  1  0.268561  0.731458  0.731811  1
  Er  Er4  1  0.268542  0.731439  0.268189  1
  Er  Er5  1  0.268403  0.268403  0.731587  1
  Zn  Zn6  1  0.615837  0.127994  0.128078  1
  Zn  Zn7  1  0.127994  0.615837  0.128078  1
  Zn  Zn8  1  0.128018  0.128018  0.615846  1
  Zn  Zn9  1  0.128023  0.128023  0.128112  1
  Zn  Zn10  1  0.384163  0.872006  0.871922  1
  Zn  Zn11  1  0.872006  0.384163  0.871922  1
  Zn  Zn12  1  0.871982  0.871982  0.384154  1
  Zn  Zn13  1  0.871977  0.871977  0.871888  1
  Zn  Zn14  1  0.000000  0.000000  0.000000  1
  Zn  Zn15  1  0.995121  0.334943  0.334964  1
  Zn  Zn16  1  0.334943  0.995121  0.334964  1
  Zn  Zn17  1  0.335041  0.335041  0.994840  1
  Zn  Zn18  1  0.335024  0.335024  0.335051  1
  Zn  Zn19  1  0.004879  0.665057  0.665036  1
  Zn  Zn20  1  0.665057  0.004879  0.665036  1
  Zn  Zn21  1  0.664959  0.664959  0.005160  1
  Zn  Zn22  1  0.664976  0.664976  0.664949  1
  Te  Te23  1  0.500000  0.500000  0.500000  1
  Ir  Ir24  1  0.500000  0.000000  0.000000  1
  Ir  Ir25  1  0.500000  0.000000  0.500000  1
  Ir  Ir26  1  0.500000  0.500000  0.000000  1
  Ir  Ir27  1  0.000000  0.500000  0.500000  1
  Ir  Ir28  1  0.000000  0.500000  0.000000  1
  Ir  Ir29  1  0.000000  0.000000  0.500000  1
