# generated using pymatgen
data_Ta5Nb5Si5Sn
_symmetry_space_group_name_H-M   'P 1'
_cell_length_a   7.63746338
_cell_length_b   7.62494925
_cell_length_c   7.63063964
_cell_angle_alpha   127.97555522
_cell_angle_beta   128.05842272
_cell_angle_gamma   76.59457482
_symmetry_Int_Tables_number   1
_chemical_formula_structural   Ta5Nb5Si5Sn
_chemical_formula_sum   'Ta5 Nb5 Si5 Sn1'
_cell_volume   267.90988607
_cell_formula_units_Z   1
loop_
 _symmetry_equiv_pos_site_id
 _symmetry_equiv_pos_as_xyz
  1  'x, y, z'
loop_
 _atom_site_type_symbol
 _atom_site_label
 _atom_site_symmetry_multiplicity
 _atom_site_fract_x
 _atom_site_fract_y
 _atom_site_fract_z
 _atom_site_occupancy
  Ta  Ta0  1  0.301221  0.474942  0.482843  1
  Ta  Ta1  1  0.475556  0.992253  0.174679  1
  Ta  Ta2  1  0.817797  0.301363  0.826015  1
  Ta  Ta3  1  0.002725  0.002835  0.000498  1
  Ta  Ta4  1  0.498370  0.498354  0.999312  1
  Nb  Nb5  1  0.025013  0.197286  0.515534  1
  Nb  Nb6  1  0.681982  0.509733  0.484807  1
  Nb  Nb7  1  0.510505  0.025479  0.828566  1
  Nb  Nb8  1  0.197290  0.681519  0.171604  1
  Nb  Nb9  1  0.990158  0.817082  0.515836  1
  Si  Si10  1  0.249923  0.249786  0.000197  1
  Si  Si11  1  0.369244  0.130643  0.500335  1
  Si  Si12  1  0.630207  0.869139  0.499585  1
  Si  Si13  1  0.868917  0.369121  0.238505  1
  Si  Si14  1  0.130854  0.630398  0.761434  1
  Sn  Sn15  1  0.750237  0.750066  0.000250  1
