# generated using pymatgen
data_TbCe3(GaIr)4
_symmetry_space_group_name_H-M   'P 1'
_cell_length_a   4.37289000
_cell_length_b   6.84524530
_cell_length_c   7.88402307
_cell_angle_alpha   90.41668932
_cell_angle_beta   90.00000000
_cell_angle_gamma   90.00000000
_symmetry_Int_Tables_number   1
_chemical_formula_structural   TbCe3(GaIr)4
_chemical_formula_sum   'Tb1 Ce3 Ga4 Ir4'
_cell_volume   235.99020090
_cell_formula_units_Z   1
loop_
 _symmetry_equiv_pos_site_id
 _symmetry_equiv_pos_as_xyz
  1  'x, y, z'
loop_
 _atom_site_type_symbol
 _atom_site_label
 _atom_site_symmetry_multiplicity
 _atom_site_fract_x
 _atom_site_fract_y
 _atom_site_fract_z
 _atom_site_occupancy
  Tb  Tb0  1  0.250000  0.531605  0.190731  1
  Ce  Ce1  1  0.750000  0.469541  0.815112  1
  Ce  Ce2  1  0.750000  0.968697  0.689636  1
  Ce  Ce3  1  0.250000  0.032154  0.310519  1
  Ga  Ga4  1  0.250000  0.647924  0.563723  1
  Ga  Ga5  1  0.750000  0.354030  0.431328  1
  Ga  Ga6  1  0.750000  0.845329  0.068639  1
  Ga  Ga7  1  0.250000  0.151812  0.934490  1
  Ir  Ir8  1  0.250000  0.761312  0.883609  1
  Ir  Ir9  1  0.750000  0.235053  0.110096  1
  Ir  Ir10  1  0.750000  0.741740  0.390504  1
  Ir  Ir11  1  0.250000  0.260801  0.611611  1
