# generated using pymatgen
data_Tm2V3Co9Si6As
_symmetry_space_group_name_H-M   'P 1'
_cell_length_a   3.67134300
_cell_length_b   9.25369060
_cell_length_c   9.26492154
_cell_angle_alpha   119.87547328
_cell_angle_beta   90.00000000
_cell_angle_gamma   90.00000000
_symmetry_Int_Tables_number   1
_chemical_formula_structural   Tm2V3Co9Si6As
_chemical_formula_sum   'Tm2 V3 Co9 Si6 As1'
_cell_volume   272.93290974
_cell_formula_units_Z   1
loop_
 _symmetry_equiv_pos_site_id
 _symmetry_equiv_pos_as_xyz
  1  'x, y, z'
loop_
 _atom_site_type_symbol
 _atom_site_label
 _atom_site_symmetry_multiplicity
 _atom_site_fract_x
 _atom_site_fract_y
 _atom_site_fract_z
 _atom_site_occupancy
  Tm  Tm0  1  0.000000  0.667538  0.335373  1
  Tm  Tm1  1  0.500000  0.333902  0.660906  1
  V  V2  1  0.500000  0.784624  0.889313  1
  V  V3  1  0.500000  0.103230  0.213487  1
  V  V4  1  0.500000  0.107100  0.895538  1
  Co  Co5  1  0.000000  0.576340  0.945227  1
  Co  Co6  1  0.000000  0.371164  0.426853  1
  Co  Co7  1  0.000000  0.050516  0.623542  1
  Co  Co8  1  0.000000  0.879093  0.156559  1
  Co  Co9  1  0.000000  0.277165  0.122093  1
  Co  Co10  1  0.000000  0.844073  0.724307  1
  Co  Co11  1  0.500000  0.951514  0.385487  1
  Co  Co12  1  0.500000  0.439079  0.056440  1
  Co  Co13  1  0.500000  0.615912  0.566441  1
  Si  Si14  1  0.000000  0.999205  0.000881  1
  Si  Si15  1  0.500000  0.712798  0.119060  1
  Si  Si16  1  0.500000  0.406516  0.291832  1
  Si  Si17  1  0.500000  0.882719  0.594188  1
  Si  Si18  1  0.000000  0.586015  0.697645  1
  Si  Si19  1  0.000000  0.111780  0.412664  1
  As  As20  1  0.000000  0.299716  0.882164  1
