# generated using pymatgen
data_Y12CdFe4Bi
_symmetry_space_group_name_H-M   'P 1'
_cell_length_a   8.47861755
_cell_length_b   8.47861779
_cell_length_c   8.47861732
_cell_angle_alpha   110.09366977
_cell_angle_beta   111.32476183
_cell_angle_gamma   107.02506901
_symmetry_Int_Tables_number   1
_chemical_formula_structural   Y12CdFe4Bi
_chemical_formula_sum   'Y12 Cd1 Fe4 Bi1'
_cell_volume   468.50030221
_cell_formula_units_Z   1
loop_
 _symmetry_equiv_pos_site_id
 _symmetry_equiv_pos_as_xyz
  1  'x, y, z'
loop_
 _atom_site_type_symbol
 _atom_site_label
 _atom_site_symmetry_multiplicity
 _atom_site_fract_x
 _atom_site_fract_y
 _atom_site_fract_z
 _atom_site_occupancy
  Y  Y0  1  0.288429  0.186740  0.475169  1
  Y  Y1  1  0.711571  0.813260  0.524831  1
  Y  Y2  1  0.288429  0.813260  0.101691  1
  Y  Y3  1  0.711571  0.186740  0.898309  1
  Y  Y4  1  0.610704  0.309484  0.301219  1
  Y  Y5  1  0.389296  0.690516  0.698781  1
  Y  Y6  1  0.008265  0.309484  0.698781  1
  Y  Y7  1  0.991735  0.690516  0.301219  1
  Y  Y8  1  0.222430  0.437143  0.214713  1
  Y  Y9  1  0.777570  0.562857  0.785287  1
  Y  Y10  1  0.222430  0.007717  0.785287  1
  Y  Y11  1  0.777570  0.992283  0.214713  1
  Cd  Cd12  1  0.000000  0.000000  0.000000  1
  Fe  Fe13  1  0.000000  0.388271  0.388271  1
  Fe  Fe14  1  0.000000  0.611729  0.611729  1
  Fe  Fe15  1  0.393733  0.893733  0.500000  1
  Fe  Fe16  1  0.606267  0.106267  0.500000  1
  Bi  Bi17  1  0.500000  0.500000  0.000000  1
