# generated using pymatgen
data_NaAl2SiAu
_symmetry_space_group_name_H-M   'P 1'
_cell_length_a   4.07770642
_cell_length_b   4.07770619
_cell_length_c   6.41260943
_cell_angle_alpha   71.46132801
_cell_angle_beta   71.46133404
_cell_angle_gamma   89.99999470
_symmetry_Int_Tables_number   1
_chemical_formula_structural   NaAl2SiAu
_chemical_formula_sum   'Na1 Al2 Si1 Au1'
_cell_volume   95.24009208
_cell_formula_units_Z   1
loop_
 _symmetry_equiv_pos_site_id
 _symmetry_equiv_pos_as_xyz
  1  'x, y, z'
loop_
 _atom_site_type_symbol
 _atom_site_label
 _atom_site_symmetry_multiplicity
 _atom_site_fract_x
 _atom_site_fract_y
 _atom_site_fract_z
 _atom_site_occupancy
  Na  Na0  1  0.000578  0.000578  0.998842  1
  Al  Al1  1  0.751212  0.251212  0.497577  1
  Al  Al2  1  0.251212  0.751212  0.497577  1
  Si  Si3  1  0.389144  0.389144  0.221711  1
  Au  Au4  1  0.607852  0.607852  0.784296  1
