# generated using pymatgen
data_Eu2YSc2(GaO4)3
_symmetry_space_group_name_H-M   'P 1'
_cell_length_a   10.89284501
_cell_length_b   10.89213376
_cell_length_c   10.89251400
_cell_angle_alpha   109.47484028
_cell_angle_beta   109.47751202
_cell_angle_gamma   109.46122891
_symmetry_Int_Tables_number   1
_chemical_formula_structural   Eu2YSc2(GaO4)3
_chemical_formula_sum   'Eu8 Y4 Sc8 Ga12 O48'
_cell_volume   994.85766633
_cell_formula_units_Z   4
loop_
 _symmetry_equiv_pos_site_id
 _symmetry_equiv_pos_as_xyz
  1  'x, y, z'
loop_
 _atom_site_type_symbol
 _atom_site_label
 _atom_site_symmetry_multiplicity
 _atom_site_fract_x
 _atom_site_fract_y
 _atom_site_fract_z
 _atom_site_occupancy
  Eu  Eu0  1  0.249735  0.375136  0.124642  1
  Eu  Eu1  1  0.374886  0.749542  0.124645  1
  Eu  Eu2  1  0.874510  0.624900  0.249250  1
  Eu  Eu3  1  0.375009  0.124954  0.249982  1
  Eu  Eu4  1  0.125170  0.250691  0.375472  1
  Eu  Eu5  1  0.750101  0.124826  0.375225  1
  Eu  Eu6  1  0.874815  0.750120  0.625567  1
  Eu  Eu7  1  0.250681  0.875251  0.625665  1
  Y  Y8  1  0.125077  0.375178  0.750322  1
  Y  Y9  1  0.625317  0.875229  0.750587  1
  Y  Y10  1  0.625361  0.250130  0.874572  1
  Y  Y11  1  0.749329  0.624546  0.874545  1
  Sc  Sc12  1  0.999210  0.999434  0.999143  1
  Sc  Sc13  1  0.500279  0.999951  0.999455  1
  Sc  Sc14  1  0.998912  0.499194  0.998726  1
  Sc  Sc15  1  0.499690  0.499509  0.998612  1
  Sc  Sc16  1  0.000391  0.000764  0.501295  1
  Sc  Sc17  1  0.500896  0.500520  0.500952  1
  Sc  Sc18  1  0.500500  0.000426  0.501047  1
  Sc  Sc19  1  0.000015  0.500192  0.500910  1
  Ga  Ga20  1  0.749960  0.874410  0.123435  1
  Ga  Ga21  1  0.873454  0.249084  0.123333  1
  Ga  Ga22  1  0.624935  0.374731  0.248932  1
  Ga  Ga23  1  0.124162  0.874367  0.248993  1
  Ga  Ga24  1  0.624850  0.750025  0.375922  1
  Ga  Ga25  1  0.251008  0.625813  0.375925  1
  Ga  Ga26  1  0.750768  0.375649  0.626656  1
  Ga  Ga27  1  0.375866  0.250923  0.626646  1
  Ga  Ga28  1  0.874378  0.125231  0.750282  1
  Ga  Ga29  1  0.375804  0.624819  0.750138  1
  Ga  Ga30  1  0.123960  0.748839  0.874923  1
  Ga  Ga31  1  0.250909  0.126039  0.874841  1
  O  O32  1  0.316321  0.904011  0.026792  1
  O  O33  1  0.210642  0.122942  0.026872  1
  O  O34  1  0.709848  0.681246  0.082702  1
  O  O35  1  0.872804  0.401520  0.082678  1
  O  O36  1  0.969367  0.683465  0.092480  1
  O  O37  1  0.623530  0.409449  0.092747  1
  O  O38  1  0.595571  0.912053  0.123148  1
  O  O39  1  0.027390  0.210923  0.122921  1
  O  O40  1  0.210485  0.588024  0.183330  1
  O  O41  1  0.472932  0.595315  0.183291  1
  O  O42  1  0.587614  0.182909  0.210692  1
  O  O43  1  0.123274  0.027843  0.210515  1
  O  O44  1  0.316614  0.911919  0.289053  1
  O  O45  1  0.472523  0.376953  0.289005  1
  O  O46  1  0.904018  0.027042  0.316545  1
  O  O47  1  0.912165  0.289240  0.316266  1
  O  O48  1  0.587835  0.904670  0.377165  1
  O  O49  1  0.289630  0.472537  0.377089  1
  O  O50  1  0.816259  0.527952  0.404779  1
  O  O51  1  0.087952  0.876746  0.404480  1
  O  O52  1  0.095637  0.623289  0.412361  1
  O  O53  1  0.816692  0.789111  0.412574  1
  O  O54  1  0.596191  0.183527  0.472801  1
  O  O55  1  0.376557  0.289357  0.472860  1
  O  O56  1  0.623714  0.714070  0.530912  1
  O  O57  1  0.407446  0.816613  0.530857  1
  O  O58  1  0.184290  0.214132  0.590944  1
  O  O59  1  0.906420  0.376346  0.590721  1
  O  O60  1  0.916653  0.126900  0.598743  1
  O  O61  1  0.181746  0.471983  0.598690  1
  O  O62  1  0.416704  0.098401  0.627205  1
  O  O63  1  0.710878  0.528906  0.627196  1
  O  O64  1  0.087597  0.711517  0.683446  1
  O  O65  1  0.095373  0.971669  0.683741  1
  O  O66  1  0.682234  0.086531  0.713444  1
  O  O67  1  0.531226  0.626763  0.713281  1
  O  O68  1  0.416889  0.818143  0.789715  1
  O  O69  1  0.872746  0.971230  0.789288  1
  O  O70  1  0.531856  0.404607  0.818254  1
  O  O71  1  0.786488  0.413716  0.818280  1
  O  O72  1  0.969340  0.785603  0.876328  1
  O  O73  1  0.407140  0.091007  0.876446  1
  O  O74  1  0.028532  0.318563  0.901654  1
  O  O75  1  0.373036  0.583066  0.901605  1
  O  O76  1  0.286161  0.316637  0.909494  1
  O  O77  1  0.123380  0.592869  0.909508  1
  O  O78  1  0.681642  0.095157  0.968201  1
  O  O79  1  0.786710  0.873093  0.968243  1
