# generated using pymatgen
data_Ce3DyScRu3
_symmetry_space_group_name_H-M   'P 1'
_cell_length_a   6.66163400
_cell_length_b   7.88742179
_cell_length_c   7.88742000
_cell_angle_alpha   120.00000928
_cell_angle_beta   90.00000000
_cell_angle_gamma   90.00000000
_symmetry_Int_Tables_number   1
_chemical_formula_structural   Ce3DyScRu3
_chemical_formula_sum   'Ce6 Dy2 Sc2 Ru6'
_cell_volume   358.90655679
_cell_formula_units_Z   2
loop_
 _symmetry_equiv_pos_site_id
 _symmetry_equiv_pos_as_xyz
  1  'x, y, z'
loop_
 _atom_site_type_symbol
 _atom_site_label
 _atom_site_symmetry_multiplicity
 _atom_site_fract_x
 _atom_site_fract_y
 _atom_site_fract_z
 _atom_site_occupancy
  Ce  Ce0  1  0.744766  0.753270  0.753270  1
  Ce  Ce1  1  0.255234  0.246730  0.246730  1
  Ce  Ce2  1  0.744766  0.000000  0.246730  1
  Ce  Ce3  1  0.255234  0.000000  0.753270  1
  Ce  Ce4  1  0.744766  0.246730  0.000000  1
  Ce  Ce5  1  0.255234  0.753270  0.000000  1
  Dy  Dy6  1  0.000000  0.666667  0.333333  1
  Dy  Dy7  1  0.000000  0.333333  0.666667  1
  Sc  Sc8  1  0.500000  0.333333  0.666667  1
  Sc  Sc9  1  0.500000  0.666667  0.333333  1
  Ru  Ru10  1  0.730016  0.369975  0.369975  1
  Ru  Ru11  1  0.269984  0.630025  0.630025  1
  Ru  Ru12  1  0.730016  0.000000  0.630025  1
  Ru  Ru13  1  0.269984  0.000000  0.369975  1
  Ru  Ru14  1  0.730016  0.630025  0.000000  1
  Ru  Ru15  1  0.269984  0.369975  0.000000  1
