# generated using pymatgen
data_Mn5Al(GaRh2)6
_symmetry_space_group_name_H-M   'P 1'
_cell_length_a   4.29721600
_cell_length_b   6.05386400
_cell_length_c   12.90208200
_cell_angle_alpha   89.99994496
_cell_angle_beta   89.99938692
_cell_angle_gamma   89.99965631
_symmetry_Int_Tables_number   1
_chemical_formula_structural   Mn5Al(GaRh2)6
_chemical_formula_sum   'Mn5 Al1 Ga6 Rh12'
_cell_volume   335.64458275
_cell_formula_units_Z   1
loop_
 _symmetry_equiv_pos_site_id
 _symmetry_equiv_pos_as_xyz
  1  'x, y, z'
loop_
 _atom_site_type_symbol
 _atom_site_label
 _atom_site_symmetry_multiplicity
 _atom_site_fract_x
 _atom_site_fract_y
 _atom_site_fract_z
 _atom_site_occupancy
  Mn  Mn0  1  0.499824  0.999999  0.166318  1
  Mn  Mn1  1  0.999818  0.500000  0.332915  1
  Mn  Mn2  1  0.499999  0.000000  0.500000  1
  Mn  Mn3  1  0.000182  0.500000  0.667085  1
  Mn  Mn4  1  0.500176  0.000001  0.833681  1
  Al  Al5  1  0.000000  0.500000  0.000000  1
  Ga  Ga6  1  0.000000  0.000000  0.000000  1
  Ga  Ga7  1  0.499822  0.500000  0.170639  1
  Ga  Ga8  1  0.999795  0.000000  0.332259  1
  Ga  Ga9  1  0.499999  0.500000  0.500000  1
  Ga  Ga10  1  0.000205  0.000000  0.667740  1
  Ga  Ga11  1  0.500178  0.500000  0.829360  1
  Rh  Rh12  1  0.500005  0.254820  0.000000  1
  Rh  Rh13  1  0.499993  0.745180  0.000000  1
  Rh  Rh14  1  0.999834  0.253146  0.163211  1
  Rh  Rh15  1  0.999832  0.746853  0.163212  1
  Rh  Rh16  1  0.499818  0.248747  0.333328  1
  Rh  Rh17  1  0.499816  0.751254  0.333328  1
  Rh  Rh18  1  0.000000  0.250475  0.500000  1
  Rh  Rh19  1  0.000000  0.749525  0.500000  1
  Rh  Rh20  1  0.500184  0.248746  0.666672  1
  Rh  Rh21  1  0.500182  0.751253  0.666672  1
  Rh  Rh22  1  0.000168  0.253147  0.836788  1
  Rh  Rh23  1  0.000166  0.746854  0.836789  1
