# generated using pymatgen
data_La6Pr4Si5Ag
_symmetry_space_group_name_H-M   'P 1'
_cell_length_a   7.88042826
_cell_length_b   7.88042784
_cell_length_c   9.17413000
_cell_angle_alpha   115.43531172
_cell_angle_beta   115.43531830
_cell_angle_gamma   90.00000170
_symmetry_Int_Tables_number   1
_chemical_formula_structural   La6Pr4Si5Ag
_chemical_formula_sum   'La6 Pr4 Si5 Ag1'
_cell_volume   452.58951022
_cell_formula_units_Z   1
loop_
 _symmetry_equiv_pos_site_id
 _symmetry_equiv_pos_as_xyz
  1  'x, y, z'
loop_
 _atom_site_type_symbol
 _atom_site_label
 _atom_site_symmetry_multiplicity
 _atom_site_fract_x
 _atom_site_fract_y
 _atom_site_fract_z
 _atom_site_occupancy
  La  La0  1  0.473979  0.473979  0.947957  1
  La  La1  1  0.026545  0.026545  0.053089  1
  La  La2  1  0.961553  0.817092  0.285009  1
  La  La3  1  0.323456  0.467917  0.285009  1
  La  La4  1  0.817092  0.323456  0.285009  1
  La  La5  1  0.467917  0.961553  0.285009  1
  Pr  Pr6  1  0.032653  0.176436  0.715861  1
  Pr  Pr7  1  0.683206  0.539425  0.715861  1
  Pr  Pr8  1  0.176436  0.683206  0.715861  1
  Pr  Pr9  1  0.539425  0.032653  0.715861  1
  Si  Si10  1  0.251687  0.251687  0.503373  1
  Si  Si11  1  0.611697  0.885661  0.997213  1
  Si  Si12  1  0.385516  0.111552  0.997213  1
  Si  Si13  1  0.885661  0.385516  0.997213  1
  Si  Si14  1  0.111552  0.611697  0.997213  1
  Ag  Ag15  1  0.751624  0.751624  0.503250  1
