# generated using pymatgen
data_HoHf(Co5P3)2
_symmetry_space_group_name_H-M   'P 1'
_cell_length_a   3.62007700
_cell_length_b   10.20311900
_cell_length_c   11.66421300
_cell_angle_alpha   90.00000000
_cell_angle_beta   90.00000000
_cell_angle_gamma   90.00000000
_symmetry_Int_Tables_number   1
_chemical_formula_structural   HoHf(Co5P3)2
_chemical_formula_sum   'Ho2 Hf2 Co20 P12'
_cell_volume   430.83026275
_cell_formula_units_Z   2
loop_
 _symmetry_equiv_pos_site_id
 _symmetry_equiv_pos_as_xyz
  1  'x, y, z'
loop_
 _atom_site_type_symbol
 _atom_site_label
 _atom_site_symmetry_multiplicity
 _atom_site_fract_x
 _atom_site_fract_y
 _atom_site_fract_z
 _atom_site_occupancy
  Ho  Ho0  1  0.750000  0.417528  0.296777  1
  Ho  Ho1  1  0.750000  0.082472  0.796777  1
  Hf  Hf2  1  0.250000  0.581715  0.701148  1
  Hf  Hf3  1  0.250000  0.918285  0.201148  1
  Co  Co4  1  0.250000  0.719297  0.993837  1
  Co  Co5  1  0.250000  0.780703  0.493837  1
  Co  Co6  1  0.750000  0.282073  0.008517  1
  Co  Co7  1  0.750000  0.217927  0.508517  1
  Co  Co8  1  0.250000  0.409985  0.490658  1
  Co  Co9  1  0.250000  0.090015  0.990658  1
  Co  Co10  1  0.750000  0.593405  0.517057  1
  Co  Co11  1  0.750000  0.906595  0.017057  1
  Co  Co12  1  0.250000  0.221665  0.177874  1
  Co  Co13  1  0.250000  0.278335  0.677874  1
  Co  Co14  1  0.750000  0.776289  0.822713  1
  Co  Co15  1  0.750000  0.723711  0.322713  1
  Co  Co16  1  0.250000  0.880240  0.698821  1
  Co  Co17  1  0.250000  0.619760  0.198821  1
  Co  Co18  1  0.750000  0.112828  0.298829  1
  Co  Co19  1  0.750000  0.387172  0.798829  1
  Co  Co20  1  0.250000  0.470762  0.927902  1
  Co  Co21  1  0.250000  0.029238  0.427902  1
  Co  Co22  1  0.750000  0.535481  0.066524  1
  Co  Co23  1  0.750000  0.964519  0.566524  1
  P  P24  1  0.250000  0.419363  0.110432  1
  P  P25  1  0.250000  0.080637  0.610432  1
  P  P26  1  0.750000  0.581978  0.883719  1
  P  P27  1  0.750000  0.918022  0.383719  1
  P  P28  1  0.250000  0.269897  0.872050  1
  P  P29  1  0.250000  0.230103  0.372050  1
  P  P30  1  0.750000  0.733128  0.131874  1
  P  P31  1  0.750000  0.766872  0.631874  1
  P  P32  1  0.250000  0.601401  0.390799  1
  P  P33  1  0.250000  0.898599  0.890799  1
  P  P34  1  0.750000  0.400661  0.610469  1
  P  P35  1  0.750000  0.099339  0.110469  1
