# generated using pymatgen
data_Y20Bi12P
_symmetry_space_group_name_H-M   'P 1'
_cell_length_a   15.94575500
_cell_length_b   6.44688738
_cell_length_c   9.25342593
_cell_angle_alpha   90.00594496
_cell_angle_beta   90.00000000
_cell_angle_gamma   90.00000000
_symmetry_Int_Tables_number   1
_chemical_formula_structural   Y20Bi12P
_chemical_formula_sum   'Y20 Bi12 P1'
_cell_volume   951.25668424
_cell_formula_units_Z   1
loop_
 _symmetry_equiv_pos_site_id
 _symmetry_equiv_pos_as_xyz
  1  'x, y, z'
loop_
 _atom_site_type_symbol
 _atom_site_label
 _atom_site_symmetry_multiplicity
 _atom_site_fract_x
 _atom_site_fract_y
 _atom_site_fract_z
 _atom_site_occupancy
  Y  Y0  1  0.666409  0.500000  0.500000  1
  Y  Y1  1  0.165824  0.500000  0.000000  1
  Y  Y2  1  0.834176  0.500000  0.000000  1
  Y  Y3  1  0.333591  0.500000  0.500000  1
  Y  Y4  1  0.833258  0.000000  0.000000  1
  Y  Y5  1  0.334709  0.000000  0.500000  1
  Y  Y6  1  0.665291  0.000000  0.500000  1
  Y  Y7  1  0.166742  0.000000  0.000000  1
  Y  Y8  1  0.500000  0.249524  0.754652  1
  Y  Y9  1  0.000000  0.250135  0.254646  1
  Y  Y10  1  0.621647  0.250117  0.119666  1
  Y  Y11  1  0.122410  0.250313  0.621100  1
  Y  Y12  1  0.877590  0.250313  0.621100  1
  Y  Y13  1  0.378353  0.250117  0.119666  1
  Y  Y14  1  0.000000  0.749865  0.745354  1
  Y  Y15  1  0.500000  0.750476  0.245348  1
  Y  Y16  1  0.877590  0.749687  0.378900  1
  Y  Y17  1  0.378353  0.749883  0.880334  1
  Y  Y18  1  0.621647  0.749883  0.880334  1
  Y  Y19  1  0.122410  0.749687  0.378900  1
  Bi  Bi20  1  0.000000  0.249342  0.889929  1
  Bi  Bi21  1  0.500000  0.249722  0.386049  1
  Bi  Bi22  1  0.802888  0.247605  0.303699  1
  Bi  Bi23  1  0.305384  0.251330  0.805528  1
  Bi  Bi24  1  0.694616  0.251330  0.805528  1
  Bi  Bi25  1  0.197112  0.247605  0.303699  1
  Bi  Bi26  1  0.500000  0.750278  0.613951  1
  Bi  Bi27  1  0.000000  0.750658  0.110071  1
  Bi  Bi28  1  0.694616  0.748670  0.194472  1
  Bi  Bi29  1  0.197112  0.752395  0.696301  1
  Bi  Bi30  1  0.802888  0.752395  0.696301  1
  Bi  Bi31  1  0.305384  0.748670  0.194472  1
  P  P32  1  0.000000  0.500000  0.500000  1
