# generated using pymatgen
data_Lu5Sc3Cr2(B12Ir)2
_symmetry_space_group_name_H-M   'P 1'
_cell_length_a   3.49698700
_cell_length_b   8.96210279
_cell_length_c   11.33091302
_cell_angle_alpha   89.91009954
_cell_angle_beta   90.00000000
_cell_angle_gamma   90.00000000
_symmetry_Int_Tables_number   1
_chemical_formula_structural   Lu5Sc3Cr2(B12Ir)2
_chemical_formula_sum   'Lu5 Sc3 Cr2 B24 Ir2'
_cell_volume   355.11442147
_cell_formula_units_Z   1
loop_
 _symmetry_equiv_pos_site_id
 _symmetry_equiv_pos_as_xyz
  1  'x, y, z'
loop_
 _atom_site_type_symbol
 _atom_site_label
 _atom_site_symmetry_multiplicity
 _atom_site_fract_x
 _atom_site_fract_y
 _atom_site_fract_z
 _atom_site_occupancy
  Lu  Lu0  1  0.000000  0.815151  0.089207  1
  Lu  Lu1  1  0.000000  0.185116  0.909469  1
  Lu  Lu2  1  0.000000  0.324866  0.418255  1
  Lu  Lu3  1  0.000000  0.675356  0.582818  1
  Lu  Lu4  1  0.000000  0.447691  0.128074  1
  Sc  Sc5  1  0.000000  0.551956  0.870319  1
  Sc  Sc6  1  0.000000  0.940092  0.375259  1
  Sc  Sc7  1  0.000000  0.059909  0.625363  1
  Cr  Cr8  1  0.000000  0.642123  0.319477  1
  Cr  Cr9  1  0.000000  0.359519  0.681698  1
  B  B10  1  0.500000  0.053155  0.065270  1
  B  B11  1  0.500000  0.945586  0.934151  1
  B  B12  1  0.500000  0.554039  0.433766  1
  B  B13  1  0.500000  0.446451  0.567140  1
  B  B14  1  0.500000  0.251198  0.078685  1
  B  B15  1  0.500000  0.746432  0.920203  1
  B  B16  1  0.500000  0.751335  0.419741  1
  B  B17  1  0.500000  0.249167  0.580744  1
  B  B18  1  0.500000  0.292597  0.237084  1
  B  B19  1  0.500000  0.705619  0.763623  1
  B  B20  1  0.500000  0.794651  0.265929  1
  B  B21  1  0.500000  0.206128  0.734446  1
  B  B22  1  0.500000  0.128830  0.318930  1
  B  B23  1  0.500000  0.870605  0.681414  1
  B  B24  1  0.500000  0.632034  0.184827  1
  B  B25  1  0.500000  0.370281  0.815764  1
  B  B26  1  0.500000  0.482236  0.288573  1
  B  B27  1  0.500000  0.518777  0.713011  1
  B  B28  1  0.500000  0.979073  0.214489  1
  B  B29  1  0.500000  0.020494  0.785647  1
  B  B30  1  0.500000  0.100519  0.472602  1
  B  B31  1  0.500000  0.899569  0.527862  1
  B  B32  1  0.500000  0.603450  0.025782  1
  B  B33  1  0.500000  0.397920  0.970599  1
  Ir  Ir34  1  0.000000  0.136787  0.180067  1
  Ir  Ir35  1  0.000000  0.861288  0.819709  1
