# generated using pymatgen
data_Li6CeSmUN6
_symmetry_space_group_name_H-M   'P 1'
_cell_length_a   6.15412400
_cell_length_b   6.15412474
_cell_length_c   5.47813000
_cell_angle_alpha   90.00000000
_cell_angle_beta   90.00000000
_cell_angle_gamma   120.00000677
_symmetry_Int_Tables_number   1
_chemical_formula_structural   Li6CeSmUN6
_chemical_formula_sum   'Li6 Ce1 Sm1 U1 N6'
_cell_volume   179.67823540
_cell_formula_units_Z   1
loop_
 _symmetry_equiv_pos_site_id
 _symmetry_equiv_pos_as_xyz
  1  'x, y, z'
loop_
 _atom_site_type_symbol
 _atom_site_label
 _atom_site_symmetry_multiplicity
 _atom_site_fract_x
 _atom_site_fract_y
 _atom_site_fract_z
 _atom_site_occupancy
  Li  Li0  1  0.976373  0.646684  0.603114  1
  Li  Li1  1  0.353316  0.329689  0.603114  1
  Li  Li2  1  0.670311  0.023627  0.603114  1
  Li  Li3  1  0.005961  0.337698  0.394898  1
  Li  Li4  1  0.662302  0.668262  0.394898  1
  Li  Li5  1  0.331738  0.994039  0.394898  1
  Ce  Ce6  1  0.333333  0.666667  0.992879  1
  Sm  Sm7  1  0.000000  0.000000  0.997782  1
  U  U8  1  0.666667  0.333333  0.006799  1
  N  N9  1  0.980625  0.641650  0.227162  1
  N  N10  1  0.358350  0.338974  0.227162  1
  N  N11  1  0.661026  0.019375  0.227162  1
  N  N12  1  0.976432  0.339132  0.775673  1
  N  N13  1  0.660868  0.637299  0.775673  1
  N  N14  1  0.362701  0.023568  0.775673  1
