# generated using pymatgen
data_Ti4AlGa3(BiO5)4
_symmetry_space_group_name_H-M   'P 1'
_cell_length_a   5.92635300
_cell_length_b   7.71084700
_cell_length_c   8.61685900
_cell_angle_alpha   89.99735338
_cell_angle_beta   90.00000000
_cell_angle_gamma   90.00000000
_symmetry_Int_Tables_number   1
_chemical_formula_structural   Ti4AlGa3(BiO5)4
_chemical_formula_sum   'Ti4 Al1 Ga3 Bi4 O20'
_cell_volume   393.76633966
_cell_formula_units_Z   1
loop_
 _symmetry_equiv_pos_site_id
 _symmetry_equiv_pos_as_xyz
  1  'x, y, z'
loop_
 _atom_site_type_symbol
 _atom_site_label
 _atom_site_symmetry_multiplicity
 _atom_site_fract_x
 _atom_site_fract_y
 _atom_site_fract_z
 _atom_site_occupancy
  Ti  Ti0  1  0.498074  0.877593  0.143804  1
  Ti  Ti1  1  0.499037  0.625926  0.641578  1
  Ti  Ti2  1  0.499037  0.374074  0.358422  1
  Ti  Ti3  1  0.498074  0.122407  0.856196  1
  Al  Al4  1  0.250519  0.000000  0.500000  1
  Ga  Ga5  1  0.750849  0.500000  0.000000  1
  Ga  Ga6  1  0.248976  0.500000  0.000000  1
  Ga  Ga7  1  0.751098  0.000000  0.500000  1
  Bi  Bi8  1  0.000319  0.837659  0.835432  1
  Bi  Bi9  1  0.002308  0.334871  0.662138  1
  Bi  Bi10  1  0.000319  0.162341  0.164568  1
  Bi  Bi11  1  0.002308  0.665129  0.337862  1
  O  O12  1  0.499391  0.654808  0.079028  1
  O  O13  1  0.009149  0.156081  0.444548  1
  O  O14  1  0.261534  0.888305  0.299447  1
  O  O15  1  0.705383  0.000000  0.000000  1
  O  O16  1  0.739511  0.618454  0.793161  1
  O  O17  1  0.741041  0.115871  0.705531  1
  O  O18  1  0.499391  0.345192  0.920972  1
  O  O19  1  0.292198  0.500000  0.500000  1
  O  O20  1  0.009149  0.843919  0.555452  1
  O  O21  1  0.261534  0.111695  0.700553  1
  O  O22  1  0.000129  0.661189  0.056736  1
  O  O23  1  0.739511  0.381546  0.206839  1
  O  O24  1  0.741041  0.884129  0.294469  1
  O  O25  1  0.259899  0.617162  0.793556  1
  O  O26  1  0.290114  0.000000  0.000000  1
  O  O27  1  0.491174  0.848862  0.575035  1
  O  O28  1  0.491174  0.151138  0.424965  1
  O  O29  1  0.707733  0.500000  0.500000  1
  O  O30  1  0.259899  0.382838  0.206444  1
  O  O31  1  0.000129  0.338811  0.943264  1
