# generated using pymatgen
data_La13PrAu6
_symmetry_space_group_name_H-M   'P 1'
_cell_length_a   10.65766600
_cell_length_b   10.65766593
_cell_length_c   6.62236200
_cell_angle_alpha   90.00000000
_cell_angle_beta   90.00000000
_cell_angle_gamma   119.99999400
_symmetry_Int_Tables_number   1
_chemical_formula_structural   La13PrAu6
_chemical_formula_sum   'La13 Pr1 Au6'
_cell_volume   651.43004308
_cell_formula_units_Z   1
loop_
 _symmetry_equiv_pos_site_id
 _symmetry_equiv_pos_as_xyz
  1  'x, y, z'
loop_
 _atom_site_type_symbol
 _atom_site_label
 _atom_site_symmetry_multiplicity
 _atom_site_fract_x
 _atom_site_fract_y
 _atom_site_fract_z
 _atom_site_occupancy
  La  La0  1  0.666667  0.333333  0.192086  1
  La  La1  1  0.128429  0.871571  0.505338  1
  La  La2  1  0.743140  0.871571  0.505338  1
  La  La3  1  0.128429  0.256860  0.505338  1
  La  La4  1  0.872313  0.127687  0.004696  1
  La  La5  1  0.255374  0.127687  0.004696  1
  La  La6  1  0.872313  0.744626  0.004696  1
  La  La7  1  0.538429  0.461571  0.709059  1
  La  La8  1  0.923139  0.461571  0.709059  1
  La  La9  1  0.538429  0.076861  0.709059  1
  La  La10  1  0.461660  0.538340  0.208648  1
  La  La11  1  0.076682  0.538340  0.208648  1
  La  La12  1  0.461660  0.923318  0.208648  1
  Pr  Pr13  1  0.333333  0.666667  0.692544  1
  Au  Au14  1  0.811219  0.188781  0.441189  1
  Au  Au15  1  0.377562  0.188781  0.441189  1
  Au  Au16  1  0.811219  0.622438  0.441189  1
  Au  Au17  1  0.189120  0.810880  0.941580  1
  Au  Au18  1  0.621759  0.810880  0.941580  1
  Au  Au19  1  0.189120  0.378241  0.941580  1
