# generated using pymatgen
data_Hf3AlNi2N
_symmetry_space_group_name_H-M   'P 1'
_cell_length_a   8.33457330
_cell_length_b   8.33457296
_cell_length_c   8.33457300
_cell_angle_alpha   59.99999588
_cell_angle_beta   59.99999720
_cell_angle_gamma   59.99999682
_symmetry_Int_Tables_number   1
_chemical_formula_structural   Hf3AlNi2N
_chemical_formula_sum   'Hf12 Al4 Ni8 N4'
_cell_volume   409.38794193
_cell_formula_units_Z   4
loop_
 _symmetry_equiv_pos_site_id
 _symmetry_equiv_pos_as_xyz
  1  'x, y, z'
loop_
 _atom_site_type_symbol
 _atom_site_label
 _atom_site_symmetry_multiplicity
 _atom_site_fract_x
 _atom_site_fract_y
 _atom_site_fract_z
 _atom_site_occupancy
  Hf  Hf0  1  0.809697  0.190303  0.190303  1
  Hf  Hf1  1  0.190303  0.809697  0.190303  1
  Hf  Hf2  1  0.809697  0.809697  0.190303  1
  Hf  Hf3  1  0.190303  0.809697  0.809697  1
  Hf  Hf4  1  0.809697  0.190303  0.809697  1
  Hf  Hf5  1  0.190303  0.190303  0.809697  1
  Hf  Hf6  1  0.440303  0.059697  0.059697  1
  Hf  Hf7  1  0.059697  0.440303  0.059697  1
  Hf  Hf8  1  0.440303  0.440303  0.059697  1
  Hf  Hf9  1  0.059697  0.440303  0.440303  1
  Hf  Hf10  1  0.440303  0.059697  0.440303  1
  Hf  Hf11  1  0.059697  0.059697  0.440303  1
  Al  Al12  1  0.625000  0.625000  0.125000  1
  Al  Al13  1  0.625000  0.625000  0.625000  1
  Al  Al14  1  0.125000  0.625000  0.625000  1
  Al  Al15  1  0.625000  0.125000  0.625000  1
  Ni  Ni16  1  0.414797  0.414797  0.755609  1
  Ni  Ni17  1  0.414797  0.414797  0.414797  1
  Ni  Ni18  1  0.755609  0.414797  0.414797  1
  Ni  Ni19  1  0.414797  0.755609  0.414797  1
  Ni  Ni20  1  0.835203  0.835203  0.494391  1
  Ni  Ni21  1  0.835203  0.835203  0.835203  1
  Ni  Ni22  1  0.494391  0.835203  0.835203  1
  Ni  Ni23  1  0.835203  0.494391  0.835203  1
  N  N24  1  0.125000  0.125000  0.625000  1
  N  N25  1  0.125000  0.125000  0.125000  1
  N  N26  1  0.625000  0.125000  0.125000  1
  N  N27  1  0.125000  0.625000  0.125000  1
