# generated using pymatgen
data_Sc12Fe2CoSi12Ru
_symmetry_space_group_name_H-M   'P 1'
_cell_length_a   3.98645700
_cell_length_b   10.08762825
_cell_length_c   11.64784538
_cell_angle_alpha   89.65942789
_cell_angle_beta   90.00000000
_cell_angle_gamma   90.00000000
_symmetry_Int_Tables_number   1
_chemical_formula_structural   Sc12Fe2CoSi12Ru
_chemical_formula_sum   'Sc12 Fe2 Co1 Si12 Ru1'
_cell_volume   468.39697051
_cell_formula_units_Z   1
loop_
 _symmetry_equiv_pos_site_id
 _symmetry_equiv_pos_as_xyz
  1  'x, y, z'
loop_
 _atom_site_type_symbol
 _atom_site_label
 _atom_site_symmetry_multiplicity
 _atom_site_fract_x
 _atom_site_fract_y
 _atom_site_fract_z
 _atom_site_occupancy
  Sc  Sc0  1  0.250000  0.881595  0.023635  1
  Sc  Sc1  1  0.250000  0.618399  0.521699  1
  Sc  Sc2  1  0.750000  0.124057  0.978832  1
  Sc  Sc3  1  0.750000  0.380374  0.473708  1
  Sc  Sc4  1  0.250000  0.920165  0.604228  1
  Sc  Sc5  1  0.250000  0.578757  0.101472  1
  Sc  Sc6  1  0.750000  0.078136  0.399660  1
  Sc  Sc7  1  0.750000  0.422392  0.901101  1
  Sc  Sc8  1  0.250000  0.652074  0.799485  1
  Sc  Sc9  1  0.250000  0.839510  0.298940  1
  Sc  Sc10  1  0.750000  0.339623  0.201363  1
  Sc  Sc11  1  0.750000  0.167321  0.699751  1
  Fe  Fe12  1  0.250000  0.109563  0.177474  1
  Fe  Fe13  1  0.750000  0.608942  0.322463  1
  Co  Co14  1  0.250000  0.387904  0.675516  1
  Si  Si15  1  0.250000  0.017313  0.821991  1
  Si  Si16  1  0.250000  0.493263  0.320441  1
  Si  Si17  1  0.750000  0.993814  0.179730  1
  Si  Si18  1  0.750000  0.502889  0.677336  1
  Si  Si19  1  0.250000  0.258200  0.839565  1
  Si  Si20  1  0.250000  0.245470  0.338222  1
  Si  Si21  1  0.750000  0.745933  0.161870  1
  Si  Si22  1  0.750000  0.746738  0.658067  1
  Si  Si23  1  0.250000  0.198632  0.544926  1
  Si  Si24  1  0.250000  0.302191  0.047404  1
  Si  Si25  1  0.750000  0.799395  0.452974  1
  Si  Si26  1  0.750000  0.696603  0.956349  1
  Ru  Ru27  1  0.750000  0.890750  0.821800  1
