# generated using pymatgen
data_BaReCl6
_symmetry_space_group_name_H-M   'P 1'
_cell_length_a   6.76393875
_cell_length_b   6.76394027
_cell_length_c   10.84991998
_cell_angle_alpha   89.12506586
_cell_angle_beta   89.12507339
_cell_angle_gamma   75.32657464
_symmetry_Int_Tables_number   1
_chemical_formula_structural   BaReCl6
_chemical_formula_sum   'Ba2 Re2 Cl12'
_cell_volume   480.11431802
_cell_formula_units_Z   2
loop_
 _symmetry_equiv_pos_site_id
 _symmetry_equiv_pos_as_xyz
  1  'x, y, z'
loop_
 _atom_site_type_symbol
 _atom_site_label
 _atom_site_symmetry_multiplicity
 _atom_site_fract_x
 _atom_site_fract_y
 _atom_site_fract_z
 _atom_site_occupancy
  Ba  Ba0  1  0.975627  0.024373  0.250000  1
  Ba  Ba1  1  0.024373  0.975627  0.750000  1
  Re  Re2  1  0.000000  0.500000  0.000000  1
  Re  Re3  1  0.500000  0.000000  0.500000  1
  Cl  Cl4  1  0.114946  0.535908  0.202655  1
  Cl  Cl5  1  0.464092  0.885054  0.297345  1
  Cl  Cl6  1  0.885054  0.464092  0.797345  1
  Cl  Cl7  1  0.535908  0.114946  0.702655  1
  Cl  Cl8  1  0.801951  0.847810  0.001176  1
  Cl  Cl9  1  0.152190  0.198049  0.498824  1
  Cl  Cl10  1  0.198049  0.152190  0.998824  1
  Cl  Cl11  1  0.847810  0.801951  0.501176  1
  Cl  Cl12  1  0.722378  0.390620  0.087236  1
  Cl  Cl13  1  0.609380  0.277622  0.412764  1
  Cl  Cl14  1  0.277622  0.609380  0.912764  1
  Cl  Cl15  1  0.390620  0.722378  0.587236  1
