# generated using pymatgen
data_SmCu(PtAu)2
_symmetry_space_group_name_H-M   'P 1'
_cell_length_a   5.25339290
_cell_length_b   5.46032822
_cell_length_c   5.25339297
_cell_angle_alpha   121.43320578
_cell_angle_beta   116.66287919
_cell_angle_gamma   90.50786989
_symmetry_Int_Tables_number   1
_chemical_formula_structural   SmCu(PtAu)2
_chemical_formula_sum   'Sm1 Cu1 Pt2 Au2'
_cell_volume   108.92211995
_cell_formula_units_Z   1
loop_
 _symmetry_equiv_pos_site_id
 _symmetry_equiv_pos_as_xyz
  1  'x, y, z'
loop_
 _atom_site_type_symbol
 _atom_site_label
 _atom_site_symmetry_multiplicity
 _atom_site_fract_x
 _atom_site_fract_y
 _atom_site_fract_z
 _atom_site_occupancy
  Sm  Sm0  1  0.006316  0.006536  0.000220  1
  Cu  Cu1  1  0.622804  0.374387  0.751583  1
  Pt  Pt2  1  0.622748  0.374636  0.249959  1
  Pt  Pt3  1  0.124677  0.374636  0.751890  1
  Au  Au4  1  0.622498  0.872620  0.250121  1
  Au  Au5  1  0.250957  0.747184  0.496227  1
