# generated using pymatgen
data_Y5InSiBi2
_symmetry_space_group_name_H-M   'P 1'
_cell_length_a   8.76507521
_cell_length_b   8.76507580
_cell_length_c   8.13339606
_cell_angle_alpha   90.26670948
_cell_angle_beta   90.26671605
_cell_angle_gamma   124.58675701
_symmetry_Int_Tables_number   1
_chemical_formula_structural   Y5InSiBi2
_chemical_formula_sum   'Y10 In2 Si2 Bi4'
_cell_volume   514.40182120
_cell_formula_units_Z   2
loop_
 _symmetry_equiv_pos_site_id
 _symmetry_equiv_pos_as_xyz
  1  'x, y, z'
loop_
 _atom_site_type_symbol
 _atom_site_label
 _atom_site_symmetry_multiplicity
 _atom_site_fract_x
 _atom_site_fract_y
 _atom_site_fract_z
 _atom_site_occupancy
  Y  Y0  1  0.032626  0.278069  0.342798  1
  Y  Y1  1  0.967374  0.721931  0.657202  1
  Y  Y2  1  0.452166  0.192717  0.826095  1
  Y  Y3  1  0.807283  0.547834  0.173905  1
  Y  Y4  1  0.547834  0.807283  0.173905  1
  Y  Y5  1  0.192717  0.452166  0.826095  1
  Y  Y6  1  0.721931  0.967374  0.657202  1
  Y  Y7  1  0.278069  0.032626  0.342798  1
  Y  Y8  1  0.000000  0.000000  0.000000  1
  Y  Y9  1  0.500000  0.500000  0.500000  1
  In  In10  1  0.369785  0.369785  0.131509  1
  In  In11  1  0.630215  0.630215  0.868491  1
  Si  Si12  1  0.138792  0.138792  0.637259  1
  Si  Si13  1  0.861208  0.861208  0.362741  1
  Bi  Bi14  1  0.793451  0.206549  0.000000  1
  Bi  Bi15  1  0.206549  0.793451  0.000000  1
  Bi  Bi16  1  0.706738  0.293262  0.500000  1
  Bi  Bi17  1  0.293262  0.706738  0.500000  1
