# generated using pymatgen
data_Cs7HfTl2InAs5
_symmetry_space_group_name_H-M   'P 1'
_cell_length_a   9.09764827
_cell_length_b   9.94050209
_cell_length_c   15.31184967
_cell_angle_alpha   85.39894873
_cell_angle_beta   83.61339833
_cell_angle_gamma   87.44225606
_symmetry_Int_Tables_number   1
_chemical_formula_structural   Cs7HfTl2InAs5
_chemical_formula_sum   'Cs14 Hf2 Tl4 In2 As10'
_cell_volume   1370.81039859
_cell_formula_units_Z   2
loop_
 _symmetry_equiv_pos_site_id
 _symmetry_equiv_pos_as_xyz
  1  'x, y, z'
loop_
 _atom_site_type_symbol
 _atom_site_label
 _atom_site_symmetry_multiplicity
 _atom_site_fract_x
 _atom_site_fract_y
 _atom_site_fract_z
 _atom_site_occupancy
  Cs  Cs0  1  0.837335  0.364138  0.648963  1
  Cs  Cs1  1  0.814764  0.809206  0.132570  1
  Cs  Cs2  1  0.239882  0.006852  0.469850  1
  Cs  Cs3  1  0.271378  0.257465  0.252347  1
  Cs  Cs4  1  0.735332  0.496868  0.973948  1
  Cs  Cs5  1  0.263749  0.502606  0.025034  1
  Cs  Cs6  1  0.678076  0.085806  0.886911  1
  Cs  Cs7  1  0.754010  0.995072  0.531818  1
  Cs  Cs8  1  0.730064  0.737888  0.748685  1
  Cs  Cs9  1  0.330353  0.343314  0.603638  1
  Cs  Cs10  1  0.163033  0.631226  0.351712  1
  Cs  Cs11  1  0.184787  0.189378  0.869342  1
  Cs  Cs12  1  0.326806  0.913054  0.112725  1
  Cs  Cs13  1  0.667862  0.658938  0.395865  1
  Hf  Hf14  1  0.352846  0.608799  0.771534  1
  Hf  Hf15  1  0.647935  0.391343  0.227707  1
  Tl  Tl16  1  0.053967  0.811214  0.871293  1
  Tl  Tl17  1  0.949787  0.189427  0.127833  1
  Tl  Tl18  1  0.349500  0.948814  0.703568  1
  Tl  Tl19  1  0.093942  0.714198  0.620382  1
  In  In20  1  0.902750  0.284070  0.374292  1
  In  In21  1  0.658009  0.063021  0.292756  1
  As  As22  1  0.925190  0.452916  0.212358  1
  As  As23  1  0.627556  0.187340  0.125456  1
  As  As24  1  0.076186  0.545165  0.789303  1
  As  As25  1  0.588236  0.283265  0.393400  1
  As  As26  1  0.416915  0.711378  0.605108  1
  As  As27  1  0.031485  0.006905  0.698393  1
  As  As28  1  0.514488  0.400190  0.807220  1
  As  As29  1  0.484151  0.598042  0.193142  1
  As  As30  1  0.374208  0.810915  0.875730  1
  As  As31  1  0.955416  0.001184  0.307118  1
