# generated using pymatgen
data_FeSb(NF10)2
_symmetry_space_group_name_H-M   'P 1'
_cell_length_a   5.65642003
_cell_length_b   7.63575012
_cell_length_c   9.04506978
_cell_angle_alpha   88.82690372
_cell_angle_beta   109.46062813
_cell_angle_gamma   96.61984541
_symmetry_Int_Tables_number   1
_chemical_formula_structural   FeSb(NF10)2
_chemical_formula_sum   'Fe1 Sb1 N2 F20'
_cell_volume   365.82432742
_cell_formula_units_Z   1
loop_
 _symmetry_equiv_pos_site_id
 _symmetry_equiv_pos_as_xyz
  1  'x, y, z'
loop_
 _atom_site_type_symbol
 _atom_site_label
 _atom_site_symmetry_multiplicity
 _atom_site_fract_x
 _atom_site_fract_y
 _atom_site_fract_z
 _atom_site_occupancy
  Fe  Fe0  1  0.996385  0.753595  0.293822  1
  Sb  Sb1  1  0.004710  0.245083  0.703298  1
  N  N2  1  0.295601  0.274615  0.215693  1
  N  N3  1  0.703026  0.726122  0.785970  1
  F  F4  1  0.059230  0.232968  0.213461  1
  F  F5  1  0.939724  0.766716  0.786544  1
  F  F6  1  0.371869  0.139478  0.157220  1
  F  F7  1  0.630178  0.861012  0.846476  1
  F  F8  1  0.931739  0.195217  0.895020  1
  F  F9  1  0.067327  0.803036  0.115869  1
  F  F10  1  0.078425  0.298494  0.515376  1
  F  F11  1  0.927552  0.702943  0.468755  1
  F  F12  1  0.778910  0.041990  0.605018  1
  F  F13  1  0.202660  0.943397  0.388191  1
  F  F14  1  0.281852  0.106820  0.780173  1
  F  F15  1  0.737843  0.882497  0.225776  1
  F  F16  1  0.216106  0.454231  0.806390  1
  F  F17  1  0.795562  0.559377  0.197636  1
  F  F18  1  0.725063  0.383288  0.637343  1
  F  F19  1  0.258098  0.625671  0.357506  1
  F  F20  1  0.694809  0.584532  0.874504  1
  F  F21  1  0.307005  0.416498  0.127748  1
  F  F22  1  0.546929  0.693377  0.639075  1
  F  F23  1  0.449397  0.309043  0.363138  1
