# generated using pymatgen
data_La4Dy5YIr4
_symmetry_space_group_name_H-M   'P 1'
_cell_length_a   6.59222307
_cell_length_b   7.24572636
_cell_length_c   8.86681576
_cell_angle_alpha   96.87696792
_cell_angle_beta   111.68950831
_cell_angle_gamma   90.00847038
_symmetry_Int_Tables_number   1
_chemical_formula_structural   La4Dy5YIr4
_chemical_formula_sum   'La4 Dy5 Y1 Ir4'
_cell_volume   390.25766159
_cell_formula_units_Z   1
loop_
 _symmetry_equiv_pos_site_id
 _symmetry_equiv_pos_as_xyz
  1  'x, y, z'
loop_
 _atom_site_type_symbol
 _atom_site_label
 _atom_site_symmetry_multiplicity
 _atom_site_fract_x
 _atom_site_fract_y
 _atom_site_fract_z
 _atom_site_occupancy
  La  La0  1  0.784459  0.082642  0.807042  1
  La  La1  1  0.977708  0.417427  0.192853  1
  La  La2  1  0.215526  0.917476  0.193007  1
  La  La3  1  0.022347  0.582721  0.807049  1
  Dy  Dy4  1  0.641761  0.316169  0.433018  1
  Dy  Dy5  1  0.791350  0.816920  0.434134  1
  Dy  Dy6  1  0.358437  0.683881  0.566948  1
  Dy  Dy7  1  0.430007  0.250595  0.000049  1
  Dy  Dy8  1  0.569832  0.749378  0.999974  1
  Y  Y9  1  0.208334  0.183335  0.565417  1
  Ir  Ir10  1  0.590327  0.424410  0.773869  1
  Ir  Ir11  1  0.816056  0.076174  0.226574  1
  Ir  Ir12  1  0.410401  0.575946  0.226388  1
  Ir  Ir13  1  0.183456  0.922924  0.773678  1
