# generated using pymatgen
data_Dy4TmCo9(P6Ru5)2
_symmetry_space_group_name_H-M   'P 1'
_cell_length_a   12.34354016
_cell_length_b   12.30520763
_cell_length_c   3.76839900
_cell_angle_alpha   90.00000000
_cell_angle_beta   90.00000000
_cell_angle_gamma   119.77846528
_symmetry_Int_Tables_number   1
_chemical_formula_structural   Dy4TmCo9(P6Ru5)2
_chemical_formula_sum   'Dy4 Tm1 Co9 P12 Ru10'
_cell_volume   496.79973916
_cell_formula_units_Z   1
loop_
 _symmetry_equiv_pos_site_id
 _symmetry_equiv_pos_as_xyz
  1  'x, y, z'
loop_
 _atom_site_type_symbol
 _atom_site_label
 _atom_site_symmetry_multiplicity
 _atom_site_fract_x
 _atom_site_fract_y
 _atom_site_fract_z
 _atom_site_occupancy
  Dy  Dy0  1  0.663492  0.333455  0.000000  1
  Dy  Dy1  1  0.332892  0.666818  0.000000  1
  Dy  Dy2  1  0.818854  0.998481  0.500000  1
  Dy  Dy3  1  0.999537  0.818968  0.500000  1
  Tm  Tm4  1  0.183283  0.181981  0.500000  1
  Co  Co5  1  0.802481  0.630285  0.000000  1
  Co  Co6  1  0.367717  0.171061  0.000000  1
  Co  Co7  1  0.195625  0.828395  0.000000  1
  Co  Co8  1  0.629257  0.800469  0.000000  1
  Co  Co9  1  0.176570  0.369704  0.000000  1
  Co  Co10  1  0.718719  0.718465  0.500000  1
  Co  Co11  1  0.279278  0.000001  0.500000  1
  Co  Co12  1  0.007469  0.284914  0.500000  1
  Co  Co13  1  0.000002  0.999717  0.000000  1
  P  P14  1  0.362507  0.362328  0.000000  1
  P  P15  1  0.633420  0.996980  0.000000  1
  P  P16  1  0.000505  0.637914  0.000000  1
  P  P17  1  0.838221  0.315943  0.500000  1
  P  P18  1  0.684673  0.523742  0.500000  1
  P  P19  1  0.473304  0.159544  0.500000  1
  P  P20  1  0.315744  0.840598  0.500000  1
  P  P21  1  0.524027  0.683311  0.500000  1
  P  P22  1  0.162143  0.478315  0.500000  1
  P  P23  1  0.820459  0.820743  0.000000  1
  P  P24  1  0.177892  0.000621  0.000000  1
  P  P25  1  0.006568  0.180945  0.000000  1
  Ru  Ru26  1  0.555296  0.553800  0.000000  1
  Ru  Ru27  1  0.440107  0.995469  0.000000  1
  Ru  Ru28  1  0.008732  0.450543  0.000000  1
  Ru  Ru29  1  0.827338  0.198134  0.000000  1
  Ru  Ru30  1  0.640101  0.125220  0.500000  1
  Ru  Ru31  1  0.872731  0.519283  0.500000  1
  Ru  Ru32  1  0.480059  0.352091  0.500000  1
  Ru  Ru33  1  0.129849  0.650324  0.500000  1
  Ru  Ru34  1  0.518046  0.869830  0.500000  1
  Ru  Ru35  1  0.353101  0.481607  0.500000  1
