# generated using pymatgen
data_Pr3InSnPt3Pb
_symmetry_space_group_name_H-M   'P 1'
_cell_length_a   7.72015425
_cell_length_b   7.70234371
_cell_length_c   4.17915800
_cell_angle_alpha   90.00000000
_cell_angle_beta   90.00000000
_cell_angle_gamma   119.23393371
_symmetry_Int_Tables_number   1
_chemical_formula_structural   Pr3InSnPt3Pb
_chemical_formula_sum   'Pr3 In1 Sn1 Pt3 Pb1'
_cell_volume   216.85492451
_cell_formula_units_Z   1
loop_
 _symmetry_equiv_pos_site_id
 _symmetry_equiv_pos_as_xyz
  1  'x, y, z'
loop_
 _atom_site_type_symbol
 _atom_site_label
 _atom_site_symmetry_multiplicity
 _atom_site_fract_x
 _atom_site_fract_y
 _atom_site_fract_z
 _atom_site_occupancy
  Pr  Pr0  1  0.592381  0.591256  0.000000  1
  Pr  Pr1  1  0.408468  0.996469  0.000000  1
  Pr  Pr2  1  0.998025  0.411305  0.000000  1
  In  In3  1  0.999856  0.746457  0.500000  1
  Sn  Sn4  1  0.746386  0.997736  0.500000  1
  Pt  Pt5  1  0.677670  0.334974  0.500000  1
  Pt  Pt6  1  0.985768  0.991358  0.000000  1
  Pt  Pt7  1  0.337049  0.677673  0.500000  1
  Pb  Pb8  1  0.254396  0.252774  0.500000  1
