# generated using pymatgen
data_Tm3Lu(Co3Si5)2
_symmetry_space_group_name_H-M   'P 1'
_cell_length_a   7.81279857
_cell_length_b   7.81191777
_cell_length_c   5.46210917
_cell_angle_alpha   70.90929388
_cell_angle_beta   70.89519022
_cell_angle_gamma   93.58185856
_symmetry_Int_Tables_number   1
_chemical_formula_structural   Tm3Lu(Co3Si5)2
_chemical_formula_sum   'Tm3 Lu1 Co6 Si10'
_cell_volume   292.26876944
_cell_formula_units_Z   1
loop_
 _symmetry_equiv_pos_site_id
 _symmetry_equiv_pos_as_xyz
  1  'x, y, z'
loop_
 _atom_site_type_symbol
 _atom_site_label
 _atom_site_symmetry_multiplicity
 _atom_site_fract_x
 _atom_site_fract_y
 _atom_site_fract_z
 _atom_site_occupancy
  Tm  Tm0  1  0.129746  0.404095  0.736749  1
  Tm  Tm1  1  0.595846  0.870200  0.763242  1
  Tm  Tm2  1  0.870108  0.596106  0.263250  1
  Lu  Lu3  1  0.404191  0.129558  0.236217  1
  Co  Co4  1  0.997479  0.002905  0.749881  1
  Co  Co5  1  0.539974  0.261833  0.625809  1
  Co  Co6  1  0.262321  0.540313  0.125227  1
  Co  Co7  1  0.459742  0.737974  0.374690  1
  Co  Co8  1  0.003111  0.997406  0.249755  1
  Co  Co9  1  0.737420  0.459630  0.875161  1
  Si  Si10  1  0.772489  0.227034  0.250185  1
  Si  Si11  1  0.227123  0.773202  0.749707  1
  Si  Si12  1  0.510493  0.488336  0.250648  1
  Si  Si13  1  0.488862  0.510776  0.750147  1
  Si  Si14  1  0.213249  0.787205  0.250103  1
  Si  Si15  1  0.787030  0.213099  0.749879  1
  Si  Si16  1  0.737140  0.933475  0.166075  1
  Si  Si17  1  0.933215  0.737306  0.666155  1
  Si  Si18  1  0.263093  0.066894  0.833488  1
  Si  Si19  1  0.067368  0.262653  0.333634  1
