# generated using pymatgen
data_Sc20Cd3Ru2Au3
_symmetry_space_group_name_H-M   'P 1'
_cell_length_a   8.88438700
_cell_length_b   8.88438602
_cell_length_c   9.07946700
_cell_angle_alpha   90.00000000
_cell_angle_beta   90.00000000
_cell_angle_gamma   119.99999991
_symmetry_Int_Tables_number   1
_chemical_formula_structural   Sc20Cd3Ru2Au3
_chemical_formula_sum   'Sc20 Cd3 Ru2 Au3'
_cell_volume   620.64873530
_cell_formula_units_Z   1
loop_
 _symmetry_equiv_pos_site_id
 _symmetry_equiv_pos_as_xyz
  1  'x, y, z'
loop_
 _atom_site_type_symbol
 _atom_site_label
 _atom_site_symmetry_multiplicity
 _atom_site_fract_x
 _atom_site_fract_y
 _atom_site_fract_z
 _atom_site_occupancy
  Sc  Sc0  1  0.000000  0.000000  0.473824  1
  Sc  Sc1  1  0.000000  0.000000  0.026176  1
  Sc  Sc2  1  0.208887  0.791113  0.442490  1
  Sc  Sc3  1  0.208887  0.417775  0.442490  1
  Sc  Sc4  1  0.582225  0.791113  0.442490  1
  Sc  Sc5  1  0.790984  0.209016  0.554409  1
  Sc  Sc6  1  0.790984  0.581966  0.554409  1
  Sc  Sc7  1  0.418034  0.209016  0.554409  1
  Sc  Sc8  1  0.790984  0.209016  0.945591  1
  Sc  Sc9  1  0.790984  0.581966  0.945591  1
  Sc  Sc10  1  0.418034  0.209016  0.945591  1
  Sc  Sc11  1  0.208887  0.791113  0.057510  1
  Sc  Sc12  1  0.208887  0.417775  0.057510  1
  Sc  Sc13  1  0.582225  0.791113  0.057510  1
  Sc  Sc14  1  0.539872  0.460128  0.250000  1
  Sc  Sc15  1  0.539872  0.079744  0.250000  1
  Sc  Sc16  1  0.920256  0.460128  0.250000  1
  Sc  Sc17  1  0.459377  0.540623  0.750000  1
  Sc  Sc18  1  0.459377  0.918755  0.750000  1
  Sc  Sc19  1  0.081245  0.540623  0.750000  1
  Cd  Cd20  1  0.112204  0.887796  0.750000  1
  Cd  Cd21  1  0.112204  0.224408  0.750000  1
  Cd  Cd22  1  0.775592  0.887796  0.750000  1
  Ru  Ru23  1  0.333333  0.666667  0.250000  1
  Ru  Ru24  1  0.666667  0.333333  0.750000  1
  Au  Au25  1  0.875849  0.124151  0.250000  1
  Au  Au26  1  0.875849  0.751697  0.250000  1
  Au  Au27  1  0.248303  0.124151  0.250000  1
