# generated using pymatgen
data_Li5Sc3(Si4Tc3)4
_symmetry_space_group_name_H-M   'P 1'
_cell_length_a   6.39153595
_cell_length_b   6.69024576
_cell_length_c   12.24679477
_cell_angle_alpha   90.06093019
_cell_angle_beta   90.00024058
_cell_angle_gamma   89.85980799
_symmetry_Int_Tables_number   1
_chemical_formula_structural   Li5Sc3(Si4Tc3)4
_chemical_formula_sum   'Li5 Sc3 Si16 Tc12'
_cell_volume   523.68266979
_cell_formula_units_Z   1
loop_
 _symmetry_equiv_pos_site_id
 _symmetry_equiv_pos_as_xyz
  1  'x, y, z'
loop_
 _atom_site_type_symbol
 _atom_site_label
 _atom_site_symmetry_multiplicity
 _atom_site_fract_x
 _atom_site_fract_y
 _atom_site_fract_z
 _atom_site_occupancy
  Li  Li0  1  0.477408  0.333713  0.084462  1
  Li  Li1  1  0.976110  0.168218  0.411261  1
  Li  Li2  1  0.520329  0.670554  0.589446  1
  Li  Li3  1  0.025326  0.834753  0.911140  1
  Li  Li4  1  0.521696  0.659270  0.917218  1
  Sc  Sc5  1  0.004901  0.828288  0.593838  1
  Sc  Sc6  1  0.495542  0.331398  0.410394  1
  Sc  Sc7  1  0.996426  0.169369  0.084348  1
  Si  Si8  1  0.658767  0.033842  0.546146  1
  Si  Si9  1  0.167514  0.478977  0.950747  1
  Si  Si10  1  0.344001  0.960237  0.044189  1
  Si  Si11  1  0.841733  0.533803  0.452631  1
  Si  Si12  1  0.328204  0.960723  0.451918  1
  Si  Si13  1  0.829166  0.540268  0.044246  1
  Si  Si14  1  0.667480  0.027115  0.948045  1
  Si  Si15  1  0.169672  0.459448  0.548420  1
  Si  Si16  1  0.521838  0.386429  0.750018  1
  Si  Si17  1  0.025787  0.120066  0.753632  1
  Si  Si18  1  0.473789  0.623855  0.244867  1
  Si  Si19  1  0.974586  0.879894  0.254115  1
  Si  Si20  1  0.799097  0.651865  0.759429  1
  Si  Si21  1  0.318170  0.841565  0.757831  1
  Si  Si22  1  0.189960  0.349845  0.250791  1
  Si  Si23  1  0.689877  0.150554  0.244924  1
  Tc  Tc24  1  0.819322  0.339038  0.623965  1
  Tc  Tc25  1  0.321387  0.167723  0.876316  1
  Tc  Tc26  1  0.171610  0.664512  0.124176  1
  Tc  Tc27  1  0.677240  0.838308  0.376133  1
  Tc  Tc28  1  0.180105  0.654717  0.375581  1
  Tc  Tc29  1  0.681091  0.843317  0.124191  1
  Tc  Tc30  1  0.822139  0.337406  0.874886  1
  Tc  Tc31  1  0.319817  0.156646  0.625640  1
  Tc  Tc32  1  0.665828  0.993146  0.747835  1
  Tc  Tc33  1  0.161004  0.510916  0.748736  1
  Tc  Tc34  1  0.331750  0.011253  0.250070  1
  Tc  Tc35  1  0.831328  0.488970  0.248416  1
