# generated using pymatgen
data_Y3HoEr(In2Pd)2
_symmetry_space_group_name_H-M   'P 1'
_cell_length_a   3.63073700
_cell_length_b   8.15168800
_cell_length_c   18.22299900
_cell_angle_alpha   90.00085950
_cell_angle_beta   90.00000000
_cell_angle_gamma   90.00000000
_symmetry_Int_Tables_number   1
_chemical_formula_structural   Y3HoEr(In2Pd)2
_chemical_formula_sum   'Y6 Ho2 Er2 In8 Pd4'
_cell_volume   539.33945424
_cell_formula_units_Z   2
loop_
 _symmetry_equiv_pos_site_id
 _symmetry_equiv_pos_as_xyz
  1  'x, y, z'
loop_
 _atom_site_type_symbol
 _atom_site_label
 _atom_site_symmetry_multiplicity
 _atom_site_fract_x
 _atom_site_fract_y
 _atom_site_fract_z
 _atom_site_occupancy
  Y  Y0  1  0.000000  0.500000  0.500000  1
  Y  Y1  1  0.000000  0.000000  0.000000  1
  Y  Y2  1  0.000000  0.738868  0.281209  1
  Y  Y3  1  0.000000  0.261132  0.718791  1
  Y  Y4  1  0.000000  0.761011  0.781290  1
  Y  Y5  1  0.000000  0.238989  0.218710  1
  Ho  Ho6  1  0.000000  0.882915  0.583438  1
  Ho  Ho7  1  0.000000  0.117085  0.416562  1
  Er  Er8  1  0.000000  0.616890  0.083608  1
  Er  Er9  1  0.000000  0.383110  0.916392  1
  In  In10  1  0.500000  0.707300  0.932877  1
  In  In11  1  0.500000  0.292700  0.067123  1
  In  In12  1  0.500000  0.792282  0.432754  1
  In  In13  1  0.500000  0.207718  0.567246  1
  In  In14  1  0.500000  0.581195  0.650389  1
  In  In15  1  0.500000  0.418805  0.349611  1
  In  In16  1  0.500000  0.918470  0.150301  1
  In  In17  1  0.500000  0.081530  0.849699  1
  Pd  Pd18  1  0.500000  0.524178  0.194641  1
  Pd  Pd19  1  0.500000  0.475822  0.805359  1
  Pd  Pd20  1  0.500000  0.976007  0.694909  1
  Pd  Pd21  1  0.500000  0.023993  0.305091  1
