# generated using pymatgen
data_Dy4Al18(PtRh)3
_symmetry_space_group_name_H-M   'P 1'
_cell_length_a   7.58949699
_cell_length_b   7.58949688
_cell_length_c   9.42639102
_cell_angle_alpha   89.99641121
_cell_angle_beta   89.99641817
_cell_angle_gamma   119.62190021
_symmetry_Int_Tables_number   1
_chemical_formula_structural   Dy4Al18(PtRh)3
_chemical_formula_sum   'Dy4 Al18 Pt3 Rh3'
_cell_volume   472.00232462
_cell_formula_units_Z   1
loop_
 _symmetry_equiv_pos_site_id
 _symmetry_equiv_pos_as_xyz
  1  'x, y, z'
loop_
 _atom_site_type_symbol
 _atom_site_label
 _atom_site_symmetry_multiplicity
 _atom_site_fract_x
 _atom_site_fract_y
 _atom_site_fract_z
 _atom_site_occupancy
  Dy  Dy0  1  0.995833  0.669423  0.750230  1
  Dy  Dy1  1  0.005448  0.331779  0.249941  1
  Dy  Dy2  1  0.668221  0.994552  0.750059  1
  Dy  Dy3  1  0.330577  0.004167  0.249770  1
  Al  Al4  1  0.124577  0.125306  0.750633  1
  Al  Al5  1  0.874694  0.875423  0.249367  1
  Al  Al6  1  0.999924  0.330786  0.576116  1
  Al  Al7  1  0.999348  0.669491  0.423574  1
  Al  Al8  1  0.996429  0.665273  0.074853  1
  Al  Al9  1  0.334727  0.003571  0.925147  1
  Al  Al10  1  0.996492  0.330930  0.925152  1
  Al  Al11  1  0.669070  0.003508  0.074848  1
  Al  Al12  1  0.669214  0.000076  0.423884  1
  Al  Al13  1  0.330509  0.000652  0.576426  1
  Al  Al14  1  0.332549  0.329205  0.054014  1
  Al  Al15  1  0.670795  0.667451  0.945986  1
  Al  Al16  1  0.670044  0.670015  0.556133  1
  Al  Al17  1  0.329985  0.329956  0.443867  1
  Al  Al18  1  0.339267  0.544207  0.750501  1
  Al  Al19  1  0.660227  0.452427  0.246676  1
  Al  Al20  1  0.547573  0.339773  0.753324  1
  Al  Al21  1  0.455793  0.660733  0.249499  1
  Pt  Pt22  1  0.672021  0.327979  0.500000  1
  Pt  Pt23  1  0.327393  0.672607  0.500000  1
  Pt  Pt24  1  0.327410  0.672590  0.000000  1
  Rh  Rh25  1  0.672013  0.327987  0.000000  1
  Rh  Rh26  1  0.999761  0.000239  0.500000  1
  Rh  Rh27  1  0.000107  0.999893  0.000000  1
