# generated using pymatgen
data_Sr2Ir(RhO4)3
_symmetry_space_group_name_H-M   'P 1'
_cell_length_a   5.29955603
_cell_length_b   5.29943207
_cell_length_c   10.56673947
_cell_angle_alpha   90.00543992
_cell_angle_beta   90.00046531
_cell_angle_gamma   119.99574502
_symmetry_Int_Tables_number   1
_chemical_formula_structural   Sr2Ir(RhO4)3
_chemical_formula_sum   'Sr2 Ir1 Rh3 O12'
_cell_volume   257.01535231
_cell_formula_units_Z   1
loop_
 _symmetry_equiv_pos_site_id
 _symmetry_equiv_pos_as_xyz
  1  'x, y, z'
loop_
 _atom_site_type_symbol
 _atom_site_label
 _atom_site_symmetry_multiplicity
 _atom_site_fract_x
 _atom_site_fract_y
 _atom_site_fract_z
 _atom_site_occupancy
  Sr  Sr0  1  0.000008  0.000010  0.004927  1
  Sr  Sr1  1  0.000016  0.000000  0.495037  1
  Ir  Ir2  1  0.666637  0.333355  0.750110  1
  Rh  Rh3  1  0.333315  0.666677  0.249890  1
  Rh  Rh4  1  0.666646  0.333306  0.249890  1
  Rh  Rh5  1  0.333331  0.666635  0.750129  1
  O  O6  1  0.620772  0.620771  0.351600  1
  O  O7  1  0.623423  0.617141  0.851041  1
  O  O8  1  0.000025  0.379265  0.351600  1
  O  O9  1  0.993822  0.376618  0.851048  1
  O  O10  1  0.379217  0.999984  0.351592  1
  O  O11  1  0.382784  0.006191  0.851034  1
  O  O12  1  0.620609  0.999995  0.148213  1
  O  O13  1  0.623457  0.006167  0.649140  1
  O  O14  1  0.379366  0.379392  0.148210  1
  O  O15  1  0.382724  0.376500  0.649159  1
  O  O16  1  0.000012  0.620671  0.148222  1
  O  O17  1  0.993836  0.617324  0.649158  1
