# generated using pymatgen
data_Na3(Si3Pd10)2
_symmetry_space_group_name_H-M   'P 1'
_cell_length_a   8.66698149
_cell_length_b   8.66698099
_cell_length_c   8.66698100
_cell_angle_alpha   59.99999614
_cell_angle_beta   59.99999806
_cell_angle_gamma   59.99999678
_symmetry_Int_Tables_number   1
_chemical_formula_structural   Na3(Si3Pd10)2
_chemical_formula_sum   'Na3 Si6 Pd20'
_cell_volume   460.35040562
_cell_formula_units_Z   1
loop_
 _symmetry_equiv_pos_site_id
 _symmetry_equiv_pos_as_xyz
  1  'x, y, z'
loop_
 _atom_site_type_symbol
 _atom_site_label
 _atom_site_symmetry_multiplicity
 _atom_site_fract_x
 _atom_site_fract_y
 _atom_site_fract_z
 _atom_site_occupancy
  Na  Na0  1  0.250000  0.250000  0.250000  1
  Na  Na1  1  0.750000  0.750000  0.750000  1
  Na  Na2  1  0.000000  0.000000  0.000000  1
  Si  Si3  1  0.729883  0.729883  0.270117  1
  Si  Si4  1  0.270117  0.270117  0.729883  1
  Si  Si5  1  0.270117  0.729883  0.729883  1
  Si  Si6  1  0.729883  0.270117  0.729883  1
  Si  Si7  1  0.270117  0.729883  0.270117  1
  Si  Si8  1  0.729883  0.270117  0.270117  1
  Pd  Pd9  1  0.617082  0.617082  0.617082  1
  Pd  Pd10  1  0.382918  0.851246  0.382918  1
  Pd  Pd11  1  0.657538  0.342462  0.000000  1
  Pd  Pd12  1  0.000000  0.342462  0.657538  1
  Pd  Pd13  1  0.657538  0.000000  0.000000  1
  Pd  Pd14  1  0.617082  0.617082  0.148754  1
  Pd  Pd15  1  0.000000  0.000000  0.657538  1
  Pd  Pd16  1  0.000000  0.342462  0.000000  1
  Pd  Pd17  1  0.657538  0.000000  0.342462  1
  Pd  Pd18  1  0.342462  0.000000  0.000000  1
  Pd  Pd19  1  0.000000  0.657538  0.000000  1
  Pd  Pd20  1  0.342462  0.000000  0.657538  1
  Pd  Pd21  1  0.000000  0.657538  0.342462  1
  Pd  Pd22  1  0.342462  0.657538  0.000000  1
  Pd  Pd23  1  0.148754  0.617082  0.617082  1
  Pd  Pd24  1  0.382918  0.382918  0.382918  1
  Pd  Pd25  1  0.851246  0.382918  0.382918  1
  Pd  Pd26  1  0.382918  0.382918  0.851246  1
  Pd  Pd27  1  0.617082  0.148754  0.617082  1
  Pd  Pd28  1  0.000000  0.000000  0.342462  1
