# generated using pymatgen
data_CsRhF5
_symmetry_space_group_name_H-M   'P 1'
_cell_length_a   5.77160300
_cell_length_b   8.29965000
_cell_length_c   11.33812100
_cell_angle_alpha   90.00000000
_cell_angle_beta   90.00000000
_cell_angle_gamma   90.00000000
_symmetry_Int_Tables_number   1
_chemical_formula_structural   CsRhF5
_chemical_formula_sum   'Cs4 Rh4 F20'
_cell_volume   543.12190168
_cell_formula_units_Z   4
loop_
 _symmetry_equiv_pos_site_id
 _symmetry_equiv_pos_as_xyz
  1  'x, y, z'
loop_
 _atom_site_type_symbol
 _atom_site_label
 _atom_site_symmetry_multiplicity
 _atom_site_fract_x
 _atom_site_fract_y
 _atom_site_fract_z
 _atom_site_occupancy
  Cs  Cs0  1  0.500000  0.886860  0.972004  1
  Cs  Cs1  1  0.500000  0.113140  0.472004  1
  Cs  Cs2  1  0.000000  0.351763  0.120825  1
  Cs  Cs3  1  0.000000  0.648237  0.620825  1
  Rh  Rh4  1  0.000000  0.867530  0.242802  1
  Rh  Rh5  1  0.500000  0.581637  0.335391  1
  Rh  Rh6  1  0.500000  0.418363  0.835391  1
  Rh  Rh7  1  0.000000  0.132470  0.742802  1
  F  F8  1  0.266239  0.536238  0.918062  1
  F  F9  1  0.748933  0.695800  0.239603  1
  F  F10  1  0.233489  0.031790  0.235736  1
  F  F11  1  0.748933  0.304200  0.739603  1
  F  F12  1  0.500000  0.253455  0.954913  1
  F  F13  1  0.766511  0.968210  0.735736  1
  F  F14  1  0.500000  0.580714  0.713314  1
  F  F15  1  0.233489  0.968210  0.735736  1
  F  F16  1  0.000000  0.850835  0.073108  1
  F  F17  1  0.766511  0.031790  0.235736  1
  F  F18  1  0.500000  0.419286  0.213314  1
  F  F19  1  0.733761  0.463762  0.418062  1
  F  F20  1  0.251067  0.695800  0.239603  1
  F  F21  1  0.000000  0.874527  0.412349  1
  F  F22  1  0.000000  0.149165  0.573108  1
  F  F23  1  0.251067  0.304200  0.739603  1
  F  F24  1  0.000000  0.125473  0.912349  1
  F  F25  1  0.266239  0.463762  0.418062  1
  F  F26  1  0.500000  0.746545  0.454913  1
  F  F27  1  0.733761  0.536238  0.918062  1
