# generated using pymatgen
data_SmMnPt3Au
_symmetry_space_group_name_H-M   'P 1'
_cell_length_a   5.24979900
_cell_length_b   5.48415536
_cell_length_c   5.48415500
_cell_angle_alpha   59.99999611
_cell_angle_beta   58.51196020
_cell_angle_gamma   58.51196549
_symmetry_Int_Tables_number   1
_chemical_formula_structural   SmMnPt3Au
_chemical_formula_sum   'Sm1 Mn1 Pt3 Au1'
_cell_volume   109.06962627
_cell_formula_units_Z   1
loop_
 _symmetry_equiv_pos_site_id
 _symmetry_equiv_pos_as_xyz
  1  'x, y, z'
loop_
 _atom_site_type_symbol
 _atom_site_label
 _atom_site_symmetry_multiplicity
 _atom_site_fract_x
 _atom_site_fract_y
 _atom_site_fract_z
 _atom_site_occupancy
  Sm  Sm0  1  0.262701  0.245766  0.245766  1
  Mn  Mn1  1  0.119319  0.626894  0.626894  1
  Pt  Pt2  1  0.621320  0.627061  0.627061  1
  Pt  Pt3  1  0.621320  0.627061  0.124558  1
  Pt  Pt4  1  0.621320  0.124558  0.627061  1
  Au  Au5  1  0.004022  0.998659  0.998659  1
