# generated using pymatgen
data_Sc4Re3B8MoOs6
_symmetry_space_group_name_H-M   'P 1'
_cell_length_a   8.66045553
_cell_length_b   3.04741500
_cell_length_c   10.07267133
_cell_angle_alpha   90.00000000
_cell_angle_beta   90.24806957
_cell_angle_gamma   90.00000000
_symmetry_Int_Tables_number   1
_chemical_formula_structural   Sc4Re3B8MoOs6
_chemical_formula_sum   'Sc4 Re3 B8 Mo1 Os6'
_cell_volume   265.83547109
_cell_formula_units_Z   1
loop_
 _symmetry_equiv_pos_site_id
 _symmetry_equiv_pos_as_xyz
  1  'x, y, z'
loop_
 _atom_site_type_symbol
 _atom_site_label
 _atom_site_symmetry_multiplicity
 _atom_site_fract_x
 _atom_site_fract_y
 _atom_site_fract_z
 _atom_site_occupancy
  Sc  Sc0  1  0.159110  0.500000  0.682572  1
  Sc  Sc1  1  0.842110  0.500000  0.318506  1
  Sc  Sc2  1  0.660157  0.500000  0.818101  1
  Sc  Sc3  1  0.341386  0.500000  0.180699  1
  Re  Re4  1  0.838389  0.000000  0.048250  1
  Re  Re5  1  0.660009  0.000000  0.546449  1
  Re  Re6  1  0.340145  0.000000  0.452894  1
  B  B7  1  0.352166  0.500000  0.899386  1
  B  B8  1  0.649804  0.500000  0.099639  1
  B  B9  1  0.465872  0.500000  0.588183  1
  B  B10  1  0.534955  0.500000  0.410790  1
  B  B11  1  0.848467  0.500000  0.598995  1
  B  B12  1  0.150308  0.500000  0.400978  1
  B  B13  1  0.961198  0.500000  0.913558  1
  B  B14  1  0.031939  0.500000  0.088569  1
  Mo  Mo15  1  0.160022  0.000000  0.953062  1
  Os  Os16  1  0.406910  0.000000  0.738083  1
  Os  Os17  1  0.595083  0.000000  0.261030  1
  Os  Os18  1  0.905234  0.000000  0.760839  1
  Os  Os19  1  0.094635  0.000000  0.239597  1
  Os  Os20  1  0.502038  0.000000  0.999152  1
  Os  Os21  1  0.000065  0.000000  0.500668  1
