# generated using pymatgen
data_GaIrSe3
_symmetry_space_group_name_H-M   'P 1'
_cell_length_a   3.85951900
_cell_length_b   10.37555700
_cell_length_c   12.80212300
_cell_angle_alpha   90.00000000
_cell_angle_beta   90.00000000
_cell_angle_gamma   90.00000000
_symmetry_Int_Tables_number   1
_chemical_formula_structural   GaIrSe3
_chemical_formula_sum   'Ga4 Ir4 Se12'
_cell_volume   512.65665484
_cell_formula_units_Z   4
loop_
 _symmetry_equiv_pos_site_id
 _symmetry_equiv_pos_as_xyz
  1  'x, y, z'
loop_
 _atom_site_type_symbol
 _atom_site_label
 _atom_site_symmetry_multiplicity
 _atom_site_fract_x
 _atom_site_fract_y
 _atom_site_fract_z
 _atom_site_occupancy
  Ga  Ga0  1  0.750000  0.260863  0.798596  1
  Ga  Ga1  1  0.250000  0.739137  0.201404  1
  Ga  Ga2  1  0.750000  0.760863  0.701404  1
  Ga  Ga3  1  0.250000  0.239137  0.298596  1
  Ir  Ir4  1  0.250000  0.408985  0.608843  1
  Ir  Ir5  1  0.750000  0.591015  0.391157  1
  Ir  Ir6  1  0.250000  0.908985  0.891157  1
  Ir  Ir7  1  0.750000  0.091015  0.108843  1
  Se  Se8  1  0.250000  0.936648  0.087733  1
  Se  Se9  1  0.750000  0.063352  0.912267  1
  Se  Se10  1  0.250000  0.436648  0.412267  1
  Se  Se11  1  0.750000  0.563352  0.587733  1
  Se  Se12  1  0.750000  0.092273  0.306786  1
  Se  Se13  1  0.250000  0.907727  0.693214  1
  Se  Se14  1  0.750000  0.592273  0.193214  1
  Se  Se15  1  0.250000  0.407727  0.806786  1
  Se  Se16  1  0.250000  0.250516  0.108707  1
  Se  Se17  1  0.750000  0.749484  0.891293  1
  Se  Se18  1  0.250000  0.750516  0.391293  1
  Se  Se19  1  0.750000  0.249484  0.608707  1
