# generated using pymatgen
data_Sc6GaCo2
_symmetry_space_group_name_H-M   'P 1'
_cell_length_a   7.68908468
_cell_length_b   7.68908408
_cell_length_c   7.68908406
_cell_angle_alpha   111.51193180
_cell_angle_beta   110.12711542
_cell_angle_gamma   106.81012007
_symmetry_Int_Tables_number   1
_chemical_formula_structural   Sc6GaCo2
_chemical_formula_sum   'Sc12 Ga2 Co4'
_cell_volume   349.33027801
_cell_formula_units_Z   2
loop_
 _symmetry_equiv_pos_site_id
 _symmetry_equiv_pos_as_xyz
  1  'x, y, z'
loop_
 _atom_site_type_symbol
 _atom_site_label
 _atom_site_symmetry_multiplicity
 _atom_site_fract_x
 _atom_site_fract_y
 _atom_site_fract_z
 _atom_site_occupancy
  Sc  Sc0  1  0.441184  0.238961  0.202223  1
  Sc  Sc1  1  0.558816  0.761039  0.797777  1
  Sc  Sc2  1  0.036737  0.238961  0.797777  1
  Sc  Sc3  1  0.963263  0.761039  0.202223  1
  Sc  Sc4  1  0.183929  0.279816  0.463746  1
  Sc  Sc5  1  0.816071  0.720184  0.536254  1
  Sc  Sc6  1  0.183929  0.720184  0.904113  1
  Sc  Sc7  1  0.816071  0.279816  0.095887  1
  Sc  Sc8  1  0.324626  0.627901  0.303275  1
  Sc  Sc9  1  0.675374  0.372099  0.696725  1
  Sc  Sc10  1  0.324626  0.021351  0.696725  1
  Sc  Sc11  1  0.675374  0.978649  0.303275  1
  Ga  Ga12  1  0.500000  0.500000  0.000000  1
  Ga  Ga13  1  0.000000  0.000000  0.000000  1
  Co  Co14  1  0.344985  0.000000  0.344985  1
  Co  Co15  1  0.655015  0.000000  0.655015  1
  Co  Co16  1  0.121537  0.621537  0.500000  1
  Co  Co17  1  0.878463  0.378463  0.500000  1
