# generated using pymatgen
data_HoEr3Lu4(WO6)4
_symmetry_space_group_name_H-M   'P 1'
_cell_length_a   5.34127200
_cell_length_b   7.62617091
_cell_length_c   11.32200503
_cell_angle_alpha   75.39918843
_cell_angle_beta   90.00000000
_cell_angle_gamma   90.00000000
_symmetry_Int_Tables_number   1
_chemical_formula_structural   HoEr3Lu4(WO6)4
_chemical_formula_sum   'Ho1 Er3 Lu4 W4 O24'
_cell_volume   446.29068917
_cell_formula_units_Z   1
loop_
 _symmetry_equiv_pos_site_id
 _symmetry_equiv_pos_as_xyz
  1  'x, y, z'
loop_
 _atom_site_type_symbol
 _atom_site_label
 _atom_site_symmetry_multiplicity
 _atom_site_fract_x
 _atom_site_fract_y
 _atom_site_fract_z
 _atom_site_occupancy
  Ho  Ho0  1  0.315289  0.500000  0.750000  1
  Er  Er1  1  0.257588  0.000000  0.750000  1
  Er  Er2  1  0.742320  0.000000  0.250000  1
  Er  Er3  1  0.684676  0.500000  0.250000  1
  Lu  Lu4  1  0.182480  0.793574  0.079309  1
  Lu  Lu5  1  0.182480  0.206426  0.420691  1
  Lu  Lu6  1  0.817445  0.206224  0.920822  1
  Lu  Lu7  1  0.817445  0.793776  0.579178  1
  W  W8  1  0.743357  0.723951  0.885938  1
  W  W9  1  0.256638  0.723859  0.385746  1
  W  W10  1  0.743357  0.276049  0.614062  1
  W  W11  1  0.256638  0.276141  0.114254  1
  O  O12  1  0.541253  0.155949  0.067737  1
  O  O13  1  0.046404  0.057738  0.103421  1
  O  O14  1  0.020147  0.712721  0.770051  1
  O  O15  1  0.458462  0.155976  0.567672  1
  O  O16  1  0.359603  0.487394  0.385597  1
  O  O17  1  0.953692  0.057853  0.603186  1
  O  O18  1  0.543080  0.793285  0.724955  1
  O  O19  1  0.457182  0.792950  0.224909  1
  O  O20  1  0.147090  0.634505  0.550102  1
  O  O21  1  0.046404  0.942262  0.396579  1
  O  O22  1  0.458462  0.844024  0.932328  1
  O  O23  1  0.457182  0.207050  0.275091  1
  O  O24  1  0.852529  0.365545  0.449431  1
  O  O25  1  0.641478  0.487352  0.885978  1
  O  O26  1  0.359603  0.512606  0.114403  1
  O  O27  1  0.953692  0.942147  0.896814  1
  O  O28  1  0.541253  0.844051  0.432263  1
  O  O29  1  0.979221  0.287994  0.229871  1
  O  O30  1  0.543080  0.206715  0.775045  1
  O  O31  1  0.852529  0.634455  0.050569  1
  O  O32  1  0.020147  0.287279  0.729949  1
  O  O33  1  0.147090  0.365495  0.949898  1
  O  O34  1  0.979221  0.712006  0.270129  1
  O  O35  1  0.641478  0.512648  0.614022  1
