# generated using pymatgen
data_Ta12Al8Ir3WC4
_symmetry_space_group_name_H-M   'P 1'
_cell_length_a   8.34721916
_cell_length_b   8.31923259
_cell_length_c   8.31923300
_cell_angle_alpha   60.00000234
_cell_angle_beta   60.11085029
_cell_angle_gamma   60.11084765
_symmetry_Int_Tables_number   1
_chemical_formula_structural   Ta12Al8Ir3WC4
_chemical_formula_sum   'Ta12 Al8 Ir3 W1 C4'
_cell_volume   409.18434036
_cell_formula_units_Z   1
loop_
 _symmetry_equiv_pos_site_id
 _symmetry_equiv_pos_as_xyz
  1  'x, y, z'
loop_
 _atom_site_type_symbol
 _atom_site_label
 _atom_site_symmetry_multiplicity
 _atom_site_fract_x
 _atom_site_fract_y
 _atom_site_fract_z
 _atom_site_occupancy
  Ta  Ta0  1  0.564343  0.943109  0.549439  1
  Ta  Ta1  1  0.312997  0.687057  0.687057  1
  Ta  Ta2  1  0.685657  0.306891  0.306891  1
  Ta  Ta3  1  0.312997  0.687057  0.312890  1
  Ta  Ta4  1  0.685657  0.700561  0.306891  1
  Ta  Ta5  1  0.312997  0.312890  0.687057  1
  Ta  Ta6  1  0.564343  0.549439  0.943109  1
  Ta  Ta7  1  0.937003  0.562943  0.562943  1
  Ta  Ta8  1  0.564343  0.943109  0.943109  1
  Ta  Ta9  1  0.937003  0.937110  0.562943  1
  Ta  Ta10  1  0.685657  0.306891  0.700561  1
  Ta  Ta11  1  0.937003  0.562943  0.937110  1
  Al  Al12  1  0.923335  0.912924  0.912924  1
  Al  Al13  1  0.993636  0.335454  0.335454  1
  Al  Al14  1  0.326665  0.999180  0.337076  1
  Al  Al15  1  0.326665  0.337076  0.999180  1
  Al  Al16  1  0.923335  0.250820  0.912924  1
  Al  Al17  1  0.923335  0.912924  0.250820  1
  Al  Al18  1  0.256364  0.914546  0.914546  1
  Al  Al19  1  0.326665  0.337076  0.337076  1
  Ir  Ir20  1  0.125000  0.125000  0.125000  1
  Ir  Ir21  1  0.125000  0.625000  0.125000  1
  Ir  Ir22  1  0.125000  0.125000  0.625000  1
  W  W23  1  0.625000  0.125000  0.125000  1
  C  C24  1  0.625000  0.625000  0.625000  1
  C  C25  1  0.125000  0.625000  0.625000  1
  C  C26  1  0.625000  0.125000  0.625000  1
  C  C27  1  0.625000  0.625000  0.125000  1
