# generated using pymatgen
data_ErZnInCu2Ir
_symmetry_space_group_name_H-M   'P 1'
_cell_length_a   5.28737724
_cell_length_b   5.28737780
_cell_length_c   5.19189382
_cell_angle_alpha   58.49137887
_cell_angle_beta   58.49137748
_cell_angle_gamma   58.36396996
_symmetry_Int_Tables_number   1
_chemical_formula_structural   ErZnInCu2Ir
_chemical_formula_sum   'Er1 Zn1 In1 Cu2 Ir1'
_cell_volume   98.99094352
_cell_formula_units_Z   1
loop_
 _symmetry_equiv_pos_site_id
 _symmetry_equiv_pos_as_xyz
  1  'x, y, z'
loop_
 _atom_site_type_symbol
 _atom_site_label
 _atom_site_symmetry_multiplicity
 _atom_site_fract_x
 _atom_site_fract_y
 _atom_site_fract_z
 _atom_site_occupancy
  Er  Er0  1  0.251020  0.251020  0.252373  1
  Zn  Zn1  1  0.623918  0.623918  0.126348  1
  In  In2  1  0.997212  0.997212  0.999890  1
  Cu  Cu3  1  0.625515  0.125329  0.623161  1
  Cu  Cu4  1  0.125329  0.625515  0.623161  1
  Ir  Ir5  1  0.627005  0.627005  0.625065  1
