# generated using pymatgen
data_Tb5HoAl24(OsRh)4
_symmetry_space_group_name_H-M   'P 1'
_cell_length_a   8.78267874
_cell_length_b   8.82399429
_cell_length_c   9.57545800
_cell_angle_alpha   90.00000000
_cell_angle_beta   90.00000000
_cell_angle_gamma   119.47064338
_symmetry_Int_Tables_number   1
_chemical_formula_structural   Tb5HoAl24(OsRh)4
_chemical_formula_sum   'Tb5 Ho1 Al24 Os4 Rh4'
_cell_volume   646.06225200
_cell_formula_units_Z   1
loop_
 _symmetry_equiv_pos_site_id
 _symmetry_equiv_pos_as_xyz
  1  'x, y, z'
loop_
 _atom_site_type_symbol
 _atom_site_label
 _atom_site_symmetry_multiplicity
 _atom_site_fract_x
 _atom_site_fract_y
 _atom_site_fract_z
 _atom_site_occupancy
  Tb  Tb0  1  0.190156  0.382018  0.250000  1
  Tb  Tb1  1  0.809866  0.617880  0.750000  1
  Tb  Tb2  1  0.614497  0.813879  0.250000  1
  Tb  Tb3  1  0.385816  0.186142  0.750000  1
  Tb  Tb4  1  0.197649  0.812609  0.250000  1
  Ho  Ho5  1  0.801206  0.187546  0.750000  1
  Al  Al6  1  0.333301  0.667628  0.024441  1
  Al  Al7  1  0.667011  0.332325  0.975069  1
  Al  Al8  1  0.667011  0.332325  0.524931  1
  Al  Al9  1  0.333301  0.667628  0.475559  1
  Al  Al10  1  0.162989  0.325487  0.577207  1
  Al  Al11  1  0.836628  0.674296  0.423113  1
  Al  Al12  1  0.672461  0.836944  0.576435  1
  Al  Al13  1  0.836628  0.674296  0.076887  1
  Al  Al14  1  0.327813  0.163376  0.423897  1
  Al  Al15  1  0.162989  0.325487  0.922793  1
  Al  Al16  1  0.164983  0.836579  0.576626  1
  Al  Al17  1  0.327813  0.163376  0.076103  1
  Al  Al18  1  0.835069  0.163445  0.423863  1
  Al  Al19  1  0.672461  0.836944  0.923565  1
  Al  Al20  1  0.835069  0.163445  0.076137  1
  Al  Al21  1  0.164983  0.836579  0.923374  1
  Al  Al22  1  0.562746  0.127464  0.250000  1
  Al  Al23  1  0.437714  0.872769  0.750000  1
  Al  Al24  1  0.877836  0.440416  0.250000  1
  Al  Al25  1  0.121660  0.558921  0.750000  1
  Al  Al26  1  0.561971  0.439870  0.250000  1
  Al  Al27  1  0.437998  0.560111  0.750000  1
  Al  Al28  1  0.000332  0.002352  0.250000  1
  Al  Al29  1  0.999232  0.998094  0.750000  1
  Os  Os30  1  0.500394  0.000229  0.999701  1
  Os  Os31  1  0.500394  0.000229  0.500299  1
  Os  Os32  1  0.000040  0.999979  0.999949  1
  Os  Os33  1  0.000040  0.999979  0.500051  1
  Rh  Rh34  1  0.999908  0.499758  0.999855  1
  Rh  Rh35  1  0.500065  0.499918  0.999937  1
  Rh  Rh36  1  0.999908  0.499758  0.500145  1
  Rh  Rh37  1  0.500065  0.499918  0.500063  1
