# generated using pymatgen
data_Rb2Hg(S4O13)2
_symmetry_space_group_name_H-M   'P 1'
_cell_length_a   7.55338845
_cell_length_b   9.14050921
_cell_length_c   9.64529034
_cell_angle_alpha   105.87303026
_cell_angle_beta   88.90598758
_cell_angle_gamma   106.01768284
_symmetry_Int_Tables_number   1
_chemical_formula_structural   Rb2Hg(S4O13)2
_chemical_formula_sum   'Rb2 Hg1 S8 O26'
_cell_volume   614.52307198
_cell_formula_units_Z   1
loop_
 _symmetry_equiv_pos_site_id
 _symmetry_equiv_pos_as_xyz
  1  'x, y, z'
loop_
 _atom_site_type_symbol
 _atom_site_label
 _atom_site_symmetry_multiplicity
 _atom_site_fract_x
 _atom_site_fract_y
 _atom_site_fract_z
 _atom_site_occupancy
  Rb  Rb0  1  0.127654  0.248937  0.877152  1
  Rb  Rb1  1  0.872346  0.751063  0.122848  1
  Hg  Hg2  1  0.500000  0.500000  0.500000  1
  S  S3  1  0.674370  0.355011  0.712839  1
  S  S4  1  0.325630  0.644989  0.287161  1
  S  S5  1  0.872405  0.191331  0.483241  1
  S  S6  1  0.127595  0.808669  0.516759  1
  S  S7  1  0.373705  0.136844  0.214887  1
  S  S8  1  0.626295  0.863156  0.785113  1
  S  S9  1  0.787900  0.222669  0.196639  1
  S  S10  1  0.212100  0.777331  0.803361  1
  O  O11  1  0.697046  0.191542  0.579177  1
  O  O12  1  0.302954  0.808458  0.420823  1
  O  O13  1  0.712250  0.482416  0.635612  1
  O  O14  1  0.287750  0.517584  0.364388  1
  O  O15  1  0.817310  0.391428  0.822968  1
  O  O16  1  0.182690  0.608572  0.177032  1
  O  O17  1  0.837291  0.293751  0.377286  1
  O  O18  1  0.162709  0.706249  0.622714  1
  O  O19  1  0.038071  0.285731  0.568676  1
  O  O20  1  0.961929  0.714269  0.431324  1
  O  O21  1  0.484454  0.298866  0.741714  1
  O  O22  1  0.515546  0.701134  0.258286  1
  O  O23  1  0.847153  0.030233  0.402972  1
  O  O24  1  0.152847  0.969767  0.597028  1
  O  O25  1  0.400250  0.217402  0.369674  1
  O  O26  1  0.599750  0.782598  0.630326  1
  O  O27  1  0.602382  0.093940  0.181353  1
  O  O28  1  0.397618  0.906060  0.818647  1
  O  O29  1  0.774793  0.362506  0.163641  1
  O  O30  1  0.225207  0.637494  0.836359  1
  O  O31  1  0.925107  0.145755  0.137378  1
  O  O32  1  0.074893  0.854245  0.862622  1
  O  O33  1  0.366928  0.231996  0.119599  1
  O  O34  1  0.633072  0.768004  0.880401  1
  O  O35  1  0.262624  0.974901  0.177958  1
  O  O36  1  0.737376  0.025099  0.822042  1
