# generated using pymatgen
data_Mn3Co2SiN
_symmetry_space_group_name_H-M   'P 1'
_cell_length_a   7.50557645
_cell_length_b   7.50557584
_cell_length_c   7.50557600
_cell_angle_alpha   59.99999928
_cell_angle_beta   60.00000196
_cell_angle_gamma   60.00000117
_symmetry_Int_Tables_number   1
_chemical_formula_structural   Mn3Co2SiN
_chemical_formula_sum   'Mn12 Co8 Si4 N4'
_cell_volume   298.97653695
_cell_formula_units_Z   4
loop_
 _symmetry_equiv_pos_site_id
 _symmetry_equiv_pos_as_xyz
  1  'x, y, z'
loop_
 _atom_site_type_symbol
 _atom_site_label
 _atom_site_symmetry_multiplicity
 _atom_site_fract_x
 _atom_site_fract_y
 _atom_site_fract_z
 _atom_site_occupancy
  Mn  Mn0  1  0.691447  0.308553  0.691447  1
  Mn  Mn1  1  0.558553  0.558553  0.941447  1
  Mn  Mn2  1  0.558553  0.941447  0.558553  1
  Mn  Mn3  1  0.941447  0.941447  0.558553  1
  Mn  Mn4  1  0.941447  0.558553  0.558553  1
  Mn  Mn5  1  0.941447  0.558553  0.941447  1
  Mn  Mn6  1  0.691447  0.308553  0.308553  1
  Mn  Mn7  1  0.308553  0.691447  0.308553  1
  Mn  Mn8  1  0.308553  0.308553  0.691447  1
  Mn  Mn9  1  0.308553  0.691447  0.691447  1
  Mn  Mn10  1  0.691447  0.691447  0.308553  1
  Mn  Mn11  1  0.558553  0.941447  0.941447  1
  Co  Co12  1  0.252635  0.915789  0.915789  1
  Co  Co13  1  0.915789  0.252635  0.915789  1
  Co  Co14  1  0.915789  0.915789  0.915789  1
  Co  Co15  1  0.915789  0.915789  0.252635  1
  Co  Co16  1  0.997365  0.334211  0.334211  1
  Co  Co17  1  0.334211  0.334211  0.997365  1
  Co  Co18  1  0.334211  0.997365  0.334211  1
  Co  Co19  1  0.334211  0.334211  0.334211  1
  Si  Si20  1  0.625000  0.125000  0.125000  1
  Si  Si21  1  0.125000  0.125000  0.625000  1
  Si  Si22  1  0.125000  0.625000  0.125000  1
  Si  Si23  1  0.125000  0.125000  0.125000  1
  N  N24  1  0.625000  0.625000  0.625000  1
  N  N25  1  0.125000  0.625000  0.625000  1
  N  N26  1  0.625000  0.125000  0.625000  1
  N  N27  1  0.625000  0.625000  0.125000  1
