# generated using pymatgen
data_Ir2OsRh3W2
_symmetry_space_group_name_H-M   'P 1'
_cell_length_a   5.51687900
_cell_length_b   5.54675277
_cell_length_c   4.40824300
_cell_angle_alpha   90.00000000
_cell_angle_beta   90.00000000
_cell_angle_gamma   119.82199216
_symmetry_Int_Tables_number   1
_chemical_formula_structural   Ir2OsRh3W2
_chemical_formula_sum   'Ir2 Os1 Rh3 W2'
_cell_volume   117.03200342
_cell_formula_units_Z   1
loop_
 _symmetry_equiv_pos_site_id
 _symmetry_equiv_pos_as_xyz
  1  'x, y, z'
loop_
 _atom_site_type_symbol
 _atom_site_label
 _atom_site_symmetry_multiplicity
 _atom_site_fract_x
 _atom_site_fract_y
 _atom_site_fract_z
 _atom_site_occupancy
  Ir  Ir0  1  0.165859  0.833052  0.750000  1
  Ir  Ir1  1  0.667191  0.833052  0.750000  1
  Os  Os2  1  0.833571  0.667141  0.250000  1
  Rh  Rh3  1  0.333591  0.166475  0.250000  1
  Rh  Rh4  1  0.832885  0.166475  0.250000  1
  Rh  Rh5  1  0.167482  0.334964  0.750000  1
  W  W6  1  0.332125  0.664252  0.250000  1
  W  W7  1  0.667295  0.334589  0.750000  1
