# generated using pymatgen
data_PrNd5Y4(In2Pd)4
_symmetry_space_group_name_H-M   'P 1'
_cell_length_a   3.73050000
_cell_length_b   8.32501806
_cell_length_c   18.53996114
_cell_angle_alpha   90.01404756
_cell_angle_beta   90.00000000
_cell_angle_gamma   90.00000000
_symmetry_Int_Tables_number   1
_chemical_formula_structural   PrNd5Y4(In2Pd)4
_chemical_formula_sum   'Pr1 Nd5 Y4 In8 Pd4'
_cell_volume   575.78591284
_cell_formula_units_Z   1
loop_
 _symmetry_equiv_pos_site_id
 _symmetry_equiv_pos_as_xyz
  1  'x, y, z'
loop_
 _atom_site_type_symbol
 _atom_site_label
 _atom_site_symmetry_multiplicity
 _atom_site_fract_x
 _atom_site_fract_y
 _atom_site_fract_z
 _atom_site_occupancy
  Pr  Pr0  1  0.500000  0.000000  0.000000  1
  Nd  Nd1  1  0.500000  0.237584  0.785357  1
  Nd  Nd2  1  0.500000  0.762416  0.214643  1
  Nd  Nd3  1  0.500000  0.262379  0.285347  1
  Nd  Nd4  1  0.500000  0.737621  0.714653  1
  Nd  Nd5  1  0.500000  0.500000  0.500000  1
  Y  Y6  1  0.500000  0.120930  0.585003  1
  Y  Y7  1  0.500000  0.879070  0.414997  1
  Y  Y8  1  0.500000  0.378955  0.085016  1
  Y  Y9  1  0.500000  0.621045  0.914984  1
  In  In10  1  0.000000  0.087290  0.152922  1
  In  In11  1  0.000000  0.912710  0.847078  1
  In  In12  1  0.000000  0.412872  0.652669  1
  In  In13  1  0.000000  0.587128  0.347331  1
  In  In14  1  0.000000  0.194678  0.436977  1
  In  In15  1  0.000000  0.805322  0.563023  1
  In  In16  1  0.000000  0.305988  0.936868  1
  In  In17  1  0.000000  0.694012  0.063132  1
  Pd  Pd18  1  0.000000  0.024552  0.694460  1
  Pd  Pd19  1  0.000000  0.975448  0.305540  1
  Pd  Pd20  1  0.000000  0.475470  0.194519  1
  Pd  Pd21  1  0.000000  0.524530  0.805481  1
