# generated using pymatgen
data_Ac3Ce(PrIr9)2
_symmetry_space_group_name_H-M   'P 1'
_cell_length_a   5.44673451
_cell_length_b   5.44398869
_cell_length_c   17.73458662
_cell_angle_alpha   90.02407056
_cell_angle_beta   89.95095170
_cell_angle_gamma   120.00994482
_symmetry_Int_Tables_number   1
_chemical_formula_structural   Ac3Ce(PrIr9)2
_chemical_formula_sum   'Ac3 Ce1 Pr2 Ir18'
_cell_volume   455.36687358
_cell_formula_units_Z   1
loop_
 _symmetry_equiv_pos_site_id
 _symmetry_equiv_pos_as_xyz
  1  'x, y, z'
loop_
 _atom_site_type_symbol
 _atom_site_label
 _atom_site_symmetry_multiplicity
 _atom_site_fract_x
 _atom_site_fract_y
 _atom_site_fract_z
 _atom_site_occupancy
  Ac  Ac0  1  0.666674  0.333360  0.461078  1
  Ac  Ac1  1  0.333342  0.666669  0.751234  1
  Ac  Ac2  1  0.666687  0.333361  0.249856  1
  Ce  Ce3  1  0.333027  0.666407  0.543542  1
  Pr  Pr4  1  0.333365  0.666677  0.959878  1
  Pr  Pr5  1  0.666647  0.333332  0.040320  1
  Ir  Ir6  1  0.166749  0.833329  0.371445  1
  Ir  Ir7  1  0.166837  0.333510  0.371506  1
  Ir  Ir8  1  0.666531  0.833234  0.371492  1
  Ir  Ir9  1  0.833640  0.166050  0.627560  1
  Ir  Ir10  1  0.833815  0.667444  0.627554  1
  Ir  Ir11  1  0.332543  0.166200  0.627553  1
  Ir  Ir12  1  0.833610  0.166498  0.872321  1
  Ir  Ir13  1  0.833609  0.667184  0.872320  1
  Ir  Ir14  1  0.332714  0.166409  0.872267  1
  Ir  Ir15  1  0.166115  0.833865  0.127216  1
  Ir  Ir16  1  0.166077  0.332267  0.127198  1
  Ir  Ir17  1  0.667874  0.833985  0.127243  1
  Ir  Ir18  1  0.333321  0.666515  0.249222  1
  Ir  Ir19  1  0.666754  0.333366  0.749722  1
  Ir  Ir20  1  0.000086  0.000258  0.249276  1
  Ir  Ir21  1  0.999884  0.999959  0.750383  1
  Ir  Ir22  1  0.000070  0.000194  0.500104  1
  Ir  Ir23  1  0.000026  0.999924  0.999710  1
