# generated using pymatgen
data_VRe2Br13
_symmetry_space_group_name_H-M   'P 1'
_cell_length_a   11.89051500
_cell_length_b   10.02409648
_cell_length_c   10.64632033
_cell_angle_alpha   83.05192056
_cell_angle_beta   90.00000000
_cell_angle_gamma   90.00000000
_symmetry_Int_Tables_number   1
_chemical_formula_structural   VRe2Br13
_chemical_formula_sum   'V2 Re4 Br26'
_cell_volume   1259.63373465
_cell_formula_units_Z   2
loop_
 _symmetry_equiv_pos_site_id
 _symmetry_equiv_pos_as_xyz
  1  'x, y, z'
loop_
 _atom_site_type_symbol
 _atom_site_label
 _atom_site_symmetry_multiplicity
 _atom_site_fract_x
 _atom_site_fract_y
 _atom_site_fract_z
 _atom_site_occupancy
  V  V0  1  0.250000  0.261666  0.503974  1
  V  V1  1  0.750000  0.738334  0.496026  1
  Re  Re2  1  0.250000  0.824981  0.089497  1
  Re  Re3  1  0.750000  0.175019  0.910503  1
  Re  Re4  1  0.250000  0.687145  0.871778  1
  Re  Re5  1  0.750000  0.312855  0.128222  1
  Br  Br6  1  0.594393  0.814943  0.587550  1
  Br  Br7  1  0.094393  0.185057  0.412450  1
  Br  Br8  1  0.750000  0.433092  0.900821  1
  Br  Br9  1  0.250000  0.566908  0.099179  1
  Br  Br10  1  0.906415  0.148633  0.078852  1
  Br  Br11  1  0.406415  0.851367  0.921148  1
  Br  Br12  1  0.093585  0.851367  0.921148  1
  Br  Br13  1  0.593585  0.148633  0.078852  1
  Br  Br14  1  0.750000  0.200519  0.348767  1
  Br  Br15  1  0.250000  0.799481  0.651233  1
  Br  Br16  1  0.898846  0.468652  0.179299  1
  Br  Br17  1  0.398846  0.531348  0.820701  1
  Br  Br18  1  0.101154  0.531348  0.820701  1
  Br  Br19  1  0.601154  0.468652  0.179299  1
  Br  Br20  1  0.750000  0.927271  0.916670  1
  Br  Br21  1  0.250000  0.072729  0.083330  1
  Br  Br22  1  0.897853  0.196774  0.746190  1
  Br  Br23  1  0.397853  0.803226  0.253810  1
  Br  Br24  1  0.102147  0.803226  0.253810  1
  Br  Br25  1  0.602147  0.196774  0.746190  1
  Br  Br26  1  0.750000  0.807219  0.286012  1
  Br  Br27  1  0.250000  0.192781  0.713988  1
  Br  Br28  1  0.750000  0.510920  0.522687  1
  Br  Br29  1  0.250000  0.489080  0.477313  1
  Br  Br30  1  0.905607  0.814943  0.587550  1
  Br  Br31  1  0.405607  0.185057  0.412450  1
