# generated using pymatgen
data_Sm12Ge3BBr12
_symmetry_space_group_name_H-M   'P 1'
_cell_length_a   10.36009019
_cell_length_b   10.21808452
_cell_length_c   10.21808541
_cell_angle_alpha   109.18799147
_cell_angle_beta   109.75299354
_cell_angle_gamma   109.75298587
_symmetry_Int_Tables_number   1
_chemical_formula_structural   Sm12Ge3BBr12
_chemical_formula_sum   'Sm12 Ge3 B1 Br12'
_cell_volume   829.77165553
_cell_formula_units_Z   1
loop_
 _symmetry_equiv_pos_site_id
 _symmetry_equiv_pos_as_xyz
  1  'x, y, z'
loop_
 _atom_site_type_symbol
 _atom_site_label
 _atom_site_symmetry_multiplicity
 _atom_site_fract_x
 _atom_site_fract_y
 _atom_site_fract_z
 _atom_site_occupancy
  Sm  Sm0  1  0.465717  0.494734  0.223359  1
  Sm  Sm1  1  0.750000  0.239278  0.260722  1
  Sm  Sm2  1  0.750000  0.009163  0.490837  1
  Sm  Sm3  1  0.240837  0.481676  0.490837  1
  Sm  Sm4  1  0.257643  0.728625  0.223359  1
  Sm  Sm5  1  0.034283  0.276641  0.005266  1
  Sm  Sm6  1  0.010722  0.021443  0.260722  1
  Sm  Sm7  1  0.470982  0.728625  0.005266  1
  Sm  Sm8  1  0.489278  0.239278  0.478557  1
  Sm  Sm9  1  0.029018  0.494734  0.771375  1
  Sm  Sm10  1  0.259163  0.009163  0.018324  1
  Sm  Sm11  1  0.242357  0.276641  0.771375  1
  Ge  Ge12  1  0.250000  0.250466  0.249534  1
  Ge  Ge13  1  0.499534  0.999069  0.249534  1
  Ge  Ge14  1  0.000466  0.250466  0.500931  1
  B  B15  1  0.250000  0.500000  0.000000  1
  Br  Br16  1  0.250000  0.755233  0.744767  1
  Br  Br17  1  0.510196  0.505095  0.756366  1
  Br  Br18  1  0.989804  0.743634  0.994905  1
  Br  Br19  1  0.746170  0.251272  0.756366  1
  Br  Br20  1  0.994767  0.989535  0.744767  1
  Br  Br21  1  0.250000  0.996893  0.503107  1
  Br  Br22  1  0.753107  0.506215  0.503107  1
  Br  Br23  1  0.505102  0.251272  0.994905  1
  Br  Br24  1  0.753830  0.743634  0.248728  1
  Br  Br25  1  0.746893  0.996893  0.993785  1
  Br  Br26  1  0.994898  0.505095  0.248728  1
  Br  Br27  1  0.505233  0.755233  0.510465  1
