# generated using pymatgen
data_Tb12Nd7DySn16
_symmetry_space_group_name_H-M   'P 1'
_cell_length_a   8.15635086
_cell_length_b   8.30690075
_cell_length_c   15.67373500
_cell_angle_alpha   90.01978166
_cell_angle_beta   90.02633554
_cell_angle_gamma   89.98583061
_symmetry_Int_Tables_number   1
_chemical_formula_structural   Tb12Nd7DySn16
_chemical_formula_sum   'Tb12 Nd7 Dy1 Sn16'
_cell_volume   1061.95798751
_cell_formula_units_Z   1
loop_
 _symmetry_equiv_pos_site_id
 _symmetry_equiv_pos_as_xyz
  1  'x, y, z'
loop_
 _atom_site_type_symbol
 _atom_site_label
 _atom_site_symmetry_multiplicity
 _atom_site_fract_x
 _atom_site_fract_y
 _atom_site_fract_z
 _atom_site_occupancy
  Tb  Tb0  1  0.361285  0.836002  0.877774  1
  Tb  Tb1  1  0.860841  0.664515  0.623606  1
  Tb  Tb2  1  0.639287  0.164502  0.377300  1
  Tb  Tb3  1  0.138397  0.335469  0.122338  1
  Tb  Tb4  1  0.638091  0.163554  0.122092  1
  Tb  Tb5  1  0.139532  0.335771  0.377329  1
  Tb  Tb6  1  0.360188  0.836215  0.623281  1
  Tb  Tb7  1  0.860733  0.664041  0.877345  1
  Tb  Tb8  1  0.193565  0.502127  0.750553  1
  Tb  Tb9  1  0.694266  0.998509  0.750628  1
  Tb  Tb10  1  0.806123  0.497460  0.249847  1
  Tb  Tb11  1  0.305806  0.002161  0.249609  1
  Nd  Nd12  1  0.513736  0.319918  0.902822  1
  Nd  Nd13  1  0.013015  0.178771  0.596657  1
  Nd  Nd14  1  0.486783  0.679021  0.403117  1
  Nd  Nd15  1  0.986048  0.821608  0.096449  1
  Nd  Nd16  1  0.486556  0.678605  0.096512  1
  Nd  Nd17  1  0.986671  0.821149  0.403147  1
  Nd  Nd18  1  0.513452  0.320973  0.597928  1
  Dy  Dy19  1  0.015220  0.179327  0.901970  1
  Sn  Sn20  1  0.298438  0.041487  0.040201  1
  Sn  Sn21  1  0.802543  0.460212  0.458677  1
  Sn  Sn22  1  0.697062  0.959851  0.541943  1
  Sn  Sn23  1  0.196851  0.537259  0.957503  1
  Sn  Sn24  1  0.702659  0.963352  0.957118  1
  Sn  Sn25  1  0.197520  0.540396  0.541918  1
  Sn  Sn26  1  0.302444  0.039908  0.458208  1
  Sn  Sn27  1  0.802573  0.458870  0.041331  1
  Sn  Sn28  1  0.559661  0.621210  0.750166  1
  Sn  Sn29  1  0.059627  0.880213  0.750944  1
  Sn  Sn30  1  0.440086  0.378149  0.249613  1
  Sn  Sn31  1  0.939848  0.121311  0.249828  1
  Sn  Sn32  1  0.320513  0.143258  0.750909  1
  Sn  Sn33  1  0.824847  0.354843  0.751847  1
  Sn  Sn34  1  0.677759  0.856718  0.249761  1
  Sn  Sn35  1  0.177977  0.643270  0.249734  1
