# generated using pymatgen
data_Pr3Tl2InPt2Rh
_symmetry_space_group_name_H-M   'P 1'
_cell_length_a   7.93277400
_cell_length_b   7.95941323
_cell_length_c   3.94945100
_cell_angle_alpha   90.00000000
_cell_angle_beta   90.00000000
_cell_angle_gamma   119.88934760
_symmetry_Int_Tables_number   1
_chemical_formula_structural   Pr3Tl2InPt2Rh
_chemical_formula_sum   'Pr3 Tl2 In1 Pt2 Rh1'
_cell_volume   216.20048221
_cell_formula_units_Z   1
loop_
 _symmetry_equiv_pos_site_id
 _symmetry_equiv_pos_as_xyz
  1  'x, y, z'
loop_
 _atom_site_type_symbol
 _atom_site_label
 _atom_site_symmetry_multiplicity
 _atom_site_fract_x
 _atom_site_fract_y
 _atom_site_fract_z
 _atom_site_occupancy
  Pr  Pr0  1  0.001084  0.592994  0.500000  1
  Pr  Pr1  1  0.408090  0.407006  0.500000  1
  Pr  Pr2  1  0.591303  0.000000  0.500000  1
  Tl  Tl3  1  0.746197  0.745240  0.000000  1
  Tl  Tl4  1  0.000957  0.254760  0.000000  1
  In  In5  1  0.252372  0.000000  0.000000  1
  Pt  Pt6  1  0.331891  0.673613  0.000000  1
  Pt  Pt7  1  0.658279  0.326387  0.000000  1
  Rh  Rh8  1  0.009827  0.000000  0.500000  1
