# generated using pymatgen
data_Ho4NbOs6W
_symmetry_space_group_name_H-M   'P 1'
_cell_length_a   5.26966577
_cell_length_b   5.26966474
_cell_length_c   9.00708700
_cell_angle_alpha   90.00000000
_cell_angle_beta   90.00000000
_cell_angle_gamma   115.95585072
_symmetry_Int_Tables_number   1
_chemical_formula_structural   Ho4NbOs6W
_chemical_formula_sum   'Ho4 Nb1 Os6 W1'
_cell_volume   224.89182008
_cell_formula_units_Z   1
loop_
 _symmetry_equiv_pos_site_id
 _symmetry_equiv_pos_as_xyz
  1  'x, y, z'
loop_
 _atom_site_type_symbol
 _atom_site_label
 _atom_site_symmetry_multiplicity
 _atom_site_fract_x
 _atom_site_fract_y
 _atom_site_fract_z
 _atom_site_occupancy
  Ho  Ho0  1  0.329335  0.670665  0.437144  1
  Ho  Ho1  1  0.669311  0.330689  0.566610  1
  Ho  Ho2  1  0.669311  0.330689  0.933390  1
  Ho  Ho3  1  0.329335  0.670665  0.062856  1
  Nb  Nb4  1  0.840063  0.159937  0.250000  1
  Os  Os5  1  0.003412  0.996588  0.503334  1
  Os  Os6  1  0.003412  0.996588  0.996666  1
  Os  Os7  1  0.822699  0.649957  0.250000  1
  Os  Os8  1  0.350043  0.177301  0.250000  1
  Os  Os9  1  0.173428  0.351950  0.750000  1
  Os  Os10  1  0.648050  0.826572  0.750000  1
  W  W11  1  0.161603  0.838397  0.750000  1
