# generated using pymatgen
data_V3ReSe8
_symmetry_space_group_name_H-M   'P 1'
_cell_length_a   13.64632454
_cell_length_b   13.64632397
_cell_length_c   5.73875185
_cell_angle_alpha   85.66888965
_cell_angle_beta   85.66888931
_cell_angle_gamma   13.99609748
_symmetry_Int_Tables_number   1
_chemical_formula_structural   V3ReSe8
_chemical_formula_sum   'V3 Re1 Se8'
_cell_volume   257.71789091
_cell_formula_units_Z   1
loop_
 _symmetry_equiv_pos_site_id
 _symmetry_equiv_pos_as_xyz
  1  'x, y, z'
loop_
 _atom_site_type_symbol
 _atom_site_label
 _atom_site_symmetry_multiplicity
 _atom_site_fract_x
 _atom_site_fract_y
 _atom_site_fract_z
 _atom_site_occupancy
  V  V0  1  0.749698  0.749698  0.749346  1
  V  V1  1  0.499907  0.499907  0.499399  1
  V  V2  1  0.249697  0.249697  0.249653  1
  Re  Re3  1  0.999956  0.999956  0.995642  1
  Se  Se4  1  0.059735  0.059735  0.642285  1
  Se  Se5  1  0.808734  0.808734  0.395800  1
  Se  Se6  1  0.560276  0.560276  0.150606  1
  Se  Se7  1  0.308842  0.308842  0.895055  1
  Se  Se8  1  0.690829  0.690829  0.438096  1
  Se  Se9  1  0.439649  0.439649  0.194126  1
  Se  Se10  1  0.190540  0.190540  0.938303  1
  Se  Se11  1  0.940140  0.940140  0.685687  1
