# generated using pymatgen
data_Er5FePtO12
_symmetry_space_group_name_H-M   'P 1'
_cell_length_a   6.77046499
_cell_length_b   6.77046396
_cell_length_c   7.21858500
_cell_angle_alpha   74.44208151
_cell_angle_beta   74.44208395
_cell_angle_gamma   51.21347986
_symmetry_Int_Tables_number   1
_chemical_formula_structural   Er5FePtO12
_chemical_formula_sum   'Er5 Fe1 Pt1 O12'
_cell_volume   246.25466073
_cell_formula_units_Z   1
loop_
 _symmetry_equiv_pos_site_id
 _symmetry_equiv_pos_as_xyz
  1  'x, y, z'
loop_
 _atom_site_type_symbol
 _atom_site_label
 _atom_site_symmetry_multiplicity
 _atom_site_fract_x
 _atom_site_fract_y
 _atom_site_fract_z
 _atom_site_occupancy
  Er  Er0  1  0.692194  0.690269  0.671142  1
  Er  Er1  1  0.695235  0.700145  0.139183  1
  Er  Er2  1  0.997403  0.002597  0.000000  1
  Er  Er3  1  0.299855  0.304765  0.860817  1
  Er  Er4  1  0.309731  0.307806  0.328858  1
  Fe  Fe5  1  0.245443  0.754557  0.500000  1
  Pt  Pt6  1  0.755685  0.244315  0.500000  1
  O  O7  1  0.400976  0.903697  0.925983  1
  O  O8  1  0.567310  0.093682  0.584224  1
  O  O9  1  0.906318  0.432690  0.415776  1
  O  O10  1  0.096303  0.599024  0.074017  1
  O  O11  1  0.001704  0.999130  0.311308  1
  O  O12  1  0.503824  0.495356  0.691781  1
  O  O13  1  0.902440  0.405660  0.924357  1
  O  O14  1  0.102326  0.576603  0.581252  1
  O  O15  1  0.423397  0.897674  0.418748  1
  O  O16  1  0.594340  0.097560  0.075643  1
  O  O17  1  0.504644  0.496176  0.308219  1
  O  O18  1  0.000870  0.998296  0.688692  1
