# generated using pymatgen
data_HoLu2Mg3Ga2Ag
_symmetry_space_group_name_H-M   'P 1'
_cell_length_a   7.32155850
_cell_length_b   7.32155837
_cell_length_c   4.29962700
_cell_angle_alpha   90.00000000
_cell_angle_beta   90.00000000
_cell_angle_gamma   120.15266103
_symmetry_Int_Tables_number   1
_chemical_formula_structural   HoLu2Mg3Ga2Ag
_chemical_formula_sum   'Ho1 Lu2 Mg3 Ga2 Ag1'
_cell_volume   199.29588882
_cell_formula_units_Z   1
loop_
 _symmetry_equiv_pos_site_id
 _symmetry_equiv_pos_as_xyz
  1  'x, y, z'
loop_
 _atom_site_type_symbol
 _atom_site_label
 _atom_site_symmetry_multiplicity
 _atom_site_fract_x
 _atom_site_fract_y
 _atom_site_fract_z
 _atom_site_occupancy
  Ho  Ho0  1  0.425066  0.425066  0.000000  1
  Lu  Lu1  1  0.576096  0.000174  0.000000  1
  Lu  Lu2  1  0.000174  0.576096  0.000000  1
  Mg  Mg3  1  0.247454  0.999536  0.500000  1
  Mg  Mg4  1  0.999536  0.247454  0.500000  1
  Mg  Mg5  1  0.753264  0.753264  0.500000  1
  Ga  Ga6  1  0.332724  0.667556  0.500000  1
  Ga  Ga7  1  0.667556  0.332724  0.500000  1
  Ag  Ag8  1  0.998130  0.998130  0.000000  1
