# generated using pymatgen
data_PrPd4
_symmetry_space_group_name_H-M   'P 1'
_cell_length_a   5.37584555
_cell_length_b   5.37584517
_cell_length_c   11.46556737
_cell_angle_alpha   94.75771455
_cell_angle_beta   94.75771700
_cell_angle_gamma   120.10072060
_symmetry_Int_Tables_number   1
_chemical_formula_structural   PrPd4
_chemical_formula_sum   'Pr3 Pd12'
_cell_volume   282.68328124
_cell_formula_units_Z   3
loop_
 _symmetry_equiv_pos_site_id
 _symmetry_equiv_pos_as_xyz
  1  'x, y, z'
loop_
 _atom_site_type_symbol
 _atom_site_label
 _atom_site_symmetry_multiplicity
 _atom_site_fract_x
 _atom_site_fract_y
 _atom_site_fract_z
 _atom_site_occupancy
  Pr  Pr0  1  0.000000  0.000000  0.000000  1
  Pr  Pr1  1  0.137843  0.137843  0.357790  1
  Pr  Pr2  1  0.862157  0.862157  0.642209  1
  Pd  Pd3  1  0.669307  0.330692  0.000000  1
  Pd  Pd4  1  0.330692  0.669307  0.000000  1
  Pd  Pd5  1  0.573897  0.071073  0.201615  1
  Pd  Pd6  1  0.071073  0.573897  0.201615  1
  Pd  Pd7  1  0.568798  0.568798  0.200333  1
  Pd  Pd8  1  0.812391  0.482127  0.407896  1
  Pd  Pd9  1  0.482127  0.812391  0.407896  1
  Pd  Pd10  1  0.517873  0.187609  0.592104  1
  Pd  Pd11  1  0.187609  0.517873  0.592104  1
  Pd  Pd12  1  0.431202  0.431202  0.799667  1
  Pd  Pd13  1  0.928927  0.426103  0.798385  1
  Pd  Pd14  1  0.426103  0.928927  0.798385  1
