# generated using pymatgen
data_Dy5Co2
_symmetry_space_group_name_H-M   'P 1'
_cell_length_a   8.61141810
_cell_length_b   8.61141855
_cell_length_c   6.93242213
_cell_angle_alpha   83.83389342
_cell_angle_beta   83.83389408
_cell_angle_gamma   42.75861534
_symmetry_Int_Tables_number   1
_chemical_formula_structural   Dy5Co2
_chemical_formula_sum   'Dy10 Co4'
_cell_volume   346.68792250
_cell_formula_units_Z   2
loop_
 _symmetry_equiv_pos_site_id
 _symmetry_equiv_pos_as_xyz
  1  'x, y, z'
loop_
 _atom_site_type_symbol
 _atom_site_label
 _atom_site_symmetry_multiplicity
 _atom_site_fract_x
 _atom_site_fract_y
 _atom_site_fract_z
 _atom_site_occupancy
  Dy  Dy0  1  0.013315  0.797713  0.412636  1
  Dy  Dy1  1  0.202287  0.986685  0.087364  1
  Dy  Dy2  1  0.986685  0.202287  0.587364  1
  Dy  Dy3  1  0.797713  0.013315  0.912636  1
  Dy  Dy4  1  0.352715  0.216542  0.316249  1
  Dy  Dy5  1  0.783458  0.647285  0.183751  1
  Dy  Dy6  1  0.647285  0.783458  0.683751  1
  Dy  Dy7  1  0.216542  0.352715  0.816249  1
  Dy  Dy8  1  0.569952  0.430048  0.250000  1
  Dy  Dy9  1  0.430048  0.569952  0.750000  1
  Co  Co10  1  0.177007  0.599617  0.072641  1
  Co  Co11  1  0.400383  0.822993  0.427359  1
  Co  Co12  1  0.822993  0.400383  0.927359  1
  Co  Co13  1  0.599617  0.177007  0.572641  1
