# generated using pymatgen
data_Er7Sn22HgRh6
_symmetry_space_group_name_H-M   'P 1'
_cell_length_a   9.80945500
_cell_length_b   9.80945419
_cell_length_c   10.13917400
_cell_angle_alpha   90.00000000
_cell_angle_beta   90.00000000
_cell_angle_gamma   120.00000611
_symmetry_Int_Tables_number   1
_chemical_formula_structural   Er7Sn22HgRh6
_chemical_formula_sum   'Er7 Sn22 Hg1 Rh6'
_cell_volume   844.93422792
_cell_formula_units_Z   1
loop_
 _symmetry_equiv_pos_site_id
 _symmetry_equiv_pos_as_xyz
  1  'x, y, z'
loop_
 _atom_site_type_symbol
 _atom_site_label
 _atom_site_symmetry_multiplicity
 _atom_site_fract_x
 _atom_site_fract_y
 _atom_site_fract_z
 _atom_site_occupancy
  Er  Er0  1  0.481042  0.518958  0.308017  1
  Er  Er1  1  0.518958  0.481042  0.691983  1
  Er  Er2  1  0.481042  0.962085  0.308017  1
  Er  Er3  1  0.518958  0.037915  0.691983  1
  Er  Er4  1  0.037915  0.518958  0.308017  1
  Er  Er5  1  0.962085  0.481042  0.691983  1
  Er  Er6  1  0.000000  0.000000  0.000000  1
  Sn  Sn7  1  0.119006  0.880994  0.275164  1
  Sn  Sn8  1  0.880994  0.119006  0.724836  1
  Sn  Sn9  1  0.119006  0.238011  0.275164  1
  Sn  Sn10  1  0.880994  0.761989  0.724836  1
  Sn  Sn11  1  0.761989  0.880994  0.275164  1
  Sn  Sn12  1  0.238011  0.119006  0.724836  1
  Sn  Sn13  1  0.779245  0.220755  0.458926  1
  Sn  Sn14  1  0.220755  0.779245  0.541074  1
  Sn  Sn15  1  0.779245  0.558489  0.458926  1
  Sn  Sn16  1  0.220755  0.441511  0.541074  1
  Sn  Sn17  1  0.441511  0.220755  0.458926  1
  Sn  Sn18  1  0.558489  0.779245  0.541074  1
  Sn  Sn19  1  0.351129  0.000000  0.000000  1
  Sn  Sn20  1  0.648871  0.000000  0.000000  1
  Sn  Sn21  1  0.000000  0.351129  0.000000  1
  Sn  Sn22  1  0.000000  0.648871  0.000000  1
  Sn  Sn23  1  0.648871  0.648871  0.000000  1
  Sn  Sn24  1  0.351129  0.351129  0.000000  1
  Sn  Sn25  1  0.333333  0.666667  0.125932  1
  Sn  Sn26  1  0.666667  0.333333  0.874068  1
  Sn  Sn27  1  0.333333  0.666667  0.822031  1
  Sn  Sn28  1  0.666667  0.333333  0.177969  1
  Hg  Hg29  1  0.000000  0.000000  0.500000  1
  Rh  Rh30  1  0.830236  0.169764  0.198995  1
  Rh  Rh31  1  0.169764  0.830236  0.801005  1
  Rh  Rh32  1  0.830236  0.660474  0.198995  1
  Rh  Rh33  1  0.169764  0.339526  0.801005  1
  Rh  Rh34  1  0.339526  0.169764  0.198995  1
  Rh  Rh35  1  0.660474  0.830236  0.801005  1
