# generated using pymatgen
data_Yb9ThIr4
_symmetry_space_group_name_H-M   'P 1'
_cell_length_a   6.54734377
_cell_length_b   7.38536692
_cell_length_c   8.53085509
_cell_angle_alpha   97.16888698
_cell_angle_beta   112.56584710
_cell_angle_gamma   89.99999691
_symmetry_Int_Tables_number   1
_chemical_formula_structural   Yb9ThIr4
_chemical_formula_sum   'Yb9 Th1 Ir4'
_cell_volume   377.42930619
_cell_formula_units_Z   1
loop_
 _symmetry_equiv_pos_site_id
 _symmetry_equiv_pos_as_xyz
  1  'x, y, z'
loop_
 _atom_site_type_symbol
 _atom_site_label
 _atom_site_symmetry_multiplicity
 _atom_site_fract_x
 _atom_site_fract_y
 _atom_site_fract_z
 _atom_site_occupancy
  Yb  Yb0  1  0.972233  0.916458  0.173001  1
  Yb  Yb1  1  0.799234  0.583542  0.826999  1
  Yb  Yb2  1  0.024768  0.075545  0.825808  1
  Yb  Yb3  1  0.198960  0.424455  0.174192  1
  Yb  Yb4  1  0.638171  0.821433  0.432522  1
  Yb  Yb5  1  0.205649  0.678567  0.567478  1
  Yb  Yb6  1  0.353970  0.178478  0.555214  1
  Yb  Yb7  1  0.798756  0.321522  0.444786  1
  Yb  Yb8  1  0.428652  0.750000  0.000000  1
  Th  Th9  1  0.568467  0.250000  0.000000  1
  Ir  Ir10  1  0.816013  0.565412  0.211891  1
  Ir  Ir11  1  0.604123  0.934588  0.788109  1
  Ir  Ir12  1  0.189522  0.414968  0.788036  1
  Ir  Ir13  1  0.401485  0.085032  0.211964  1
