# generated using pymatgen
data_Y3Sn3GeRh2
_symmetry_space_group_name_H-M   'P 1'
_cell_length_a   7.43361200
_cell_length_b   7.43361214
_cell_length_c   4.16316500
_cell_angle_alpha   90.00000000
_cell_angle_beta   90.00000000
_cell_angle_gamma   119.99999936
_symmetry_Int_Tables_number   1
_chemical_formula_structural   Y3Sn3GeRh2
_chemical_formula_sum   'Y3 Sn3 Ge1 Rh2'
_cell_volume   199.22968351
_cell_formula_units_Z   1
loop_
 _symmetry_equiv_pos_site_id
 _symmetry_equiv_pos_as_xyz
  1  'x, y, z'
loop_
 _atom_site_type_symbol
 _atom_site_label
 _atom_site_symmetry_multiplicity
 _atom_site_fract_x
 _atom_site_fract_y
 _atom_site_fract_z
 _atom_site_occupancy
  Y  Y0  1  0.413712  0.008517  0.500000  1
  Y  Y1  1  0.991483  0.405195  0.500000  1
  Y  Y2  1  0.594805  0.586288  0.500000  1
  Sn  Sn3  1  0.758461  0.016421  0.000000  1
  Sn  Sn4  1  0.983579  0.742039  0.000000  1
  Sn  Sn5  1  0.257961  0.241539  0.000000  1
  Ge  Ge6  1  0.333333  0.666667  0.000000  1
  Rh  Rh7  1  0.666667  0.333333  0.000000  1
  Rh  Rh8  1  0.000000  0.000000  0.500000  1
