# generated using pymatgen
data_LuPa7(ZnRh)8
_symmetry_space_group_name_H-M   'P 1'
_cell_length_a   3.80154600
_cell_length_b   7.37276464
_cell_length_c   16.32994761
_cell_angle_alpha   90.25906156
_cell_angle_beta   90.00000000
_cell_angle_gamma   90.00000000
_symmetry_Int_Tables_number   1
_chemical_formula_structural   LuPa7(ZnRh)8
_chemical_formula_sum   'Lu1 Pa7 Zn8 Rh8'
_cell_volume   457.68952432
_cell_formula_units_Z   1
loop_
 _symmetry_equiv_pos_site_id
 _symmetry_equiv_pos_as_xyz
  1  'x, y, z'
loop_
 _atom_site_type_symbol
 _atom_site_label
 _atom_site_symmetry_multiplicity
 _atom_site_fract_x
 _atom_site_fract_y
 _atom_site_fract_z
 _atom_site_occupancy
  Lu  Lu0  1  0.250000  0.556129  0.787113  1
  Pa  Pa1  1  0.250000  0.169335  0.937955  1
  Pa  Pa2  1  0.250000  0.674946  0.562468  1
  Pa  Pa3  1  0.750000  0.336047  0.440338  1
  Pa  Pa4  1  0.750000  0.941073  0.285115  1
  Pa  Pa5  1  0.750000  0.828443  0.060670  1
  Pa  Pa6  1  0.750000  0.439580  0.215191  1
  Pa  Pa7  1  0.250000  0.055379  0.716021  1
  Zn  Zn8  1  0.750000  0.013306  0.558831  1
  Zn  Zn9  1  0.250000  0.612457  0.343897  1
  Zn  Zn10  1  0.750000  0.394169  0.660938  1
  Zn  Zn11  1  0.250000  0.491271  0.061215  1
  Zn  Zn12  1  0.750000  0.505447  0.934933  1
  Zn  Zn13  1  0.250000  0.996735  0.439083  1
  Zn  Zn14  1  0.250000  0.112893  0.155488  1
  Zn  Zn15  1  0.750000  0.871391  0.843125  1
  Rh  Rh16  1  0.750000  0.736405  0.441589  1
  Rh  Rh17  1  0.250000  0.240216  0.314205  1
  Rh  Rh18  1  0.750000  0.233171  0.815291  1
  Rh  Rh19  1  0.750000  0.775693  0.679054  1
  Rh  Rh20  1  0.250000  0.273584  0.558553  1
  Rh  Rh21  1  0.250000  0.740891  0.186876  1
  Rh  Rh22  1  0.750000  0.233518  0.056074  1
  Rh  Rh23  1  0.250000  0.767922  0.945974  1
