# generated using pymatgen
data_Sc8Ta3Nb9Si15P
_symmetry_space_group_name_H-M   'P 1'
_cell_length_a   6.71290189
_cell_length_b   6.90384737
_cell_length_c   13.12422598
_cell_angle_alpha   90.06638498
_cell_angle_beta   90.14657436
_cell_angle_gamma   90.08298642
_symmetry_Int_Tables_number   1
_chemical_formula_structural   Sc8Ta3Nb9Si15P
_chemical_formula_sum   'Sc8 Ta3 Nb9 Si15 P1'
_cell_volume   608.23724619
_cell_formula_units_Z   1
loop_
 _symmetry_equiv_pos_site_id
 _symmetry_equiv_pos_as_xyz
  1  'x, y, z'
loop_
 _atom_site_type_symbol
 _atom_site_label
 _atom_site_symmetry_multiplicity
 _atom_site_fract_x
 _atom_site_fract_y
 _atom_site_fract_z
 _atom_site_occupancy
  Sc  Sc0  1  0.501291  0.677084  0.594375  1
  Sc  Sc1  1  0.000905  0.825657  0.904327  1
  Sc  Sc2  1  0.499223  0.325267  0.095033  1
  Sc  Sc3  1  0.997761  0.173186  0.404806  1
  Sc  Sc4  1  0.500140  0.321902  0.405291  1
  Sc  Sc5  1  0.999453  0.173903  0.095287  1
  Sc  Sc6  1  0.501098  0.674215  0.904633  1
  Sc  Sc7  1  0.999121  0.825345  0.595679  1
  Ta  Ta8  1  0.838362  0.493594  0.749423  1
  Ta  Ta9  1  0.337239  0.005237  0.749223  1
  Ta  Ta10  1  0.162481  0.506686  0.250651  1
  Nb  Nb11  1  0.662369  0.170205  0.622829  1
  Nb  Nb12  1  0.163158  0.325684  0.874658  1
  Nb  Nb13  1  0.337500  0.825900  0.125367  1
  Nb  Nb14  1  0.836207  0.677074  0.376561  1
  Nb  Nb15  1  0.341431  0.827732  0.376754  1
  Nb  Nb16  1  0.837685  0.674663  0.125288  1
  Nb  Nb17  1  0.661545  0.174479  0.874444  1
  Nb  Nb18  1  0.161318  0.326045  0.624517  1
  Nb  Nb19  1  0.663457  0.995845  0.251683  1
  Si  Si20  1  0.168839  0.532192  0.039652  1
  Si  Si21  1  0.331021  0.031860  0.960132  1
  Si  Si22  1  0.830893  0.467918  0.540286  1
  Si  Si23  1  0.323578  0.033467  0.540869  1
  Si  Si24  1  0.831622  0.467991  0.960022  1
  Si  Si25  1  0.668632  0.967828  0.039935  1
  Si  Si26  1  0.169543  0.532256  0.459753  1
  Si  Si27  1  0.459731  0.385731  0.748908  1
  Si  Si28  1  0.958361  0.113219  0.749780  1
  Si  Si29  1  0.540783  0.613178  0.250219  1
  Si  Si30  1  0.042151  0.885759  0.250543  1
  Si  Si31  1  0.704600  0.860367  0.750255  1
  Si  Si32  1  0.205134  0.638590  0.749999  1
  Si  Si33  1  0.294520  0.139812  0.249873  1
  Si  Si34  1  0.796827  0.363216  0.249961  1
  P  P35  1  0.672020  0.966921  0.458982  1
