# generated using pymatgen
data_Pr2Bi2O7
_symmetry_space_group_name_H-M   'P 1'
_cell_length_a   6.78643316
_cell_length_b   6.87336331
_cell_length_c   8.01467432
_cell_angle_alpha   106.46153699
_cell_angle_beta   89.65951430
_cell_angle_gamma   97.16297425
_symmetry_Int_Tables_number   1
_chemical_formula_structural   Pr2Bi2O7
_chemical_formula_sum   'Pr4 Bi4 O14'
_cell_volume   355.55757506
_cell_formula_units_Z   2
loop_
 _symmetry_equiv_pos_site_id
 _symmetry_equiv_pos_as_xyz
  1  'x, y, z'
loop_
 _atom_site_type_symbol
 _atom_site_label
 _atom_site_symmetry_multiplicity
 _atom_site_fract_x
 _atom_site_fract_y
 _atom_site_fract_z
 _atom_site_occupancy
  Pr  Pr0  1  0.456752  0.002462  0.250832  1
  Pr  Pr1  1  0.543248  0.997538  0.749168  1
  Pr  Pr2  1  0.255268  0.532829  0.882771  1
  Pr  Pr3  1  0.744732  0.467171  0.117229  1
  Bi  Bi4  1  0.000000  0.000000  0.500000  1
  Bi  Bi5  1  0.000000  0.000000  0.000000  1
  Bi  Bi6  1  0.721276  0.459224  0.609004  1
  Bi  Bi7  1  0.278724  0.540776  0.390996  1
  O  O8  1  0.437104  0.640573  0.170306  1
  O  O9  1  0.562896  0.359427  0.829694  1
  O  O10  1  0.297333  0.923580  0.950428  1
  O  O11  1  0.702667  0.076420  0.049572  1
  O  O12  1  0.294047  0.909540  0.507190  1
  O  O13  1  0.705953  0.090460  0.492810  1
  O  O14  1  0.543493  0.365820  0.350538  1
  O  O15  1  0.456507  0.634180  0.649462  1
  O  O16  1  0.932588  0.681986  0.969320  1
  O  O17  1  0.067412  0.318014  0.030680  1
  O  O18  1  0.094797  0.313244  0.622429  1
  O  O19  1  0.905203  0.686756  0.377571  1
  O  O20  1  0.890293  0.925720  0.732468  1
  O  O21  1  0.109707  0.074280  0.267532  1
