# generated using pymatgen
data_BaTi4(PO4)6
_symmetry_space_group_name_H-M   'P 1'
_cell_length_a   8.41451253
_cell_length_b   8.41451272
_cell_length_c   9.19634265
_cell_angle_alpha   62.77459451
_cell_angle_beta   117.22541251
_cell_angle_gamma   119.99999946
_symmetry_Int_Tables_number   1
_chemical_formula_structural   BaTi4(PO4)6
_chemical_formula_sum   'Ba1 Ti4 P6 O24'
_cell_volume   478.79717454
_cell_formula_units_Z   1
loop_
 _symmetry_equiv_pos_site_id
 _symmetry_equiv_pos_as_xyz
  1  'x, y, z'
loop_
 _atom_site_type_symbol
 _atom_site_label
 _atom_site_symmetry_multiplicity
 _atom_site_fract_x
 _atom_site_fract_y
 _atom_site_fract_z
 _atom_site_occupancy
  Ba  Ba0  1  0.000000  0.000000  0.000000  1
  Ti  Ti1  1  0.352900  0.647100  0.058698  1
  Ti  Ti2  1  0.151321  0.848680  0.453963  1
  Ti  Ti3  1  0.848680  0.151321  0.546037  1
  Ti  Ti4  1  0.647100  0.352900  0.941302  1
  P  P5  1  0.031108  0.250649  0.246627  1
  P  P6  1  0.749350  0.533832  0.246627  1
  P  P7  1  0.466169  0.968892  0.246627  1
  P  P8  1  0.533831  0.031108  0.753372  1
  P  P9  1  0.250650  0.466169  0.753372  1
  P  P10  1  0.968892  0.749351  0.753372  1
  O  O11  1  0.480917  0.157758  0.097381  1
  O  O12  1  0.842243  0.225778  0.097381  1
  O  O13  1  0.774223  0.519084  0.097381  1
  O  O14  1  0.184717  0.450072  0.193888  1
  O  O15  1  0.549927  0.540756  0.193888  1
  O  O16  1  0.459246  0.815284  0.193888  1
  O  O17  1  0.098432  0.090412  0.286621  1
  O  O18  1  0.909588  0.721401  0.286621  1
  O  O19  1  0.278600  0.901567  0.286621  1
  O  O20  1  0.005408  0.229741  0.411211  1
  O  O21  1  0.770259  0.364456  0.411211  1
  O  O22  1  0.635544  0.994593  0.411211  1
  O  O23  1  0.364456  0.005407  0.588789  1
  O  O24  1  0.229742  0.635544  0.588789  1
  O  O25  1  0.994593  0.770258  0.588789  1
  O  O26  1  0.721400  0.098432  0.713380  1
  O  O27  1  0.090412  0.278599  0.713380  1
  O  O28  1  0.901566  0.909588  0.713380  1
  O  O29  1  0.540755  0.184717  0.806112  1
  O  O30  1  0.450073  0.459245  0.806112  1
  O  O31  1  0.815284  0.549927  0.806112  1
  O  O32  1  0.225777  0.480917  0.902619  1
  O  O33  1  0.157758  0.774223  0.902619  1
  O  O34  1  0.519084  0.842243  0.902619  1
