# generated using pymatgen
data_V3Te6AsO22
_symmetry_space_group_name_H-M   'P 1'
_cell_length_a   6.75149859
_cell_length_b   7.91702809
_cell_length_c   10.93171004
_cell_angle_alpha   68.76163624
_cell_angle_beta   91.78316214
_cell_angle_gamma   78.81319053
_symmetry_Int_Tables_number   1
_chemical_formula_structural   V3Te6AsO22
_chemical_formula_sum   'V3 Te6 As1 O22'
_cell_volume   530.99015004
_cell_formula_units_Z   1
loop_
 _symmetry_equiv_pos_site_id
 _symmetry_equiv_pos_as_xyz
  1  'x, y, z'
loop_
 _atom_site_type_symbol
 _atom_site_label
 _atom_site_symmetry_multiplicity
 _atom_site_fract_x
 _atom_site_fract_y
 _atom_site_fract_z
 _atom_site_occupancy
  V  V0  1  0.307398  0.296878  0.108959  1
  V  V1  1  0.689150  0.704397  0.891667  1
  V  V2  1  0.196653  0.717311  0.395494  1
  Te  Te3  1  0.692859  0.774180  0.474886  1
  Te  Te4  1  0.312902  0.226498  0.524037  1
  Te  Te5  1  0.808134  0.335902  0.203112  1
  Te  Te6  1  0.189552  0.667948  0.797581  1
  Te  Te7  1  0.758919  0.947473  0.166467  1
  Te  Te8  1  0.233600  0.051622  0.833538  1
  As  As9  1  0.813278  0.283914  0.601069  1
  O  O10  1  0.193832  0.423351  0.942837  1
  O  O11  1  0.803332  0.577501  0.059180  1
  O  O12  1  0.738778  0.027789  0.316032  1
  O  O13  1  0.250748  0.963337  0.688467  1
  O  O14  1  0.478328  0.404173  0.151825  1
  O  O15  1  0.518973  0.596762  0.848567  1
  O  O16  1  0.703931  0.713869  0.319631  1
  O  O17  1  0.303022  0.279581  0.681420  1
  O  O18  1  0.072062  0.840147  0.237667  1
  O  O19  1  0.920134  0.166645  0.762809  1
  O  O20  1  0.016354  0.701561  0.505995  1
  O  O21  1  0.992715  0.302249  0.488463  1
  O  O22  1  0.820854  0.209162  0.082639  1
  O  O23  1  0.174334  0.788837  0.921914  1
  O  O24  1  0.438491  0.080762  0.118410  1
  O  O25  1  0.555375  0.919322  0.881929  1
  O  O26  1  0.372308  0.829053  0.436671  1
  O  O27  1  0.643885  0.173916  0.555766  1
  O  O28  1  0.120515  0.279485  0.221134  1
  O  O29  1  0.875229  0.723982  0.779862  1
  O  O30  1  0.316157  0.488567  0.412887  1
  O  O31  1  0.688198  0.503824  0.589082  1
