# generated using pymatgen
data_Tm8Zn3Si12Ni
_symmetry_space_group_name_H-M   'P 1'
_cell_length_a   8.00918600
_cell_length_b   8.00920106
_cell_length_c   7.88661800
_cell_angle_alpha   89.99993993
_cell_angle_beta   90.00000000
_cell_angle_gamma   120.00013708
_symmetry_Int_Tables_number   1
_chemical_formula_structural   Tm8Zn3Si12Ni
_chemical_formula_sum   'Tm8 Zn3 Si12 Ni1'
_cell_volume   438.12538111
_cell_formula_units_Z   1
loop_
 _symmetry_equiv_pos_site_id
 _symmetry_equiv_pos_as_xyz
  1  'x, y, z'
loop_
 _atom_site_type_symbol
 _atom_site_label
 _atom_site_symmetry_multiplicity
 _atom_site_fract_x
 _atom_site_fract_y
 _atom_site_fract_z
 _atom_site_occupancy
  Tm  Tm0  1  0.499268  0.998536  0.251065  1
  Tm  Tm1  1  0.497197  0.994394  0.749049  1
  Tm  Tm2  1  0.001464  0.500732  0.251065  1
  Tm  Tm3  1  0.005605  0.502803  0.749050  1
  Tm  Tm4  1  0.499268  0.500732  0.251065  1
  Tm  Tm5  1  0.497197  0.502803  0.749050  1
  Tm  Tm6  1  0.000000  0.000000  0.250726  1
  Tm  Tm7  1  0.000000  0.000000  0.749206  1
  Zn  Zn8  1  0.333333  0.666667  0.003851  1
  Zn  Zn9  1  0.666667  0.333333  0.996175  1
  Zn  Zn10  1  0.666667  0.333333  0.503784  1
  Si  Si11  1  0.166584  0.333167  0.000505  1
  Si  Si12  1  0.832911  0.665823  0.999418  1
  Si  Si13  1  0.666832  0.833416  0.000505  1
  Si  Si14  1  0.836013  0.672027  0.500580  1
  Si  Si15  1  0.334177  0.167089  0.999417  1
  Si  Si16  1  0.173991  0.347982  0.499034  1
  Si  Si17  1  0.166583  0.833417  0.000505  1
  Si  Si18  1  0.327973  0.163987  0.500580  1
  Si  Si19  1  0.832911  0.167088  0.999418  1
  Si  Si20  1  0.652018  0.826009  0.499034  1
  Si  Si21  1  0.836013  0.163986  0.500580  1
  Si  Si22  1  0.173991  0.826010  0.499034  1
  Ni  Ni23  1  0.333334  0.666667  0.497306  1
