# generated using pymatgen
data_Pr2Cd14Pd3
_symmetry_space_group_name_H-M   'P 1'
_cell_length_a   7.53854444
_cell_length_b   7.53854378
_cell_length_c   7.53854287
_cell_angle_alpha   82.63377237
_cell_angle_beta   82.63376143
_cell_angle_gamma   82.63377321
_symmetry_Int_Tables_number   1
_chemical_formula_structural   Pr2Cd14Pd3
_chemical_formula_sum   'Pr2 Cd14 Pd3'
_cell_volume   418.64075441
_cell_formula_units_Z   1
loop_
 _symmetry_equiv_pos_site_id
 _symmetry_equiv_pos_as_xyz
  1  'x, y, z'
loop_
 _atom_site_type_symbol
 _atom_site_label
 _atom_site_symmetry_multiplicity
 _atom_site_fract_x
 _atom_site_fract_y
 _atom_site_fract_z
 _atom_site_occupancy
  Pr  Pr0  1  0.337721  0.337721  0.337721  1
  Pr  Pr1  1  0.662279  0.662279  0.662279  1
  Cd  Cd2  1  0.700850  0.299151  0.000000  1
  Cd  Cd3  1  0.299151  0.700850  0.000000  1
  Cd  Cd4  1  0.107104  0.107104  0.107104  1
  Cd  Cd5  1  0.651066  0.651066  0.151501  1
  Cd  Cd6  1  0.700850  0.000000  0.299150  1
  Cd  Cd7  1  0.000000  0.700850  0.299150  1
  Cd  Cd8  1  0.848499  0.348934  0.348934  1
  Cd  Cd9  1  0.348934  0.848499  0.348934  1
  Cd  Cd10  1  0.651066  0.151501  0.651066  1
  Cd  Cd11  1  0.151501  0.651066  0.651066  1
  Cd  Cd12  1  0.299151  0.000000  0.700849  1
  Cd  Cd13  1  0.000000  0.299151  0.700849  1
  Cd  Cd14  1  0.348934  0.348934  0.848499  1
  Cd  Cd15  1  0.892896  0.892896  0.892896  1
  Pd  Pd16  1  0.500000  0.000000  0.000000  1
  Pd  Pd17  1  0.000000  0.500000  0.000000  1
  Pd  Pd18  1  0.000000  0.000000  0.500001  1
