# generated using pymatgen
data_Tb4AgPd4Pb
_symmetry_space_group_name_H-M   'P 1'
_cell_length_a   7.77540000
_cell_length_b   7.77540000
_cell_length_c   3.70751300
_cell_angle_alpha   90.00000000
_cell_angle_beta   90.00000000
_cell_angle_gamma   90.00000000
_symmetry_Int_Tables_number   1
_chemical_formula_structural   Tb4AgPd4Pb
_chemical_formula_sum   'Tb4 Ag1 Pd4 Pb1'
_cell_volume   224.14453937
_cell_formula_units_Z   1
loop_
 _symmetry_equiv_pos_site_id
 _symmetry_equiv_pos_as_xyz
  1  'x, y, z'
loop_
 _atom_site_type_symbol
 _atom_site_label
 _atom_site_symmetry_multiplicity
 _atom_site_fract_x
 _atom_site_fract_y
 _atom_site_fract_z
 _atom_site_occupancy
  Tb  Tb0  1  0.672965  0.170492  0.500000  1
  Tb  Tb1  1  0.170492  0.327035  0.500000  1
  Tb  Tb2  1  0.829508  0.672965  0.500000  1
  Tb  Tb3  1  0.327035  0.829508  0.500000  1
  Ag  Ag4  1  0.000000  0.000000  0.000000  1
  Pd  Pd5  1  0.366670  0.122345  0.000000  1
  Pd  Pd6  1  0.122345  0.633330  0.000000  1
  Pd  Pd7  1  0.633330  0.877655  0.000000  1
  Pd  Pd8  1  0.877655  0.366670  0.000000  1
  Pb  Pb9  1  0.500000  0.500000  0.000000  1
