# generated using pymatgen
data_Ca(LaCo)2
_symmetry_space_group_name_H-M   'P 1'
_cell_length_a   4.02750300
_cell_length_b   4.02738382
_cell_length_c   21.80416400
_cell_angle_alpha   90.00000000
_cell_angle_beta   90.00000000
_cell_angle_gamma   120.00098717
_symmetry_Int_Tables_number   1
_chemical_formula_structural   Ca(LaCo)2
_chemical_formula_sum   'Ca2 La4 Co4'
_cell_volume   306.28423574
_cell_formula_units_Z   2
loop_
 _symmetry_equiv_pos_site_id
 _symmetry_equiv_pos_as_xyz
  1  'x, y, z'
loop_
 _atom_site_type_symbol
 _atom_site_label
 _atom_site_symmetry_multiplicity
 _atom_site_fract_x
 _atom_site_fract_y
 _atom_site_fract_z
 _atom_site_occupancy
  Ca  Ca0  1  0.665715  0.331430  0.250000  1
  Ca  Ca1  1  0.334285  0.668569  0.750000  1
  La  La2  1  0.999861  0.999721  0.085704  1
  La  La3  1  0.999861  0.999721  0.414296  1
  La  La4  1  0.000139  0.000279  0.585704  1
  La  La5  1  0.000139  0.000279  0.914296  1
  Co  Co6  1  0.333334  0.666668  0.999707  1
  Co  Co7  1  0.333334  0.666668  0.500293  1
  Co  Co8  1  0.666666  0.333332  0.499707  1
  Co  Co9  1  0.666666  0.333332  0.000293  1
