# generated using pymatgen
data_Lu16MgAl3Pt4
_symmetry_space_group_name_H-M   'P 1'
_cell_length_a   9.46055946
_cell_length_b   9.46055961
_cell_length_c   9.46055954
_cell_angle_alpha   59.59729662
_cell_angle_beta   59.59729515
_cell_angle_gamma   59.59729666
_symmetry_Int_Tables_number   1
_chemical_formula_structural   Lu16MgAl3Pt4
_chemical_formula_sum   'Lu16 Mg1 Al3 Pt4'
_cell_volume   593.25582109
_cell_formula_units_Z   1
loop_
 _symmetry_equiv_pos_site_id
 _symmetry_equiv_pos_as_xyz
  1  'x, y, z'
loop_
 _atom_site_type_symbol
 _atom_site_label
 _atom_site_symmetry_multiplicity
 _atom_site_fract_x
 _atom_site_fract_y
 _atom_site_fract_z
 _atom_site_occupancy
  Lu  Lu0  1  0.604368  0.604368  0.604368  1
  Lu  Lu1  1  0.603111  0.603111  0.187944  1
  Lu  Lu2  1  0.603111  0.187944  0.603111  1
  Lu  Lu3  1  0.187944  0.603111  0.603111  1
  Lu  Lu4  1  0.057780  0.442677  0.442677  1
  Lu  Lu5  1  0.440654  0.059295  0.059295  1
  Lu  Lu6  1  0.442677  0.057780  0.442677  1
  Lu  Lu7  1  0.059295  0.440654  0.059295  1
  Lu  Lu8  1  0.442677  0.442677  0.057780  1
  Lu  Lu9  1  0.059295  0.059295  0.440654  1
  Lu  Lu10  1  0.188529  0.815309  0.815309  1
  Lu  Lu11  1  0.813121  0.186230  0.186230  1
  Lu  Lu12  1  0.815309  0.188529  0.815309  1
  Lu  Lu13  1  0.186230  0.813121  0.186230  1
  Lu  Lu14  1  0.815309  0.815309  0.188529  1
  Lu  Lu15  1  0.186230  0.186230  0.813121  1
  Mg  Mg16  1  0.827318  0.827318  0.827318  1
  Al  Al17  1  0.828431  0.828431  0.510888  1
  Al  Al18  1  0.828431  0.510888  0.828431  1
  Al  Al19  1  0.510888  0.828431  0.828431  1
  Pt  Pt20  1  0.393749  0.393749  0.393749  1
  Pt  Pt21  1  0.393420  0.393420  0.818707  1
  Pt  Pt22  1  0.393420  0.818707  0.393420  1
  Pt  Pt23  1  0.818707  0.393420  0.393420  1
