# generated using pymatgen
data_Hf9Sc3(Si3Ir)4
_symmetry_space_group_name_H-M   'P 1'
_cell_length_a   3.96990300
_cell_length_b   10.16930731
_cell_length_c   11.63036721
_cell_angle_alpha   90.08839406
_cell_angle_beta   90.00000000
_cell_angle_gamma   90.00000000
_symmetry_Int_Tables_number   1
_chemical_formula_structural   Hf9Sc3(Si3Ir)4
_chemical_formula_sum   'Hf9 Sc3 Si12 Ir4'
_cell_volume   469.53089850
_cell_formula_units_Z   1
loop_
 _symmetry_equiv_pos_site_id
 _symmetry_equiv_pos_as_xyz
  1  'x, y, z'
loop_
 _atom_site_type_symbol
 _atom_site_label
 _atom_site_symmetry_multiplicity
 _atom_site_fract_x
 _atom_site_fract_y
 _atom_site_fract_z
 _atom_site_occupancy
  Hf  Hf0  1  0.250000  0.872937  0.022190  1
  Hf  Hf1  1  0.250000  0.626901  0.522447  1
  Hf  Hf2  1  0.750000  0.125201  0.977732  1
  Hf  Hf3  1  0.750000  0.374072  0.477669  1
  Hf  Hf4  1  0.250000  0.923101  0.595507  1
  Hf  Hf5  1  0.250000  0.577647  0.093826  1
  Hf  Hf6  1  0.750000  0.078021  0.404810  1
  Hf  Hf7  1  0.750000  0.423271  0.903417  1
  Hf  Hf8  1  0.250000  0.658500  0.801506  1
  Sc  Sc9  1  0.250000  0.841816  0.301394  1
  Sc  Sc10  1  0.750000  0.341721  0.198507  1
  Sc  Sc11  1  0.750000  0.158477  0.698550  1
  Si  Si12  1  0.250000  0.015913  0.825891  1
  Si  Si13  1  0.250000  0.483979  0.325658  1
  Si  Si14  1  0.750000  0.983590  0.174180  1
  Si  Si15  1  0.750000  0.516681  0.673937  1
  Si  Si16  1  0.250000  0.248868  0.842103  1
  Si  Si17  1  0.250000  0.250644  0.341839  1
  Si  Si18  1  0.750000  0.749849  0.158726  1
  Si  Si19  1  0.750000  0.749858  0.657253  1
  Si  Si20  1  0.250000  0.190211  0.545128  1
  Si  Si21  1  0.250000  0.309093  0.044585  1
  Si  Si22  1  0.750000  0.810986  0.454789  1
  Si  Si23  1  0.750000  0.688443  0.956197  1
  Ir  Ir24  1  0.250000  0.387377  0.679528  1
  Ir  Ir25  1  0.250000  0.114119  0.176949  1
  Ir  Ir26  1  0.750000  0.613968  0.323105  1
  Ir  Ir27  1  0.750000  0.884757  0.822575  1
