# generated using pymatgen
data_Pr3NdCd2PdAu3
_symmetry_space_group_name_H-M   'P 1'
_cell_length_a   3.93245500
_cell_length_b   8.09580993
_cell_length_c   8.09789410
_cell_angle_alpha   90.59858980
_cell_angle_beta   90.00000000
_cell_angle_gamma   90.00000000
_symmetry_Int_Tables_number   1
_chemical_formula_structural   Pr3NdCd2PdAu3
_chemical_formula_sum   'Pr3 Nd1 Cd2 Pd1 Au3'
_cell_volume   257.79379308
_cell_formula_units_Z   1
loop_
 _symmetry_equiv_pos_site_id
 _symmetry_equiv_pos_as_xyz
  1  'x, y, z'
loop_
 _atom_site_type_symbol
 _atom_site_label
 _atom_site_symmetry_multiplicity
 _atom_site_fract_x
 _atom_site_fract_y
 _atom_site_fract_z
 _atom_site_occupancy
  Pr  Pr0  1  0.500000  0.171522  0.671668  1
  Pr  Pr1  1  0.500000  0.820915  0.321000  1
  Pr  Pr2  1  0.500000  0.336083  0.175615  1
  Nd  Nd3  1  0.500000  0.675719  0.836013  1
  Cd  Cd4  1  0.000000  0.996588  0.001166  1
  Cd  Cd5  1  0.000000  0.501427  0.496932  1
  Pd  Pd6  1  0.000000  0.626347  0.125792  1
  Au  Au7  1  0.000000  0.375498  0.874786  1
  Au  Au8  1  0.000000  0.870536  0.625954  1
  Au  Au9  1  0.000000  0.125364  0.371073  1
