# generated using pymatgen
data_Ac2HfIrF14
_symmetry_space_group_name_H-M   'P 1'
_cell_length_a   5.99662031
_cell_length_b   6.45546162
_cell_length_c   8.73538657
_cell_angle_alpha   78.29435983
_cell_angle_beta   89.84141194
_cell_angle_gamma   89.44508098
_symmetry_Int_Tables_number   1
_chemical_formula_structural   Ac2HfIrF14
_chemical_formula_sum   'Ac2 Hf1 Ir1 F14'
_cell_volume   331.10682609
_cell_formula_units_Z   1
loop_
 _symmetry_equiv_pos_site_id
 _symmetry_equiv_pos_as_xyz
  1  'x, y, z'
loop_
 _atom_site_type_symbol
 _atom_site_label
 _atom_site_symmetry_multiplicity
 _atom_site_fract_x
 _atom_site_fract_y
 _atom_site_fract_z
 _atom_site_occupancy
  Ac  Ac0  1  0.201876  0.661151  0.309538  1
  Ac  Ac1  1  0.701994  0.336016  0.691431  1
  Hf  Hf2  1  0.710823  0.191040  0.223156  1
  Ir  Ir3  1  0.211995  0.809915  0.776163  1
  F  F4  1  0.381034  0.439518  0.527217  1
  F  F5  1  0.878898  0.559847  0.472287  1
  F  F6  1  0.923024  0.948567  0.224587  1
  F  F7  1  0.417402  0.045119  0.774262  1
  F  F8  1  0.460960  0.979826  0.241144  1
  F  F9  1  0.958812  0.015097  0.761666  1
  F  F10  1  0.501285  0.437452  0.212832  1
  F  F11  1  0.007317  0.571542  0.784999  1
  F  F12  1  0.202270  0.762762  0.004490  1
  F  F13  1  0.700858  0.240853  0.989237  1
  F  F14  1  0.221115  0.861132  0.547422  1
  F  F15  1  0.720162  0.144552  0.457070  1
  F  F16  1  0.978942  0.379623  0.211564  1
  F  F17  1  0.473951  0.615989  0.790936  1
