# generated using pymatgen
data_YbGd3(ReB2)6
_symmetry_space_group_name_H-M   'P 1'
_cell_length_a   6.21187957
_cell_length_b   6.19865656
_cell_length_c   7.50911800
_cell_angle_alpha   89.31873737
_cell_angle_beta   89.76204935
_cell_angle_gamma   113.58906992
_symmetry_Int_Tables_number   1
_chemical_formula_structural   YbGd3(ReB2)6
_chemical_formula_sum   'Yb1 Gd3 Re6 B12'
_cell_volume   264.94876473
_cell_formula_units_Z   1
loop_
 _symmetry_equiv_pos_site_id
 _symmetry_equiv_pos_as_xyz
  1  'x, y, z'
loop_
 _atom_site_type_symbol
 _atom_site_label
 _atom_site_symmetry_multiplicity
 _atom_site_fract_x
 _atom_site_fract_y
 _atom_site_fract_z
 _atom_site_occupancy
  Yb  Yb0  1  0.903627  0.558596  0.323306  1
  Gd  Gd1  1  0.449501  0.103489  0.176692  1
  Gd  Gd2  1  0.095278  0.444296  0.671963  1
  Gd  Gd3  1  0.554355  0.899303  0.824226  1
  Re  Re4  1  0.413813  0.588891  0.248889  1
  Re  Re5  1  0.586231  0.411234  0.751050  1
  Re  Re6  1  0.009435  0.191722  0.091312  1
  Re  Re7  1  0.807005  0.988112  0.411938  1
  Re  Re8  1  0.989420  0.809006  0.910554  1
  Re  Re9  1  0.191467  0.009040  0.589462  1
  B  B10  1  0.748491  0.846610  0.130877  1
  B  B11  1  0.154223  0.245901  0.368301  1
  B  B12  1  0.249745  0.153326  0.869656  1
  B  B13  1  0.845909  0.749433  0.630226  1
  B  B14  1  0.412915  0.841129  0.479719  1
  B  B15  1  0.158146  0.587001  0.020648  1
  B  B16  1  0.589027  0.159172  0.521576  1
  B  B17  1  0.841621  0.414592  0.980242  1
  B  B18  1  0.556710  0.648560  0.533991  1
  B  B19  1  0.349289  0.443010  0.964883  1
  B  B20  1  0.444177  0.350076  0.465012  1
  B  B21  1  0.649618  0.557501  0.035478  1
