# generated using pymatgen
data_Eu2AlSiPt4
_symmetry_space_group_name_H-M   'P 1'
_cell_length_a   4.14491895
_cell_length_b   4.18125600
_cell_length_c   9.53499468
_cell_angle_alpha   90.00000000
_cell_angle_beta   102.55359929
_cell_angle_gamma   90.00000000
_symmetry_Int_Tables_number   1
_chemical_formula_structural   Eu2AlSiPt4
_chemical_formula_sum   'Eu2 Al1 Si1 Pt4'
_cell_volume   161.30004942
_cell_formula_units_Z   1
loop_
 _symmetry_equiv_pos_site_id
 _symmetry_equiv_pos_as_xyz
  1  'x, y, z'
loop_
 _atom_site_type_symbol
 _atom_site_label
 _atom_site_symmetry_multiplicity
 _atom_site_fract_x
 _atom_site_fract_y
 _atom_site_fract_z
 _atom_site_occupancy
  Eu  Eu0  1  0.597848  0.250000  0.195694  1
  Eu  Eu1  1  0.405978  0.750000  0.811956  1
  Al  Al2  1  0.824668  0.250000  0.649335  1
  Si  Si3  1  0.175117  0.750000  0.350235  1
  Pt  Pt4  1  0.955669  0.250000  0.911338  1
  Pt  Pt5  1  0.048723  0.750000  0.097446  1
  Pt  Pt6  1  0.246300  0.250000  0.492600  1
  Pt  Pt7  1  0.745697  0.750000  0.491395  1
