# generated using pymatgen
data_Lu5AgIO12
_symmetry_space_group_name_H-M   'P 1'
_cell_length_a   6.40136159
_cell_length_b   6.26778505
_cell_length_c   6.42546800
_cell_angle_alpha   98.84167139
_cell_angle_beta   99.72087242
_cell_angle_gamma   96.83543193
_symmetry_Int_Tables_number   1
_chemical_formula_structural   Lu5AgIO12
_chemical_formula_sum   'Lu5 Ag1 I1 O12'
_cell_volume   248.28664543
_cell_formula_units_Z   1
loop_
 _symmetry_equiv_pos_site_id
 _symmetry_equiv_pos_as_xyz
  1  'x, y, z'
loop_
 _atom_site_type_symbol
 _atom_site_label
 _atom_site_symmetry_multiplicity
 _atom_site_fract_x
 _atom_site_fract_y
 _atom_site_fract_z
 _atom_site_occupancy
  Lu  Lu0  1  0.393145  0.689230  0.854422  1
  Lu  Lu1  1  0.855504  0.382665  0.672578  1
  Lu  Lu2  1  0.674881  0.850471  0.389691  1
  Lu  Lu3  1  0.607652  0.318436  0.137599  1
  Lu  Lu4  1  0.147145  0.610511  0.321432  1
  Ag  Ag5  1  0.318804  0.151128  0.586621  1
  I  I6  1  0.994702  0.994346  0.003878  1
  O  O7  1  0.183271  0.441799  0.599406  1
  O  O8  1  0.630634  0.179778  0.417915  1
  O  O9  1  0.425963  0.594514  0.174825  1
  O  O10  1  0.827550  0.566762  0.399985  1
  O  O11  1  0.407562  0.828053  0.565789  1
  O  O12  1  0.593519  0.435832  0.830571  1
  O  O13  1  0.909593  0.023746  0.713355  1
  O  O14  1  0.966312  0.295750  0.077363  1
  O  O15  1  0.291414  0.059624  0.001630  1
  O  O16  1  0.044708  0.950571  0.297214  1
  O  O17  1  0.032031  0.695111  0.927699  1
  O  O18  1  0.695611  0.931672  0.028026  1
