# generated using pymatgen
data_Sc4Mn7Fe5(Co2P3)4
_symmetry_space_group_name_H-M   'P 1'
_cell_length_a   3.55515200
_cell_length_b   10.23132990
_cell_length_c   11.92256934
_cell_angle_alpha   90.08605158
_cell_angle_beta   90.00000000
_cell_angle_gamma   90.00000000
_symmetry_Int_Tables_number   1
_chemical_formula_structural   Sc4Mn7Fe5(Co2P3)4
_chemical_formula_sum   'Sc4 Mn7 Fe5 Co8 P12'
_cell_volume   433.67024888
_cell_formula_units_Z   1
loop_
 _symmetry_equiv_pos_site_id
 _symmetry_equiv_pos_as_xyz
  1  'x, y, z'
loop_
 _atom_site_type_symbol
 _atom_site_label
 _atom_site_symmetry_multiplicity
 _atom_site_fract_x
 _atom_site_fract_y
 _atom_site_fract_z
 _atom_site_occupancy
  Sc  Sc0  1  0.250000  0.582339  0.709338  1
  Sc  Sc1  1  0.250000  0.918240  0.206654  1
  Sc  Sc2  1  0.750000  0.417888  0.290152  1
  Sc  Sc3  1  0.750000  0.080816  0.792651  1
  Mn  Mn4  1  0.250000  0.711952  0.990982  1
  Mn  Mn5  1  0.250000  0.787458  0.491587  1
  Mn  Mn6  1  0.750000  0.287064  0.009365  1
  Mn  Mn7  1  0.750000  0.212168  0.508037  1
  Mn  Mn8  1  0.250000  0.408879  0.489727  1
  Mn  Mn9  1  0.250000  0.093395  0.989377  1
  Mn  Mn10  1  0.750000  0.591999  0.509814  1
  Fe  Fe11  1  0.750000  0.907130  0.011121  1
  Fe  Fe12  1  0.250000  0.220973  0.175790  1
  Fe  Fe13  1  0.250000  0.279705  0.675098  1
  Fe  Fe14  1  0.750000  0.779215  0.825433  1
  Fe  Fe15  1  0.750000  0.721186  0.323287  1
  Co  Co16  1  0.250000  0.883700  0.698705  1
  Co  Co17  1  0.250000  0.617908  0.195884  1
  Co  Co18  1  0.750000  0.115626  0.302107  1
  Co  Co19  1  0.750000  0.382733  0.803978  1
  Co  Co20  1  0.250000  0.463663  0.933376  1
  Co  Co21  1  0.250000  0.036101  0.433297  1
  Co  Co22  1  0.750000  0.536727  0.066540  1
  Co  Co23  1  0.750000  0.963598  0.567136  1
  P  P24  1  0.250000  0.418882  0.114640  1
  P  P25  1  0.250000  0.080396  0.615293  1
  P  P26  1  0.750000  0.580665  0.885410  1
  P  P27  1  0.750000  0.918957  0.385007  1
  P  P28  1  0.250000  0.263983  0.863629  1
  P  P29  1  0.250000  0.235147  0.363226  1
  P  P30  1  0.750000  0.736954  0.134297  1
  P  P31  1  0.750000  0.764941  0.637401  1
  P  P32  1  0.250000  0.597201  0.379512  1
  P  P33  1  0.250000  0.903926  0.885389  1
  P  P34  1  0.750000  0.403687  0.619927  1
  P  P35  1  0.750000  0.094800  0.116832  1
