# generated using pymatgen
data_PrZr3(Ga3Rh)6
_symmetry_space_group_name_H-M   'P 1'
_cell_length_a   7.52289404
_cell_length_b   7.51786579
_cell_length_c   9.45260000
_cell_angle_alpha   90.00000000
_cell_angle_beta   90.00000000
_cell_angle_gamma   119.99176891
_symmetry_Int_Tables_number   1
_chemical_formula_structural   PrZr3(Ga3Rh)6
_chemical_formula_sum   'Pr1 Zr3 Ga18 Rh6'
_cell_volume   463.01753671
_cell_formula_units_Z   1
loop_
 _symmetry_equiv_pos_site_id
 _symmetry_equiv_pos_as_xyz
  1  'x, y, z'
loop_
 _atom_site_type_symbol
 _atom_site_label
 _atom_site_symmetry_multiplicity
 _atom_site_fract_x
 _atom_site_fract_y
 _atom_site_fract_z
 _atom_site_occupancy
  Pr  Pr0  1  0.331357  0.004125  0.750000  1
  Zr  Zr1  1  0.995422  0.669070  0.250000  1
  Zr  Zr2  1  0.004393  0.331674  0.750000  1
  Zr  Zr3  1  0.669771  0.996809  0.250000  1
  Ga  Ga4  1  0.330941  0.336184  0.563851  1
  Ga  Ga5  1  0.669400  0.669561  0.425835  1
  Ga  Ga6  1  0.669400  0.669561  0.074165  1
  Ga  Ga7  1  0.330941  0.336184  0.936149  1
  Ga  Ga8  1  0.334875  0.549773  0.250000  1
  Ga  Ga9  1  0.671016  0.458075  0.750000  1
  Ga  Ga10  1  0.552859  0.338003  0.250000  1
  Ga  Ga11  1  0.449032  0.657220  0.750000  1
  Ga  Ga12  1  0.995545  0.333837  0.079746  1
  Ga  Ga13  1  0.998355  0.660078  0.926895  1
  Ga  Ga14  1  0.998355  0.660078  0.573105  1
  Ga  Ga15  1  0.334023  0.996089  0.412771  1
  Ga  Ga16  1  0.995545  0.333837  0.420254  1
  Ga  Ga17  1  0.672258  0.003512  0.573583  1
  Ga  Ga18  1  0.672258  0.003512  0.926417  1
  Ga  Ga19  1  0.334023  0.996089  0.087229  1
  Ga  Ga20  1  0.120966  0.124186  0.250000  1
  Ga  Ga21  1  0.869726  0.875685  0.750000  1
  Rh  Rh22  1  0.000061  0.997623  0.002747  1
  Rh  Rh23  1  0.000061  0.997623  0.497253  1
  Rh  Rh24  1  0.669689  0.327845  0.002297  1
  Rh  Rh25  1  0.330018  0.672961  0.003195  1
  Rh  Rh26  1  0.330018  0.672961  0.496805  1
  Rh  Rh27  1  0.669689  0.327845  0.497703  1
