# generated using pymatgen
data_Er16In4CuRu3
_symmetry_space_group_name_H-M   'P 1'
_cell_length_a   9.58153540
_cell_length_b   9.58153506
_cell_length_c   9.58153656
_cell_angle_alpha   59.77965960
_cell_angle_beta   59.77965967
_cell_angle_gamma   59.77965788
_symmetry_Int_Tables_number   1
_chemical_formula_structural   Er16In4CuRu3
_chemical_formula_sum   'Er16 In4 Cu1 Ru3'
_cell_volume   618.88837949
_cell_formula_units_Z   1
loop_
 _symmetry_equiv_pos_site_id
 _symmetry_equiv_pos_as_xyz
  1  'x, y, z'
loop_
 _atom_site_type_symbol
 _atom_site_label
 _atom_site_symmetry_multiplicity
 _atom_site_fract_x
 _atom_site_fract_y
 _atom_site_fract_z
 _atom_site_occupancy
  Er  Er0  1  0.102580  0.699266  0.102580  1
  Er  Er1  1  0.940927  0.940927  0.552434  1
  Er  Er2  1  0.940927  0.552434  0.940927  1
  Er  Er3  1  0.308236  0.692470  0.308236  1
  Er  Er4  1  0.941436  0.558118  0.558118  1
  Er  Er5  1  0.308236  0.308236  0.692470  1
  Er  Er6  1  0.099242  0.099242  0.099242  1
  Er  Er7  1  0.558118  0.558118  0.941436  1
  Er  Er8  1  0.102580  0.102580  0.699266  1
  Er  Er9  1  0.689314  0.314891  0.689314  1
  Er  Er10  1  0.689314  0.689314  0.314891  1
  Er  Er11  1  0.692470  0.308236  0.308236  1
  Er  Er12  1  0.314891  0.689314  0.689314  1
  Er  Er13  1  0.558118  0.941436  0.558118  1
  Er  Er14  1  0.699266  0.102580  0.102580  1
  Er  Er15  1  0.552434  0.940927  0.940927  1
  In  In16  1  0.333100  0.333100  0.333100  1
  In  In17  1  0.000906  0.333602  0.333602  1
  In  In18  1  0.333602  0.000906  0.333602  1
  In  In19  1  0.333602  0.333602  0.000906  1
  Cu  Cu20  1  0.891214  0.891214  0.891214  1
  Ru  Ru21  1  0.891562  0.891562  0.326361  1
  Ru  Ru22  1  0.326361  0.891562  0.891562  1
  Ru  Ru23  1  0.891562  0.326361  0.891562  1
