# generated using pymatgen
data_TiTc(IrRh2)2
_symmetry_space_group_name_H-M   'P 1'
_cell_length_a   5.49226200
_cell_length_b   5.49266225
_cell_length_c   4.40419600
_cell_angle_alpha   90.00000000
_cell_angle_beta   90.00000000
_cell_angle_gamma   119.99760157
_symmetry_Int_Tables_number   1
_chemical_formula_structural   TiTc(IrRh2)2
_chemical_formula_sum   'Ti1 Tc1 Ir2 Rh4'
_cell_volume   115.06464616
_cell_formula_units_Z   1
loop_
 _symmetry_equiv_pos_site_id
 _symmetry_equiv_pos_as_xyz
  1  'x, y, z'
loop_
 _atom_site_type_symbol
 _atom_site_label
 _atom_site_symmetry_multiplicity
 _atom_site_fract_x
 _atom_site_fract_y
 _atom_site_fract_z
 _atom_site_occupancy
  Ti  Ti0  1  0.334056  0.668113  0.750000  1
  Tc  Tc1  1  0.666223  0.332445  0.250000  1
  Ir  Ir2  1  0.336814  0.168776  0.750000  1
  Ir  Ir3  1  0.831961  0.168776  0.750000  1
  Rh  Rh4  1  0.164996  0.329990  0.250000  1
  Rh  Rh5  1  0.668815  0.834127  0.250000  1
  Rh  Rh6  1  0.165313  0.834127  0.250000  1
  Rh  Rh7  1  0.831822  0.663646  0.750000  1
