# generated using pymatgen
data_Ca2Nd8Si5Ge
_symmetry_space_group_name_H-M   'P 1'
_cell_length_a   8.94758739
_cell_length_b   8.94758760
_cell_length_c   8.93473100
_cell_angle_alpha   128.59514806
_cell_angle_beta   128.59514788
_cell_angle_gamma   75.76885136
_symmetry_Int_Tables_number   1
_chemical_formula_structural   Ca2Nd8Si5Ge
_chemical_formula_sum   'Ca2 Nd8 Si5 Ge1'
_cell_volume   424.75634342
_cell_formula_units_Z   1
loop_
 _symmetry_equiv_pos_site_id
 _symmetry_equiv_pos_as_xyz
  1  'x, y, z'
loop_
 _atom_site_type_symbol
 _atom_site_label
 _atom_site_symmetry_multiplicity
 _atom_site_fract_x
 _atom_site_fract_y
 _atom_site_fract_z
 _atom_site_occupancy
  Ca  Ca0  1  0.498985  0.499590  0.998574  1
  Ca  Ca1  1  0.000410  0.001015  0.001426  1
  Nd  Nd2  1  0.676596  0.175500  0.143520  1
  Nd  Nd3  1  0.530501  0.677354  0.500000  1
  Nd  Nd4  1  0.033077  0.531981  0.856480  1
  Nd  Nd5  1  0.822646  0.969499  0.500000  1
  Nd  Nd6  1  0.324500  0.823404  0.856480  1
  Nd  Nd7  1  0.177117  0.032174  0.500000  1
  Nd  Nd8  1  0.467826  0.322883  0.500000  1
  Nd  Nd9  1  0.968019  0.466923  0.143520  1
  Si  Si10  1  0.614434  0.114196  0.728630  1
  Si  Si11  1  0.385804  0.885566  0.271370  1
  Si  Si12  1  0.117207  0.382793  0.500000  1
  Si  Si13  1  0.750042  0.749958  0.000000  1
  Si  Si14  1  0.250042  0.249958  0.000000  1
  Ge  Ge15  1  0.882793  0.617207  0.500000  1
