# generated using pymatgen
data_BaFe(Sb4Ru)3
_symmetry_space_group_name_H-M   'P 1'
_cell_length_a   8.15004773
_cell_length_b   8.15004623
_cell_length_c   8.15004696
_cell_angle_alpha   109.40796327
_cell_angle_beta   109.40796052
_cell_angle_gamma   109.40795539
_symmetry_Int_Tables_number   1
_chemical_formula_structural   BaFe(Sb4Ru)3
_chemical_formula_sum   'Ba1 Fe1 Sb12 Ru3'
_cell_volume   417.70674088
_cell_formula_units_Z   1
loop_
 _symmetry_equiv_pos_site_id
 _symmetry_equiv_pos_as_xyz
  1  'x, y, z'
loop_
 _atom_site_type_symbol
 _atom_site_label
 _atom_site_symmetry_multiplicity
 _atom_site_fract_x
 _atom_site_fract_y
 _atom_site_fract_z
 _atom_site_occupancy
  Ba  Ba0  1  0.000000  0.000000  0.000000  1
  Fe  Fe1  1  0.500000  0.500000  0.500000  1
  Sb  Sb2  1  0.160012  0.818181  0.658567  1
  Sb  Sb3  1  0.162738  0.501660  0.343557  1
  Sb  Sb4  1  0.498340  0.656443  0.837262  1
  Sb  Sb5  1  0.341433  0.839988  0.181819  1
  Sb  Sb6  1  0.818181  0.658567  0.160012  1
  Sb  Sb7  1  0.656443  0.837262  0.498340  1
  Sb  Sb8  1  0.181819  0.341433  0.839988  1
  Sb  Sb9  1  0.658567  0.160012  0.818181  1
  Sb  Sb10  1  0.343557  0.162738  0.501660  1
  Sb  Sb11  1  0.501660  0.343557  0.162738  1
  Sb  Sb12  1  0.837262  0.498340  0.656443  1
  Sb  Sb13  1  0.839988  0.181819  0.341433  1
  Ru  Ru14  1  0.000000  0.000000  0.500000  1
  Ru  Ru15  1  0.500000  0.000000  0.000000  1
  Ru  Ru16  1  0.000000  0.500000  0.000000  1
