# generated using pymatgen
data_TbErCdCu2
_symmetry_space_group_name_H-M   'P 1'
_cell_length_a   7.36472737
_cell_length_b   7.36472760
_cell_length_c   3.56962000
_cell_angle_alpha   90.00000000
_cell_angle_beta   90.00000000
_cell_angle_gamma   147.05983134
_symmetry_Int_Tables_number   1
_chemical_formula_structural   TbErCdCu2
_chemical_formula_sum   'Tb1 Er1 Cd1 Cu2'
_cell_volume   105.27977898
_cell_formula_units_Z   1
loop_
 _symmetry_equiv_pos_site_id
 _symmetry_equiv_pos_as_xyz
  1  'x, y, z'
loop_
 _atom_site_type_symbol
 _atom_site_label
 _atom_site_symmetry_multiplicity
 _atom_site_fract_x
 _atom_site_fract_y
 _atom_site_fract_z
 _atom_site_occupancy
  Tb  Tb0  1  0.369808  0.630192  0.500000  1
  Er  Er1  1  0.631560  0.368440  0.500000  1
  Cd  Cd2  1  0.001128  0.998872  0.000000  1
  Cu  Cu3  1  0.796910  0.203090  0.000000  1
  Cu  Cu4  1  0.200595  0.799405  0.000000  1
