# generated using pymatgen
data_Lu3Zn3CoHg2
_symmetry_space_group_name_H-M   'P 1'
_cell_length_a   7.56934100
_cell_length_b   7.56934023
_cell_length_c   3.65371400
_cell_angle_alpha   90.00000000
_cell_angle_beta   90.00000000
_cell_angle_gamma   119.99999898
_symmetry_Int_Tables_number   1
_chemical_formula_structural   Lu3Zn3CoHg2
_chemical_formula_sum   'Lu3 Zn3 Co1 Hg2'
_cell_volume   181.29310323
_cell_formula_units_Z   1
loop_
 _symmetry_equiv_pos_site_id
 _symmetry_equiv_pos_as_xyz
  1  'x, y, z'
loop_
 _atom_site_type_symbol
 _atom_site_label
 _atom_site_symmetry_multiplicity
 _atom_site_fract_x
 _atom_site_fract_y
 _atom_site_fract_z
 _atom_site_occupancy
  Lu  Lu0  1  0.572084  0.611254  0.000000  1
  Lu  Lu1  1  0.388746  0.960829  0.000000  1
  Lu  Lu2  1  0.039171  0.427916  0.000000  1
  Zn  Zn3  1  0.272321  0.289270  0.500000  1
  Zn  Zn4  1  0.710730  0.983051  0.500000  1
  Zn  Zn5  1  0.016949  0.727679  0.500000  1
  Co  Co6  1  0.333333  0.666667  0.500000  1
  Hg  Hg7  1  0.000000  0.000000  0.000000  1
  Hg  Hg8  1  0.666667  0.333333  0.500000  1
