# generated using pymatgen
data_DyHo15(AgRh)4
_symmetry_space_group_name_H-M   'P 1'
_cell_length_a   9.48633027
_cell_length_b   9.48633030
_cell_length_c   9.48632200
_cell_angle_alpha   60.00003591
_cell_angle_beta   60.00003583
_cell_angle_gamma   60.10294200
_symmetry_Int_Tables_number   1
_chemical_formula_structural   DyHo15(AgRh)4
_chemical_formula_sum   'Dy1 Ho15 Ag4 Rh4'
_cell_volume   604.11040823
_cell_formula_units_Z   1
loop_
 _symmetry_equiv_pos_site_id
 _symmetry_equiv_pos_as_xyz
  1  'x, y, z'
loop_
 _atom_site_type_symbol
 _atom_site_label
 _atom_site_symmetry_multiplicity
 _atom_site_fract_x
 _atom_site_fract_y
 _atom_site_fract_z
 _atom_site_occupancy
  Dy  Dy0  1  0.185140  0.185140  0.814860  1
  Ho  Ho1  1  0.603848  0.603848  0.188767  1
  Ho  Ho2  1  0.436488  0.063494  0.436290  1
  Ho  Ho3  1  0.436645  0.436645  0.063355  1
  Ho  Ho4  1  0.814738  0.184926  0.814940  1
  Ho  Ho5  1  0.184926  0.814738  0.185396  1
  Ho  Ho6  1  0.436488  0.063494  0.063728  1
  Ho  Ho7  1  0.184926  0.814738  0.814940  1
  Ho  Ho8  1  0.063494  0.436488  0.063728  1
  Ho  Ho9  1  0.814636  0.814636  0.185364  1
  Ho  Ho10  1  0.189251  0.603902  0.603423  1
  Ho  Ho11  1  0.063494  0.436488  0.436290  1
  Ho  Ho12  1  0.063041  0.063041  0.436959  1
  Ho  Ho13  1  0.814738  0.184926  0.185396  1
  Ho  Ho14  1  0.603902  0.189251  0.603423  1
  Ho  Ho15  1  0.603848  0.603848  0.603536  1
  Ag  Ag16  1  0.832254  0.832254  0.832225  1
  Ag  Ag17  1  0.832254  0.832254  0.503268  1
  Ag  Ag18  1  0.503615  0.831849  0.832269  1
  Ag  Ag19  1  0.831849  0.503615  0.832269  1
  Rh  Rh20  1  0.394535  0.817401  0.394032  1
  Rh  Rh21  1  0.394244  0.394244  0.393805  1
  Rh  Rh22  1  0.817401  0.394535  0.394032  1
  Rh  Rh23  1  0.394244  0.394244  0.817706  1
