# generated using pymatgen
data_Hf3Ti8Si16Mo9
_symmetry_space_group_name_H-M   'P 1'
_cell_length_a   6.67241792
_cell_length_b   6.66956193
_cell_length_c   12.29275923
_cell_angle_alpha   89.91787153
_cell_angle_beta   89.94932542
_cell_angle_gamma   89.70708376
_symmetry_Int_Tables_number   1
_chemical_formula_structural   Hf3Ti8Si16Mo9
_chemical_formula_sum   'Hf3 Ti8 Si16 Mo9'
_cell_volume   547.04573545
_cell_formula_units_Z   1
loop_
 _symmetry_equiv_pos_site_id
 _symmetry_equiv_pos_as_xyz
  1  'x, y, z'
loop_
 _atom_site_type_symbol
 _atom_site_label
 _atom_site_symmetry_multiplicity
 _atom_site_fract_x
 _atom_site_fract_y
 _atom_site_fract_z
 _atom_site_occupancy
  Hf  Hf0  1  0.004410  0.335274  0.218192  1
  Hf  Hf1  1  0.163846  0.499758  0.468753  1
  Hf  Hf2  1  0.837200  0.498236  0.968475  1
  Ti  Ti3  1  0.505766  0.160319  0.532892  1
  Ti  Ti4  1  0.490628  0.839158  0.033061  1
  Ti  Ti5  1  0.995211  0.660654  0.719317  1
  Ti  Ti6  1  0.337797  0.009534  0.781103  1
  Ti  Ti7  1  0.661121  0.993185  0.281580  1
  Ti  Ti8  1  0.333837  0.667336  0.248876  1
  Ti  Ti9  1  0.666495  0.331974  0.751949  1
  Ti  Ti10  1  0.832133  0.833212  0.500924  1
  Si  Si11  1  0.042757  0.296290  0.813967  1
  Si  Si12  1  0.214436  0.537469  0.060339  1
  Si  Si13  1  0.798328  0.459599  0.566283  1
  Si  Si14  1  0.532167  0.201585  0.938121  1
  Si  Si15  1  0.460326  0.806877  0.435706  1
  Si  Si16  1  0.959211  0.704796  0.314181  1
  Si  Si17  1  0.302416  0.038563  0.183746  1
  Si  Si18  1  0.695484  0.961547  0.685059  1
  Si  Si19  1  0.293810  0.363013  0.674750  1
  Si  Si20  1  0.134266  0.800325  0.923966  1
  Si  Si21  1  0.858237  0.204531  0.425851  1
  Si  Si22  1  0.792880  0.120574  0.072542  1
  Si  Si23  1  0.208044  0.868867  0.577562  1
  Si  Si24  1  0.703773  0.640556  0.176473  1
  Si  Si25  1  0.376774  0.286510  0.324890  1
  Si  Si26  1  0.628380  0.711705  0.822341  1
  Mo  Mo27  1  0.993699  0.154453  0.622988  1
  Mo  Mo28  1  0.342365  0.503820  0.866892  1
  Mo  Mo29  1  0.655753  0.509831  0.376240  1
  Mo  Mo30  1  0.509210  0.341966  0.132272  1
  Mo  Mo31  1  0.503497  0.655666  0.625147  1
  Mo  Mo32  1  0.007122  0.832748  0.123825  1
  Mo  Mo33  1  0.154461  0.999372  0.378152  1
  Mo  Mo34  1  0.833924  0.002593  0.874324  1
  Mo  Mo35  1  0.170235  0.168104  0.999261  1
