# generated using pymatgen
data_Dy12Tc3Au2
_symmetry_space_group_name_H-M   'P 1'
_cell_length_a   8.32607917
_cell_length_b   8.32607982
_cell_length_c   8.32607900
_cell_angle_alpha   110.40607999
_cell_angle_beta   110.40609105
_cell_angle_gamma   107.61725036
_symmetry_Int_Tables_number   1
_chemical_formula_structural   Dy12Tc3Au2
_chemical_formula_sum   'Dy12 Tc3 Au2'
_cell_volume   443.97643100
_cell_formula_units_Z   1
loop_
 _symmetry_equiv_pos_site_id
 _symmetry_equiv_pos_as_xyz
  1  'x, y, z'
loop_
 _atom_site_type_symbol
 _atom_site_label
 _atom_site_symmetry_multiplicity
 _atom_site_fract_x
 _atom_site_fract_y
 _atom_site_fract_z
 _atom_site_occupancy
  Dy  Dy0  1  0.319993  0.319993  0.639986  1
  Dy  Dy1  1  0.680007  0.680007  0.360014  1
  Dy  Dy2  1  0.680007  0.319993  0.000000  1
  Dy  Dy3  1  0.319993  0.680007  0.000000  1
  Dy  Dy4  1  0.181877  0.432542  0.250666  1
  Dy  Dy5  1  0.818123  0.567458  0.749334  1
  Dy  Dy6  1  0.181877  0.931209  0.749334  1
  Dy  Dy7  1  0.931209  0.181877  0.749334  1
  Dy  Dy8  1  0.818123  0.068791  0.250666  1
  Dy  Dy9  1  0.068791  0.818123  0.250666  1
  Dy  Dy10  1  0.432542  0.181877  0.250666  1
  Dy  Dy11  1  0.567458  0.818123  0.749334  1
  Tc  Tc12  1  0.336242  0.336242  0.000000  1
  Tc  Tc13  1  0.663758  0.663758  0.000000  1
  Tc  Tc14  1  0.000000  0.000000  0.000000  1
  Au  Au15  1  0.000000  0.500000  0.500000  1
  Au  Au16  1  0.500000  0.000000  0.500000  1
