# generated using pymatgen
data_La14PrDy(CdRu)4
_symmetry_space_group_name_H-M   'P 1'
_cell_length_a   10.04295926
_cell_length_b   10.08627867
_cell_length_c   10.03643784
_cell_angle_alpha   59.71162774
_cell_angle_beta   60.10757819
_cell_angle_gamma   59.61775112
_symmetry_Int_Tables_number   1
_chemical_formula_structural   La14PrDy(CdRu)4
_chemical_formula_sum   'La14 Pr1 Dy1 Cd4 Ru4'
_cell_volume   715.78913644
_cell_formula_units_Z   1
loop_
 _symmetry_equiv_pos_site_id
 _symmetry_equiv_pos_as_xyz
  1  'x, y, z'
loop_
 _atom_site_type_symbol
 _atom_site_label
 _atom_site_symmetry_multiplicity
 _atom_site_fract_x
 _atom_site_fract_y
 _atom_site_fract_z
 _atom_site_occupancy
  La  La0  1  0.060108  0.061346  0.440782  1
  La  La1  1  0.440412  0.062145  0.060457  1
  La  La2  1  0.843444  0.847986  0.843586  1
  La  La3  1  0.690705  0.310501  0.315536  1
  La  La4  1  0.060673  0.438571  0.442335  1
  La  La5  1  0.315322  0.684655  0.691043  1
  La  La6  1  0.316350  0.310218  0.690822  1
  La  La7  1  0.847515  0.846028  0.458445  1
  La  La8  1  0.690657  0.684968  0.315251  1
  La  La9  1  0.458338  0.845483  0.847823  1
  La  La10  1  0.059388  0.442034  0.058746  1
  La  La11  1  0.843197  0.462395  0.843819  1
  La  La12  1  0.443359  0.058364  0.442650  1
  La  La13  1  0.312172  0.688634  0.311477  1
  Pr  Pr14  1  0.441877  0.437570  0.060482  1
  Dy  Dy15  1  0.690895  0.308762  0.692249  1
  Cd  Cd16  1  0.078767  0.762760  0.078054  1
  Cd  Cd17  1  0.074384  0.080914  0.763456  1
  Cd  Cd18  1  0.762966  0.081671  0.074419  1
  Cd  Cd19  1  0.078262  0.079675  0.078207  1
  Ru  Ru20  1  0.632885  0.088818  0.632909  1
  Ru  Ru21  1  0.633038  0.644782  0.632561  1
  Ru  Ru22  1  0.635489  0.635987  0.089714  1
  Ru  Ru23  1  0.089800  0.635730  0.635175  1
