# generated using pymatgen
data_Tb5Dy7AlZnCo4
_symmetry_space_group_name_H-M   'P 1'
_cell_length_a   8.30528029
_cell_length_b   8.30439020
_cell_length_c   8.30528080
_cell_angle_alpha   106.61071717
_cell_angle_beta   109.59769663
_cell_angle_gamma   112.25874454
_symmetry_Int_Tables_number   1
_chemical_formula_structural   Tb5Dy7AlZnCo4
_chemical_formula_sum   'Tb5 Dy7 Al1 Zn1 Co4'
_cell_volume   439.86122443
_cell_formula_units_Z   1
loop_
 _symmetry_equiv_pos_site_id
 _symmetry_equiv_pos_as_xyz
  1  'x, y, z'
loop_
 _atom_site_type_symbol
 _atom_site_label
 _atom_site_symmetry_multiplicity
 _atom_site_fract_x
 _atom_site_fract_y
 _atom_site_fract_z
 _atom_site_occupancy
  Tb  Tb0  1  0.304050  0.263789  0.568039  1
  Tb  Tb1  1  0.696316  0.736074  0.432206  1
  Tb  Tb2  1  0.303869  0.736074  0.039758  1
  Tb  Tb3  1  0.695747  0.263789  0.959739  1
  Tb  Tb4  1  0.188066  0.514537  0.326470  1
  Dy  Dy5  1  0.187737  0.861435  0.673698  1
  Dy  Dy6  1  0.812412  0.485825  0.673412  1
  Dy  Dy7  1  0.811971  0.138472  0.326501  1
  Dy  Dy8  1  0.397961  0.217997  0.179699  1
  Dy  Dy9  1  0.038298  0.217997  0.820035  1
  Dy  Dy10  1  0.961490  0.782061  0.179691  1
  Dy  Dy11  1  0.602370  0.782061  0.820572  1
  Al  Al12  1  0.500294  0.000416  0.500122  1
  Zn  Zn13  1  0.499978  0.500024  0.000046  1
  Co  Co14  1  0.165088  0.499888  0.665469  1
  Co  Co15  1  0.834419  0.499888  0.334800  1
  Co  Co16  1  0.999844  0.114341  0.114496  1
  Co  Co17  1  0.000090  0.885335  0.885244  1
