# generated using pymatgen
data_Sc4Al18(FeNi)3
_symmetry_space_group_name_H-M   'P 1'
_cell_length_a   7.32144568
_cell_length_b   7.32144517
_cell_length_c   9.10091920
_cell_angle_alpha   90.13832415
_cell_angle_beta   90.13832037
_cell_angle_gamma   119.82953138
_symmetry_Int_Tables_number   1
_chemical_formula_structural   Sc4Al18(FeNi)3
_chemical_formula_sum   'Sc4 Al18 Fe3 Ni3'
_cell_volume   423.20224634
_cell_formula_units_Z   1
loop_
 _symmetry_equiv_pos_site_id
 _symmetry_equiv_pos_as_xyz
  1  'x, y, z'
loop_
 _atom_site_type_symbol
 _atom_site_label
 _atom_site_symmetry_multiplicity
 _atom_site_fract_x
 _atom_site_fract_y
 _atom_site_fract_z
 _atom_site_occupancy
  Sc  Sc0  1  0.996626  0.671917  0.248016  1
  Sc  Sc1  1  0.004949  0.329289  0.751701  1
  Sc  Sc2  1  0.670711  0.995051  0.248299  1
  Sc  Sc3  1  0.328083  0.003374  0.751984  1
  Al  Al4  1  0.995974  0.337452  0.073513  1
  Al  Al5  1  0.004842  0.660655  0.926620  1
  Al  Al6  1  0.007229  0.666213  0.574916  1
  Al  Al7  1  0.333787  0.992771  0.425084  1
  Al  Al8  1  0.997371  0.338242  0.425901  1
  Al  Al9  1  0.661758  0.002629  0.574099  1
  Al  Al10  1  0.662548  0.004026  0.926487  1
  Al  Al11  1  0.339345  0.995158  0.073380  1
  Al  Al12  1  0.339173  0.561454  0.249634  1
  Al  Al13  1  0.661447  0.440770  0.752978  1
  Al  Al14  1  0.559230  0.338553  0.247022  1
  Al  Al15  1  0.438546  0.660827  0.750366  1
  Al  Al16  1  0.328993  0.333630  0.549781  1
  Al  Al17  1  0.666370  0.671007  0.450219  1
  Al  Al18  1  0.667857  0.666521  0.046300  1
  Al  Al19  1  0.333479  0.332143  0.953700  1
  Al  Al20  1  0.120514  0.119302  0.249964  1
  Al  Al21  1  0.880698  0.879486  0.750036  1
  Fe  Fe22  1  0.672615  0.327385  0.000000  1
  Fe  Fe23  1  0.328896  0.671104  0.000000  1
  Fe  Fe24  1  0.327663  0.672337  0.500000  1
  Ni  Ni25  1  0.670747  0.329253  0.500000  1
  Ni  Ni26  1  0.001187  0.998813  0.000000  1
  Ni  Ni27  1  0.999361  0.000639  0.500000  1
