# generated using pymatgen
data_Ce4ScSn3
_symmetry_space_group_name_H-M   'P 1'
_cell_length_a   9.05584394
_cell_length_b   9.05584446
_cell_length_c   9.05584545
_cell_angle_alpha   96.59824416
_cell_angle_beta   96.59823661
_cell_angle_gamma   140.37067404
_symmetry_Int_Tables_number   1
_chemical_formula_structural   Ce4ScSn3
_chemical_formula_sum   'Ce8 Sc2 Sn6'
_cell_volume   445.63405199
_cell_formula_units_Z   2
loop_
 _symmetry_equiv_pos_site_id
 _symmetry_equiv_pos_as_xyz
  1  'x, y, z'
loop_
 _atom_site_type_symbol
 _atom_site_label
 _atom_site_symmetry_multiplicity
 _atom_site_fract_x
 _atom_site_fract_y
 _atom_site_fract_z
 _atom_site_occupancy
  Ce  Ce0  1  0.097368  0.234464  0.331831  1
  Ce  Ce1  1  0.902632  0.765536  0.668169  1
  Ce  Ce2  1  0.765536  0.097368  0.862904  1
  Ce  Ce3  1  0.402632  0.734464  0.137096  1
  Ce  Ce4  1  0.234464  0.902632  0.137096  1
  Ce  Ce5  1  0.597368  0.265536  0.862904  1
  Ce  Ce6  1  0.734464  0.597368  0.331831  1
  Ce  Ce7  1  0.265536  0.402632  0.668169  1
  Sc  Sc8  1  0.250000  0.750000  0.500000  1
  Sc  Sc9  1  0.750000  0.250000  0.500000  1
  Sn  Sn10  1  0.150037  0.650037  0.800074  1
  Sn  Sn11  1  0.849963  0.349963  0.199926  1
  Sn  Sn12  1  0.349963  0.150037  0.500000  1
  Sn  Sn13  1  0.650037  0.849963  0.500000  1
  Sn  Sn14  1  0.250000  0.250000  0.000000  1
  Sn  Sn15  1  0.750000  0.750000  0.000000  1
