# generated using pymatgen
data_TbCeFe4(PC)2
_symmetry_space_group_name_H-M   'P 1'
_cell_length_a   5.53057529
_cell_length_b   5.53057335
_cell_length_c   6.70071600
_cell_angle_alpha   90.00000000
_cell_angle_beta   90.00000000
_cell_angle_gamma   140.75991711
_symmetry_Int_Tables_number   1
_chemical_formula_structural   TbCeFe4(PC)2
_chemical_formula_sum   'Tb1 Ce1 Fe4 P2 C2'
_cell_volume   129.64959023
_cell_formula_units_Z   1
loop_
 _symmetry_equiv_pos_site_id
 _symmetry_equiv_pos_as_xyz
  1  'x, y, z'
loop_
 _atom_site_type_symbol
 _atom_site_label
 _atom_site_symmetry_multiplicity
 _atom_site_fract_x
 _atom_site_fract_y
 _atom_site_fract_z
 _atom_site_occupancy
  Tb  Tb0  1  0.549825  0.450175  0.250000  1
  Ce  Ce1  1  0.448434  0.551566  0.750000  1
  Fe  Fe2  1  0.833192  0.166808  0.058382  1
  Fe  Fe3  1  0.168040  0.831960  0.944988  1
  Fe  Fe4  1  0.168040  0.831960  0.555012  1
  Fe  Fe5  1  0.833192  0.166808  0.441618  1
  P  P6  1  0.270639  0.729361  0.250000  1
  P  P7  1  0.726440  0.273560  0.750000  1
  C  C8  1  0.001098  0.998902  0.002725  1
  C  C9  1  0.001098  0.998902  0.497275  1
