# generated using pymatgen
data_La3Pr(HgO4)2
_symmetry_space_group_name_H-M   'P 1'
_cell_length_a   7.34154856
_cell_length_b   7.34154957
_cell_length_c   10.46758452
_cell_angle_alpha   60.65400304
_cell_angle_beta   60.65399799
_cell_angle_gamma   30.92036123
_symmetry_Int_Tables_number   1
_chemical_formula_structural   La3Pr(HgO4)2
_chemical_formula_sum   'La3 Pr1 Hg2 O8'
_cell_volume   249.62896147
_cell_formula_units_Z   1
loop_
 _symmetry_equiv_pos_site_id
 _symmetry_equiv_pos_as_xyz
  1  'x, y, z'
loop_
 _atom_site_type_symbol
 _atom_site_label
 _atom_site_symmetry_multiplicity
 _atom_site_fract_x
 _atom_site_fract_y
 _atom_site_fract_z
 _atom_site_occupancy
  La  La0  1  0.159706  0.159706  0.202139  1
  La  La1  1  0.840522  0.840522  0.797777  1
  La  La2  1  0.379696  0.379696  0.458272  1
  Pr  Pr3  1  0.619632  0.619632  0.541638  1
  Hg  Hg4  1  0.883858  0.883858  0.162943  1
  Hg  Hg5  1  0.114702  0.114702  0.838450  1
  O  O6  1  0.226324  0.226324  0.392502  1
  O  O7  1  0.796588  0.796588  0.059171  1
  O  O8  1  0.037766  0.037766  0.721018  1
  O  O9  1  0.581764  0.581764  0.345849  1
  O  O10  1  0.419970  0.419970  0.653953  1
  O  O11  1  0.963392  0.963392  0.277038  1
  O  O12  1  0.203196  0.203196  0.940608  1
  O  O13  1  0.772882  0.772882  0.608643  1
