# generated using pymatgen
data_ThPa(Sb2Ru)2
_symmetry_space_group_name_H-M   'P 1'
_cell_length_a   4.31946600
_cell_length_b   4.31806800
_cell_length_c   9.55089200
_cell_angle_alpha   90.00000000
_cell_angle_beta   90.00000000
_cell_angle_gamma   90.00000000
_symmetry_Int_Tables_number   1
_chemical_formula_structural   ThPa(Sb2Ru)2
_chemical_formula_sum   'Th1 Pa1 Sb4 Ru2'
_cell_volume   178.14082992
_cell_formula_units_Z   1
loop_
 _symmetry_equiv_pos_site_id
 _symmetry_equiv_pos_as_xyz
  1  'x, y, z'
loop_
 _atom_site_type_symbol
 _atom_site_label
 _atom_site_symmetry_multiplicity
 _atom_site_fract_x
 _atom_site_fract_y
 _atom_site_fract_z
 _atom_site_occupancy
  Th  Th0  1  0.000000  0.500000  0.742495  1
  Pa  Pa1  1  0.500000  0.000000  0.270318  1
  Sb  Sb2  1  0.000000  0.500000  0.328412  1
  Sb  Sb3  1  0.500000  0.000000  0.659682  1
  Sb  Sb4  1  0.000000  0.000000  0.010022  1
  Sb  Sb5  1  0.500000  0.500000  0.009992  1
  Ru  Ru6  1  0.000000  0.000000  0.489597  1
  Ru  Ru7  1  0.500000  0.500000  0.489481  1
