# generated using pymatgen
data_Nd3TlCd3PbAu
_symmetry_space_group_name_H-M   'P 1'
_cell_length_a   7.78117300
_cell_length_b   7.78117233
_cell_length_c   4.59307100
_cell_angle_alpha   90.00000000
_cell_angle_beta   90.00000000
_cell_angle_gamma   119.99999861
_symmetry_Int_Tables_number   1
_chemical_formula_structural   Nd3TlCd3PbAu
_chemical_formula_sum   'Nd3 Tl1 Cd3 Pb1 Au1'
_cell_volume   240.83738405
_cell_formula_units_Z   1
loop_
 _symmetry_equiv_pos_site_id
 _symmetry_equiv_pos_as_xyz
  1  'x, y, z'
loop_
 _atom_site_type_symbol
 _atom_site_label
 _atom_site_symmetry_multiplicity
 _atom_site_fract_x
 _atom_site_fract_y
 _atom_site_fract_z
 _atom_site_occupancy
  Nd  Nd0  1  0.597125  0.997446  0.000000  1
  Nd  Nd1  1  0.002554  0.599679  0.000000  1
  Nd  Nd2  1  0.400321  0.402875  0.000000  1
  Tl  Tl3  1  0.333333  0.666667  0.500000  1
  Cd  Cd4  1  0.235151  0.995984  0.500000  1
  Cd  Cd5  1  0.004016  0.239167  0.500000  1
  Cd  Cd6  1  0.760833  0.764849  0.500000  1
  Pb  Pb7  1  0.666667  0.333333  0.500000  1
  Au  Au8  1  0.000000  0.000000  0.000000  1
