# generated using pymatgen
data_YbPr(SiRu)2
_symmetry_space_group_name_H-M   'P 1'
_cell_length_a   4.28184600
_cell_length_b   4.28184600
_cell_length_c   6.67391400
_cell_angle_alpha   90.00000000
_cell_angle_beta   90.00000000
_cell_angle_gamma   90.00000000
_symmetry_Int_Tables_number   1
_chemical_formula_structural   YbPr(SiRu)2
_chemical_formula_sum   'Yb1 Pr1 Si2 Ru2'
_cell_volume   122.36090855
_cell_formula_units_Z   1
loop_
 _symmetry_equiv_pos_site_id
 _symmetry_equiv_pos_as_xyz
  1  'x, y, z'
loop_
 _atom_site_type_symbol
 _atom_site_label
 _atom_site_symmetry_multiplicity
 _atom_site_fract_x
 _atom_site_fract_y
 _atom_site_fract_z
 _atom_site_occupancy
  Yb  Yb0  1  0.500000  0.000000  0.687375  1
  Pr  Pr1  1  0.000000  0.500000  0.327898  1
  Si  Si2  1  0.500000  0.000000  0.170345  1
  Si  Si3  1  0.000000  0.500000  0.823722  1
  Ru  Ru4  1  0.000000  0.000000  0.995330  1
  Ru  Ru5  1  0.500000  0.500000  0.995330  1
