# generated using pymatgen
data_TbDyLuSi2
_symmetry_space_group_name_H-M   'P 1'
_cell_length_a   7.39127265
_cell_length_b   7.39127265
_cell_length_c   4.24556200
_cell_angle_alpha   90.00000000
_cell_angle_beta   90.00000000
_cell_angle_gamma   90.04796823
_symmetry_Int_Tables_number   1
_chemical_formula_structural   TbDyLuSi2
_chemical_formula_sum   'Tb2 Dy2 Lu2 Si4'
_cell_volume   231.93883997
_cell_formula_units_Z   2
loop_
 _symmetry_equiv_pos_site_id
 _symmetry_equiv_pos_as_xyz
  1  'x, y, z'
loop_
 _atom_site_type_symbol
 _atom_site_label
 _atom_site_symmetry_multiplicity
 _atom_site_fract_x
 _atom_site_fract_y
 _atom_site_fract_z
 _atom_site_occupancy
  Tb  Tb0  1  0.175834  0.324166  0.500000  1
  Tb  Tb1  1  0.824166  0.675834  0.500000  1
  Dy  Dy2  1  0.324266  0.824266  0.500000  1
  Dy  Dy3  1  0.675734  0.175734  0.500000  1
  Lu  Lu4  1  0.000000  0.000000  0.000000  1
  Lu  Lu5  1  0.500000  0.500000  0.000000  1
  Si  Si6  1  0.617561  0.882439  0.000000  1
  Si  Si7  1  0.382439  0.117561  0.000000  1
  Si  Si8  1  0.882177  0.382177  0.000000  1
  Si  Si9  1  0.117823  0.617823  0.000000  1
