# generated using pymatgen
data_VFeHgO5
_symmetry_space_group_name_H-M   'P 1'
_cell_length_a   6.19691900
_cell_length_b   8.46127000
_cell_length_c   8.68866700
_cell_angle_alpha   90.00000000
_cell_angle_beta   90.00000000
_cell_angle_gamma   90.00000000
_symmetry_Int_Tables_number   1
_chemical_formula_structural   VFeHgO5
_chemical_formula_sum   'V4 Fe4 Hg4 O20'
_cell_volume   455.57986969
_cell_formula_units_Z   4
loop_
 _symmetry_equiv_pos_site_id
 _symmetry_equiv_pos_as_xyz
  1  'x, y, z'
loop_
 _atom_site_type_symbol
 _atom_site_label
 _atom_site_symmetry_multiplicity
 _atom_site_fract_x
 _atom_site_fract_y
 _atom_site_fract_z
 _atom_site_occupancy
  V  V0  1  0.750000  0.311538  0.710610  1
  V  V1  1  0.750000  0.811538  0.789390  1
  V  V2  1  0.250000  0.688462  0.289390  1
  V  V3  1  0.250000  0.188462  0.210610  1
  Fe  Fe4  1  0.000000  0.000000  0.500000  1
  Fe  Fe5  1  0.500000  0.500000  0.000000  1
  Fe  Fe6  1  0.500000  0.000000  0.500000  1
  Fe  Fe7  1  0.000000  0.500000  0.000000  1
  Hg  Hg8  1  0.250000  0.574426  0.658863  1
  Hg  Hg9  1  0.250000  0.074426  0.841137  1
  Hg  Hg10  1  0.750000  0.425574  0.341137  1
  Hg  Hg11  1  0.750000  0.925574  0.158863  1
  O  O12  1  0.525733  0.335456  0.826838  1
  O  O13  1  0.974267  0.835456  0.673162  1
  O  O14  1  0.025733  0.664544  0.173162  1
  O  O15  1  0.474267  0.164544  0.326838  1
  O  O16  1  0.474267  0.664544  0.173162  1
  O  O17  1  0.025733  0.164544  0.326838  1
  O  O18  1  0.974267  0.335456  0.826838  1
  O  O19  1  0.525733  0.835456  0.673162  1
  O  O20  1  0.750000  0.127822  0.608916  1
  O  O21  1  0.750000  0.627822  0.891084  1
  O  O22  1  0.250000  0.872178  0.391084  1
  O  O23  1  0.250000  0.372178  0.108916  1
  O  O24  1  0.250000  0.098032  0.607090  1
  O  O25  1  0.250000  0.598032  0.892910  1
  O  O26  1  0.750000  0.901968  0.392910  1
  O  O27  1  0.750000  0.401968  0.107090  1
  O  O28  1  0.750000  0.465541  0.573516  1
  O  O29  1  0.750000  0.965541  0.926484  1
  O  O30  1  0.250000  0.534459  0.426484  1
  O  O31  1  0.250000  0.034459  0.073516  1
