# generated using pymatgen
data_Dy4YTm3In3Co
_symmetry_space_group_name_H-M   'P 1'
_cell_length_a   10.31260990
_cell_length_b   10.31261004
_cell_length_c   7.03632408
_cell_angle_alpha   89.98364554
_cell_angle_beta   90.01635755
_cell_angle_gamma   119.97857755
_symmetry_Int_Tables_number   1
_chemical_formula_structural   Dy4YTm3In3Co
_chemical_formula_sum   'Dy8 Y2 Tm6 In6 Co2'
_cell_volume   648.19747739
_cell_formula_units_Z   2
loop_
 _symmetry_equiv_pos_site_id
 _symmetry_equiv_pos_as_xyz
  1  'x, y, z'
loop_
 _atom_site_type_symbol
 _atom_site_label
 _atom_site_symmetry_multiplicity
 _atom_site_fract_x
 _atom_site_fract_y
 _atom_site_fract_z
 _atom_site_occupancy
  Dy  Dy0  1  0.534743  0.070459  0.503524  1
  Dy  Dy1  1  0.929541  0.465257  0.503524  1
  Dy  Dy2  1  0.535872  0.464128  0.503977  1
  Dy  Dy3  1  0.464035  0.930203  0.004848  1
  Dy  Dy4  1  0.069797  0.535965  0.004848  1
  Dy  Dy5  1  0.464870  0.535130  0.005928  1
  Dy  Dy6  1  0.178457  0.356406  0.710928  1
  Dy  Dy7  1  0.643594  0.821543  0.710928  1
  Y  Y8  1  0.000238  0.999762  0.491703  1
  Y  Y9  1  0.000757  0.999243  0.994372  1
  Tm  Tm10  1  0.178970  0.821030  0.709756  1
  Tm  Tm11  1  0.820971  0.642522  0.210498  1
  Tm  Tm12  1  0.357478  0.179029  0.210498  1
  Tm  Tm13  1  0.821195  0.178805  0.210735  1
  Tm  Tm14  1  0.666605  0.333395  0.899069  1
  Tm  Tm15  1  0.333037  0.666963  0.396609  1
  In  In16  1  0.838204  0.672859  0.756097  1
  In  In17  1  0.327141  0.161796  0.756097  1
  In  In18  1  0.835909  0.164091  0.756016  1
  In  In19  1  0.162629  0.325668  0.252660  1
  In  In20  1  0.674332  0.837371  0.252660  1
  In  In21  1  0.162598  0.837402  0.255025  1
  Co  Co22  1  0.666586  0.333414  0.278787  1
  Co  Co23  1  0.332442  0.667558  0.778958  1
