# generated using pymatgen
data_Lu2Co10Tc2P7
_symmetry_space_group_name_H-M   'P 1'
_cell_length_a   3.64841200
_cell_length_b   9.01697374
_cell_length_c   8.99538892
_cell_angle_alpha   120.49350906
_cell_angle_beta   90.00000000
_cell_angle_gamma   90.00000000
_symmetry_Int_Tables_number   1
_chemical_formula_structural   Lu2Co10Tc2P7
_chemical_formula_sum   'Lu2 Co10 Tc2 P7'
_cell_volume   254.99636615
_cell_formula_units_Z   1
loop_
 _symmetry_equiv_pos_site_id
 _symmetry_equiv_pos_as_xyz
  1  'x, y, z'
loop_
 _atom_site_type_symbol
 _atom_site_label
 _atom_site_symmetry_multiplicity
 _atom_site_fract_x
 _atom_site_fract_y
 _atom_site_fract_z
 _atom_site_occupancy
  Lu  Lu0  1  0.000000  0.662251  0.330821  1
  Lu  Lu1  1  0.500000  0.332465  0.666462  1
  Co  Co2  1  0.000000  0.373485  0.937420  1
  Co  Co3  1  0.000000  0.061231  0.434850  1
  Co  Co4  1  0.000000  0.565749  0.628125  1
  Co  Co5  1  0.000000  0.880081  0.719401  1
  Co  Co6  1  0.000000  0.278807  0.156536  1
  Co  Co7  1  0.000000  0.839468  0.123968  1
  Co  Co8  1  0.500000  0.948721  0.563690  1
  Co  Co9  1  0.500000  0.438296  0.383668  1
  Co  Co10  1  0.500000  0.614690  0.054570  1
  Co  Co11  1  0.500000  0.133579  0.897099  1
  Tc  Tc12  1  0.500000  0.092855  0.220584  1
  Tc  Tc13  1  0.500000  0.783403  0.883213  1
  P  P14  1  0.000000  0.114963  0.704912  1
  P  P15  1  0.000000  0.298326  0.411181  1
  P  P16  1  0.000000  0.586063  0.886019  1
  P  P17  1  0.500000  0.710703  0.592887  1
  P  P18  1  0.500000  0.404010  0.113385  1
  P  P19  1  0.500000  0.880444  0.293432  1
  P  P20  1  0.000000  0.000411  0.997781  1
