# generated using pymatgen
data_Mn2Cr2Co3NiP4
_symmetry_space_group_name_H-M   'P 1'
_cell_length_a   3.50049400
_cell_length_b   5.79740361
_cell_length_c   6.73344800
_cell_angle_alpha   89.72141087
_cell_angle_beta   90.00000000
_cell_angle_gamma   90.00000000
_symmetry_Int_Tables_number   1
_chemical_formula_structural   Mn2Cr2Co3NiP4
_chemical_formula_sum   'Mn2 Cr2 Co3 Ni1 P4'
_cell_volume   136.64547386
_cell_formula_units_Z   1
loop_
 _symmetry_equiv_pos_site_id
 _symmetry_equiv_pos_as_xyz
  1  'x, y, z'
loop_
 _atom_site_type_symbol
 _atom_site_label
 _atom_site_symmetry_multiplicity
 _atom_site_fract_x
 _atom_site_fract_y
 _atom_site_fract_z
 _atom_site_occupancy
  Mn  Mn0  1  0.750000  0.031294  0.669844  1
  Mn  Mn1  1  0.750000  0.529319  0.830700  1
  Cr  Cr2  1  0.250000  0.974003  0.326809  1
  Cr  Cr3  1  0.250000  0.471186  0.172009  1
  Co  Co4  1  0.750000  0.639804  0.438839  1
  Co  Co5  1  0.250000  0.854224  0.934355  1
  Co  Co6  1  0.750000  0.139891  0.061957  1
  Ni  Ni7  1  0.250000  0.355926  0.566487  1
  P  P8  1  0.250000  0.742830  0.623118  1
  P  P9  1  0.750000  0.262790  0.368434  1
  P  P10  1  0.250000  0.236211  0.880569  1
  P  P11  1  0.750000  0.762523  0.126879  1
