# generated using pymatgen
data_Er3TlIn2Ag2Pt
_symmetry_space_group_name_H-M   'P 1'
_cell_length_a   7.98263504
_cell_length_b   8.00362626
_cell_length_c   3.71651000
_cell_angle_alpha   90.00000000
_cell_angle_beta   90.00000000
_cell_angle_gamma   119.92704083
_symmetry_Int_Tables_number   1
_chemical_formula_structural   Er3TlIn2Ag2Pt
_chemical_formula_sum   'Er3 Tl1 In2 Ag2 Pt1'
_cell_volume   205.78694968
_cell_formula_units_Z   1
loop_
 _symmetry_equiv_pos_site_id
 _symmetry_equiv_pos_as_xyz
  1  'x, y, z'
loop_
 _atom_site_type_symbol
 _atom_site_label
 _atom_site_symmetry_multiplicity
 _atom_site_fract_x
 _atom_site_fract_y
 _atom_site_fract_z
 _atom_site_occupancy
  Er  Er0  1  0.612422  0.025357  0.500000  1
  Er  Er1  1  0.416527  0.388584  0.500000  1
  Er  Er2  1  0.971902  0.585289  0.500000  1
  Tl  Tl3  1  0.720097  0.733414  0.000000  1
  In  In4  1  0.012214  0.278728  0.000000  1
  In  In5  1  0.267194  0.989102  0.000000  1
  Ag  Ag6  1  0.326523  0.665665  0.000000  1
  Ag  Ag7  1  0.007406  0.007138  0.500000  1
  Pt  Pt8  1  0.665714  0.326723  0.000000  1
