# generated using pymatgen
data_Pr2CoNi(P3Rh4)2
_symmetry_space_group_name_H-M   'P 1'
_cell_length_a   3.88261500
_cell_length_b   10.84378000
_cell_length_c   12.46012700
_cell_angle_alpha   90.00000000
_cell_angle_beta   90.00000000
_cell_angle_gamma   90.00000000
_symmetry_Int_Tables_number   1
_chemical_formula_structural   Pr2CoNi(P3Rh4)2
_chemical_formula_sum   'Pr4 Co2 Ni2 P12 Rh16'
_cell_volume   524.59904413
_cell_formula_units_Z   2
loop_
 _symmetry_equiv_pos_site_id
 _symmetry_equiv_pos_as_xyz
  1  'x, y, z'
loop_
 _atom_site_type_symbol
 _atom_site_label
 _atom_site_symmetry_multiplicity
 _atom_site_fract_x
 _atom_site_fract_y
 _atom_site_fract_z
 _atom_site_occupancy
  Pr  Pr0  1  0.250000  0.585518  0.706703  1
  Pr  Pr1  1  0.250000  0.914482  0.206703  1
  Pr  Pr2  1  0.750000  0.413573  0.292837  1
  Pr  Pr3  1  0.750000  0.086427  0.792837  1
  Co  Co4  1  0.750000  0.535965  0.064505  1
  Co  Co5  1  0.750000  0.964035  0.564505  1
  Ni  Ni6  1  0.250000  0.465463  0.934821  1
  Ni  Ni7  1  0.250000  0.034537  0.434821  1
  P  P8  1  0.250000  0.422562  0.106473  1
  P  P9  1  0.250000  0.077438  0.606473  1
  P  P10  1  0.750000  0.580435  0.895205  1
  P  P11  1  0.750000  0.919565  0.395205  1
  P  P12  1  0.250000  0.274365  0.873666  1
  P  P13  1  0.250000  0.225635  0.373666  1
  P  P14  1  0.750000  0.724211  0.126517  1
  P  P15  1  0.750000  0.775789  0.626517  1
  P  P16  1  0.250000  0.601769  0.389923  1
  P  P17  1  0.250000  0.898231  0.889923  1
  P  P18  1  0.750000  0.398633  0.610689  1
  P  P19  1  0.750000  0.101367  0.110689  1
  Rh  Rh20  1  0.250000  0.710212  0.981132  1
  Rh  Rh21  1  0.250000  0.789788  0.481132  1
  Rh  Rh22  1  0.750000  0.286148  0.016361  1
  Rh  Rh23  1  0.750000  0.213852  0.516361  1
  Rh  Rh24  1  0.250000  0.408164  0.483534  1
  Rh  Rh25  1  0.250000  0.091836  0.983534  1
  Rh  Rh26  1  0.750000  0.593933  0.516831  1
  Rh  Rh27  1  0.750000  0.906067  0.016831  1
  Rh  Rh28  1  0.250000  0.224145  0.178131  1
  Rh  Rh29  1  0.250000  0.275855  0.678131  1
  Rh  Rh30  1  0.750000  0.776556  0.821888  1
  Rh  Rh31  1  0.750000  0.723444  0.321888  1
  Rh  Rh32  1  0.250000  0.884698  0.696679  1
  Rh  Rh33  1  0.250000  0.615302  0.196679  1
  Rh  Rh34  1  0.750000  0.113785  0.304103  1
  Rh  Rh35  1  0.750000  0.386215  0.804103  1
