# generated using pymatgen
data_NaCa4Sb2As
_symmetry_space_group_name_H-M   'P 1'
_cell_length_a   8.00475200
_cell_length_b   9.46117400
_cell_length_c   12.49668200
_cell_angle_alpha   90.00000000
_cell_angle_beta   90.00000000
_cell_angle_gamma   90.00000000
_symmetry_Int_Tables_number   1
_chemical_formula_structural   NaCa4Sb2As
_chemical_formula_sum   'Na4 Ca16 Sb8 As4'
_cell_volume   946.42810716
_cell_formula_units_Z   4
loop_
 _symmetry_equiv_pos_site_id
 _symmetry_equiv_pos_as_xyz
  1  'x, y, z'
loop_
 _atom_site_type_symbol
 _atom_site_label
 _atom_site_symmetry_multiplicity
 _atom_site_fract_x
 _atom_site_fract_y
 _atom_site_fract_z
 _atom_site_occupancy
  Na  Na0  1  0.027297  0.750000  0.501092  1
  Na  Na1  1  0.972703  0.250000  0.498908  1
  Na  Na2  1  0.527297  0.250000  0.998908  1
  Na  Na3  1  0.472703  0.750000  0.001092  1
  Ca  Ca4  1  0.851711  0.750000  0.794357  1
  Ca  Ca5  1  0.148289  0.250000  0.205643  1
  Ca  Ca6  1  0.351711  0.250000  0.705643  1
  Ca  Ca7  1  0.648289  0.750000  0.294357  1
  Ca  Ca8  1  0.700714  0.510827  0.562605  1
  Ca  Ca9  1  0.299286  0.489173  0.437395  1
  Ca  Ca10  1  0.200714  0.489173  0.937395  1
  Ca  Ca11  1  0.299286  0.010827  0.437395  1
  Ca  Ca12  1  0.799286  0.510827  0.062605  1
  Ca  Ca13  1  0.700714  0.989173  0.562605  1
  Ca  Ca14  1  0.799286  0.989173  0.062605  1
  Ca  Ca15  1  0.200714  0.010827  0.937395  1
  Ca  Ca16  1  0.341975  0.750000  0.711582  1
  Ca  Ca17  1  0.658025  0.250000  0.288418  1
  Ca  Ca18  1  0.841975  0.250000  0.788418  1
  Ca  Ca19  1  0.158025  0.750000  0.211582  1
  Sb  Sb20  1  0.567978  0.503905  0.826757  1
  Sb  Sb21  1  0.432022  0.496095  0.173243  1
  Sb  Sb22  1  0.067978  0.496095  0.673243  1
  Sb  Sb23  1  0.432022  0.003905  0.173243  1
  Sb  Sb24  1  0.932022  0.503905  0.326757  1
  Sb  Sb25  1  0.567978  0.996095  0.826757  1
  Sb  Sb26  1  0.932022  0.996095  0.326757  1
  Sb  Sb27  1  0.067978  0.003905  0.673243  1
  As  As28  1  0.021475  0.750000  0.997085  1
  As  As29  1  0.978525  0.250000  0.002915  1
  As  As30  1  0.521475  0.250000  0.502915  1
  As  As31  1  0.478525  0.750000  0.497085  1
