# generated using pymatgen
data_SmYSc3Si7Pd2Pt7
_symmetry_space_group_name_H-M   'P 1'
_cell_length_a   10.06411800
_cell_length_b   10.06411813
_cell_length_c   3.99348300
_cell_angle_alpha   90.00000000
_cell_angle_beta   90.00000000
_cell_angle_gamma   119.99999959
_symmetry_Int_Tables_number   1
_chemical_formula_structural   SmYSc3Si7Pd2Pt7
_chemical_formula_sum   'Sm1 Y1 Sc3 Si7 Pd2 Pt7'
_cell_volume   350.29498458
_cell_formula_units_Z   1
loop_
 _symmetry_equiv_pos_site_id
 _symmetry_equiv_pos_as_xyz
  1  'x, y, z'
loop_
 _atom_site_type_symbol
 _atom_site_label
 _atom_site_symmetry_multiplicity
 _atom_site_fract_x
 _atom_site_fract_y
 _atom_site_fract_z
 _atom_site_occupancy
  Sm  Sm0  1  0.000197  0.000007  0.000000  1
  Y  Y1  1  0.332602  0.667086  0.500000  1
  Sc  Sc2  1  0.894288  0.454330  0.500000  1
  Sc  Sc3  1  0.559771  0.106291  0.500000  1
  Sc  Sc4  1  0.546559  0.440024  0.500000  1
  Si  Si5  1  0.248078  0.196964  0.500000  1
  Si  Si6  1  0.804197  0.052334  0.500000  1
  Si  Si7  1  0.948752  0.752054  0.500000  1
  Si  Si8  1  0.557205  0.647850  0.000000  1
  Si  Si9  1  0.352415  0.908802  0.000000  1
  Si  Si10  1  0.089776  0.442774  0.000000  1
  Si  Si11  1  0.666460  0.332941  0.000000  1
  Pd  Pd12  1  0.311456  0.409033  0.000000  1
  Pd  Pd13  1  0.591514  0.903246  0.000000  1
  Pt  Pt14  1  0.220063  0.935580  0.500000  1
  Pt  Pt15  1  0.065185  0.285801  0.500000  1
  Pt  Pt16  1  0.714820  0.779906  0.500000  1
  Pt  Pt17  1  0.097756  0.685656  0.000000  1
  Pt  Pt18  1  0.383874  0.171684  0.000000  1
  Pt  Pt19  1  0.827982  0.212370  0.000000  1
  Pt  Pt20  1  0.787051  0.615266  0.000000  1
