# generated using pymatgen
data_Y5FeRhO12
_symmetry_space_group_name_H-M   'P 1'
_cell_length_a   6.82074353
_cell_length_b   6.82074348
_cell_length_c   7.32121123
_cell_angle_alpha   74.32601520
_cell_angle_beta   74.32601481
_cell_angle_gamma   51.36516691
_symmetry_Int_Tables_number   1
_chemical_formula_structural   Y5FeRhO12
_chemical_formula_sum   'Y5 Fe1 Rh1 O12'
_cell_volume   253.82136641
_cell_formula_units_Z   1
loop_
 _symmetry_equiv_pos_site_id
 _symmetry_equiv_pos_as_xyz
  1  'x, y, z'
loop_
 _atom_site_type_symbol
 _atom_site_label
 _atom_site_symmetry_multiplicity
 _atom_site_fract_x
 _atom_site_fract_y
 _atom_site_fract_z
 _atom_site_occupancy
  Y  Y0  1  0.500725  0.499275  0.500000  1
  Y  Y1  1  0.189359  0.191323  0.170833  1
  Y  Y2  1  0.808677  0.810641  0.829167  1
  Y  Y3  1  0.805262  0.803801  0.359611  1
  Y  Y4  1  0.196199  0.194738  0.640389  1
  Fe  Fe5  1  0.253972  0.746028  0.000000  1
  Rh  Rh6  1  0.742206  0.257794  0.000000  1
  O  O7  1  0.996012  0.003465  0.187523  1
  O  O8  1  0.996535  0.003988  0.812477  1
  O  O9  1  0.503694  0.497881  0.815658  1
  O  O10  1  0.502119  0.496306  0.184342  1
  O  O11  1  0.594534  0.097089  0.576824  1
  O  O12  1  0.902911  0.405466  0.423176  1
  O  O13  1  0.401975  0.903676  0.424796  1
  O  O14  1  0.400005  0.919094  0.919995  1
  O  O15  1  0.080906  0.599995  0.080005  1
  O  O16  1  0.598577  0.069991  0.081809  1
  O  O17  1  0.930009  0.401423  0.918191  1
  O  O18  1  0.096324  0.598025  0.575204  1
