# generated using pymatgen
data_Tm14Lu2In3HgRh4
_symmetry_space_group_name_H-M   'P 1'
_cell_length_a   9.50858225
_cell_length_b   9.50336621
_cell_length_c   9.51595819
_cell_angle_alpha   59.89831330
_cell_angle_beta   59.98382246
_cell_angle_gamma   59.86467519
_symmetry_Int_Tables_number   1
_chemical_formula_structural   Tm14Lu2In3HgRh4
_chemical_formula_sum   'Tm14 Lu2 In3 Hg1 Rh4'
_cell_volume   606.87257132
_cell_formula_units_Z   1
loop_
 _symmetry_equiv_pos_site_id
 _symmetry_equiv_pos_as_xyz
  1  'x, y, z'
loop_
 _atom_site_type_symbol
 _atom_site_label
 _atom_site_symmetry_multiplicity
 _atom_site_fract_x
 _atom_site_fract_y
 _atom_site_fract_z
 _atom_site_occupancy
  Tm  Tm0  1  0.061589  0.437864  0.061993  1
  Tm  Tm1  1  0.053314  0.647910  0.647149  1
  Tm  Tm2  1  0.437586  0.436668  0.065502  1
  Tm  Tm3  1  0.647892  0.053018  0.647572  1
  Tm  Tm4  1  0.189533  0.811886  0.189558  1
  Tm  Tm5  1  0.189856  0.190006  0.810813  1
  Tm  Tm6  1  0.808900  0.809864  0.191557  1
  Tm  Tm7  1  0.437841  0.061729  0.062602  1
  Tm  Tm8  1  0.811075  0.189916  0.189823  1
  Tm  Tm9  1  0.065683  0.436077  0.437616  1
  Tm  Tm10  1  0.809810  0.191701  0.809218  1
  Tm  Tm11  1  0.191533  0.810286  0.808647  1
  Tm  Tm12  1  0.647248  0.647713  0.053254  1
  Tm  Tm13  1  0.651125  0.650923  0.651091  1
  Lu  Lu14  1  0.061936  0.061503  0.438357  1
  Lu  Lu15  1  0.437116  0.064702  0.437737  1
  In  In16  1  0.749385  0.416684  0.417250  1
  In  In17  1  0.416650  0.749600  0.417192  1
  In  In18  1  0.417047  0.417080  0.749003  1
  Hg  Hg19  1  0.413322  0.413080  0.413107  1
  Rh  Rh20  1  0.858400  0.858601  0.427394  1
  Rh  Rh21  1  0.857431  0.857269  0.857160  1
  Rh  Rh22  1  0.427390  0.858383  0.858132  1
  Rh  Rh23  1  0.858334  0.427534  0.858269  1
