# generated using pymatgen
data_Hf4FeCu3Sn2
_symmetry_space_group_name_H-M   'P 1'
_cell_length_a   7.12521176
_cell_length_b   7.12521156
_cell_length_c   6.88596840
_cell_angle_alpha   90.19931271
_cell_angle_beta   90.19931369
_cell_angle_gamma   90.81507117
_symmetry_Int_Tables_number   1
_chemical_formula_structural   Hf4FeCu3Sn2
_chemical_formula_sum   'Hf8 Fe2 Cu6 Sn4'
_cell_volume   349.55159524
_cell_formula_units_Z   2
loop_
 _symmetry_equiv_pos_site_id
 _symmetry_equiv_pos_as_xyz
  1  'x, y, z'
loop_
 _atom_site_type_symbol
 _atom_site_label
 _atom_site_symmetry_multiplicity
 _atom_site_fract_x
 _atom_site_fract_y
 _atom_site_fract_z
 _atom_site_occupancy
  Hf  Hf0  1  0.159423  0.159423  0.012367  1
  Hf  Hf1  1  0.840577  0.840577  0.987633  1
  Hf  Hf2  1  0.649791  0.350209  0.500000  1
  Hf  Hf3  1  0.350209  0.649791  0.500000  1
  Hf  Hf4  1  0.676200  0.323800  0.000000  1
  Hf  Hf5  1  0.323800  0.676200  0.000000  1
  Hf  Hf6  1  0.804103  0.804103  0.509681  1
  Hf  Hf7  1  0.195897  0.195897  0.490319  1
  Fe  Fe8  1  0.376038  0.376038  0.231131  1
  Fe  Fe9  1  0.623962  0.623962  0.768869  1
  Cu  Cu10  1  0.628387  0.628387  0.211433  1
  Cu  Cu11  1  0.879685  0.124887  0.712899  1
  Cu  Cu12  1  0.875113  0.120315  0.287101  1
  Cu  Cu13  1  0.371613  0.371613  0.788567  1
  Cu  Cu14  1  0.120315  0.875113  0.287101  1
  Cu  Cu15  1  0.124887  0.879685  0.712899  1
  Sn  Sn16  1  0.502140  0.005861  0.247718  1
  Sn  Sn17  1  0.497860  0.994139  0.752282  1
  Sn  Sn18  1  0.005861  0.502140  0.247718  1
  Sn  Sn19  1  0.994139  0.497860  0.752282  1
