# generated using pymatgen
data_NdTh3(Ta3Si4)2
_symmetry_space_group_name_H-M   'P 1'
_cell_length_a   7.15508808
_cell_length_b   7.15945008
_cell_length_c   13.35599500
_cell_angle_alpha   90.00000000
_cell_angle_beta   90.00000000
_cell_angle_gamma   89.98298881
_symmetry_Int_Tables_number   1
_chemical_formula_structural   NdTh3(Ta3Si4)2
_chemical_formula_sum   'Nd2 Th6 Ta12 Si16'
_cell_volume   684.18079309
_cell_formula_units_Z   2
loop_
 _symmetry_equiv_pos_site_id
 _symmetry_equiv_pos_as_xyz
  1  'x, y, z'
loop_
 _atom_site_type_symbol
 _atom_site_label
 _atom_site_symmetry_multiplicity
 _atom_site_fract_x
 _atom_site_fract_y
 _atom_site_fract_z
 _atom_site_occupancy
  Nd  Nd0  1  0.999277  0.337295  0.218095  1
  Nd  Nd1  1  0.000723  0.662705  0.718095  1
  Th  Th2  1  0.163154  0.498475  0.467927  1
  Th  Th3  1  0.501237  0.836359  0.031552  1
  Th  Th4  1  0.836846  0.501525  0.967927  1
  Th  Th5  1  0.498763  0.163641  0.531552  1
  Th  Th6  1  0.336500  0.998790  0.781613  1
  Th  Th7  1  0.663500  0.001210  0.281613  1
  Ta  Ta8  1  0.169007  0.168504  0.999276  1
  Ta  Ta9  1  0.830993  0.831496  0.499276  1
  Ta  Ta10  1  0.332933  0.669945  0.250367  1
  Ta  Ta11  1  0.667067  0.330055  0.750367  1
  Ta  Ta12  1  0.160245  0.992917  0.374803  1
  Ta  Ta13  1  0.839755  0.007083  0.874803  1
  Ta  Ta14  1  0.506685  0.659694  0.623902  1
  Ta  Ta15  1  0.341406  0.493485  0.876565  1
  Ta  Ta16  1  0.493315  0.340306  0.123902  1
  Ta  Ta17  1  0.658594  0.506515  0.376565  1
  Ta  Ta18  1  0.994292  0.160475  0.625927  1
  Ta  Ta19  1  0.005708  0.839525  0.125927  1
  Si  Si20  1  0.287426  0.040548  0.186076  1
  Si  Si21  1  0.712574  0.959452  0.686076  1
  Si  Si22  1  0.460424  0.789414  0.436133  1
  Si  Si23  1  0.209905  0.538737  0.064720  1
  Si  Si24  1  0.539576  0.210586  0.936133  1
  Si  Si25  1  0.790095  0.461263  0.564720  1
  Si  Si26  1  0.039315  0.290716  0.813114  1
  Si  Si27  1  0.960685  0.709284  0.313114  1
  Si  Si28  1  0.374525  0.298555  0.313654  1
  Si  Si29  1  0.625475  0.701445  0.813654  1
  Si  Si30  1  0.200397  0.874850  0.564907  1
  Si  Si31  1  0.123713  0.798820  0.935651  1
  Si  Si32  1  0.799603  0.125150  0.064907  1
  Si  Si33  1  0.876287  0.201180  0.435651  1
  Si  Si34  1  0.297834  0.377029  0.685719  1
  Si  Si35  1  0.702166  0.622971  0.185719  1
