# generated using pymatgen
data_LiNd8HgRu2
_symmetry_space_group_name_H-M   'P 1'
_cell_length_a   9.93543374
_cell_length_b   9.93543387
_cell_length_c   9.95743900
_cell_angle_alpha   59.92670416
_cell_angle_beta   59.92670373
_cell_angle_gamma   60.08611116
_symmetry_Int_Tables_number   1
_chemical_formula_structural   LiNd8HgRu2
_chemical_formula_sum   'Li2 Nd16 Hg2 Ru4'
_cell_volume   694.71311962
_cell_formula_units_Z   2
loop_
 _symmetry_equiv_pos_site_id
 _symmetry_equiv_pos_as_xyz
  1  'x, y, z'
loop_
 _atom_site_type_symbol
 _atom_site_label
 _atom_site_symmetry_multiplicity
 _atom_site_fract_x
 _atom_site_fract_y
 _atom_site_fract_z
 _atom_site_occupancy
  Li  Li0  1  0.566363  0.566363  0.575872  1
  Li  Li1  1  0.566363  0.566363  0.291400  1
  Nd  Nd2  1  0.345950  0.345950  0.347936  1
  Nd  Nd3  1  0.345950  0.345950  0.960165  1
  Nd  Nd4  1  0.345324  0.966642  0.344017  1
  Nd  Nd5  1  0.966642  0.345324  0.344017  1
  Nd  Nd6  1  0.812894  0.189778  0.188131  1
  Nd  Nd7  1  0.189778  0.812894  0.809197  1
  Nd  Nd8  1  0.189778  0.812894  0.188131  1
  Nd  Nd9  1  0.812894  0.189778  0.809197  1
  Nd  Nd10  1  0.193086  0.193086  0.806914  1
  Nd  Nd11  1  0.815213  0.815213  0.184787  1
  Nd  Nd12  1  0.939125  0.562982  0.561985  1
  Nd  Nd13  1  0.562982  0.939125  0.935908  1
  Nd  Nd14  1  0.562982  0.939125  0.561985  1
  Nd  Nd15  1  0.939125  0.562982  0.935908  1
  Nd  Nd16  1  0.560399  0.560399  0.939601  1
  Nd  Nd17  1  0.939261  0.939261  0.560739  1
  Hg  Hg18  1  0.587399  0.250958  0.580821  1
  Hg  Hg19  1  0.250958  0.587399  0.580821  1
  Ru  Ru20  1  0.140012  0.140012  0.136812  1
  Ru  Ru21  1  0.140012  0.140012  0.583163  1
  Ru  Ru22  1  0.140596  0.586910  0.136246  1
  Ru  Ru23  1  0.586910  0.140596  0.136246  1
