# generated using pymatgen
data_DyGe3AsRh6
_symmetry_space_group_name_H-M   'P 1'
_cell_length_a   7.20700100
_cell_length_b   7.26152540
_cell_length_c   3.83406900
_cell_angle_alpha   90.00000000
_cell_angle_beta   90.00000000
_cell_angle_gamma   119.75191992
_symmetry_Int_Tables_number   1
_chemical_formula_structural   DyGe3AsRh6
_chemical_formula_sum   'Dy1 Ge3 As1 Rh6'
_cell_volume   174.20204070
_cell_formula_units_Z   1
loop_
 _symmetry_equiv_pos_site_id
 _symmetry_equiv_pos_as_xyz
  1  'x, y, z'
loop_
 _atom_site_type_symbol
 _atom_site_label
 _atom_site_symmetry_multiplicity
 _atom_site_fract_x
 _atom_site_fract_y
 _atom_site_fract_z
 _atom_site_occupancy
  Dy  Dy0  1  0.001652  0.003304  0.000000  1
  Ge  Ge1  1  0.803683  0.192405  0.500000  1
  Ge  Ge2  1  0.388722  0.192405  0.500000  1
  Ge  Ge3  1  0.334094  0.668187  0.000000  1
  As  As4  1  0.806420  0.612838  0.500000  1
  Rh  Rh5  1  0.197005  0.800660  0.500000  1
  Rh  Rh6  1  0.198577  0.397153  0.500000  1
  Rh  Rh7  1  0.534237  0.068475  0.000000  1
  Rh  Rh8  1  0.931487  0.465289  0.000000  1
  Rh  Rh9  1  0.533802  0.465289  0.000000  1
  Rh  Rh10  1  0.603655  0.800660  0.500000  1
