# generated using pymatgen
data_Pr(SmSi2)5
_symmetry_space_group_name_H-M   'P 1'
_cell_length_a   6.78488870
_cell_length_b   6.78488858
_cell_length_c   8.43287000
_cell_angle_alpha   90.04051727
_cell_angle_beta   89.95949117
_cell_angle_gamma   120.12660255
_symmetry_Int_Tables_number   1
_chemical_formula_structural   Pr(SmSi2)5
_chemical_formula_sum   'Pr1 Sm5 Si10'
_cell_volume   335.76535500
_cell_formula_units_Z   1
loop_
 _symmetry_equiv_pos_site_id
 _symmetry_equiv_pos_as_xyz
  1  'x, y, z'
loop_
 _atom_site_type_symbol
 _atom_site_label
 _atom_site_symmetry_multiplicity
 _atom_site_fract_x
 _atom_site_fract_y
 _atom_site_fract_z
 _atom_site_occupancy
  Pr  Pr0  1  0.667708  0.667708  0.500000  1
  Sm  Sm1  1  0.331588  0.999904  0.000111  1
  Sm  Sm2  1  0.331424  0.000154  0.499883  1
  Sm  Sm3  1  0.000154  0.331424  0.500117  1
  Sm  Sm4  1  0.999904  0.331588  0.999889  1
  Sm  Sm5  1  0.668834  0.668834  0.000000  1
  Si  Si6  1  0.367678  0.329671  0.247833  1
  Si  Si7  1  0.669700  0.039176  0.248706  1
  Si  Si8  1  0.962891  0.631127  0.247414  1
  Si  Si9  1  0.631127  0.962891  0.752586  1
  Si  Si10  1  0.000743  0.000285  0.248150  1
  Si  Si11  1  0.666486  0.332630  0.751658  1
  Si  Si12  1  0.039176  0.669700  0.751294  1
  Si  Si13  1  0.329671  0.367678  0.752167  1
  Si  Si14  1  0.332630  0.666486  0.248342  1
  Si  Si15  1  0.000285  0.000743  0.751850  1
