# generated using pymatgen
data_Sc22PdRu7
_symmetry_space_group_name_H-M   'P 1'
_cell_length_a   9.51549189
_cell_length_b   9.48974514
_cell_length_c   9.51549108
_cell_angle_alpha   60.08946031
_cell_angle_beta   59.71785889
_cell_angle_gamma   60.08945835
_symmetry_Int_Tables_number   1
_chemical_formula_structural   Sc22PdRu7
_chemical_formula_sum   'Sc22 Pd1 Ru7'
_cell_volume   607.08686972
_cell_formula_units_Z   1
loop_
 _symmetry_equiv_pos_site_id
 _symmetry_equiv_pos_as_xyz
  1  'x, y, z'
loop_
 _atom_site_type_symbol
 _atom_site_label
 _atom_site_symmetry_multiplicity
 _atom_site_fract_x
 _atom_site_fract_y
 _atom_site_fract_z
 _atom_site_occupancy
  Sc  Sc0  1  0.802196  0.804695  0.197804  1
  Sc  Sc1  1  0.196919  0.803081  0.196919  1
  Sc  Sc2  1  0.802196  0.195305  0.197804  1
  Sc  Sc3  1  0.197804  0.195305  0.802196  1
  Sc  Sc4  1  0.803081  0.196919  0.803081  1
  Sc  Sc5  1  0.197804  0.804695  0.802196  1
  Sc  Sc6  1  0.609806  0.619077  0.152041  1
  Sc  Sc7  1  0.615626  0.151019  0.615626  1
  Sc  Sc8  1  0.152041  0.619077  0.609806  1
  Sc  Sc9  1  0.615626  0.617730  0.615626  1
  Sc  Sc10  1  0.390194  0.380923  0.847959  1
  Sc  Sc11  1  0.384374  0.848981  0.384374  1
  Sc  Sc12  1  0.847959  0.380923  0.390194  1
  Sc  Sc13  1  0.384374  0.382270  0.384374  1
  Sc  Sc14  1  0.842858  0.842910  0.471320  1
  Sc  Sc15  1  0.839257  0.471664  0.839257  1
  Sc  Sc16  1  0.471320  0.842910  0.842858  1
  Sc  Sc17  1  0.839257  0.849822  0.839257  1
  Sc  Sc18  1  0.157142  0.157090  0.528680  1
  Sc  Sc19  1  0.160743  0.528336  0.160743  1
  Sc  Sc20  1  0.528680  0.157090  0.157142  1
  Sc  Sc21  1  0.160743  0.150178  0.160743  1
  Pd  Pd22  1  0.000000  0.500000  0.000000  1
  Ru  Ru23  1  0.000000  0.000000  0.000000  1
  Ru  Ru24  1  0.500000  0.500000  0.500000  1
  Ru  Ru25  1  0.000000  0.000000  0.500000  1
  Ru  Ru26  1  0.500000  0.000000  0.500000  1
  Ru  Ru27  1  0.000000  0.500000  0.500000  1
  Ru  Ru28  1  0.500000  0.500000  0.000000  1
  Ru  Ru29  1  0.500000  0.000000  0.000000  1
