# generated using pymatgen
data_Ti4Ge(PO4)6
_symmetry_space_group_name_H-M   'P 1'
_cell_length_a   8.61748190
_cell_length_b   8.61748062
_cell_length_c   8.83133423
_cell_angle_alpha   119.20214398
_cell_angle_beta   60.79784722
_cell_angle_gamma   120.00000688
_symmetry_Int_Tables_number   1
_chemical_formula_structural   Ti4Ge(PO4)6
_chemical_formula_sum   'Ti4 Ge1 P6 O24'
_cell_volume   469.25125127
_cell_formula_units_Z   1
loop_
 _symmetry_equiv_pos_site_id
 _symmetry_equiv_pos_as_xyz
  1  'x, y, z'
loop_
 _atom_site_type_symbol
 _atom_site_label
 _atom_site_symmetry_multiplicity
 _atom_site_fract_x
 _atom_site_fract_y
 _atom_site_fract_z
 _atom_site_occupancy
  Ti  Ti0  1  0.638253  0.361747  0.085242  1
  Ti  Ti1  1  0.851525  0.148475  0.445425  1
  Ti  Ti2  1  0.148475  0.851526  0.554575  1
  Ti  Ti3  1  0.361747  0.638253  0.914758  1
  Ge  Ge4  1  0.000000  0.000000  0.000000  1
  P  P5  1  0.540861  0.752251  0.241796  1
  P  P6  1  0.969594  0.459138  0.241796  1
  P  P7  1  0.247748  0.030406  0.241796  1
  P  P8  1  0.752251  0.969593  0.758204  1
  P  P9  1  0.030406  0.540862  0.758204  1
  P  P10  1  0.459137  0.247748  0.758204  1
  O  O11  1  0.272284  0.856460  0.073832  1
  O  O12  1  0.510345  0.727716  0.073832  1
  O  O13  1  0.143539  0.489655  0.073832  1
  O  O14  1  0.731548  0.918380  0.254714  1
  O  O15  1  0.932120  0.268453  0.254714  1
  O  O16  1  0.081620  0.067880  0.254714  1
  O  O17  1  0.549537  0.573363  0.231092  1
  O  O18  1  0.792734  0.450462  0.231092  1
  O  O19  1  0.426636  0.207266  0.231092  1
  O  O20  1  0.196644  0.993988  0.419265  1
  O  O21  1  0.378078  0.803356  0.419265  1
  O  O22  1  0.006012  0.621922  0.419265  1
  O  O23  1  0.993989  0.378078  0.580734  1
  O  O24  1  0.621922  0.196643  0.580734  1
  O  O25  1  0.803357  0.006012  0.580734  1
  O  O26  1  0.573363  0.792734  0.768909  1
  O  O27  1  0.207265  0.549537  0.768909  1
  O  O28  1  0.450462  0.426636  0.768909  1
  O  O29  1  0.918380  0.932119  0.745287  1
  O  O30  1  0.067881  0.731548  0.745287  1
  O  O31  1  0.268453  0.081620  0.745287  1
  O  O32  1  0.856460  0.510345  0.926169  1
  O  O33  1  0.489656  0.272285  0.926169  1
  O  O34  1  0.727716  0.143539  0.926169  1
