# generated using pymatgen
data_NaLa2SmB24
_symmetry_space_group_name_H-M   'P 1'
_cell_length_a   7.16992463
_cell_length_b   7.16992509
_cell_length_c   5.88284500
_cell_angle_alpha   90.00000000
_cell_angle_beta   90.00000000
_cell_angle_gamma   109.30263708
_symmetry_Int_Tables_number   1
_chemical_formula_structural   NaLa2SmB24
_chemical_formula_sum   'Na1 La2 Sm1 B24'
_cell_volume   285.42369543
_cell_formula_units_Z   1
loop_
 _symmetry_equiv_pos_site_id
 _symmetry_equiv_pos_as_xyz
  1  'x, y, z'
loop_
 _atom_site_type_symbol
 _atom_site_label
 _atom_site_symmetry_multiplicity
 _atom_site_fract_x
 _atom_site_fract_y
 _atom_site_fract_z
 _atom_site_occupancy
  Na  Na0  1  0.000000  0.000000  0.000000  1
  La  La1  1  0.751373  0.248627  0.500000  1
  La  La2  1  0.248627  0.751373  0.500000  1
  Sm  Sm3  1  0.500000  0.500000  0.000000  1
  B  B4  1  0.175608  0.325131  0.649890  1
  B  B5  1  0.924683  0.575249  0.148828  1
  B  B6  1  0.674869  0.824392  0.649890  1
  B  B7  1  0.424751  0.075317  0.148828  1
  B  B8  1  0.175608  0.325131  0.350110  1
  B  B9  1  0.924683  0.575249  0.851172  1
  B  B10  1  0.674869  0.824392  0.350110  1
  B  B11  1  0.424751  0.075317  0.851172  1
  B  B12  1  0.400042  0.400042  0.500000  1
  B  B13  1  0.148681  0.650753  0.000000  1
  B  B14  1  0.899209  0.899209  0.500000  1
  B  B15  1  0.650753  0.148681  0.000000  1
  B  B16  1  0.325131  0.175608  0.649890  1
  B  B17  1  0.075317  0.424751  0.148828  1
  B  B18  1  0.824392  0.674869  0.649890  1
  B  B19  1  0.575249  0.924683  0.148828  1
  B  B20  1  0.100791  0.100791  0.500000  1
  B  B21  1  0.851319  0.349247  0.000000  1
  B  B22  1  0.599958  0.599958  0.500000  1
  B  B23  1  0.349247  0.851319  0.000000  1
  B  B24  1  0.325131  0.175608  0.350110  1
  B  B25  1  0.075317  0.424751  0.851172  1
  B  B26  1  0.824392  0.674869  0.350110  1
  B  B27  1  0.575249  0.924683  0.851172  1
