# generated using pymatgen
data_CsKP2Pd
_symmetry_space_group_name_H-M   'P 1'
_cell_length_a   7.59485896
_cell_length_b   7.59485927
_cell_length_c   6.23218600
_cell_angle_alpha   90.00000000
_cell_angle_beta   90.00000000
_cell_angle_gamma   125.49713033
_symmetry_Int_Tables_number   1
_chemical_formula_structural   CsKP2Pd
_chemical_formula_sum   'Cs2 K2 P4 Pd2'
_cell_volume   292.67215040
_cell_formula_units_Z   2
loop_
 _symmetry_equiv_pos_site_id
 _symmetry_equiv_pos_as_xyz
  1  'x, y, z'
loop_
 _atom_site_type_symbol
 _atom_site_label
 _atom_site_symmetry_multiplicity
 _atom_site_fract_x
 _atom_site_fract_y
 _atom_site_fract_z
 _atom_site_occupancy
  Cs  Cs0  1  0.403719  0.596281  0.250000  1
  Cs  Cs1  1  0.596281  0.403719  0.750000  1
  K  K2  1  0.787485  0.212515  0.250000  1
  K  K3  1  0.212515  0.787485  0.750000  1
  P  P4  1  0.955546  0.730976  0.250000  1
  P  P5  1  0.044454  0.269024  0.750000  1
  P  P6  1  0.269024  0.044454  0.250000  1
  P  P7  1  0.730976  0.955546  0.750000  1
  Pd  Pd8  1  0.000000  0.000000  0.000000  1
  Pd  Pd9  1  0.000000  0.000000  0.500000  1
