# generated using pymatgen
data_Tb20Cd6RuRh
_symmetry_space_group_name_H-M   'P 1'
_cell_length_a   9.67564800
_cell_length_b   9.67564716
_cell_length_c   9.88714800
_cell_angle_alpha   90.00000000
_cell_angle_beta   90.00000000
_cell_angle_gamma   120.00000286
_symmetry_Int_Tables_number   1
_chemical_formula_structural   Tb20Cd6RuRh
_chemical_formula_sum   'Tb20 Cd6 Ru1 Rh1'
_cell_volume   801.60743643
_cell_formula_units_Z   1
loop_
 _symmetry_equiv_pos_site_id
 _symmetry_equiv_pos_as_xyz
  1  'x, y, z'
loop_
 _atom_site_type_symbol
 _atom_site_label
 _atom_site_symmetry_multiplicity
 _atom_site_fract_x
 _atom_site_fract_y
 _atom_site_fract_z
 _atom_site_occupancy
  Tb  Tb0  1  0.000000  0.000000  0.499765  1
  Tb  Tb1  1  0.000000  0.000000  0.000235  1
  Tb  Tb2  1  0.209349  0.790651  0.440530  1
  Tb  Tb3  1  0.209349  0.418697  0.440530  1
  Tb  Tb4  1  0.581303  0.790651  0.440530  1
  Tb  Tb5  1  0.790275  0.209725  0.560159  1
  Tb  Tb6  1  0.790275  0.580548  0.560159  1
  Tb  Tb7  1  0.419452  0.209725  0.560159  1
  Tb  Tb8  1  0.790275  0.209725  0.939841  1
  Tb  Tb9  1  0.790275  0.580548  0.939841  1
  Tb  Tb10  1  0.419452  0.209725  0.939841  1
  Tb  Tb11  1  0.209349  0.790651  0.059470  1
  Tb  Tb12  1  0.209349  0.418697  0.059470  1
  Tb  Tb13  1  0.581303  0.790651  0.059470  1
  Tb  Tb14  1  0.542105  0.457895  0.250000  1
  Tb  Tb15  1  0.542105  0.084211  0.250000  1
  Tb  Tb16  1  0.915789  0.457895  0.250000  1
  Tb  Tb17  1  0.458669  0.541331  0.750000  1
  Tb  Tb18  1  0.458669  0.917338  0.750000  1
  Tb  Tb19  1  0.082662  0.541331  0.750000  1
  Cd  Cd20  1  0.885263  0.114737  0.250000  1
  Cd  Cd21  1  0.885263  0.770527  0.250000  1
  Cd  Cd22  1  0.229473  0.114737  0.250000  1
  Cd  Cd23  1  0.114762  0.885238  0.750000  1
  Cd  Cd24  1  0.114762  0.229522  0.750000  1
  Cd  Cd25  1  0.770478  0.885238  0.750000  1
  Ru  Ru26  1  0.666667  0.333333  0.750000  1
  Rh  Rh27  1  0.333333  0.666667  0.250000  1
