# generated using pymatgen
data_Tb5S6
_symmetry_space_group_name_H-M   'P 1'
_cell_length_a   7.83509755
_cell_length_b   5.55144275
_cell_length_c   6.79858894
_cell_angle_alpha   114.07323822
_cell_angle_beta   106.71293227
_cell_angle_gamma   90.12351875
_symmetry_Int_Tables_number   1
_chemical_formula_structural   Tb5S6
_chemical_formula_sum   'Tb5 S6'
_cell_volume   256.16305026
_cell_formula_units_Z   1
loop_
 _symmetry_equiv_pos_site_id
 _symmetry_equiv_pos_as_xyz
  1  'x, y, z'
loop_
 _atom_site_type_symbol
 _atom_site_label
 _atom_site_symmetry_multiplicity
 _atom_site_fract_x
 _atom_site_fract_y
 _atom_site_fract_z
 _atom_site_occupancy
  Tb  Tb0  1  0.030435  0.998098  0.907540  1
  Tb  Tb1  1  0.520740  0.992000  0.898289  1
  Tb  Tb2  1  0.195935  0.323067  0.558140  1
  Tb  Tb3  1  0.858889  0.657841  0.227939  1
  Tb  Tb4  1  0.684753  0.318387  0.546439  1
  S  S5  1  0.357112  0.160654  0.226724  1
  S  S6  1  0.694747  0.828547  0.567609  1
  S  S7  1  0.528002  0.487942  0.889441  1
  S  S8  1  0.189399  0.827075  0.566312  1
  S  S9  1  0.020642  0.488201  0.887095  1
  S  S10  1  0.858491  0.157807  0.228000  1
