# generated using pymatgen
data_ErHf(Co5P3)2
_symmetry_space_group_name_H-M   'P 1'
_cell_length_a   3.61083000
_cell_length_b   10.18675400
_cell_length_c   11.64442100
_cell_angle_alpha   90.00000000
_cell_angle_beta   90.00000000
_cell_angle_gamma   90.00000000
_symmetry_Int_Tables_number   1
_chemical_formula_structural   ErHf(Co5P3)2
_chemical_formula_sum   'Er2 Hf2 Co20 P12'
_cell_volume   428.31251009
_cell_formula_units_Z   2
loop_
 _symmetry_equiv_pos_site_id
 _symmetry_equiv_pos_as_xyz
  1  'x, y, z'
loop_
 _atom_site_type_symbol
 _atom_site_label
 _atom_site_symmetry_multiplicity
 _atom_site_fract_x
 _atom_site_fract_y
 _atom_site_fract_z
 _atom_site_occupancy
  Er  Er0  1  0.750000  0.417343  0.296863  1
  Er  Er1  1  0.750000  0.082657  0.796863  1
  Hf  Hf2  1  0.250000  0.581614  0.701561  1
  Hf  Hf3  1  0.250000  0.918386  0.201561  1
  Co  Co4  1  0.250000  0.719030  0.993302  1
  Co  Co5  1  0.250000  0.780970  0.493302  1
  Co  Co6  1  0.750000  0.281745  0.008277  1
  Co  Co7  1  0.750000  0.218255  0.508277  1
  Co  Co8  1  0.250000  0.409985  0.490038  1
  Co  Co9  1  0.250000  0.090015  0.990038  1
  Co  Co10  1  0.750000  0.593250  0.516573  1
  Co  Co11  1  0.750000  0.906750  0.016573  1
  Co  Co12  1  0.250000  0.221102  0.177798  1
  Co  Co13  1  0.250000  0.278898  0.677798  1
  Co  Co14  1  0.750000  0.776039  0.822514  1
  Co  Co15  1  0.750000  0.723961  0.322514  1
  Co  Co16  1  0.250000  0.880562  0.698886  1
  Co  Co17  1  0.250000  0.619438  0.198886  1
  Co  Co18  1  0.750000  0.112888  0.298947  1
  Co  Co19  1  0.750000  0.387112  0.798947  1
  Co  Co20  1  0.250000  0.470038  0.928522  1
  Co  Co21  1  0.250000  0.029962  0.428522  1
  Co  Co22  1  0.750000  0.534846  0.067276  1
  Co  Co23  1  0.750000  0.965154  0.567276  1
  P  P24  1  0.250000  0.418762  0.111174  1
  P  P25  1  0.250000  0.081238  0.611174  1
  P  P26  1  0.750000  0.581885  0.884368  1
  P  P27  1  0.750000  0.918115  0.384368  1
  P  P28  1  0.250000  0.269483  0.871591  1
  P  P29  1  0.250000  0.230517  0.371591  1
  P  P30  1  0.750000  0.733238  0.131382  1
  P  P31  1  0.750000  0.766762  0.631382  1
  P  P32  1  0.250000  0.601194  0.390473  1
  P  P33  1  0.250000  0.898806  0.890473  1
  P  P34  1  0.750000  0.401024  0.610456  1
  P  P35  1  0.750000  0.098976  0.110456  1
