# generated using pymatgen
data_Pr19PaRh16
_symmetry_space_group_name_H-M   'P 1'
_cell_length_a   7.63944390
_cell_length_b   7.75084458
_cell_length_c   15.07362333
_cell_angle_alpha   90.20930838
_cell_angle_beta   90.17180093
_cell_angle_gamma   90.02511660
_symmetry_Int_Tables_number   1
_chemical_formula_structural   Pr19PaRh16
_chemical_formula_sum   'Pr19 Pa1 Rh16'
_cell_volume   892.53147309
_cell_formula_units_Z   1
loop_
 _symmetry_equiv_pos_site_id
 _symmetry_equiv_pos_as_xyz
  1  'x, y, z'
loop_
 _atom_site_type_symbol
 _atom_site_label
 _atom_site_symmetry_multiplicity
 _atom_site_fract_x
 _atom_site_fract_y
 _atom_site_fract_z
 _atom_site_occupancy
  Pr  Pr0  1  0.164476  0.335288  0.877618  1
  Pr  Pr1  1  0.337582  0.833740  0.122508  1
  Pr  Pr2  1  0.837959  0.667204  0.379788  1
  Pr  Pr3  1  0.336400  0.835982  0.379750  1
  Pr  Pr4  1  0.835996  0.667128  0.122536  1
  Pr  Pr5  1  0.663652  0.163622  0.877495  1
  Pr  Pr6  1  0.160701  0.335646  0.619506  1
  Pr  Pr7  1  0.510848  0.680542  0.594499  1
  Pr  Pr8  1  0.016855  0.814099  0.909379  1
  Pr  Pr9  1  0.486296  0.318030  0.092901  1
  Pr  Pr10  1  0.988692  0.184168  0.404930  1
  Pr  Pr11  1  0.487560  0.322497  0.407308  1
  Pr  Pr12  1  0.986850  0.181431  0.093151  1
  Pr  Pr13  1  0.513349  0.683081  0.907319  1
  Pr  Pr14  1  0.012358  0.819966  0.593584  1
  Pr  Pr15  1  0.826301  0.512788  0.751121  1
  Pr  Pr16  1  0.316735  0.988861  0.751017  1
  Pr  Pr17  1  0.175840  0.490512  0.250052  1
  Pr  Pr18  1  0.675610  0.012043  0.250112  1
  Pa  Pa19  1  0.662332  0.161138  0.622562  1
  Rh  Rh20  1  0.691763  0.979783  0.475549  1
  Rh  Rh21  1  0.177532  0.532337  0.040644  1
  Rh  Rh22  1  0.321436  0.031898  0.958232  1
  Rh  Rh23  1  0.801795  0.439862  0.542513  1
  Rh  Rh24  1  0.348269  0.040003  0.548751  1
  Rh  Rh25  1  0.823121  0.471293  0.956733  1
  Rh  Rh26  1  0.676696  0.969313  0.041744  1
  Rh  Rh27  1  0.168534  0.532704  0.457469  1
  Rh  Rh28  1  0.471057  0.374366  0.738269  1
  Rh  Rh29  1  0.939562  0.115219  0.736889  1
  Rh  Rh30  1  0.542103  0.605007  0.252920  1
  Rh  Rh31  1  0.041122  0.899905  0.251663  1
  Rh  Rh32  1  0.687511  0.865973  0.740969  1
  Rh  Rh33  1  0.210922  0.633830  0.749189  1
  Rh  Rh34  1  0.302651  0.143735  0.250753  1
  Rh  Rh35  1  0.799537  0.357007  0.250579  1
