# generated using pymatgen
data_LuTh3(Ga3Rh)6
_symmetry_space_group_name_H-M   'P 1'
_cell_length_a   7.67191463
_cell_length_b   7.67690424
_cell_length_c   9.52354800
_cell_angle_alpha   90.00000000
_cell_angle_beta   90.00000000
_cell_angle_gamma   119.75841331
_symmetry_Int_Tables_number   1
_chemical_formula_structural   LuTh3(Ga3Rh)6
_chemical_formula_sum   'Lu1 Th3 Ga18 Rh6'
_cell_volume   486.93545000
_cell_formula_units_Z   1
loop_
 _symmetry_equiv_pos_site_id
 _symmetry_equiv_pos_as_xyz
  1  'x, y, z'
loop_
 _atom_site_type_symbol
 _atom_site_label
 _atom_site_symmetry_multiplicity
 _atom_site_fract_x
 _atom_site_fract_y
 _atom_site_fract_z
 _atom_site_occupancy
  Lu  Lu0  1  0.330328  0.003585  0.750000  1
  Th  Th1  1  0.996710  0.668829  0.250000  1
  Th  Th2  1  0.002310  0.331380  0.750000  1
  Th  Th3  1  0.668013  0.996250  0.250000  1
  Ga  Ga4  1  0.132452  0.130447  0.250000  1
  Ga  Ga5  1  0.873485  0.871888  0.750000  1
  Ga  Ga6  1  0.004924  0.334462  0.077632  1
  Ga  Ga7  1  0.003096  0.672488  0.918195  1
  Ga  Ga8  1  0.003096  0.672488  0.581805  1
  Ga  Ga9  1  0.334146  0.003638  0.428552  1
  Ga  Ga10  1  0.004924  0.334462  0.422368  1
  Ga  Ga11  1  0.659006  0.996206  0.581763  1
  Ga  Ga12  1  0.659006  0.996206  0.918237  1
  Ga  Ga13  1  0.334146  0.003638  0.071448  1
  Ga  Ga14  1  0.336285  0.330343  0.565967  1
  Ga  Ga15  1  0.663076  0.663299  0.441305  1
  Ga  Ga16  1  0.663076  0.663299  0.058695  1
  Ga  Ga17  1  0.336285  0.330343  0.934033  1
  Ga  Ga18  1  0.338982  0.542549  0.250000  1
  Ga  Ga19  1  0.658634  0.451839  0.750000  1
  Ga  Ga20  1  0.541551  0.336925  0.250000  1
  Ga  Ga21  1  0.455666  0.663520  0.750000  1
  Rh  Rh22  1  0.674391  0.330022  0.000210  1
  Rh  Rh23  1  0.327892  0.670741  0.999910  1
  Rh  Rh24  1  0.327892  0.670741  0.500090  1
  Rh  Rh25  1  0.674391  0.330022  0.499790  1
  Rh  Rh26  1  0.998119  0.000195  0.000218  1
  Rh  Rh27  1  0.998119  0.000195  0.499782  1
