# generated using pymatgen
data_ScTa(VP)2
_symmetry_space_group_name_H-M   'P 1'
_cell_length_a   3.42978700
_cell_length_b   6.54870143
_cell_length_c   7.76924319
_cell_angle_alpha   89.07538394
_cell_angle_beta   90.00000000
_cell_angle_gamma   90.00000000
_symmetry_Int_Tables_number   1
_chemical_formula_structural   ScTa(VP)2
_chemical_formula_sum   'Sc2 Ta2 V4 P4'
_cell_volume   174.47953843
_cell_formula_units_Z   2
loop_
 _symmetry_equiv_pos_site_id
 _symmetry_equiv_pos_as_xyz
  1  'x, y, z'
loop_
 _atom_site_type_symbol
 _atom_site_label
 _atom_site_symmetry_multiplicity
 _atom_site_fract_x
 _atom_site_fract_y
 _atom_site_fract_z
 _atom_site_occupancy
  Sc  Sc0  1  0.250000  0.537841  0.168977  1
  Sc  Sc1  1  0.750000  0.462159  0.831023  1
  Ta  Ta2  1  0.750000  0.962775  0.665290  1
  Ta  Ta3  1  0.250000  0.037225  0.334710  1
  V  V4  1  0.250000  0.638663  0.558563  1
  V  V5  1  0.750000  0.361337  0.441437  1
  V  V6  1  0.750000  0.873770  0.057639  1
  V  V7  1  0.250000  0.126230  0.942361  1
  P  P8  1  0.250000  0.763435  0.859087  1
  P  P9  1  0.750000  0.236565  0.140913  1
  P  P10  1  0.750000  0.740068  0.360406  1
  P  P11  1  0.250000  0.259932  0.639594  1
