# generated using pymatgen
data_Y3Tm2(InSb)2
_symmetry_space_group_name_H-M   'P 1'
_cell_length_a   8.72837600
_cell_length_b   8.78962368
_cell_length_c   8.05909200
_cell_angle_alpha   90.10537927
_cell_angle_beta   90.12862779
_cell_angle_gamma   125.14362692
_symmetry_Int_Tables_number   1
_chemical_formula_structural   Y3Tm2(InSb)2
_chemical_formula_sum   'Y6 Tm4 In4 Sb4'
_cell_volume   505.57518429
_cell_formula_units_Z   2
loop_
 _symmetry_equiv_pos_site_id
 _symmetry_equiv_pos_as_xyz
  1  'x, y, z'
loop_
 _atom_site_type_symbol
 _atom_site_label
 _atom_site_symmetry_multiplicity
 _atom_site_fract_x
 _atom_site_fract_y
 _atom_site_fract_z
 _atom_site_occupancy
  Y  Y0  1  0.469711  0.193925  0.833710  1
  Y  Y1  1  0.811609  0.533910  0.167755  1
  Y  Y2  1  0.530289  0.806075  0.166290  1
  Y  Y3  1  0.188391  0.466090  0.832245  1
  Y  Y4  1  0.689908  0.965982  0.666483  1
  Y  Y5  1  0.310092  0.034018  0.333517  1
  Tm  Tm6  1  0.031856  0.301501  0.334900  1
  Tm  Tm7  1  0.968144  0.698499  0.665100  1
  Tm  Tm8  1  0.000000  0.000000  0.000000  1
  Tm  Tm9  1  0.500000  0.500000  0.500000  1
  In  In10  1  0.370261  0.370654  0.129467  1
  In  In11  1  0.629739  0.629346  0.870533  1
  In  In12  1  0.130009  0.130201  0.629170  1
  In  In13  1  0.869991  0.869799  0.370830  1
  Sb  Sb14  1  0.797363  0.201063  0.004517  1
  Sb  Sb15  1  0.202637  0.798937  0.995483  1
  Sb  Sb16  1  0.709611  0.301810  0.502714  1
  Sb  Sb17  1  0.290389  0.698190  0.497286  1
