# generated using pymatgen
data_Ho7(ErIn4)5
_symmetry_space_group_name_H-M   'P 1'
_cell_length_a   6.47968087
_cell_length_b   10.39394607
_cell_length_c   12.24047869
_cell_angle_alpha   90.04918854
_cell_angle_beta   89.97420615
_cell_angle_gamma   90.00218298
_symmetry_Int_Tables_number   1
_chemical_formula_structural   Ho7(ErIn4)5
_chemical_formula_sum   'Ho7 Er5 In20'
_cell_volume   824.38916305
_cell_formula_units_Z   1
loop_
 _symmetry_equiv_pos_site_id
 _symmetry_equiv_pos_as_xyz
  1  'x, y, z'
loop_
 _atom_site_type_symbol
 _atom_site_label
 _atom_site_symmetry_multiplicity
 _atom_site_fract_x
 _atom_site_fract_y
 _atom_site_fract_z
 _atom_site_occupancy
  Ho  Ho0  1  0.609281  0.006303  0.642041  1
  Ho  Ho1  1  0.109264  0.993510  0.858064  1
  Ho  Ho2  1  0.390832  0.506448  0.357981  1
  Ho  Ho3  1  0.109139  0.506429  0.858450  1
  Ho  Ho4  1  0.390823  0.993595  0.357853  1
  Ho  Ho5  1  0.890628  0.006517  0.142089  1
  Ho  Ho6  1  0.609304  0.493604  0.641949  1
  Er  Er7  1  0.349082  0.750167  0.055972  1
  Er  Er8  1  0.150305  0.749990  0.555879  1
  Er  Er9  1  0.650416  0.250181  0.944158  1
  Er  Er10  1  0.849525  0.249816  0.444071  1
  Er  Er11  1  0.891107  0.493548  0.141585  1
  In  In12  1  0.615575  0.749876  0.504927  1
  In  In13  1  0.883896  0.749548  0.005699  1
  In  In14  1  0.384439  0.250042  0.494906  1
  In  In15  1  0.115211  0.250034  0.995041  1
  In  In16  1  0.650532  0.749444  0.245232  1
  In  In17  1  0.850003  0.749919  0.745690  1
  In  In18  1  0.350098  0.250078  0.754490  1
  In  In19  1  0.150150  0.250383  0.254343  1
  In  In20  1  0.126778  0.749908  0.284737  1
  In  In21  1  0.373270  0.749894  0.784684  1
  In  In22  1  0.873261  0.250081  0.715260  1
  In  In23  1  0.627441  0.250639  0.215169  1
  In  In24  1  0.875798  0.543451  0.400585  1
  In  In25  1  0.624700  0.956186  0.901209  1
  In  In26  1  0.124472  0.043759  0.598859  1
  In  In27  1  0.375235  0.456460  0.099026  1
  In  In28  1  0.124252  0.456325  0.598888  1
  In  In29  1  0.375594  0.043909  0.098890  1
  In  In30  1  0.875466  0.956205  0.401079  1
  In  In31  1  0.624126  0.543747  0.901192  1
