# generated using pymatgen
data_LuSc4Re17Tc7
_symmetry_space_group_name_H-M   'P 1'
_cell_length_a   8.47792863
_cell_length_b   8.47792810
_cell_length_c   8.46796900
_cell_angle_alpha   109.47775791
_cell_angle_beta   109.47764195
_cell_angle_gamma   109.58153947
_symmetry_Int_Tables_number   1
_chemical_formula_structural   LuSc4Re17Tc7
_chemical_formula_sum   'Lu1 Sc4 Re17 Tc7'
_cell_volume   467.81484017
_cell_formula_units_Z   1
loop_
 _symmetry_equiv_pos_site_id
 _symmetry_equiv_pos_as_xyz
  1  'x, y, z'
loop_
 _atom_site_type_symbol
 _atom_site_label
 _atom_site_symmetry_multiplicity
 _atom_site_fract_x
 _atom_site_fract_y
 _atom_site_fract_z
 _atom_site_occupancy
  Lu  Lu0  1  0.999200  0.999207  0.999588  1
  Sc  Sc1  1  0.627594  0.999315  0.999428  1
  Sc  Sc2  1  0.999403  0.627657  0.999525  1
  Sc  Sc3  1  0.001683  0.001672  0.630195  1
  Sc  Sc4  1  0.370102  0.370130  0.370781  1
  Re  Re5  1  0.000445  0.675799  0.397416  1
  Re  Re6  1  0.675795  0.000435  0.397444  1
  Re  Re7  1  0.602649  0.602681  0.278025  1
  Re  Re8  1  0.277950  0.603343  0.602762  1
  Re  Re9  1  0.603316  0.277934  0.602725  1
  Re  Re10  1  0.379065  0.194203  0.001212  1
  Re  Re11  1  0.184012  0.807956  0.806738  1
  Re  Re12  1  0.377264  0.000706  0.192931  1
  Re  Re13  1  0.194198  0.379060  0.001223  1
  Re  Re14  1  0.000729  0.377273  0.192935  1
  Re  Re15  1  0.807969  0.184019  0.806736  1
  Re  Re16  1  0.807997  0.808034  0.185723  1
  Re  Re17  1  0.000237  0.192834  0.379150  1
  Re  Re18  1  0.192833  0.000248  0.379131  1
  Re  Re19  1  0.620391  0.620391  0.812512  1
  Re  Re20  1  0.812774  0.620632  0.620228  1
  Re  Re21  1  0.620686  0.812806  0.620248  1
  Tc  Tc22  1  0.397922  0.677636  0.000374  1
  Tc  Tc23  1  0.721482  0.323000  0.322521  1
  Tc  Tc24  1  0.398960  0.001472  0.678130  1
  Tc  Tc25  1  0.677626  0.397892  0.000321  1
  Tc  Tc26  1  0.001545  0.398993  0.678170  1
  Tc  Tc27  1  0.323010  0.721499  0.322537  1
  Tc  Tc28  1  0.323163  0.323175  0.721292  1
