# generated using pymatgen
data_Yb5Cd13
_symmetry_space_group_name_H-M   'P 1'
_cell_length_a   16.15384923
_cell_length_b   16.15384954
_cell_length_c   7.21408930
_cell_angle_alpha   98.30184944
_cell_angle_beta   98.30185001
_cell_angle_gamma   14.16243165
_symmetry_Int_Tables_number   1
_chemical_formula_structural   Yb5Cd13
_chemical_formula_sum   'Yb5 Cd13'
_cell_volume   455.69155761
_cell_formula_units_Z   1
loop_
 _symmetry_equiv_pos_site_id
 _symmetry_equiv_pos_as_xyz
  1  'x, y, z'
loop_
 _atom_site_type_symbol
 _atom_site_label
 _atom_site_symmetry_multiplicity
 _atom_site_fract_x
 _atom_site_fract_y
 _atom_site_fract_z
 _atom_site_occupancy
  Yb  Yb0  1  0.000000  0.000000  0.000000  1
  Yb  Yb1  1  0.671342  0.671342  0.322458  1
  Yb  Yb2  1  0.890659  0.890659  0.408986  1
  Yb  Yb3  1  0.109341  0.109341  0.591015  1
  Yb  Yb4  1  0.328658  0.328658  0.677542  1
  Cd  Cd5  1  0.105337  0.105337  0.066021  1
  Cd  Cd6  1  0.224476  0.224476  0.102192  1
  Cd  Cd7  1  0.330868  0.330868  0.151849  1
  Cd  Cd8  1  0.444941  0.444941  0.201922  1
  Cd  Cd9  1  0.555167  0.555167  0.301289  1
  Cd  Cd10  1  0.778917  0.778917  0.372509  1
  Cd  Cd11  1  0.000000  0.000000  0.500000  1
  Cd  Cd12  1  0.221083  0.221083  0.627492  1
  Cd  Cd13  1  0.444833  0.444833  0.698711  1
  Cd  Cd14  1  0.555059  0.555059  0.798077  1
  Cd  Cd15  1  0.669131  0.669131  0.848151  1
  Cd  Cd16  1  0.775523  0.775523  0.897807  1
  Cd  Cd17  1  0.894664  0.894664  0.933980  1
