# generated using pymatgen
data_Zr8Ta12Si15P
_symmetry_space_group_name_H-M   'P 1'
_cell_length_a   6.86352455
_cell_length_b   6.86883412
_cell_length_c   12.73343365
_cell_angle_alpha   90.02103459
_cell_angle_beta   89.86811189
_cell_angle_gamma   90.00399245
_symmetry_Int_Tables_number   1
_chemical_formula_structural   Zr8Ta12Si15P
_chemical_formula_sum   'Zr8 Ta12 Si15 P1'
_cell_volume   600.30860485
_cell_formula_units_Z   1
loop_
 _symmetry_equiv_pos_site_id
 _symmetry_equiv_pos_as_xyz
  1  'x, y, z'
loop_
 _atom_site_type_symbol
 _atom_site_label
 _atom_site_symmetry_multiplicity
 _atom_site_fract_x
 _atom_site_fract_y
 _atom_site_fract_z
 _atom_site_occupancy
  Zr  Zr0  1  0.999362  0.661692  0.030474  1
  Zr  Zr1  1  0.000444  0.342076  0.529835  1
  Zr  Zr2  1  0.661446  0.999830  0.969105  1
  Zr  Zr3  1  0.160470  0.500232  0.780707  1
  Zr  Zr4  1  0.839646  0.501142  0.281142  1
  Zr  Zr5  1  0.499869  0.160760  0.219151  1
  Zr  Zr6  1  0.501492  0.839135  0.719622  1
  Zr  Zr7  1  0.337906  0.998832  0.469947  1
  Ta  Ta8  1  0.343058  0.507922  0.377500  1
  Ta  Ta9  1  0.848799  0.993245  0.374111  1
  Ta  Ta10  1  0.004839  0.153345  0.126074  1
  Ta  Ta11  1  0.997117  0.844871  0.623257  1
  Ta  Ta12  1  0.653257  0.495080  0.876113  1
  Ta  Ta13  1  0.505714  0.345744  0.623556  1
  Ta  Ta14  1  0.494524  0.653135  0.124046  1
  Ta  Ta15  1  0.152737  0.004672  0.873614  1
  Ta  Ta16  1  0.670850  0.669296  0.499481  1
  Ta  Ta17  1  0.830897  0.169673  0.749997  1
  Ta  Ta18  1  0.168155  0.829271  0.251096  1
  Ta  Ta19  1  0.330170  0.330140  0.000113  1
  Si  Si20  1  0.956077  0.298733  0.936650  1
  Si  Si21  1  0.701520  0.043423  0.563382  1
  Si  Si22  1  0.200827  0.456011  0.186429  1
  Si  Si23  1  0.799070  0.544081  0.686670  1
  Si  Si24  1  0.455854  0.201242  0.813644  1
  Si  Si25  1  0.543651  0.799409  0.313316  1
  Si  Si26  1  0.298614  0.955683  0.063769  1
  Si  Si27  1  0.866142  0.791570  0.822407  1
  Si  Si28  1  0.134877  0.208375  0.322603  1
  Si  Si29  1  0.791470  0.865233  0.176938  1
  Si  Si30  1  0.294980  0.633542  0.575606  1
  Si  Si31  1  0.708693  0.365646  0.073190  1
  Si  Si32  1  0.633249  0.291083  0.426607  1
  Si  Si33  1  0.365180  0.708441  0.927045  1
  Si  Si34  1  0.207586  0.134686  0.676781  1
  P  P35  1  0.041456  0.702749  0.436026  1
