# generated using pymatgen
data_La3Pr5SnPd24
_symmetry_space_group_name_H-M   'P 1'
_cell_length_a   8.58665053
_cell_length_b   8.58665053
_cell_length_c   8.58661012
_cell_angle_alpha   89.98667914
_cell_angle_beta   90.01332086
_cell_angle_gamma   90.03800823
_symmetry_Int_Tables_number   1
_chemical_formula_structural   La3Pr5SnPd24
_chemical_formula_sum   'La3 Pr5 Sn1 Pd24'
_cell_volume   633.09546179
_cell_formula_units_Z   1
loop_
 _symmetry_equiv_pos_site_id
 _symmetry_equiv_pos_as_xyz
  1  'x, y, z'
loop_
 _atom_site_type_symbol
 _atom_site_label
 _atom_site_symmetry_multiplicity
 _atom_site_fract_x
 _atom_site_fract_y
 _atom_site_fract_z
 _atom_site_occupancy
  La  La0  1  0.252828  0.747172  0.252688  1
  La  La1  1  0.252848  0.747152  0.747336  1
  La  La2  1  0.747040  0.252960  0.252984  1
  Pr  Pr3  1  0.251861  0.251868  0.252014  1
  Pr  Pr4  1  0.747994  0.747840  0.747835  1
  Pr  Pr5  1  0.748132  0.748139  0.252014  1
  Pr  Pr6  1  0.747923  0.252077  0.748077  1
  Pr  Pr7  1  0.252160  0.252006  0.747835  1
  Sn  Sn8  1  0.999617  0.000383  0.999634  1
  Pd  Pd9  1  0.266633  0.500100  0.999932  1
  Pd  Pd10  1  0.733323  0.499866  0.000056  1
  Pd  Pd11  1  0.999838  0.266649  0.499991  1
  Pd  Pd12  1  0.500134  0.266677  0.000056  1
  Pd  Pd13  1  0.000140  0.733393  0.500067  1
  Pd  Pd14  1  0.499900  0.733367  0.999932  1
  Pd  Pd15  1  0.500054  0.000086  0.266630  1
  Pd  Pd16  1  0.266607  0.999860  0.500067  1
  Pd  Pd17  1  0.499986  0.999958  0.733317  1
  Pd  Pd18  1  0.733351  0.000162  0.499991  1
  Pd  Pd19  1  0.999914  0.499946  0.266630  1
  Pd  Pd20  1  0.000042  0.500014  0.733317  1
  Pd  Pd21  1  0.255301  0.499745  0.500010  1
  Pd  Pd22  1  0.744779  0.500076  0.500130  1
  Pd  Pd23  1  0.499924  0.255221  0.500130  1
  Pd  Pd24  1  0.500255  0.744699  0.500010  1
  Pd  Pd25  1  0.500027  0.499973  0.255285  1
  Pd  Pd26  1  0.500153  0.499847  0.744774  1
  Pd  Pd27  1  0.312573  0.000381  0.999958  1
  Pd  Pd28  1  0.687107  0.999849  0.999810  1
  Pd  Pd29  1  0.000151  0.312893  0.999810  1
  Pd  Pd30  1  0.999619  0.687427  0.999958  1
  Pd  Pd31  1  0.999967  0.000033  0.312565  1
  Pd  Pd32  1  0.999821  0.000179  0.687156  1
