# generated using pymatgen
data_Pm4PtAu3
_symmetry_space_group_name_H-M   'P 1'
_cell_length_a   7.37712727
_cell_length_b   5.80504400
_cell_length_c   4.75760400
_cell_angle_alpha   90.00000000
_cell_angle_beta   90.00000000
_cell_angle_gamma   90.87141724
_symmetry_Int_Tables_number   1
_chemical_formula_structural   Pm4PtAu3
_chemical_formula_sum   'Pm4 Pt1 Au3'
_cell_volume   203.71867891
_cell_formula_units_Z   1
loop_
 _symmetry_equiv_pos_site_id
 _symmetry_equiv_pos_as_xyz
  1  'x, y, z'
loop_
 _atom_site_type_symbol
 _atom_site_label
 _atom_site_symmetry_multiplicity
 _atom_site_fract_x
 _atom_site_fract_y
 _atom_site_fract_z
 _atom_site_occupancy
  Pm  Pm0  1  0.092648  0.523798  0.000000  1
  Pm  Pm1  1  0.611139  0.730117  0.000000  1
  Pm  Pm2  1  0.226991  0.014841  0.499999  1
  Pm  Pm3  1  0.735862  0.235460  0.499999  1
  Pt  Pt4  1  0.876244  0.718461  0.499999  1
  Au  Au5  1  0.455723  0.224782  0.000000  1
  Au  Au6  1  0.959106  0.027495  0.000000  1
  Au  Au7  1  0.375620  0.525050  0.499999  1
