# generated using pymatgen
data_TbHo7Sc12(SiGe)8
_symmetry_space_group_name_H-M   'P 1'
_cell_length_a   7.15743966
_cell_length_b   7.39987478
_cell_length_c   14.05541797
_cell_angle_alpha   90.01257602
_cell_angle_beta   89.94079065
_cell_angle_gamma   90.05101010
_symmetry_Int_Tables_number   1
_chemical_formula_structural   TbHo7Sc12(SiGe)8
_chemical_formula_sum   'Tb1 Ho7 Sc12 Si8 Ge8'
_cell_volume   744.43265669
_cell_formula_units_Z   1
loop_
 _symmetry_equiv_pos_site_id
 _symmetry_equiv_pos_as_xyz
  1  'x, y, z'
loop_
 _atom_site_type_symbol
 _atom_site_label
 _atom_site_symmetry_multiplicity
 _atom_site_fract_x
 _atom_site_fract_y
 _atom_site_fract_z
 _atom_site_occupancy
  Tb  Tb0  1  0.003656  0.176940  0.098287  1
  Ho  Ho1  1  0.996448  0.822669  0.901134  1
  Ho  Ho2  1  0.496935  0.676907  0.901143  1
  Ho  Ho3  1  0.996828  0.822851  0.598528  1
  Ho  Ho4  1  0.503209  0.323209  0.098567  1
  Ho  Ho5  1  0.003054  0.177349  0.401393  1
  Ho  Ho6  1  0.503222  0.322888  0.401892  1
  Ho  Ho7  1  0.496734  0.677261  0.598490  1
  Sc  Sc8  1  0.172108  0.501183  0.749840  1
  Sc  Sc9  1  0.827959  0.499136  0.250253  1
  Sc  Sc10  1  0.328141  0.000492  0.250449  1
  Sc  Sc11  1  0.672054  0.999009  0.749785  1
  Sc  Sc12  1  0.341637  0.172117  0.626310  1
  Sc  Sc13  1  0.658337  0.827675  0.373965  1
  Sc  Sc14  1  0.158413  0.672341  0.374065  1
  Sc  Sc15  1  0.658469  0.827242  0.126532  1
  Sc  Sc16  1  0.841741  0.327599  0.626234  1
  Sc  Sc17  1  0.341556  0.172674  0.873480  1
  Sc  Sc18  1  0.841227  0.327884  0.873737  1
  Sc  Sc19  1  0.158682  0.672126  0.126146  1
  Si  Si20  1  0.043561  0.117179  0.750055  1
  Si  Si21  1  0.956287  0.882212  0.250154  1
  Si  Si22  1  0.456180  0.616829  0.250203  1
  Si  Si23  1  0.543794  0.383132  0.749833  1
  Si  Si24  1  0.295109  0.871366  0.749916  1
  Si  Si25  1  0.704271  0.128461  0.250419  1
  Si  Si26  1  0.205426  0.371985  0.250424  1
  Si  Si27  1  0.795266  0.628597  0.749863  1
  Ge  Ge28  1  0.175700  0.459875  0.540714  1
  Ge  Ge29  1  0.824580  0.539906  0.459333  1
  Ge  Ge30  1  0.324222  0.960474  0.459325  1
  Ge  Ge31  1  0.823953  0.540525  0.040218  1
  Ge  Ge32  1  0.675532  0.040044  0.540688  1
  Ge  Ge33  1  0.175357  0.461018  0.959197  1
  Ge  Ge34  1  0.673764  0.038983  0.959098  1
  Ge  Ge35  1  0.326593  0.959861  0.040329  1
