# generated using pymatgen
data_Th2Al8(SiPd)3
_symmetry_space_group_name_H-M   'P 1'
_cell_length_a   4.27592400
_cell_length_b   4.27592400
_cell_length_c   16.05508200
_cell_angle_alpha   90.00000000
_cell_angle_beta   90.00000000
_cell_angle_gamma   90.00000000
_symmetry_Int_Tables_number   1
_chemical_formula_structural   Th2Al8(SiPd)3
_chemical_formula_sum   'Th2 Al8 Si3 Pd3'
_cell_volume   293.54351004
_cell_formula_units_Z   1
loop_
 _symmetry_equiv_pos_site_id
 _symmetry_equiv_pos_as_xyz
  1  'x, y, z'
loop_
 _atom_site_type_symbol
 _atom_site_label
 _atom_site_symmetry_multiplicity
 _atom_site_fract_x
 _atom_site_fract_y
 _atom_site_fract_z
 _atom_site_occupancy
  Th  Th0  1  0.000000  0.000000  0.996734  1
  Th  Th1  1  0.000000  0.000000  0.509176  1
  Al  Al2  1  0.500000  0.000000  0.337535  1
  Al  Al3  1  0.500000  0.000000  0.838300  1
  Al  Al4  1  0.000000  0.500000  0.337535  1
  Al  Al5  1  0.000000  0.500000  0.838300  1
  Al  Al6  1  0.500000  0.000000  0.161126  1
  Al  Al7  1  0.500000  0.000000  0.665886  1
  Al  Al8  1  0.000000  0.500000  0.161126  1
  Al  Al9  1  0.000000  0.500000  0.665886  1
  Si  Si10  1  0.500000  0.500000  0.927333  1
  Si  Si11  1  0.500000  0.500000  0.070506  1
  Si  Si12  1  0.500000  0.500000  0.571257  1
  Pd  Pd13  1  0.000000  0.000000  0.240487  1
  Pd  Pd14  1  0.000000  0.000000  0.753835  1
  Pd  Pd15  1  0.500000  0.500000  0.424981  1
