# generated using pymatgen
data_Er2Pa2Ge6Ir7
_symmetry_space_group_name_H-M   'P 1'
_cell_length_a   7.30571326
_cell_length_b   7.30571182
_cell_length_c   7.28681603
_cell_angle_alpha   109.44924773
_cell_angle_beta   109.44923996
_cell_angle_gamma   109.61992355
_symmetry_Int_Tables_number   1
_chemical_formula_structural   Er2Pa2Ge6Ir7
_chemical_formula_sum   'Er2 Pa2 Ge6 Ir7'
_cell_volume   299.00428012
_cell_formula_units_Z   1
loop_
 _symmetry_equiv_pos_site_id
 _symmetry_equiv_pos_as_xyz
  1  'x, y, z'
loop_
 _atom_site_type_symbol
 _atom_site_label
 _atom_site_symmetry_multiplicity
 _atom_site_fract_x
 _atom_site_fract_y
 _atom_site_fract_z
 _atom_site_occupancy
  Er  Er0  1  0.000000  0.000000  0.500000  1
  Er  Er1  1  0.500000  0.500000  0.500000  1
  Pa  Pa2  1  0.000000  0.500000  0.000000  1
  Pa  Pa3  1  0.500000  0.000000  0.000000  1
  Ge  Ge4  1  0.683808  0.683808  0.000000  1
  Ge  Ge5  1  0.316909  0.004910  0.321819  1
  Ge  Ge6  1  0.004910  0.316909  0.321819  1
  Ge  Ge7  1  0.316192  0.316192  0.000000  1
  Ge  Ge8  1  0.683091  0.995090  0.678181  1
  Ge  Ge9  1  0.995090  0.683091  0.678181  1
  Ir  Ir10  1  0.750000  0.250000  0.500000  1
  Ir  Ir11  1  0.749514  0.496966  0.246480  1
  Ir  Ir12  1  0.503034  0.250486  0.753520  1
  Ir  Ir13  1  0.250486  0.503034  0.753520  1
  Ir  Ir14  1  0.250000  0.750000  0.500000  1
  Ir  Ir15  1  0.496966  0.749514  0.246480  1
  Ir  Ir16  1  0.000000  0.000000  0.000000  1
