# generated using pymatgen
data_Sm4Ga16Ir3
_symmetry_space_group_name_H-M   'P 1'
_cell_length_a   6.20694000
_cell_length_b   6.20694000
_cell_length_c   11.32938700
_cell_angle_alpha   90.00000000
_cell_angle_beta   90.00000000
_cell_angle_gamma   90.00000000
_symmetry_Int_Tables_number   1
_chemical_formula_structural   Sm4Ga16Ir3
_chemical_formula_sum   'Sm4 Ga16 Ir3'
_cell_volume   436.47714367
_cell_formula_units_Z   1
loop_
 _symmetry_equiv_pos_site_id
 _symmetry_equiv_pos_as_xyz
  1  'x, y, z'
loop_
 _atom_site_type_symbol
 _atom_site_label
 _atom_site_symmetry_multiplicity
 _atom_site_fract_x
 _atom_site_fract_y
 _atom_site_fract_z
 _atom_site_occupancy
  Sm  Sm0  1  0.500000  0.000000  0.804932  1
  Sm  Sm1  1  0.000000  0.500000  0.195068  1
  Sm  Sm2  1  0.000000  0.500000  0.804932  1
  Sm  Sm3  1  0.500000  0.000000  0.195068  1
  Ga  Ga4  1  0.000000  0.000000  0.775802  1
  Ga  Ga5  1  0.288334  0.288334  0.000000  1
  Ga  Ga6  1  0.500000  0.500000  0.805452  1
  Ga  Ga7  1  0.711666  0.288334  0.000000  1
  Ga  Ga8  1  0.500000  0.500000  0.194548  1
  Ga  Ga9  1  0.711666  0.711666  0.000000  1
  Ga  Ga10  1  0.000000  0.000000  0.224198  1
  Ga  Ga11  1  0.751629  0.751629  0.618626  1
  Ga  Ga12  1  0.751629  0.248371  0.381374  1
  Ga  Ga13  1  0.248371  0.248371  0.618626  1
  Ga  Ga14  1  0.248371  0.751629  0.381374  1
  Ga  Ga15  1  0.288334  0.711666  0.000000  1
  Ga  Ga16  1  0.751629  0.751629  0.381374  1
  Ga  Ga17  1  0.751629  0.248371  0.618626  1
  Ga  Ga18  1  0.248371  0.248371  0.381374  1
  Ga  Ga19  1  0.248371  0.751629  0.618626  1
  Ir  Ir20  1  0.000000  0.500000  0.500000  1
  Ir  Ir21  1  0.000000  0.000000  0.000000  1
  Ir  Ir22  1  0.500000  0.000000  0.500000  1
