# generated using pymatgen
data_Be7Ni5(W6C)2
_symmetry_space_group_name_H-M   'P 1'
_cell_length_a   7.57952954
_cell_length_b   7.57952965
_cell_length_c   7.57952961
_cell_angle_alpha   60.11379184
_cell_angle_beta   60.11379207
_cell_angle_gamma   60.11378566
_symmetry_Int_Tables_number   1
_chemical_formula_structural   Be7Ni5(W6C)2
_chemical_formula_sum   'Be7 Ni5 W12 C2'
_cell_volume   308.69525311
_cell_formula_units_Z   1
loop_
 _symmetry_equiv_pos_site_id
 _symmetry_equiv_pos_as_xyz
  1  'x, y, z'
loop_
 _atom_site_type_symbol
 _atom_site_label
 _atom_site_symmetry_multiplicity
 _atom_site_fract_x
 _atom_site_fract_y
 _atom_site_fract_z
 _atom_site_occupancy
  Be  Be0  1  0.421740  0.421740  0.736351  1
  Be  Be1  1  0.421740  0.736351  0.421740  1
  Be  Be2  1  0.736351  0.421740  0.421740  1
  Be  Be3  1  0.419564  0.419564  0.419564  1
  Be  Be4  1  0.828553  0.828553  0.517729  1
  Be  Be5  1  0.828553  0.517729  0.828553  1
  Be  Be6  1  0.517729  0.828553  0.828553  1
  Ni  Ni7  1  0.830982  0.830982  0.830982  1
  Ni  Ni8  1  0.618052  0.618052  0.134997  1
  Ni  Ni9  1  0.618052  0.134997  0.618052  1
  Ni  Ni10  1  0.134997  0.618052  0.618052  1
  Ni  Ni11  1  0.625516  0.625516  0.625516  1
  W  W12  1  0.048790  0.048790  0.449554  1
  W  W13  1  0.449144  0.049726  0.449144  1
  W  W14  1  0.049726  0.449144  0.449144  1
  W  W15  1  0.449144  0.449144  0.049726  1
  W  W16  1  0.048790  0.449554  0.048790  1
  W  W17  1  0.449554  0.048790  0.048790  1
  W  W18  1  0.200152  0.200152  0.800627  1
  W  W19  1  0.799978  0.203117  0.799978  1
  W  W20  1  0.203117  0.799978  0.799978  1
  W  W21  1  0.799978  0.799978  0.203117  1
  W  W22  1  0.200152  0.800627  0.200152  1
  W  W23  1  0.800627  0.200152  0.200152  1
  C  C24  1  0.248838  0.248838  0.248838  1
  C  C25  1  0.000184  0.000184  0.000184  1
