# generated using pymatgen
data_Pr4Ga18Ir2PdRh3
_symmetry_space_group_name_H-M   'P 1'
_cell_length_a   7.69568474
_cell_length_b   7.69568453
_cell_length_c   9.64391501
_cell_angle_alpha   89.98560323
_cell_angle_beta   89.98559942
_cell_angle_gamma   119.66723868
_symmetry_Int_Tables_number   1
_chemical_formula_structural   Pr4Ga18Ir2PdRh3
_chemical_formula_sum   'Pr4 Ga18 Ir2 Pd1 Rh3'
_cell_volume   496.27794471
_cell_formula_units_Z   1
loop_
 _symmetry_equiv_pos_site_id
 _symmetry_equiv_pos_as_xyz
  1  'x, y, z'
loop_
 _atom_site_type_symbol
 _atom_site_label
 _atom_site_symmetry_multiplicity
 _atom_site_fract_x
 _atom_site_fract_y
 _atom_site_fract_z
 _atom_site_occupancy
  Pr  Pr0  1  0.996551  0.668174  0.250255  1
  Pr  Pr1  1  0.002416  0.331467  0.749839  1
  Pr  Pr2  1  0.668533  0.997584  0.250161  1
  Pr  Pr3  1  0.331826  0.003449  0.749745  1
  Ga  Ga4  1  0.127249  0.126184  0.250518  1
  Ga  Ga5  1  0.873816  0.872751  0.749482  1
  Ga  Ga6  1  0.006302  0.333957  0.079785  1
  Ga  Ga7  1  0.000491  0.669422  0.920690  1
  Ga  Ga8  1  0.997242  0.665498  0.577481  1
  Ga  Ga9  1  0.334502  0.002758  0.422519  1
  Ga  Ga10  1  0.001872  0.334241  0.422287  1
  Ga  Ga11  1  0.665759  0.998128  0.577713  1
  Ga  Ga12  1  0.666043  0.993698  0.920215  1
  Ga  Ga13  1  0.330578  0.999509  0.079310  1
  Ga  Ga14  1  0.333035  0.333129  0.559529  1
  Ga  Ga15  1  0.666871  0.666965  0.440471  1
  Ga  Ga16  1  0.666332  0.669330  0.062103  1
  Ga  Ga17  1  0.330670  0.333668  0.937897  1
  Ga  Ga18  1  0.339447  0.544735  0.250385  1
  Ga  Ga19  1  0.661099  0.456232  0.747191  1
  Ga  Ga20  1  0.543768  0.338901  0.252809  1
  Ga  Ga21  1  0.455265  0.660553  0.749615  1
  Ir  Ir22  1  0.329604  0.670396  0.000000  1
  Ir  Ir23  1  0.328951  0.671049  0.500000  1
  Pd  Pd24  1  0.670905  0.329095  0.000000  1
  Rh  Rh25  1  0.670750  0.329250  0.500000  1
  Rh  Rh26  1  0.000197  0.999803  0.000000  1
  Rh  Rh27  1  0.999923  0.000077  0.500000  1
