# generated using pymatgen
data_Ca2La2PrRu2
_symmetry_space_group_name_H-M   'P 1'
_cell_length_a   6.64871552
_cell_length_b   7.35218553
_cell_length_c   9.01893500
_cell_angle_alpha   96.27604025
_cell_angle_beta   111.62915749
_cell_angle_gamma   90.00000116
_symmetry_Int_Tables_number   1
_chemical_formula_structural   Ca2La2PrRu2
_chemical_formula_sum   'Ca4 La4 Pr2 Ru4'
_cell_volume   406.98317725
_cell_formula_units_Z   2
loop_
 _symmetry_equiv_pos_site_id
 _symmetry_equiv_pos_as_xyz
  1  'x, y, z'
loop_
 _atom_site_type_symbol
 _atom_site_label
 _atom_site_symmetry_multiplicity
 _atom_site_fract_x
 _atom_site_fract_y
 _atom_site_fract_z
 _atom_site_occupancy
  Ca  Ca0  1  0.629909  0.817135  0.423834  1
  Ca  Ca1  1  0.206076  0.682865  0.576166  1
  Ca  Ca2  1  0.370091  0.182865  0.576166  1
  Ca  Ca3  1  0.793924  0.317135  0.423834  1
  La  La4  1  0.988786  0.906537  0.186463  1
  La  La5  1  0.802323  0.593463  0.813537  1
  La  La6  1  0.011214  0.093463  0.813537  1
  La  La7  1  0.197677  0.406537  0.186463  1
  Pr  Pr8  1  0.428619  0.750000  0.000000  1
  Pr  Pr9  1  0.571381  0.250000  0.000000  1
  Ru  Ru10  1  0.843586  0.590163  0.202799  1
  Ru  Ru11  1  0.640787  0.909837  0.797201  1
  Ru  Ru12  1  0.156414  0.409837  0.797201  1
  Ru  Ru13  1  0.359213  0.090163  0.202799  1
