# generated using pymatgen
data_Pr4Ga4CuRh3
_symmetry_space_group_name_H-M   'P 1'
_cell_length_a   4.46804100
_cell_length_b   7.10857373
_cell_length_c   7.83511106
_cell_angle_alpha   90.24520210
_cell_angle_beta   90.00000000
_cell_angle_gamma   90.00000000
_symmetry_Int_Tables_number   1
_chemical_formula_structural   Pr4Ga4CuRh3
_chemical_formula_sum   'Pr4 Ga4 Cu1 Rh3'
_cell_volume   248.85180895
_cell_formula_units_Z   1
loop_
 _symmetry_equiv_pos_site_id
 _symmetry_equiv_pos_as_xyz
  1  'x, y, z'
loop_
 _atom_site_type_symbol
 _atom_site_label
 _atom_site_symmetry_multiplicity
 _atom_site_fract_x
 _atom_site_fract_y
 _atom_site_fract_z
 _atom_site_occupancy
  Pr  Pr0  1  0.250000  0.026716  0.687457  1
  Pr  Pr1  1  0.250000  0.532395  0.813203  1
  Pr  Pr2  1  0.750000  0.971760  0.310328  1
  Pr  Pr3  1  0.750000  0.476385  0.193192  1
  Ga  Ga4  1  0.250000  0.156079  0.070150  1
  Ga  Ga5  1  0.250000  0.655835  0.428554  1
  Ga  Ga6  1  0.750000  0.838799  0.928766  1
  Ga  Ga7  1  0.750000  0.345125  0.569610  1
  Cu  Cu8  1  0.750000  0.216332  0.891453  1
  Rh  Rh9  1  0.250000  0.278812  0.393389  1
  Rh  Rh10  1  0.250000  0.780192  0.106272  1
  Rh  Rh11  1  0.750000  0.721570  0.607626  1
