# generated using pymatgen
data_Ce8Dy12Si15Ru
_symmetry_space_group_name_H-M   'P 1'
_cell_length_a   7.39967700
_cell_length_b   7.83738841
_cell_length_c   14.71095600
_cell_angle_alpha   90.00000000
_cell_angle_beta   90.00000000
_cell_angle_gamma   90.06730113
_symmetry_Int_Tables_number   1
_chemical_formula_structural   Ce8Dy12Si15Ru
_chemical_formula_sum   'Ce8 Dy12 Si15 Ru1'
_cell_volume   853.14869345
_cell_formula_units_Z   1
loop_
 _symmetry_equiv_pos_site_id
 _symmetry_equiv_pos_as_xyz
  1  'x, y, z'
loop_
 _atom_site_type_symbol
 _atom_site_label
 _atom_site_symmetry_multiplicity
 _atom_site_fract_x
 _atom_site_fract_y
 _atom_site_fract_z
 _atom_site_occupancy
  Ce  Ce0  1  0.020870  0.181556  0.097489  1
  Ce  Ce1  1  0.984801  0.826069  0.902789  1
  Ce  Ce2  1  0.482480  0.678154  0.904107  1
  Ce  Ce3  1  0.984801  0.826069  0.597211  1
  Ce  Ce4  1  0.520007  0.321934  0.096018  1
  Ce  Ce5  1  0.020870  0.181556  0.402511  1
  Ce  Ce6  1  0.520007  0.321934  0.403982  1
  Ce  Ce7  1  0.482480  0.678154  0.595893  1
  Dy  Dy8  1  0.151103  0.520613  0.750000  1
  Dy  Dy9  1  0.845237  0.483921  0.250000  1
  Dy  Dy10  1  0.343370  0.020751  0.250000  1
  Dy  Dy11  1  0.664119  0.983956  0.750000  1
  Dy  Dy12  1  0.311669  0.175460  0.627380  1
  Dy  Dy13  1  0.677885  0.821440  0.377594  1
  Dy  Dy14  1  0.178014  0.681613  0.377433  1
  Dy  Dy15  1  0.677885  0.821440  0.122406  1
  Dy  Dy16  1  0.829715  0.314874  0.625515  1
  Dy  Dy17  1  0.311669  0.175460  0.872620  1
  Dy  Dy18  1  0.829715  0.314874  0.874485  1
  Dy  Dy19  1  0.178014  0.681613  0.122567  1
  Si  Si20  1  0.969621  0.896355  0.250000  1
  Si  Si21  1  0.471338  0.606582  0.250000  1
  Si  Si22  1  0.525886  0.397471  0.750000  1
  Si  Si23  1  0.276744  0.869040  0.750000  1
  Si  Si24  1  0.728380  0.121635  0.250000  1
  Si  Si25  1  0.228213  0.380664  0.250000  1
  Si  Si26  1  0.765398  0.618986  0.750000  1
  Si  Si27  1  0.152265  0.472816  0.538700  1
  Si  Si28  1  0.851450  0.530708  0.462601  1
  Si  Si29  1  0.349376  0.971566  0.462249  1
  Si  Si30  1  0.851450  0.530708  0.037399  1
  Si  Si31  1  0.645863  0.029793  0.538762  1
  Si  Si32  1  0.152265  0.472816  0.961300  1
  Si  Si33  1  0.645863  0.029793  0.961238  1
  Si  Si34  1  0.349376  0.971566  0.037751  1
  Ru  Ru35  1  0.021802  0.088055  0.750000  1
