# generated using pymatgen
data_CaNd3(Pd2Pb)2
_symmetry_space_group_name_H-M   'P 1'
_cell_length_a   3.80848600
_cell_length_b   8.00792117
_cell_length_c   8.00792117
_cell_angle_alpha   89.48089679
_cell_angle_beta   90.00000000
_cell_angle_gamma   90.00000000
_symmetry_Int_Tables_number   1
_chemical_formula_structural   CaNd3(Pd2Pb)2
_chemical_formula_sum   'Ca1 Nd3 Pd4 Pb2'
_cell_volume   244.21600181
_cell_formula_units_Z   1
loop_
 _symmetry_equiv_pos_site_id
 _symmetry_equiv_pos_as_xyz
  1  'x, y, z'
loop_
 _atom_site_type_symbol
 _atom_site_label
 _atom_site_symmetry_multiplicity
 _atom_site_fract_x
 _atom_site_fract_y
 _atom_site_fract_z
 _atom_site_occupancy
  Ca  Ca0  1  0.500000  0.173752  0.673752  1
  Nd  Nd1  1  0.500000  0.827388  0.327388  1
  Nd  Nd2  1  0.500000  0.324282  0.173452  1
  Nd  Nd3  1  0.500000  0.673452  0.824282  1
  Pd  Pd4  1  0.000000  0.624533  0.124533  1
  Pd  Pd5  1  0.000000  0.377928  0.877928  1
  Pd  Pd6  1  0.000000  0.874738  0.623680  1
  Pd  Pd7  1  0.000000  0.123680  0.374738  1
  Pb  Pb8  1  0.000000  0.001900  0.998346  1
  Pb  Pb9  1  0.000000  0.498346  0.501900  1
