# generated using pymatgen
data_Dy7Ho3(SiBi2)2
_symmetry_space_group_name_H-M   'P 1'
_cell_length_a   8.05428600
_cell_length_b   9.18052400
_cell_length_c   12.05065200
_cell_angle_alpha   90.00000000
_cell_angle_beta   90.00000000
_cell_angle_gamma   90.00314486
_symmetry_Int_Tables_number   1
_chemical_formula_structural   Dy7Ho3(SiBi2)2
_chemical_formula_sum   'Dy14 Ho6 Si4 Bi8'
_cell_volume   891.05612929
_cell_formula_units_Z   2
loop_
 _symmetry_equiv_pos_site_id
 _symmetry_equiv_pos_as_xyz
  1  'x, y, z'
loop_
 _atom_site_type_symbol
 _atom_site_label
 _atom_site_symmetry_multiplicity
 _atom_site_fract_x
 _atom_site_fract_y
 _atom_site_fract_z
 _atom_site_occupancy
  Dy  Dy0  1  0.820856  0.947240  0.062742  1
  Dy  Dy1  1  0.679144  0.552760  0.562742  1
  Dy  Dy2  1  0.166877  0.749961  0.212388  1
  Dy  Dy3  1  0.333123  0.750039  0.712388  1
  Dy  Dy4  1  0.833184  0.249989  0.787646  1
  Dy  Dy5  1  0.666816  0.250011  0.287646  1
  Dy  Dy6  1  0.461145  0.750005  0.001405  1
  Dy  Dy7  1  0.038855  0.749995  0.501405  1
  Dy  Dy8  1  0.538757  0.250034  0.998598  1
  Dy  Dy9  1  0.961243  0.249966  0.498598  1
  Dy  Dy10  1  0.637159  0.750009  0.295570  1
  Dy  Dy11  1  0.862841  0.749991  0.795570  1
  Dy  Dy12  1  0.362749  0.249987  0.704438  1
  Dy  Dy13  1  0.137251  0.250013  0.204438  1
  Ho  Ho14  1  0.821103  0.552728  0.062710  1
  Ho  Ho15  1  0.678897  0.947272  0.562710  1
  Ho  Ho16  1  0.178951  0.052940  0.937265  1
  Ho  Ho17  1  0.321049  0.447060  0.437265  1
  Ho  Ho18  1  0.178965  0.447093  0.937297  1
  Ho  Ho19  1  0.321035  0.052907  0.437297  1
  Si  Si20  1  0.411852  0.750184  0.479080  1
  Si  Si21  1  0.088148  0.749816  0.979080  1
  Si  Si22  1  0.587938  0.249689  0.520815  1
  Si  Si23  1  0.912062  0.250311  0.020815  1
  Bi  Bi24  1  0.933126  0.510795  0.325407  1
  Bi  Bi25  1  0.566874  0.989205  0.825407  1
  Bi  Bi26  1  0.066867  0.010838  0.674553  1
  Bi  Bi27  1  0.433133  0.489162  0.174553  1
  Bi  Bi28  1  0.066915  0.489176  0.674592  1
  Bi  Bi29  1  0.433085  0.010824  0.174592  1
  Bi  Bi30  1  0.933199  0.989209  0.325495  1
  Bi  Bi31  1  0.566801  0.510791  0.825495  1
