# generated using pymatgen
data_CaLa(Sn2Rh3)2
_symmetry_space_group_name_H-M   'P 1'
_cell_length_a   5.99360871
_cell_length_b   7.15723715
_cell_length_c   7.15723691
_cell_angle_alpha   68.28268577
_cell_angle_beta   65.24685053
_cell_angle_gamma   65.24685671
_symmetry_Int_Tables_number   1
_chemical_formula_structural   CaLa(Sn2Rh3)2
_chemical_formula_sum   'Ca1 La1 Sn4 Rh6'
_cell_volume   246.04276451
_cell_formula_units_Z   1
loop_
 _symmetry_equiv_pos_site_id
 _symmetry_equiv_pos_as_xyz
  1  'x, y, z'
loop_
 _atom_site_type_symbol
 _atom_site_label
 _atom_site_symmetry_multiplicity
 _atom_site_fract_x
 _atom_site_fract_y
 _atom_site_fract_z
 _atom_site_occupancy
  Ca  Ca0  1  0.550600  0.750000  0.750000  1
  La  La1  1  0.440984  0.250000  0.250000  1
  Sn  Sn2  1  0.205107  0.586382  0.586382  1
  Sn  Sn3  1  0.784838  0.420302  0.420302  1
  Sn  Sn4  1  0.125441  0.079698  0.079698  1
  Sn  Sn5  1  0.877873  0.913618  0.913618  1
  Rh  Rh6  1  0.500700  0.221589  0.778010  1
  Rh  Rh7  1  0.000300  0.721990  0.278411  1
  Rh  Rh8  1  0.500700  0.778010  0.221589  1
  Rh  Rh9  1  0.000300  0.278411  0.721990  1
  Rh  Rh10  1  0.006578  0.495739  0.004261  1
  Rh  Rh11  1  0.006578  0.004261  0.495739  1
