# generated using pymatgen
data_Hf2ScAl2GaNi3
_symmetry_space_group_name_H-M   'P 1'
_cell_length_a   6.94295264
_cell_length_b   6.98131267
_cell_length_c   3.36621000
_cell_angle_alpha   90.00000000
_cell_angle_beta   90.00000000
_cell_angle_gamma   120.18619693
_symmetry_Int_Tables_number   1
_chemical_formula_structural   Hf2ScAl2GaNi3
_chemical_formula_sum   'Hf2 Sc1 Al2 Ga1 Ni3'
_cell_volume   141.03770278
_cell_formula_units_Z   1
loop_
 _symmetry_equiv_pos_site_id
 _symmetry_equiv_pos_as_xyz
  1  'x, y, z'
loop_
 _atom_site_type_symbol
 _atom_site_label
 _atom_site_symmetry_multiplicity
 _atom_site_fract_x
 _atom_site_fract_y
 _atom_site_fract_z
 _atom_site_occupancy
  Hf  Hf0  1  0.595532  0.001380  0.500000  1
  Hf  Hf1  1  0.000613  0.591016  0.500000  1
  Sc  Sc2  1  0.404142  0.404621  0.500000  1
  Al  Al3  1  0.743903  0.740992  0.000000  1
  Al  Al4  1  0.253135  0.999026  0.000000  1
  Ga  Ga5  1  0.002898  0.259790  0.000000  1
  Ni  Ni6  1  0.668899  0.333065  0.000000  1
  Ni  Ni7  1  0.335780  0.675477  0.000000  1
  Ni  Ni8  1  0.995099  0.994633  0.500000  1
