# generated using pymatgen
data_Eu3Np(Sn2O7)2
_symmetry_space_group_name_H-M   'P 1'
_cell_length_a   7.57458745
_cell_length_b   7.57458777
_cell_length_c   7.48981623
_cell_angle_alpha   59.62488570
_cell_angle_beta   59.62488275
_cell_angle_gamma   59.99999980
_symmetry_Int_Tables_number   1
_chemical_formula_structural   Eu3Np(Sn2O7)2
_chemical_formula_sum   'Eu3 Np1 Sn4 O14'
_cell_volume   302.12616959
_cell_formula_units_Z   1
loop_
 _symmetry_equiv_pos_site_id
 _symmetry_equiv_pos_as_xyz
  1  'x, y, z'
loop_
 _atom_site_type_symbol
 _atom_site_label
 _atom_site_symmetry_multiplicity
 _atom_site_fract_x
 _atom_site_fract_y
 _atom_site_fract_z
 _atom_site_occupancy
  Eu  Eu0  1  0.125000  0.125000  0.125000  1
  Eu  Eu1  1  0.625000  0.125000  0.125000  1
  Eu  Eu2  1  0.125000  0.625000  0.125000  1
  Np  Np3  1  0.125000  0.125000  0.625000  1
  Sn  Sn4  1  0.625000  0.625000  0.625000  1
  Sn  Sn5  1  0.125000  0.625000  0.625000  1
  Sn  Sn6  1  0.625000  0.125000  0.625000  1
  Sn  Sn7  1  0.625000  0.625000  0.125000  1
  O  O8  1  0.960344  0.540791  0.958074  1
  O  O9  1  0.709209  0.289656  0.291926  1
  O  O10  1  0.289166  0.713015  0.708654  1
  O  O11  1  0.713015  0.289166  0.708654  1
  O  O12  1  0.289166  0.289166  0.708654  1
  O  O13  1  0.709209  0.709209  0.291926  1
  O  O14  1  0.960834  0.960834  0.541346  1
  O  O15  1  0.540791  0.960344  0.958074  1
  O  O16  1  0.960834  0.536985  0.541346  1
  O  O17  1  0.540791  0.540791  0.958074  1
  O  O18  1  0.289656  0.709209  0.291926  1
  O  O19  1  0.536985  0.960834  0.541346  1
  O  O20  1  0.004585  0.004585  0.986246  1
  O  O21  1  0.245415  0.245415  0.263754  1
