# generated using pymatgen
data_TlPd2F12
_symmetry_space_group_name_H-M   'P 1'
_cell_length_a   9.79303771
_cell_length_b   9.79303806
_cell_length_c   9.79303830
_cell_angle_alpha   132.72147859
_cell_angle_beta   132.72147392
_cell_angle_gamma   69.09189632
_symmetry_Int_Tables_number   1
_chemical_formula_structural   TlPd2F12
_chemical_formula_sum   'Tl2 Pd4 F24'
_cell_volume   497.51377539
_cell_formula_units_Z   2
loop_
 _symmetry_equiv_pos_site_id
 _symmetry_equiv_pos_as_xyz
  1  'x, y, z'
loop_
 _atom_site_type_symbol
 _atom_site_label
 _atom_site_symmetry_multiplicity
 _atom_site_fract_x
 _atom_site_fract_y
 _atom_site_fract_z
 _atom_site_occupancy
  Tl  Tl0  1  0.750000  0.250000  0.500000  1
  Tl  Tl1  1  0.000000  0.000000  0.000000  1
  Pd  Pd2  1  0.786144  0.786144  0.000000  1
  Pd  Pd3  1  0.213856  0.213856  0.000000  1
  Pd  Pd4  1  0.963856  0.463856  0.500000  1
  Pd  Pd5  1  0.536144  0.036144  0.500000  1
  F  F6  1  0.869810  0.765322  0.223653  1
  F  F7  1  0.541668  0.646157  0.776347  1
  F  F8  1  0.396157  0.791668  0.276347  1
  F  F9  1  0.353843  0.130190  0.895513  1
  F  F10  1  0.234678  0.458332  0.104487  1
  F  F11  1  0.208332  0.484678  0.604487  1
  F  F12  1  0.683102  0.283235  0.708956  1
  F  F13  1  0.716765  0.425721  0.399866  1
  F  F14  1  0.025856  0.316898  0.600134  1
  F  F15  1  0.066898  0.275856  0.100134  1
  F  F16  1  0.175721  0.966765  0.899866  1
  F  F17  1  0.574279  0.974144  0.291044  1
  F  F18  1  0.724144  0.824279  0.791044  1
  F  F19  1  0.033235  0.933102  0.208956  1
  F  F20  1  0.304351  0.127671  0.358686  1
  F  F21  1  0.872329  0.231014  0.176679  1
  F  F22  1  0.054336  0.695649  0.823321  1
  F  F23  1  0.445649  0.304336  0.323321  1
  F  F24  1  0.981014  0.122329  0.676679  1
  F  F25  1  0.768986  0.945664  0.641314  1
  F  F26  1  0.695664  0.018986  0.141314  1
  F  F27  1  0.877671  0.554351  0.858686  1
  F  F28  1  0.515322  0.119810  0.723653  1
  F  F29  1  0.880190  0.603843  0.395513  1
