# generated using pymatgen
data_Tb4Al4OsPd2Pt
_symmetry_space_group_name_H-M   'P 1'
_cell_length_a   4.37140400
_cell_length_b   6.93650104
_cell_length_c   7.89841221
_cell_angle_alpha   89.88304090
_cell_angle_beta   90.00000000
_cell_angle_gamma   90.00000000
_symmetry_Int_Tables_number   1
_chemical_formula_structural   Tb4Al4OsPd2Pt
_chemical_formula_sum   'Tb4 Al4 Os1 Pd2 Pt1'
_cell_volume   239.49711820
_cell_formula_units_Z   1
loop_
 _symmetry_equiv_pos_site_id
 _symmetry_equiv_pos_as_xyz
  1  'x, y, z'
loop_
 _atom_site_type_symbol
 _atom_site_label
 _atom_site_symmetry_multiplicity
 _atom_site_fract_x
 _atom_site_fract_y
 _atom_site_fract_z
 _atom_site_occupancy
  Tb  Tb0  1  0.250000  0.034803  0.679892  1
  Tb  Tb1  1  0.250000  0.525588  0.818380  1
  Tb  Tb2  1  0.750000  0.981746  0.319710  1
  Tb  Tb3  1  0.750000  0.464816  0.186306  1
  Al  Al4  1  0.250000  0.147522  0.065265  1
  Al  Al5  1  0.250000  0.638842  0.437202  1
  Al  Al6  1  0.750000  0.858102  0.937712  1
  Al  Al7  1  0.750000  0.350788  0.561237  1
  Os  Os8  1  0.250000  0.269430  0.380064  1
  Pd  Pd9  1  0.250000  0.774062  0.115140  1
  Pd  Pd10  1  0.750000  0.726568  0.618126  1
  Pt  Pt11  1  0.750000  0.227733  0.880966  1
