# generated using pymatgen
data_TmLuNi12AsP6
_symmetry_space_group_name_H-M   'P 1'
_cell_length_a   9.10474600
_cell_length_b   9.10474435
_cell_length_c   3.64389200
_cell_angle_alpha   90.00000000
_cell_angle_beta   90.00000000
_cell_angle_gamma   119.99999874
_symmetry_Int_Tables_number   1
_chemical_formula_structural   TmLuNi12AsP6
_chemical_formula_sum   'Tm1 Lu1 Ni12 As1 P6'
_cell_volume   261.59637651
_cell_formula_units_Z   1
loop_
 _symmetry_equiv_pos_site_id
 _symmetry_equiv_pos_as_xyz
  1  'x, y, z'
loop_
 _atom_site_type_symbol
 _atom_site_label
 _atom_site_symmetry_multiplicity
 _atom_site_fract_x
 _atom_site_fract_y
 _atom_site_fract_z
 _atom_site_occupancy
  Tm  Tm0  1  0.666667  0.333333  0.500000  1
  Lu  Lu1  1  0.333333  0.666667  0.000000  1
  Ni  Ni2  1  0.438126  0.063282  0.000000  1
  Ni  Ni3  1  0.625157  0.561874  0.000000  1
  Ni  Ni4  1  0.936718  0.374843  0.000000  1
  Ni  Ni5  1  0.158114  0.286309  0.000000  1
  Ni  Ni6  1  0.128195  0.841886  0.000000  1
  Ni  Ni7  1  0.713691  0.871805  0.000000  1
  Ni  Ni8  1  0.382671  0.435236  0.500000  1
  Ni  Ni9  1  0.052566  0.617329  0.500000  1
  Ni  Ni10  1  0.564764  0.947434  0.500000  1
  Ni  Ni11  1  0.243727  0.107287  0.500000  1
  Ni  Ni12  1  0.863561  0.756273  0.500000  1
  Ni  Ni13  1  0.892713  0.136439  0.500000  1
  As  As14  1  0.000000  0.000000  0.000000  1
  P  P15  1  0.407915  0.293370  0.000000  1
  P  P16  1  0.885456  0.592085  0.000000  1
  P  P17  1  0.706630  0.114544  0.000000  1
  P  P18  1  0.113958  0.409860  0.500000  1
  P  P19  1  0.295902  0.886042  0.500000  1
  P  P20  1  0.590140  0.704098  0.500000  1
