# generated using pymatgen
data_Tm4In2Hg3Rh
_symmetry_space_group_name_H-M   'P 1'
_cell_length_a   8.08798292
_cell_length_b   8.08798329
_cell_length_c   3.68434900
_cell_angle_alpha   90.00000000
_cell_angle_beta   90.00000000
_cell_angle_gamma   89.38438450
_symmetry_Int_Tables_number   1
_chemical_formula_structural   Tm4In2Hg3Rh
_chemical_formula_sum   'Tm4 In2 Hg3 Rh1'
_cell_volume   240.99951258
_cell_formula_units_Z   1
loop_
 _symmetry_equiv_pos_site_id
 _symmetry_equiv_pos_as_xyz
  1  'x, y, z'
loop_
 _atom_site_type_symbol
 _atom_site_label
 _atom_site_symmetry_multiplicity
 _atom_site_fract_x
 _atom_site_fract_y
 _atom_site_fract_z
 _atom_site_occupancy
  Tm  Tm0  1  0.134794  0.318199  0.500000  1
  Tm  Tm1  1  0.694581  0.194581  0.500000  1
  Tm  Tm2  1  0.818199  0.634794  0.500000  1
  Tm  Tm3  1  0.333319  0.833319  0.500000  1
  In  In4  1  0.997422  0.004310  0.000000  1
  In  In5  1  0.504310  0.497422  0.000000  1
  Hg  Hg6  1  0.127373  0.627373  0.000000  1
  Hg  Hg7  1  0.638852  0.878256  0.000000  1
  Hg  Hg8  1  0.378256  0.138852  0.000000  1
  Rh  Rh9  1  0.872895  0.372895  0.000000  1
