# generated using pymatgen
data_HoEr15Cd4Co3Ni
_symmetry_space_group_name_H-M   'P 1'
_cell_length_a   9.44830256
_cell_length_b   9.44211027
_cell_length_c   9.44211066
_cell_angle_alpha   59.93877054
_cell_angle_beta   60.02930091
_cell_angle_gamma   60.02930068
_symmetry_Int_Tables_number   1
_chemical_formula_structural   HoEr15Cd4Co3Ni
_chemical_formula_sum   'Ho1 Er15 Cd4 Co3 Ni1'
_cell_volume   595.61770726
_cell_formula_units_Z   1
loop_
 _symmetry_equiv_pos_site_id
 _symmetry_equiv_pos_as_xyz
  1  'x, y, z'
loop_
 _atom_site_type_symbol
 _atom_site_label
 _atom_site_symmetry_multiplicity
 _atom_site_fract_x
 _atom_site_fract_y
 _atom_site_fract_z
 _atom_site_occupancy
  Ho  Ho0  1  0.345382  0.348490  0.348490  1
  Er  Er1  1  0.344800  0.347502  0.959219  1
  Er  Er2  1  0.344800  0.959219  0.347502  1
  Er  Er3  1  0.961213  0.346170  0.346170  1
  Er  Er4  1  0.815163  0.188086  0.188086  1
  Er  Er5  1  0.187408  0.811941  0.811941  1
  Er  Er6  1  0.187010  0.812574  0.188425  1
  Er  Er7  1  0.815180  0.188606  0.808689  1
  Er  Er8  1  0.187010  0.188425  0.812574  1
  Er  Er9  1  0.815180  0.808689  0.188606  1
  Er  Er10  1  0.937115  0.562046  0.562046  1
  Er  Er11  1  0.561099  0.937765  0.937765  1
  Er  Er12  1  0.561263  0.937020  0.564047  1
  Er  Er13  1  0.936542  0.563017  0.937583  1
  Er  Er14  1  0.561263  0.564047  0.937020  1
  Er  Er15  1  0.936542  0.937583  0.563017  1
  Cd  Cd16  1  0.581304  0.580525  0.580525  1
  Cd  Cd17  1  0.580918  0.580439  0.258450  1
  Cd  Cd18  1  0.580918  0.258450  0.580439  1
  Cd  Cd19  1  0.256945  0.581172  0.581172  1
  Co  Co20  1  0.142072  0.140847  0.140847  1
  Co  Co21  1  0.142245  0.140749  0.575511  1
  Co  Co22  1  0.142245  0.575511  0.140749  1
  Ni  Ni23  1  0.576384  0.141131  0.141131  1
