# generated using pymatgen
data_NbGaOsRu
_symmetry_space_group_name_H-M   'P 1'
_cell_length_a   4.41078760
_cell_length_b   4.41078779
_cell_length_c   4.41078800
_cell_angle_alpha   59.99999842
_cell_angle_beta   59.99999702
_cell_angle_gamma   59.99999509
_symmetry_Int_Tables_number   1
_chemical_formula_structural   NbGaOsRu
_chemical_formula_sum   'Nb1 Ga1 Os1 Ru1'
_cell_volume   60.67830832
_cell_formula_units_Z   1
loop_
 _symmetry_equiv_pos_site_id
 _symmetry_equiv_pos_as_xyz
  1  'x, y, z'
loop_
 _atom_site_type_symbol
 _atom_site_label
 _atom_site_symmetry_multiplicity
 _atom_site_fract_x
 _atom_site_fract_y
 _atom_site_fract_z
 _atom_site_occupancy
  Nb  Nb0  1  0.000000  0.000000  0.000000  1
  Ga  Ga1  1  0.500000  0.500000  0.500000  1
  Os  Os2  1  0.750000  0.750000  0.750000  1
  Ru  Ru3  1  0.250000  0.250000  0.250000  1
