# generated using pymatgen
data_Np5Si12Rh19
_symmetry_space_group_name_H-M   'P 1'
_cell_length_a   12.79637200
_cell_length_b   12.79637180
_cell_length_c   3.96236800
_cell_angle_alpha   90.00000000
_cell_angle_beta   90.00000000
_cell_angle_gamma   120.00000051
_symmetry_Int_Tables_number   1
_chemical_formula_structural   Np5Si12Rh19
_chemical_formula_sum   'Np5 Si12 Rh19'
_cell_volume   561.90014492
_cell_formula_units_Z   1
loop_
 _symmetry_equiv_pos_site_id
 _symmetry_equiv_pos_as_xyz
  1  'x, y, z'
loop_
 _atom_site_type_symbol
 _atom_site_label
 _atom_site_symmetry_multiplicity
 _atom_site_fract_x
 _atom_site_fract_y
 _atom_site_fract_z
 _atom_site_occupancy
  Np  Np0  1  0.000000  0.184486  0.500000  1
  Np  Np1  1  0.815514  0.815514  0.500000  1
  Np  Np2  1  0.184486  0.000000  0.500000  1
  Np  Np3  1  0.666667  0.333333  0.000000  1
  Np  Np4  1  0.333333  0.666667  0.000000  1
  Si  Si5  1  0.479930  0.314700  0.500000  1
  Si  Si6  1  0.817739  0.000000  0.000000  1
  Si  Si7  1  0.182261  0.182261  0.000000  1
  Si  Si8  1  0.000000  0.817739  0.000000  1
  Si  Si9  1  0.371110  0.000000  0.000000  1
  Si  Si10  1  0.685300  0.165230  0.500000  1
  Si  Si11  1  0.834770  0.520070  0.500000  1
  Si  Si12  1  0.520070  0.834770  0.500000  1
  Si  Si13  1  0.165230  0.685300  0.500000  1
  Si  Si14  1  0.314700  0.479930  0.500000  1
  Si  Si15  1  0.000000  0.371110  0.000000  1
  Si  Si16  1  0.628890  0.628890  0.000000  1
  Rh  Rh17  1  0.808012  0.181747  0.000000  1
  Rh  Rh18  1  0.373735  0.191988  0.000000  1
  Rh  Rh19  1  0.641203  0.515259  0.500000  1
  Rh  Rh20  1  0.874055  0.358797  0.500000  1
  Rh  Rh21  1  0.358797  0.874055  0.500000  1
  Rh  Rh22  1  0.515259  0.641203  0.500000  1
  Rh  Rh23  1  0.125945  0.484741  0.500000  1
  Rh  Rh24  1  0.818253  0.626265  0.000000  1
  Rh  Rh25  1  0.626265  0.818253  0.000000  1
  Rh  Rh26  1  0.181747  0.808012  0.000000  1
  Rh  Rh27  1  0.191988  0.373735  0.000000  1
  Rh  Rh28  1  0.000000  0.719803  0.500000  1
  Rh  Rh29  1  0.280197  0.280197  0.500000  1
  Rh  Rh30  1  0.719803  0.000000  0.500000  1
  Rh  Rh31  1  0.000000  0.555398  0.000000  1
  Rh  Rh32  1  0.444602  0.444602  0.000000  1
  Rh  Rh33  1  0.555398  0.000000  0.000000  1
  Rh  Rh34  1  0.000000  0.000000  0.000000  1
  Rh  Rh35  1  0.484741  0.125945  0.500000  1
