# generated using pymatgen
data_Li4Ni3PdO8
_symmetry_space_group_name_H-M   'P 1'
_cell_length_a   5.87614347
_cell_length_b   5.87614336
_cell_length_c   5.87614313
_cell_angle_alpha   60.54449567
_cell_angle_beta   60.54449350
_cell_angle_gamma   60.54450778
_symmetry_Int_Tables_number   1
_chemical_formula_structural   Li4Ni3PdO8
_chemical_formula_sum   'Li4 Ni3 Pd1 O8'
_cell_volume   145.23532170
_cell_formula_units_Z   1
loop_
 _symmetry_equiv_pos_site_id
 _symmetry_equiv_pos_as_xyz
  1  'x, y, z'
loop_
 _atom_site_type_symbol
 _atom_site_label
 _atom_site_symmetry_multiplicity
 _atom_site_fract_x
 _atom_site_fract_y
 _atom_site_fract_z
 _atom_site_occupancy
  Li  Li0  1  0.500000  0.500000  0.500000  1
  Li  Li1  1  0.000000  0.500000  0.000000  1
  Li  Li2  1  0.000000  0.000000  0.500000  1
  Li  Li3  1  0.500000  0.000000  0.000000  1
  Ni  Ni4  1  0.500000  0.000000  0.500000  1
  Ni  Ni5  1  0.500000  0.500000  0.000000  1
  Ni  Ni6  1  0.000000  0.500000  0.500000  1
  Pd  Pd7  1  0.000000  0.000000  0.000000  1
  O  O8  1  0.263117  0.263117  0.263117  1
  O  O9  1  0.757639  0.246537  0.757639  1
  O  O10  1  0.757639  0.757639  0.246537  1
  O  O11  1  0.736883  0.736883  0.736883  1
  O  O12  1  0.246537  0.757639  0.757639  1
  O  O13  1  0.242361  0.753463  0.242361  1
  O  O14  1  0.242361  0.242361  0.753463  1
  O  O15  1  0.753463  0.242361  0.242361  1
