# generated using pymatgen
data_Ac2ZrS5
_symmetry_space_group_name_H-M   'P 1'
_cell_length_a   7.59662400
_cell_length_b   8.45031500
_cell_length_c   11.79914100
_cell_angle_alpha   90.00000000
_cell_angle_beta   90.00000000
_cell_angle_gamma   90.00000000
_symmetry_Int_Tables_number   1
_chemical_formula_structural   Ac2ZrS5
_chemical_formula_sum   'Ac8 Zr4 S20'
_cell_volume   757.43247316
_cell_formula_units_Z   4
loop_
 _symmetry_equiv_pos_site_id
 _symmetry_equiv_pos_as_xyz
  1  'x, y, z'
loop_
 _atom_site_type_symbol
 _atom_site_label
 _atom_site_symmetry_multiplicity
 _atom_site_fract_x
 _atom_site_fract_y
 _atom_site_fract_z
 _atom_site_occupancy
  Ac  Ac0  1  0.560130  0.002560  0.328658  1
  Ac  Ac1  1  0.939870  0.497440  0.828658  1
  Ac  Ac2  1  0.439870  0.502560  0.671342  1
  Ac  Ac3  1  0.060130  0.997440  0.171342  1
  Ac  Ac4  1  0.439870  0.997440  0.671342  1
  Ac  Ac5  1  0.060130  0.502560  0.171342  1
  Ac  Ac6  1  0.560130  0.497440  0.328658  1
  Ac  Ac7  1  0.939870  0.002560  0.828658  1
  Zr  Zr8  1  0.572743  0.750000  0.009395  1
  Zr  Zr9  1  0.927257  0.750000  0.509395  1
  Zr  Zr10  1  0.427257  0.250000  0.990605  1
  Zr  Zr11  1  0.072743  0.250000  0.490605  1
  S  S12  1  0.844496  0.750000  0.295855  1
  S  S13  1  0.655504  0.750000  0.795855  1
  S  S14  1  0.155504  0.250000  0.704145  1
  S  S15  1  0.344496  0.250000  0.204145  1
  S  S16  1  0.674737  0.031875  0.070519  1
  S  S17  1  0.825263  0.468125  0.570519  1
  S  S18  1  0.325263  0.531875  0.929481  1
  S  S19  1  0.174737  0.968125  0.429481  1
  S  S20  1  0.325263  0.968125  0.929481  1
  S  S21  1  0.174737  0.531875  0.429481  1
  S  S22  1  0.674737  0.468125  0.070519  1
  S  S23  1  0.825263  0.031875  0.570519  1
  S  S24  1  0.365283  0.750000  0.189552  1
  S  S25  1  0.134717  0.750000  0.689552  1
  S  S26  1  0.634717  0.250000  0.810448  1
  S  S27  1  0.865283  0.250000  0.310448  1
  S  S28  1  0.935820  0.750000  0.005981  1
  S  S29  1  0.564180  0.750000  0.505981  1
  S  S30  1  0.064180  0.250000  0.994019  1
  S  S31  1  0.435820  0.250000  0.494019  1
