# generated using pymatgen
data_Lu2Al9Co2Pt
_symmetry_space_group_name_H-M   'P 1'
_cell_length_a   7.43364622
_cell_length_b   7.43364650
_cell_length_c   9.26418600
_cell_angle_alpha   90.00000000
_cell_angle_beta   90.00000000
_cell_angle_gamma   119.60422221
_symmetry_Int_Tables_number   1
_chemical_formula_structural   Lu2Al9Co2Pt
_chemical_formula_sum   'Lu4 Al18 Co4 Pt2'
_cell_volume   445.10239461
_cell_formula_units_Z   2
loop_
 _symmetry_equiv_pos_site_id
 _symmetry_equiv_pos_as_xyz
  1  'x, y, z'
loop_
 _atom_site_type_symbol
 _atom_site_label
 _atom_site_symmetry_multiplicity
 _atom_site_fract_x
 _atom_site_fract_y
 _atom_site_fract_z
 _atom_site_occupancy
  Lu  Lu0  1  0.993621  0.669615  0.250307  1
  Lu  Lu1  1  0.006379  0.330385  0.750307  1
  Lu  Lu2  1  0.669615  0.993621  0.249693  1
  Lu  Lu3  1  0.330385  0.006379  0.749693  1
  Al  Al4  1  0.118582  0.118582  0.250000  1
  Al  Al5  1  0.881418  0.881418  0.750000  1
  Al  Al6  1  0.329974  0.324006  0.548406  1
  Al  Al7  1  0.670026  0.675994  0.048406  1
  Al  Al8  1  0.324006  0.329974  0.951594  1
  Al  Al9  1  0.675994  0.670026  0.451594  1
  Al  Al10  1  0.340933  0.550483  0.241886  1
  Al  Al11  1  0.659067  0.449517  0.741886  1
  Al  Al12  1  0.550483  0.340933  0.258114  1
  Al  Al13  1  0.449517  0.659067  0.758114  1
  Al  Al14  1  0.005450  0.334066  0.074154  1
  Al  Al15  1  0.994550  0.665934  0.574154  1
  Al  Al16  1  0.334066  0.005450  0.425846  1
  Al  Al17  1  0.665934  0.994550  0.925846  1
  Al  Al18  1  0.011131  0.673779  0.925604  1
  Al  Al19  1  0.988869  0.326221  0.425604  1
  Al  Al20  1  0.673779  0.011131  0.574396  1
  Al  Al21  1  0.326221  0.988869  0.074396  1
  Co  Co22  1  0.000186  0.999814  0.000000  1
  Co  Co23  1  0.999814  0.000186  0.500000  1
  Co  Co24  1  0.328688  0.671312  0.000000  1
  Co  Co25  1  0.671312  0.328688  0.500000  1
  Pt  Pt26  1  0.672420  0.327580  0.000000  1
  Pt  Pt27  1  0.327580  0.672420  0.500000  1
