# generated using pymatgen
data_Dy3Lu5Re2(B12Os)2
_symmetry_space_group_name_H-M   'P 1'
_cell_length_a   3.62781500
_cell_length_b   9.08203742
_cell_length_c   11.46730301
_cell_angle_alpha   90.12540087
_cell_angle_beta   90.00000000
_cell_angle_gamma   90.00000000
_symmetry_Int_Tables_number   1
_chemical_formula_structural   Dy3Lu5Re2(B12Os)2
_chemical_formula_sum   'Dy3 Lu5 Re2 B24 Os2'
_cell_volume   377.82323930
_cell_formula_units_Z   1
loop_
 _symmetry_equiv_pos_site_id
 _symmetry_equiv_pos_as_xyz
  1  'x, y, z'
loop_
 _atom_site_type_symbol
 _atom_site_label
 _atom_site_symmetry_multiplicity
 _atom_site_fract_x
 _atom_site_fract_y
 _atom_site_fract_z
 _atom_site_occupancy
  Dy  Dy0  1  0.000000  0.320128  0.412503  1
  Dy  Dy1  1  0.000000  0.679799  0.587626  1
  Dy  Dy2  1  0.000000  0.823788  0.084751  1
  Lu  Lu3  1  0.000000  0.175809  0.915557  1
  Lu  Lu4  1  0.000000  0.943815  0.370714  1
  Lu  Lu5  1  0.000000  0.056518  0.629360  1
  Lu  Lu6  1  0.000000  0.442512  0.128044  1
  Lu  Lu7  1  0.000000  0.557009  0.871617  1
  Re  Re8  1  0.000000  0.139109  0.179652  1
  Re  Re9  1  0.000000  0.861880  0.819998  1
  B  B10  1  0.500000  0.553931  0.432850  1
  B  B11  1  0.500000  0.445782  0.567423  1
  B  B12  1  0.500000  0.053772  0.066281  1
  B  B13  1  0.500000  0.947640  0.932929  1
  B  B14  1  0.500000  0.750383  0.418540  1
  B  B15  1  0.500000  0.249595  0.581843  1
  B  B16  1  0.500000  0.250062  0.079959  1
  B  B17  1  0.500000  0.750032  0.918764  1
  B  B18  1  0.500000  0.791618  0.265573  1
  B  B19  1  0.500000  0.208000  0.735230  1
  B  B20  1  0.500000  0.292488  0.234161  1
  B  B21  1  0.500000  0.707631  0.765443  1
  B  B22  1  0.500000  0.629879  0.185110  1
  B  B23  1  0.500000  0.369144  0.815492  1
  B  B24  1  0.500000  0.130461  0.315306  1
  B  B25  1  0.500000  0.870038  0.684709  1
  B  B26  1  0.500000  0.982115  0.212885  1
  B  B27  1  0.500000  0.019235  0.787395  1
  B  B28  1  0.500000  0.482260  0.287078  1
  B  B29  1  0.500000  0.517312  0.713089  1
  B  B30  1  0.500000  0.600601  0.027973  1
  B  B31  1  0.500000  0.397861  0.971471  1
  B  B32  1  0.500000  0.100679  0.472489  1
  B  B33  1  0.500000  0.899522  0.527632  1
  Os  Os34  1  0.000000  0.638277  0.320866  1
  Os  Os35  1  0.000000  0.361313  0.679686  1
