# generated using pymatgen
data_Eu8Y11MgSn16
_symmetry_space_group_name_H-M   'P 1'
_cell_length_a   8.08681100
_cell_length_b   8.30557172
_cell_length_c   15.73444200
_cell_angle_alpha   90.00000000
_cell_angle_beta   90.00000000
_cell_angle_gamma   89.86599700
_symmetry_Int_Tables_number   1
_chemical_formula_structural   Eu8Y11MgSn16
_chemical_formula_sum   'Eu8 Y11 Mg1 Sn16'
_cell_volume   1056.81016960
_cell_formula_units_Z   1
loop_
 _symmetry_equiv_pos_site_id
 _symmetry_equiv_pos_as_xyz
  1  'x, y, z'
loop_
 _atom_site_type_symbol
 _atom_site_label
 _atom_site_symmetry_multiplicity
 _atom_site_fract_x
 _atom_site_fract_y
 _atom_site_fract_z
 _atom_site_occupancy
  Eu  Eu0  1  0.495623  0.325337  0.905940  1
  Eu  Eu1  1  0.999277  0.182067  0.594725  1
  Eu  Eu2  1  0.502436  0.675800  0.407437  1
  Eu  Eu3  1  0.001353  0.825309  0.092556  1
  Eu  Eu4  1  0.502436  0.675800  0.092563  1
  Eu  Eu5  1  0.001353  0.825309  0.407444  1
  Eu  Eu6  1  0.495623  0.325337  0.594060  1
  Eu  Eu7  1  0.999277  0.182067  0.905275  1
  Y  Y8  1  0.327766  0.829369  0.874622  1
  Y  Y9  1  0.835812  0.663368  0.625742  1
  Y  Y10  1  0.669558  0.165741  0.377230  1
  Y  Y11  1  0.170063  0.331010  0.123643  1
  Y  Y12  1  0.669558  0.165741  0.122770  1
  Y  Y13  1  0.170063  0.331010  0.376357  1
  Y  Y14  1  0.327766  0.829369  0.625378  1
  Y  Y15  1  0.835812  0.663368  0.874258  1
  Y  Y16  1  0.662493  0.003590  0.750000  1
  Y  Y17  1  0.833161  0.506135  0.250000  1
  Y  Y18  1  0.333677  0.991908  0.250000  1
  Mg  Mg19  1  0.166356  0.493664  0.750000  1
  Sn  Sn20  1  0.334569  0.036669  0.040731  1
  Sn  Sn21  1  0.833889  0.463119  0.457927  1
  Sn  Sn22  1  0.667825  0.962017  0.543533  1
  Sn  Sn23  1  0.167354  0.540214  0.960199  1
  Sn  Sn24  1  0.667825  0.962017  0.956467  1
  Sn  Sn25  1  0.167354  0.540214  0.539801  1
  Sn  Sn26  1  0.334569  0.036669  0.459269  1
  Sn  Sn27  1  0.833889  0.463119  0.042073  1
  Sn  Sn28  1  0.529231  0.617679  0.750000  1
  Sn  Sn29  1  0.028321  0.889756  0.750000  1
  Sn  Sn30  1  0.469465  0.378470  0.250000  1
  Sn  Sn31  1  0.968781  0.120325  0.250000  1
  Sn  Sn32  1  0.298599  0.138266  0.750000  1
  Sn  Sn33  1  0.794875  0.361903  0.750000  1
  Sn  Sn34  1  0.701523  0.863842  0.250000  1
  Sn  Sn35  1  0.202470  0.634427  0.250000  1
