# generated using pymatgen
data_Rb8Tb6BBr20
_symmetry_space_group_name_H-M   'P 1'
_cell_length_a   12.28934884
_cell_length_b   12.28934843
_cell_length_c   12.28870200
_cell_angle_alpha   60.00174000
_cell_angle_beta   60.00174111
_cell_angle_gamma   59.99651999
_symmetry_Int_Tables_number   1
_chemical_formula_structural   Rb8Tb6BBr20
_chemical_formula_sum   'Rb8 Tb6 B1 Br20'
_cell_volume   1312.34719041
_cell_formula_units_Z   1
loop_
 _symmetry_equiv_pos_site_id
 _symmetry_equiv_pos_as_xyz
  1  'x, y, z'
loop_
 _atom_site_type_symbol
 _atom_site_label
 _atom_site_symmetry_multiplicity
 _atom_site_fract_x
 _atom_site_fract_y
 _atom_site_fract_z
 _atom_site_occupancy
  Rb  Rb0  1  0.359139  0.359139  0.359140  1
  Rb  Rb1  1  0.640861  0.640861  0.640860  1
  Rb  Rb2  1  0.359139  0.359139  0.922583  1
  Rb  Rb3  1  0.359140  0.922583  0.359139  1
  Rb  Rb4  1  0.640861  0.640861  0.077417  1
  Rb  Rb5  1  0.640860  0.077417  0.640861  1
  Rb  Rb6  1  0.922583  0.359140  0.359139  1
  Rb  Rb7  1  0.077417  0.640860  0.640861  1
  Tb  Tb8  1  0.847632  0.152368  0.152368  1
  Tb  Tb9  1  0.152368  0.847632  0.847632  1
  Tb  Tb10  1  0.152368  0.847632  0.152368  1
  Tb  Tb11  1  0.847632  0.152368  0.847632  1
  Tb  Tb12  1  0.152374  0.152374  0.847626  1
  Tb  Tb13  1  0.847626  0.847626  0.152374  1
  B  B14  1  0.000000  0.000000  0.000000  1
  Br  Br15  1  0.330413  0.999998  0.000002  1
  Br  Br16  1  0.669587  0.000002  0.999998  1
  Br  Br17  1  0.999998  0.330413  0.669587  1
  Br  Br18  1  0.000002  0.669587  0.330413  1
  Br  Br19  1  0.999998  0.330413  0.000002  1
  Br  Br20  1  0.669587  0.000002  0.330413  1
  Br  Br21  1  0.000002  0.669587  0.999998  1
  Br  Br22  1  0.330413  0.999998  0.669587  1
  Br  Br23  1  0.000000  0.000000  0.330410  1
  Br  Br24  1  0.000000  0.000000  0.669590  1
  Br  Br25  1  0.669590  0.330410  0.000000  1
  Br  Br26  1  0.330410  0.669590  0.000000  1
  Br  Br27  1  0.679330  0.320670  0.320670  1
  Br  Br28  1  0.320670  0.679330  0.679330  1
  Br  Br29  1  0.320670  0.679330  0.320670  1
  Br  Br30  1  0.679330  0.320670  0.679330  1
  Br  Br31  1  0.320672  0.320672  0.679328  1
  Br  Br32  1  0.679328  0.679328  0.320672  1
  Br  Br33  1  0.250000  0.250000  0.250000  1
  Br  Br34  1  0.750000  0.750000  0.750000  1
