# generated using pymatgen
data_CaYb4Pb3F
_symmetry_space_group_name_H-M   'P 1'
_cell_length_a   9.42301277
_cell_length_b   9.42301245
_cell_length_c   9.42301118
_cell_angle_alpha   127.75817419
_cell_angle_beta   127.75816908
_cell_angle_gamma   77.01711207
_symmetry_Int_Tables_number   1
_chemical_formula_structural   CaYb4Pb3F
_chemical_formula_sum   'Ca2 Yb8 Pb6 F2'
_cell_volume   507.63805016
_cell_formula_units_Z   2
loop_
 _symmetry_equiv_pos_site_id
 _symmetry_equiv_pos_as_xyz
  1  'x, y, z'
loop_
 _atom_site_type_symbol
 _atom_site_label
 _atom_site_symmetry_multiplicity
 _atom_site_fract_x
 _atom_site_fract_y
 _atom_site_fract_z
 _atom_site_occupancy
  Ca  Ca0  1  0.500000  0.500000  0.000000  1
  Ca  Ca1  1  0.000000  0.000000  0.000000  1
  Yb  Yb2  1  0.502094  0.002094  0.811459  1
  Yb  Yb3  1  0.190635  0.690635  0.188541  1
  Yb  Yb4  1  0.002094  0.190635  0.500000  1
  Yb  Yb5  1  0.690635  0.502094  0.500000  1
  Yb  Yb6  1  0.497906  0.997906  0.188541  1
  Yb  Yb7  1  0.809365  0.309365  0.811459  1
  Yb  Yb8  1  0.997906  0.809365  0.500000  1
  Yb  Yb9  1  0.309365  0.497906  0.500000  1
  Pb  Pb10  1  0.250000  0.250000  0.000000  1
  Pb  Pb11  1  0.750000  0.750000  0.000000  1
  Pb  Pb12  1  0.865871  0.365871  0.231743  1
  Pb  Pb13  1  0.134129  0.634129  0.768258  1
  Pb  Pb14  1  0.365871  0.134129  0.500000  1
  Pb  Pb15  1  0.634129  0.865871  0.500000  1
  F  F16  1  0.250000  0.750000  0.500000  1
  F  F17  1  0.750000  0.250000  0.500000  1
