# generated using pymatgen
data_LiPr8Sc10Si16Hg
_symmetry_space_group_name_H-M   'P 1'
_cell_length_a   7.18730586
_cell_length_b   7.58577298
_cell_length_c   14.30911200
_cell_angle_alpha   90.00000000
_cell_angle_beta   90.00000000
_cell_angle_gamma   90.12625446
_symmetry_Int_Tables_number   1
_chemical_formula_structural   LiPr8Sc10Si16Hg
_chemical_formula_sum   'Li1 Pr8 Sc10 Si16 Hg1'
_cell_volume   780.14907363
_cell_formula_units_Z   1
loop_
 _symmetry_equiv_pos_site_id
 _symmetry_equiv_pos_as_xyz
  1  'x, y, z'
loop_
 _atom_site_type_symbol
 _atom_site_label
 _atom_site_symmetry_multiplicity
 _atom_site_fract_x
 _atom_site_fract_y
 _atom_site_fract_z
 _atom_site_occupancy
  Li  Li0  1  0.845445  0.503549  0.250000  1
  Pr  Pr1  1  0.009996  0.180543  0.399986  1
  Pr  Pr2  1  0.517369  0.330738  0.398472  1
  Pr  Pr3  1  0.492477  0.680291  0.900334  1
  Pr  Pr4  1  0.492477  0.680291  0.599666  1
  Pr  Pr5  1  0.981038  0.829760  0.601867  1
  Pr  Pr6  1  0.981038  0.829760  0.898133  1
  Pr  Pr7  1  0.517369  0.330738  0.101528  1
  Pr  Pr8  1  0.009996  0.180543  0.100014  1
  Sc  Sc9  1  0.336713  0.174899  0.624039  1
  Sc  Sc10  1  0.673443  0.813801  0.373561  1
  Sc  Sc11  1  0.163868  0.673444  0.374677  1
  Sc  Sc12  1  0.825649  0.313961  0.875140  1
  Sc  Sc13  1  0.825649  0.313961  0.624860  1
  Sc  Sc14  1  0.340919  0.995640  0.250000  1
  Sc  Sc15  1  0.336713  0.174899  0.875961  1
  Sc  Sc16  1  0.163868  0.673444  0.125323  1
  Sc  Sc17  1  0.673443  0.813801  0.126439  1
  Sc  Sc18  1  0.158780  0.495962  0.750000  1
  Si  Si19  1  0.273712  0.882173  0.750000  1
  Si  Si20  1  0.457463  0.624893  0.250000  1
  Si  Si21  1  0.049428  0.127861  0.750000  1
  Si  Si22  1  0.529797  0.390602  0.750000  1
  Si  Si23  1  0.152938  0.466665  0.541416  1
  Si  Si24  1  0.968114  0.883748  0.250000  1
  Si  Si25  1  0.709687  0.098951  0.250000  1
  Si  Si26  1  0.848887  0.539097  0.032377  1
  Si  Si27  1  0.346020  0.964537  0.040545  1
  Si  Si28  1  0.152938  0.466665  0.958584  1
  Si  Si29  1  0.653171  0.041696  0.527062  1
  Si  Si30  1  0.346020  0.964537  0.459455  1
  Si  Si31  1  0.848887  0.539097  0.467623  1
  Si  Si32  1  0.794192  0.591065  0.750000  1
  Si  Si33  1  0.217233  0.387035  0.250000  1
  Si  Si34  1  0.653171  0.041696  0.972938  1
  Hg  Hg35  1  0.652095  0.999659  0.750000  1
