# generated using pymatgen
data_Tb3Dy2LuFeTe2
_symmetry_space_group_name_H-M   'P 1'
_cell_length_a   8.28569641
_cell_length_b   8.34265511
_cell_length_c   3.98459600
_cell_angle_alpha   90.00000000
_cell_angle_beta   90.00000000
_cell_angle_gamma   120.22766743
_symmetry_Int_Tables_number   1
_chemical_formula_structural   Tb3Dy2LuFeTe2
_chemical_formula_sum   'Tb3 Dy2 Lu1 Fe1 Te2'
_cell_volume   237.98376293
_cell_formula_units_Z   1
loop_
 _symmetry_equiv_pos_site_id
 _symmetry_equiv_pos_as_xyz
  1  'x, y, z'
loop_
 _atom_site_type_symbol
 _atom_site_label
 _atom_site_symmetry_multiplicity
 _atom_site_fract_x
 _atom_site_fract_y
 _atom_site_fract_z
 _atom_site_occupancy
  Tb  Tb0  1  0.604992  0.000328  0.500000  1
  Tb  Tb1  1  0.395008  0.395337  0.500000  1
  Tb  Tb2  1  0.000000  0.601045  0.500000  1
  Dy  Dy3  1  0.765398  0.765180  0.000000  1
  Dy  Dy4  1  0.234602  0.999782  0.000000  1
  Lu  Lu5  1  0.000000  0.233211  0.000000  1
  Fe  Fe6  1  0.000000  0.006582  0.500000  1
  Te  Te7  1  0.330863  0.664699  0.000000  1
  Te  Te8  1  0.669137  0.333836  0.000000  1
