# generated using pymatgen
data_Nd6Tc16N
_symmetry_space_group_name_H-M   'P 1'
_cell_length_a   8.18504703
_cell_length_b   8.18504735
_cell_length_c   8.18504700
_cell_angle_alpha   109.47122720
_cell_angle_beta   109.47122797
_cell_angle_gamma   109.47121252
_symmetry_Int_Tables_number   1
_chemical_formula_structural   Nd6Tc16N
_chemical_formula_sum   'Nd6 Tc16 N1'
_cell_volume   422.12554191
_cell_formula_units_Z   1
loop_
 _symmetry_equiv_pos_site_id
 _symmetry_equiv_pos_as_xyz
  1  'x, y, z'
loop_
 _atom_site_type_symbol
 _atom_site_label
 _atom_site_symmetry_multiplicity
 _atom_site_fract_x
 _atom_site_fract_y
 _atom_site_fract_z
 _atom_site_occupancy
  Nd  Nd0  1  0.736849  0.736849  0.000000  1
  Nd  Nd1  1  0.263150  0.000000  0.263151  1
  Nd  Nd2  1  0.736849  0.000000  0.736849  1
  Nd  Nd3  1  0.000000  0.736849  0.736850  1
  Nd  Nd4  1  0.000000  0.263150  0.263151  1
  Nd  Nd5  1  0.263150  0.263150  0.000000  1
  Tc  Tc6  1  0.000000  0.500000  0.000000  1
  Tc  Tc7  1  0.500000  0.000000  0.000000  1
  Tc  Tc8  1  0.000000  0.000000  0.500000  1
  Tc  Tc9  1  0.500000  0.500000  0.500000  1
  Tc  Tc10  1  0.339153  0.339153  0.678306  1
  Tc  Tc11  1  0.660847  0.660847  0.321694  1
  Tc  Tc12  1  0.000000  0.339153  0.660847  1
  Tc  Tc13  1  0.321694  0.660847  0.660847  1
  Tc  Tc14  1  0.660847  0.321694  0.660847  1
  Tc  Tc15  1  0.339153  0.000000  0.660847  1
  Tc  Tc16  1  0.660847  0.339153  0.000000  1
  Tc  Tc17  1  0.339153  0.660847  0.000000  1
  Tc  Tc18  1  0.339153  0.678306  0.339153  1
  Tc  Tc19  1  0.000000  0.660847  0.339153  1
  Tc  Tc20  1  0.660847  0.000000  0.339153  1
  Tc  Tc21  1  0.678306  0.339153  0.339153  1
  N  N22  1  0.000000  0.000000  0.000000  1
