# generated using pymatgen
data_CeTa8MnS16
_symmetry_space_group_name_H-M   'P 1'
_cell_length_a   6.65586600
_cell_length_b   6.65586647
_cell_length_c   13.33155800
_cell_angle_alpha   90.00000000
_cell_angle_beta   90.00000000
_cell_angle_gamma   120.00000763
_symmetry_Int_Tables_number   1
_chemical_formula_structural   CeTa8MnS16
_chemical_formula_sum   'Ce1 Ta8 Mn1 S16'
_cell_volume   511.47059993
_cell_formula_units_Z   1
loop_
 _symmetry_equiv_pos_site_id
 _symmetry_equiv_pos_as_xyz
  1  'x, y, z'
loop_
 _atom_site_type_symbol
 _atom_site_label
 _atom_site_symmetry_multiplicity
 _atom_site_fract_x
 _atom_site_fract_y
 _atom_site_fract_z
 _atom_site_occupancy
  Ce  Ce0  1  0.000000  0.000000  0.500000  1
  Ta  Ta1  1  0.505407  0.494593  0.768642  1
  Ta  Ta2  1  0.010812  0.505407  0.231358  1
  Ta  Ta3  1  0.494593  0.989188  0.231358  1
  Ta  Ta4  1  0.505407  0.010812  0.768642  1
  Ta  Ta5  1  0.989188  0.494593  0.768642  1
  Ta  Ta6  1  0.494593  0.505407  0.231358  1
  Ta  Ta7  1  0.000000  0.000000  0.767703  1
  Ta  Ta8  1  0.000000  0.000000  0.232297  1
  Mn  Mn9  1  0.000000  0.000000  0.000000  1
  S  S10  1  0.831346  0.168654  0.349213  1
  S  S11  1  0.831346  0.662692  0.349213  1
  S  S12  1  0.337308  0.168654  0.349213  1
  S  S13  1  0.662429  0.831214  0.885354  1
  S  S14  1  0.168654  0.337308  0.650787  1
  S  S15  1  0.168786  0.831214  0.885354  1
  S  S16  1  0.168786  0.337571  0.885354  1
  S  S17  1  0.831214  0.168786  0.114646  1
  S  S18  1  0.337571  0.168786  0.114646  1
  S  S19  1  0.662692  0.831346  0.650787  1
  S  S20  1  0.333333  0.666667  0.111738  1
  S  S21  1  0.666667  0.333333  0.646789  1
  S  S22  1  0.666667  0.333333  0.888262  1
  S  S23  1  0.333333  0.666667  0.353211  1
  S  S24  1  0.831214  0.662429  0.114646  1
  S  S25  1  0.168654  0.831346  0.650787  1
