# generated using pymatgen
data_Er3Ti(P3Rh4)2
_symmetry_space_group_name_H-M   'P 1'
_cell_length_a   3.90815700
_cell_length_b   11.16369700
_cell_length_c   12.81136400
_cell_angle_alpha   90.00000000
_cell_angle_beta   90.00000000
_cell_angle_gamma   90.00000000
_symmetry_Int_Tables_number   1
_chemical_formula_structural   Er3Ti(P3Rh4)2
_chemical_formula_sum   'Er6 Ti2 P12 Rh16'
_cell_volume   558.95315680
_cell_formula_units_Z   2
loop_
 _symmetry_equiv_pos_site_id
 _symmetry_equiv_pos_as_xyz
  1  'x, y, z'
loop_
 _atom_site_type_symbol
 _atom_site_label
 _atom_site_symmetry_multiplicity
 _atom_site_fract_x
 _atom_site_fract_y
 _atom_site_fract_z
 _atom_site_occupancy
  Er  Er0  1  0.750000  0.250000  0.478758  1
  Er  Er1  1  0.250000  0.750000  0.521242  1
  Er  Er2  1  0.250000  0.931546  0.798139  1
  Er  Er3  1  0.250000  0.568454  0.798139  1
  Er  Er4  1  0.750000  0.068454  0.201861  1
  Er  Er5  1  0.750000  0.431546  0.201861  1
  Ti  Ti6  1  0.250000  0.250000  0.841653  1
  Ti  Ti7  1  0.750000  0.750000  0.158347  1
  P  P8  1  0.250000  0.250000  0.121519  1
  P  P9  1  0.750000  0.750000  0.878481  1
  P  P10  1  0.250000  0.250000  0.647691  1
  P  P11  1  0.750000  0.750000  0.352309  1
  P  P12  1  0.250000  0.436135  0.382573  1
  P  P13  1  0.250000  0.063865  0.382573  1
  P  P14  1  0.750000  0.563865  0.617427  1
  P  P15  1  0.750000  0.936135  0.617427  1
  P  P16  1  0.250000  0.904976  0.111935  1
  P  P17  1  0.250000  0.595024  0.111935  1
  P  P18  1  0.750000  0.095024  0.888065  1
  P  P19  1  0.750000  0.404976  0.888065  1
  Rh  Rh20  1  0.250000  0.250000  0.299937  1
  Rh  Rh21  1  0.750000  0.750000  0.700063  1
  Rh  Rh22  1  0.750000  0.250000  0.015101  1
  Rh  Rh23  1  0.250000  0.750000  0.984899  1
  Rh  Rh24  1  0.250000  0.418090  0.008747  1
  Rh  Rh25  1  0.250000  0.081910  0.008747  1
  Rh  Rh26  1  0.750000  0.581910  0.991253  1
  Rh  Rh27  1  0.750000  0.918090  0.991253  1
  Rh  Rh28  1  0.250000  0.456316  0.568025  1
  Rh  Rh29  1  0.250000  0.043684  0.568025  1
  Rh  Rh30  1  0.750000  0.543684  0.431975  1
  Rh  Rh31  1  0.750000  0.956316  0.431975  1
  Rh  Rh32  1  0.250000  0.876430  0.291889  1
  Rh  Rh33  1  0.250000  0.623570  0.291889  1
  Rh  Rh34  1  0.750000  0.123570  0.708111  1
  Rh  Rh35  1  0.750000  0.376430  0.708111  1
