# generated using pymatgen
data_La5Pr3CdHgIr2
_symmetry_space_group_name_H-M   'P 1'
_cell_length_a   10.08205926
_cell_length_b   10.08205940
_cell_length_c   10.09418900
_cell_angle_alpha   59.96020405
_cell_angle_beta   59.96020358
_cell_angle_gamma   59.98090142
_symmetry_Int_Tables_number   1
_chemical_formula_structural   La5Pr3CdHgIr2
_chemical_formula_sum   'La10 Pr6 Cd2 Hg2 Ir4'
_cell_volume   724.98794396
_cell_formula_units_Z   2
loop_
 _symmetry_equiv_pos_site_id
 _symmetry_equiv_pos_as_xyz
  1  'x, y, z'
loop_
 _atom_site_type_symbol
 _atom_site_label
 _atom_site_symmetry_multiplicity
 _atom_site_fract_x
 _atom_site_fract_y
 _atom_site_fract_z
 _atom_site_occupancy
  La  La0  1  0.347393  0.347393  0.346990  1
  La  La1  1  0.347393  0.347393  0.958222  1
  La  La2  1  0.348687  0.954752  0.348280  1
  La  La3  1  0.954752  0.348687  0.348280  1
  La  La4  1  0.808559  0.190366  0.192242  1
  La  La5  1  0.190366  0.808559  0.808832  1
  La  La6  1  0.190366  0.808559  0.192242  1
  La  La7  1  0.808559  0.190366  0.808832  1
  La  La8  1  0.189599  0.189599  0.810401  1
  La  La9  1  0.806875  0.806875  0.193125  1
  Pr  Pr10  1  0.938067  0.561779  0.563148  1
  Pr  Pr11  1  0.561779  0.938067  0.937005  1
  Pr  Pr12  1  0.561779  0.938067  0.563148  1
  Pr  Pr13  1  0.938067  0.561779  0.937005  1
  Pr  Pr14  1  0.562374  0.562374  0.937626  1
  Pr  Pr15  1  0.937217  0.937217  0.562783  1
  Cd  Cd16  1  0.579226  0.260377  0.580199  1
  Cd  Cd17  1  0.260377  0.579226  0.580199  1
  Hg  Hg18  1  0.583318  0.583318  0.585476  1
  Hg  Hg19  1  0.583318  0.583318  0.247888  1
  Ir  Ir20  1  0.141394  0.141394  0.140014  1
  Ir  Ir21  1  0.141394  0.141394  0.577197  1
  Ir  Ir22  1  0.141544  0.577592  0.140432  1
  Ir  Ir23  1  0.577592  0.141544  0.140432  1
