# generated using pymatgen
data_Sr6Fe2NiO12
_symmetry_space_group_name_H-M   'P 1'
_cell_length_a   8.71048347
_cell_length_b   8.71048368
_cell_length_c   6.82196899
_cell_angle_alpha   67.48330247
_cell_angle_beta   67.48330284
_cell_angle_gamma   36.82256942
_symmetry_Int_Tables_number   1
_chemical_formula_structural   Sr6Fe2NiO12
_chemical_formula_sum   'Sr6 Fe2 Ni1 O12'
_cell_volume   283.82769567
_cell_formula_units_Z   1
loop_
 _symmetry_equiv_pos_site_id
 _symmetry_equiv_pos_as_xyz
  1  'x, y, z'
loop_
 _atom_site_type_symbol
 _atom_site_label
 _atom_site_symmetry_multiplicity
 _atom_site_fract_x
 _atom_site_fract_y
 _atom_site_fract_z
 _atom_site_occupancy
  Sr  Sr0  1  0.211393  0.211393  0.715155  1
  Sr  Sr1  1  0.883005  0.883005  0.714914  1
  Sr  Sr2  1  0.547431  0.547431  0.717261  1
  Sr  Sr3  1  0.788607  0.788607  0.284845  1
  Sr  Sr4  1  0.452569  0.452569  0.282739  1
  Sr  Sr5  1  0.116995  0.116995  0.285086  1
  Fe  Fe6  1  0.666482  0.666482  0.000524  1
  Fe  Fe7  1  0.333518  0.333518  0.999476  1
  Ni  Ni8  1  0.000000  0.000000  0.000000  1
  O  O9  1  0.279984  0.279984  0.313890  1
  O  O10  1  0.946850  0.946850  0.318022  1
  O  O11  1  0.615485  0.615485  0.314244  1
  O  O12  1  0.720016  0.720016  0.686110  1
  O  O13  1  0.384515  0.384515  0.685756  1
  O  O14  1  0.053150  0.053150  0.681978  1
  O  O15  1  0.000000  0.500000  0.000000  1
  O  O16  1  0.661419  0.169220  0.999903  1
  O  O17  1  0.338581  0.830780  0.000097  1
  O  O18  1  0.500000  0.000000  0.000000  1
  O  O19  1  0.169220  0.661419  0.999903  1
  O  O20  1  0.830780  0.338581  0.000097  1
