# generated using pymatgen
data_Li4LaYb3Pd4
_symmetry_space_group_name_H-M   'P 1'
_cell_length_a   7.19134478
_cell_length_b   4.02526300
_cell_length_c   8.46195700
_cell_angle_alpha   90.00000000
_cell_angle_beta   89.94121707
_cell_angle_gamma   90.00000000
_symmetry_Int_Tables_number   1
_chemical_formula_structural   Li4LaYb3Pd4
_chemical_formula_sum   'Li4 La1 Yb3 Pd4'
_cell_volume   244.94859801
_cell_formula_units_Z   1
loop_
 _symmetry_equiv_pos_site_id
 _symmetry_equiv_pos_as_xyz
  1  'x, y, z'
loop_
 _atom_site_type_symbol
 _atom_site_label
 _atom_site_symmetry_multiplicity
 _atom_site_fract_x
 _atom_site_fract_y
 _atom_site_fract_z
 _atom_site_occupancy
  Li  Li0  1  0.636532  0.250000  0.550328  1
  Li  Li1  1  0.119977  0.250000  0.946204  1
  Li  Li2  1  0.372424  0.750000  0.437271  1
  Li  Li3  1  0.872093  0.750000  0.060949  1
  La  La4  1  0.455635  0.750000  0.821602  1
  Yb  Yb5  1  0.042097  0.250000  0.321029  1
  Yb  Yb6  1  0.544829  0.250000  0.185664  1
  Yb  Yb7  1  0.955719  0.750000  0.677630  1
  Pd  Pd8  1  0.248984  0.250000  0.624772  1
  Pd  Pd9  1  0.751348  0.250000  0.874708  1
  Pd  Pd10  1  0.752144  0.750000  0.375501  1
  Pd  Pd11  1  0.248219  0.750000  0.124343  1
