# generated using pymatgen
data_YbP4(Ru2Rh)2
_symmetry_space_group_name_H-M   'P 1'
_cell_length_a   6.97611507
_cell_length_b   6.92630627
_cell_length_c   3.72505100
_cell_angle_alpha   90.00000000
_cell_angle_beta   90.00000000
_cell_angle_gamma   120.22247535
_symmetry_Int_Tables_number   1
_chemical_formula_structural   YbP4(Ru2Rh)2
_chemical_formula_sum   'Yb1 P4 Ru4 Rh2'
_cell_volume   155.52499810
_cell_formula_units_Z   1
loop_
 _symmetry_equiv_pos_site_id
 _symmetry_equiv_pos_as_xyz
  1  'x, y, z'
loop_
 _atom_site_type_symbol
 _atom_site_label
 _atom_site_symmetry_multiplicity
 _atom_site_fract_x
 _atom_site_fract_y
 _atom_site_fract_z
 _atom_site_occupancy
  Yb  Yb0  1  0.000344  0.000672  0.500000  1
  P  P1  1  0.671055  0.342015  0.500000  1
  P  P2  1  0.194950  0.387731  0.000000  1
  P  P3  1  0.185828  0.802830  0.000000  1
  P  P4  1  0.616289  0.804441  0.000000  1
  Ru  Ru5  1  0.469653  0.935563  0.500000  1
  Ru  Ru6  1  0.463510  0.532613  0.500000  1
  Ru  Ru7  1  0.069002  0.536314  0.500000  1
  Ru  Ru8  1  0.798479  0.599509  0.000000  1
  Rh  Rh9  1  0.806395  0.197156  0.000000  1
  Rh  Rh10  1  0.391165  0.194488  0.000000  1
