# generated using pymatgen
data_Y6Sc3Ni15P13Pt2
_symmetry_space_group_name_H-M   'P 1'
_cell_length_a   13.07551800
_cell_length_b   13.07551735
_cell_length_c   3.80165000
_cell_angle_alpha   90.00000000
_cell_angle_beta   90.00000000
_cell_angle_gamma   120.00000166
_symmetry_Int_Tables_number   1
_chemical_formula_structural   Y6Sc3Ni15P13Pt2
_chemical_formula_sum   'Y6 Sc3 Ni15 P13 Pt2'
_cell_volume   562.88611968
_cell_formula_units_Z   1
loop_
 _symmetry_equiv_pos_site_id
 _symmetry_equiv_pos_as_xyz
  1  'x, y, z'
loop_
 _atom_site_type_symbol
 _atom_site_label
 _atom_site_symmetry_multiplicity
 _atom_site_fract_x
 _atom_site_fract_y
 _atom_site_fract_z
 _atom_site_occupancy
  Y  Y0  1  0.468971  0.189509  0.000000  1
  Y  Y1  1  0.720539  0.531029  0.000000  1
  Y  Y2  1  0.810491  0.279461  0.000000  1
  Y  Y3  1  0.530624  0.816733  0.500000  1
  Y  Y4  1  0.286110  0.469376  0.500000  1
  Y  Y5  1  0.183267  0.713890  0.500000  1
  Sc  Sc6  1  0.836168  0.930164  0.500000  1
  Sc  Sc7  1  0.093996  0.163832  0.500000  1
  Sc  Sc8  1  0.069836  0.906004  0.500000  1
  Ni  Ni9  1  0.204315  0.094370  0.000000  1
  Ni  Ni10  1  0.890054  0.795685  0.000000  1
  Ni  Ni11  1  0.905630  0.109946  0.000000  1
  Ni  Ni12  1  0.447265  0.426136  0.000000  1
  Ni  Ni13  1  0.978871  0.552735  0.000000  1
  Ni  Ni14  1  0.573864  0.021129  0.000000  1
  Ni  Ni15  1  0.568198  0.591728  0.500000  1
  Ni  Ni16  1  0.023531  0.431802  0.500000  1
  Ni  Ni17  1  0.408272  0.976469  0.500000  1
  Ni  Ni18  1  0.078721  0.319037  0.000000  1
  Ni  Ni19  1  0.240315  0.921279  0.000000  1
  Ni  Ni20  1  0.680963  0.759685  0.000000  1
  Ni  Ni21  1  0.924273  0.672369  0.500000  1
  Ni  Ni22  1  0.748097  0.075727  0.500000  1
  Ni  Ni23  1  0.327631  0.251903  0.500000  1
  P  P24  1  0.250047  0.292086  0.000000  1
  P  P25  1  0.042040  0.749953  0.000000  1
  P  P26  1  0.707914  0.957960  0.000000  1
  P  P27  1  0.768240  0.708484  0.500000  1
  P  P28  1  0.940244  0.231760  0.500000  1
  P  P29  1  0.291516  0.059756  0.500000  1
  P  P30  1  0.486640  0.616613  0.000000  1
  P  P31  1  0.129974  0.513360  0.000000  1
  P  P32  1  0.383387  0.870026  0.000000  1
  P  P33  1  0.522737  0.392772  0.500000  1
  P  P34  1  0.870035  0.477263  0.500000  1
  P  P35  1  0.607228  0.129965  0.500000  1
  P  P36  1  0.000000  0.000000  0.000000  1
  Pt  Pt37  1  0.333333  0.666667  0.000000  1
  Pt  Pt38  1  0.666667  0.333333  0.500000  1
