# generated using pymatgen
data_Tm8Cr3FeC8
_symmetry_space_group_name_H-M   'P 1'
_cell_length_a   4.95509800
_cell_length_b   6.34503306
_cell_length_c   9.61518935
_cell_angle_alpha   90.15906908
_cell_angle_beta   90.00000000
_cell_angle_gamma   90.00000000
_symmetry_Int_Tables_number   1
_chemical_formula_structural   Tm8Cr3FeC8
_chemical_formula_sum   'Tm8 Cr3 Fe1 C8'
_cell_volume   302.30289393
_cell_formula_units_Z   1
loop_
 _symmetry_equiv_pos_site_id
 _symmetry_equiv_pos_as_xyz
  1  'x, y, z'
loop_
 _atom_site_type_symbol
 _atom_site_label
 _atom_site_symmetry_multiplicity
 _atom_site_fract_x
 _atom_site_fract_y
 _atom_site_fract_z
 _atom_site_occupancy
  Tm  Tm0  1  0.250000  0.819508  0.944540  1
  Tm  Tm1  1  0.250000  0.318045  0.556132  1
  Tm  Tm2  1  0.750000  0.180734  0.058092  1
  Tm  Tm3  1  0.750000  0.678885  0.443146  1
  Tm  Tm4  1  0.250000  0.467786  0.217435  1
  Tm  Tm5  1  0.250000  0.970402  0.284278  1
  Tm  Tm6  1  0.750000  0.532772  0.783725  1
  Tm  Tm7  1  0.750000  0.030996  0.718705  1
  Cr  Cr8  1  0.250000  0.274409  0.861492  1
  Cr  Cr9  1  0.250000  0.773290  0.638309  1
  Cr  Cr10  1  0.750000  0.725782  0.141122  1
  Fe  Fe11  1  0.750000  0.226735  0.358938  1
  C  C12  1  0.250000  0.042114  0.737960  1
  C  C13  1  0.250000  0.541648  0.761058  1
  C  C14  1  0.750000  0.960286  0.260611  1
  C  C15  1  0.750000  0.457621  0.239291  1
  C  C16  1  0.250000  0.687477  0.457361  1
  C  C17  1  0.250000  0.187586  0.042070  1
  C  C18  1  0.750000  0.310974  0.536535  1
  C  C19  1  0.750000  0.812949  0.959200  1
