# generated using pymatgen
data_Tm5(GaBi)2
_symmetry_space_group_name_H-M   'P 1'
_cell_length_a   8.65350180
_cell_length_b   8.65350130
_cell_length_c   7.90242800
_cell_angle_alpha   90.00000000
_cell_angle_beta   90.00000000
_cell_angle_gamma   125.69737392
_symmetry_Int_Tables_number   1
_chemical_formula_structural   Tm5(GaBi)2
_chemical_formula_sum   'Tm10 Ga4 Bi4'
_cell_volume   480.57292873
_cell_formula_units_Z   2
loop_
 _symmetry_equiv_pos_site_id
 _symmetry_equiv_pos_as_xyz
  1  'x, y, z'
loop_
 _atom_site_type_symbol
 _atom_site_label
 _atom_site_symmetry_multiplicity
 _atom_site_fract_x
 _atom_site_fract_y
 _atom_site_fract_z
 _atom_site_occupancy
  Tm  Tm0  1  0.542898  0.792807  0.167075  1
  Tm  Tm1  1  0.292807  0.042898  0.332925  1
  Tm  Tm2  1  0.207193  0.457102  0.832925  1
  Tm  Tm3  1  0.957102  0.707193  0.667075  1
  Tm  Tm4  1  0.707193  0.957102  0.667075  1
  Tm  Tm5  1  0.457102  0.207193  0.832925  1
  Tm  Tm6  1  0.792807  0.542898  0.167075  1
  Tm  Tm7  1  0.042898  0.292807  0.332925  1
  Tm  Tm8  1  0.500000  0.500000  0.500000  1
  Tm  Tm9  1  0.000000  0.000000  0.000000  1
  Ga  Ga10  1  0.627422  0.627422  0.872642  1
  Ga  Ga11  1  0.127422  0.127422  0.627358  1
  Ga  Ga12  1  0.872578  0.872578  0.372642  1
  Ga  Ga13  1  0.372578  0.372578  0.127358  1
  Bi  Bi14  1  0.292541  0.707459  0.500000  1
  Bi  Bi15  1  0.207459  0.792541  0.000000  1
  Bi  Bi16  1  0.707459  0.292541  0.500000  1
  Bi  Bi17  1  0.792541  0.207459  0.000000  1
