# generated using pymatgen
data_Y3CdIr2(RhO7)2
_symmetry_space_group_name_H-M   'P 1'
_cell_length_a   7.18991766
_cell_length_b   7.20037412
_cell_length_c   7.20037361
_cell_angle_alpha   60.98598739
_cell_angle_beta   61.02281666
_cell_angle_gamma   61.02281644
_symmetry_Int_Tables_number   1
_chemical_formula_structural   Y3CdIr2(RhO7)2
_chemical_formula_sum   'Y3 Cd1 Ir2 Rh2 O14'
_cell_volume   269.58325565
_cell_formula_units_Z   1
loop_
 _symmetry_equiv_pos_site_id
 _symmetry_equiv_pos_as_xyz
  1  'x, y, z'
loop_
 _atom_site_type_symbol
 _atom_site_label
 _atom_site_symmetry_multiplicity
 _atom_site_fract_x
 _atom_site_fract_y
 _atom_site_fract_z
 _atom_site_occupancy
  Y  Y0  1  0.625000  0.125000  0.125000  1
  Y  Y1  1  0.125000  0.625000  0.125000  1
  Y  Y2  1  0.125000  0.125000  0.625000  1
  Cd  Cd3  1  0.125000  0.125000  0.125000  1
  Ir  Ir4  1  0.625000  0.125000  0.625000  1
  Ir  Ir5  1  0.625000  0.625000  0.125000  1
  Rh  Rh6  1  0.125000  0.625000  0.625000  1
  Rh  Rh7  1  0.625000  0.625000  0.625000  1
  O  O8  1  0.706956  0.714996  0.288526  1
  O  O9  1  0.299152  0.292744  0.702140  1
  O  O10  1  0.706956  0.288526  0.714996  1
  O  O11  1  0.299152  0.702140  0.292744  1
  O  O12  1  0.285865  0.716002  0.716002  1
  O  O13  1  0.693002  0.299489  0.299489  1
  O  O14  1  0.543044  0.535004  0.961474  1
  O  O15  1  0.950848  0.957256  0.547860  1
  O  O16  1  0.543044  0.961474  0.535004  1
  O  O17  1  0.950848  0.547860  0.957256  1
  O  O18  1  0.964135  0.533998  0.533998  1
  O  O19  1  0.556998  0.950511  0.950511  1
  O  O20  1  0.251800  0.249347  0.249347  1
  O  O21  1  0.998200  0.000653  0.000653  1
