# generated using pymatgen
data_Pr17Y3Si15Sb
_symmetry_space_group_name_H-M   'P 1'
_cell_length_a   7.94412067
_cell_length_b   7.92557864
_cell_length_c   15.25879800
_cell_angle_alpha   90.14317492
_cell_angle_beta   89.65903414
_cell_angle_gamma   89.78567750
_symmetry_Int_Tables_number   1
_chemical_formula_structural   Pr17Y3Si15Sb
_chemical_formula_sum   'Pr17 Y3 Si15 Sb1'
_cell_volume   960.69388549
_cell_formula_units_Z   1
loop_
 _symmetry_equiv_pos_site_id
 _symmetry_equiv_pos_as_xyz
  1  'x, y, z'
loop_
 _atom_site_type_symbol
 _atom_site_label
 _atom_site_symmetry_multiplicity
 _atom_site_fract_x
 _atom_site_fract_y
 _atom_site_fract_z
 _atom_site_occupancy
  Pr  Pr0  1  0.687253  0.693609  0.495711  1
  Pr  Pr1  1  0.377318  0.013152  0.447142  1
  Pr  Pr2  1  0.494021  0.873620  0.697399  1
  Pr  Pr3  1  0.510070  0.121817  0.196498  1
  Pr  Pr4  1  0.877134  0.487679  0.300656  1
  Pr  Pr5  1  0.120639  0.515019  0.807553  1
  Pr  Pr6  1  0.624799  0.985647  0.948501  1
  Pr  Pr7  1  0.003192  0.383877  0.546816  1
  Pr  Pr8  1  0.988056  0.620367  0.054773  1
  Pr  Pr9  1  0.130446  0.979602  0.879473  1
  Pr  Pr10  1  0.520891  0.626719  0.127376  1
  Pr  Pr11  1  0.487649  0.383634  0.628638  1
  Pr  Pr12  1  0.628782  0.522759  0.875534  1
  Pr  Pr13  1  0.374529  0.478538  0.371192  1
  Pr  Pr14  1  0.872713  0.021910  0.376802  1
  Pr  Pr15  1  0.979005  0.126935  0.123564  1
  Pr  Pr16  1  0.009891  0.858205  0.619934  1
  Y  Y17  1  0.311039  0.310761  0.000670  1
  Y  Y18  1  0.189391  0.811610  0.249289  1
  Y  Y19  1  0.801417  0.188621  0.752538  1
  Si  Si20  1  0.327480  0.689642  0.956466  1
  Si  Si21  1  0.667231  0.306000  0.453852  1
  Si  Si22  1  0.693904  0.329027  0.046576  1
  Si  Si23  1  0.305763  0.671189  0.544284  1
  Si  Si24  1  0.808670  0.829721  0.203932  1
  Si  Si25  1  0.169723  0.192245  0.295442  1
  Si  Si26  1  0.834055  0.807816  0.797257  1
  Si  Si27  1  0.286271  0.922179  0.063404  1
  Si  Si28  1  0.574147  0.790833  0.308670  1
  Si  Si29  1  0.439058  0.210998  0.819627  1
  Si  Si30  1  0.790861  0.573504  0.691818  1
  Si  Si31  1  0.212897  0.421800  0.187539  1
  Si  Si32  1  0.708378  0.080974  0.563778  1
  Si  Si33  1  0.925030  0.287148  0.938445  1
  Si  Si34  1  0.081639  0.714905  0.434433  1
  Sb  Sb35  1  0.186657  0.167941  0.694420  1
