# generated using pymatgen
data_Tb5Dy5(Sn3Se)2
_symmetry_space_group_name_H-M   'P 1'
_cell_length_a   9.14018611
_cell_length_b   9.13769525
_cell_length_c   6.74009300
_cell_angle_alpha   90.00000000
_cell_angle_beta   90.00000000
_cell_angle_gamma   119.99098854
_symmetry_Int_Tables_number   1
_chemical_formula_structural   Tb5Dy5(Sn3Se)2
_chemical_formula_sum   'Tb5 Dy5 Sn6 Se2'
_cell_volume   487.55953995
_cell_formula_units_Z   1
loop_
 _symmetry_equiv_pos_site_id
 _symmetry_equiv_pos_as_xyz
  1  'x, y, z'
loop_
 _atom_site_type_symbol
 _atom_site_label
 _atom_site_symmetry_multiplicity
 _atom_site_fract_x
 _atom_site_fract_y
 _atom_site_fract_z
 _atom_site_occupancy
  Tb  Tb0  1  0.747131  0.747099  0.750000  1
  Tb  Tb1  1  0.252869  0.999968  0.750000  1
  Tb  Tb2  1  0.000000  0.252841  0.750000  1
  Tb  Tb3  1  0.252945  0.252920  0.250000  1
  Tb  Tb4  1  0.747055  0.999976  0.250000  1
  Dy  Dy5  1  0.666733  0.333412  0.000048  1
  Dy  Dy6  1  0.333267  0.666680  0.000048  1
  Dy  Dy7  1  0.333267  0.666680  0.499952  1
  Dy  Dy8  1  0.666733  0.333412  0.499952  1
  Dy  Dy9  1  0.000000  0.747354  0.250000  1
  Sn  Sn10  1  0.396222  0.396236  0.750000  1
  Sn  Sn11  1  0.603778  0.000014  0.750000  1
  Sn  Sn12  1  0.000000  0.603785  0.750000  1
  Sn  Sn13  1  0.604141  0.603932  0.250000  1
  Sn  Sn14  1  0.395859  0.999791  0.250000  1
  Sn  Sn15  1  0.000000  0.396577  0.250000  1
  Se  Se16  1  0.000000  0.999661  0.000355  1
  Se  Se17  1  0.000000  0.999661  0.499645  1
