# generated using pymatgen
data_SmYPa(Co3P2)3
_symmetry_space_group_name_H-M   'P 1'
_cell_length_a   3.74276200
_cell_length_b   10.58001800
_cell_length_c   12.22083200
_cell_angle_alpha   90.00000000
_cell_angle_beta   90.00000000
_cell_angle_gamma   90.00000000
_symmetry_Int_Tables_number   1
_chemical_formula_structural   SmYPa(Co3P2)3
_chemical_formula_sum   'Sm2 Y2 Pa2 Co18 P12'
_cell_volume   483.92648555
_cell_formula_units_Z   2
loop_
 _symmetry_equiv_pos_site_id
 _symmetry_equiv_pos_as_xyz
  1  'x, y, z'
loop_
 _atom_site_type_symbol
 _atom_site_label
 _atom_site_symmetry_multiplicity
 _atom_site_fract_x
 _atom_site_fract_y
 _atom_site_fract_z
 _atom_site_occupancy
  Sm  Sm0  1  0.500000  0.814203  0.205588  1
  Sm  Sm1  1  0.500000  0.185797  0.205588  1
  Y  Y2  1  0.000000  0.685310  0.794306  1
  Y  Y3  1  0.000000  0.314690  0.794306  1
  Pa  Pa4  1  0.000000  0.500000  0.528674  1
  Pa  Pa5  1  0.500000  0.000000  0.472527  1
  Co  Co6  1  0.500000  0.500000  0.157972  1
  Co  Co7  1  0.000000  0.000000  0.841521  1
  Co  Co8  1  0.500000  0.500000  0.695640  1
  Co  Co9  1  0.000000  0.000000  0.306037  1
  Co  Co10  1  0.000000  0.500000  0.983008  1
  Co  Co11  1  0.500000  0.000000  0.013775  1
  Co  Co12  1  0.500000  0.334840  0.992651  1
  Co  Co13  1  0.500000  0.665160  0.992651  1
  Co  Co14  1  0.000000  0.166365  0.004523  1
  Co  Co15  1  0.000000  0.833635  0.004523  1
  Co  Co16  1  0.500000  0.302527  0.432660  1
  Co  Co17  1  0.500000  0.697473  0.432660  1
  Co  Co18  1  0.000000  0.198101  0.569831  1
  Co  Co19  1  0.000000  0.801899  0.569831  1
  Co  Co20  1  0.500000  0.880747  0.711035  1
  Co  Co21  1  0.500000  0.119253  0.711035  1
  Co  Co22  1  0.000000  0.618224  0.289980  1
  Co  Co23  1  0.000000  0.381776  0.289980  1
  P  P24  1  0.500000  0.500000  0.878182  1
  P  P25  1  0.000000  0.000000  0.118752  1
  P  P26  1  0.500000  0.500000  0.343031  1
  P  P27  1  0.000000  0.000000  0.657377  1
  P  P28  1  0.500000  0.306630  0.616981  1
  P  P29  1  0.500000  0.693370  0.616981  1
  P  P30  1  0.000000  0.194383  0.385972  1
  P  P31  1  0.000000  0.805617  0.385972  1
  P  P32  1  0.500000  0.847235  0.894620  1
  P  P33  1  0.500000  0.152765  0.894620  1
  P  P34  1  0.000000  0.650667  0.103604  1
  P  P35  1  0.000000  0.349333  0.103604  1
