# generated using pymatgen
data_Er8Sc12Si7Sb9
_symmetry_space_group_name_H-M   'P 1'
_cell_length_a   7.48288900
_cell_length_b   7.50317181
_cell_length_c   14.45760800
_cell_angle_alpha   90.00000000
_cell_angle_beta   90.00000000
_cell_angle_gamma   89.15560339
_symmetry_Int_Tables_number   1
_chemical_formula_structural   Er8Sc12Si7Sb9
_chemical_formula_sum   'Er8 Sc12 Si7 Sb9'
_cell_volume   811.64006030
_cell_formula_units_Z   1
loop_
 _symmetry_equiv_pos_site_id
 _symmetry_equiv_pos_as_xyz
  1  'x, y, z'
loop_
 _atom_site_type_symbol
 _atom_site_label
 _atom_site_symmetry_multiplicity
 _atom_site_fract_x
 _atom_site_fract_y
 _atom_site_fract_z
 _atom_site_occupancy
  Er  Er0  1  0.034151  0.691472  0.608203  1
  Er  Er1  1  0.967286  0.318144  0.388956  1
  Er  Er2  1  0.466488  0.177628  0.388865  1
  Er  Er3  1  0.967286  0.318144  0.111044  1
  Er  Er4  1  0.531373  0.821841  0.607087  1
  Er  Er5  1  0.034151  0.691472  0.891797  1
  Er  Er6  1  0.531373  0.821841  0.892913  1
  Er  Er7  1  0.466488  0.177628  0.111135  1
  Sc  Sc8  1  0.203467  0.993052  0.750000  1
  Sc  Sc9  1  0.796686  0.998812  0.250000  1
  Sc  Sc10  1  0.294614  0.495984  0.250000  1
  Sc  Sc11  1  0.695309  0.508034  0.750000  1
  Sc  Sc12  1  0.388321  0.338803  0.631207  1
  Sc  Sc13  1  0.622753  0.659706  0.365653  1
  Sc  Sc14  1  0.126263  0.836782  0.366457  1
  Sc  Sc15  1  0.622753  0.659706  0.134347  1
  Sc  Sc16  1  0.860396  0.151104  0.628746  1
  Sc  Sc17  1  0.388321  0.338803  0.868793  1
  Sc  Sc18  1  0.860396  0.151104  0.871254  1
  Sc  Sc19  1  0.126263  0.836782  0.133543  1
  Si  Si20  1  0.924967  0.621043  0.250000  1
  Si  Si21  1  0.423813  0.877666  0.250000  1
  Si  Si22  1  0.573868  0.119598  0.750000  1
  Si  Si23  1  0.347415  0.646680  0.750000  1
  Si  Si24  1  0.665572  0.362736  0.250000  1
  Si  Si25  1  0.166368  0.132123  0.250000  1
  Si  Si26  1  0.832119  0.866335  0.750000  1
  Sb  Sb27  1  0.071192  0.375692  0.750000  1
  Sb  Sb28  1  0.210858  0.045654  0.540602  1
  Sb  Sb29  1  0.786945  0.957339  0.456337  1
  Sb  Sb30  1  0.287082  0.537327  0.459067  1
  Sb  Sb31  1  0.786945  0.957339  0.043663  1
  Sb  Sb32  1  0.720390  0.465326  0.540770  1
  Sb  Sb33  1  0.210858  0.045654  0.959398  1
  Sb  Sb34  1  0.720390  0.465326  0.959230  1
  Sb  Sb35  1  0.287082  0.537327  0.040933  1
