# generated using pymatgen
data_MgZnCdCu3
_symmetry_space_group_name_H-M   'P 1'
_cell_length_a   5.06006082
_cell_length_b   5.06005986
_cell_length_c   5.00842029
_cell_angle_alpha   59.65833789
_cell_angle_beta   59.65834076
_cell_angle_gamma   60.00000010
_symmetry_Int_Tables_number   1
_chemical_formula_structural   MgZnCdCu3
_chemical_formula_sum   'Mg1 Zn1 Cd1 Cu3'
_cell_volume   90.20590464
_cell_formula_units_Z   1
loop_
 _symmetry_equiv_pos_site_id
 _symmetry_equiv_pos_as_xyz
  1  'x, y, z'
loop_
 _atom_site_type_symbol
 _atom_site_label
 _atom_site_symmetry_multiplicity
 _atom_site_fract_x
 _atom_site_fract_y
 _atom_site_fract_z
 _atom_site_occupancy
  Mg  Mg0  1  0.752288  0.752288  0.743136  1
  Zn  Zn1  1  0.374591  0.374591  0.876227  1
  Cd  Cd2  1  0.999113  0.999113  0.002662  1
  Cu  Cu3  1  0.375049  0.873911  0.375991  1
  Cu  Cu4  1  0.375049  0.375049  0.375991  1
  Cu  Cu5  1  0.873911  0.375049  0.375991  1
