# generated using pymatgen
data_Nd(In2Pt)2
_symmetry_space_group_name_H-M   'P 1'
_cell_length_a   4.56177600
_cell_length_b   7.33594500
_cell_length_c   18.73140800
_cell_angle_alpha   90.00000000
_cell_angle_beta   90.00000000
_cell_angle_gamma   90.00000000
_symmetry_Int_Tables_number   1
_chemical_formula_structural   Nd(In2Pt)2
_chemical_formula_sum   'Nd4 In16 Pt8'
_cell_volume   626.84540434
_cell_formula_units_Z   4
loop_
 _symmetry_equiv_pos_site_id
 _symmetry_equiv_pos_as_xyz
  1  'x, y, z'
loop_
 _atom_site_type_symbol
 _atom_site_label
 _atom_site_symmetry_multiplicity
 _atom_site_fract_x
 _atom_site_fract_y
 _atom_site_fract_z
 _atom_site_occupancy
  Nd  Nd0  1  0.750000  0.970210  0.639667  1
  Nd  Nd1  1  0.250000  0.470210  0.860333  1
  Nd  Nd2  1  0.750000  0.529790  0.139667  1
  Nd  Nd3  1  0.250000  0.029790  0.360333  1
  In  In4  1  0.250000  0.241417  0.191804  1
  In  In5  1  0.250000  0.497405  0.431065  1
  In  In6  1  0.250000  0.002595  0.931065  1
  In  In7  1  0.250000  0.827553  0.186375  1
  In  In8  1  0.250000  0.672447  0.686375  1
  In  In9  1  0.250000  0.258583  0.691804  1
  In  In10  1  0.250000  0.148601  0.534847  1
  In  In11  1  0.750000  0.997405  0.068935  1
  In  In12  1  0.750000  0.172447  0.813625  1
  In  In13  1  0.250000  0.351399  0.034847  1
  In  In14  1  0.750000  0.851399  0.465153  1
  In  In15  1  0.750000  0.648601  0.965153  1
  In  In16  1  0.750000  0.758583  0.808196  1
  In  In17  1  0.750000  0.502595  0.568935  1
  In  In18  1  0.750000  0.327553  0.313625  1
  In  In19  1  0.750000  0.741417  0.308196  1
  Pt  Pt20  1  0.250000  0.962546  0.783001  1
  Pt  Pt21  1  0.750000  0.037454  0.216999  1
  Pt  Pt22  1  0.250000  0.537454  0.283001  1
  Pt  Pt23  1  0.250000  0.755303  0.541396  1
  Pt  Pt24  1  0.250000  0.744697  0.041396  1
  Pt  Pt25  1  0.750000  0.244697  0.458604  1
  Pt  Pt26  1  0.750000  0.255303  0.958604  1
  Pt  Pt27  1  0.750000  0.462546  0.716999  1
