# generated using pymatgen
data_Cs4Cr3TcN8
_symmetry_space_group_name_H-M   'P 1'
_cell_length_a   5.89808700
_cell_length_b   8.32951900
_cell_length_c   11.80504900
_cell_angle_alpha   90.00000000
_cell_angle_beta   90.00000000
_cell_angle_gamma   90.00000000
_symmetry_Int_Tables_number   1
_chemical_formula_structural   Cs4Cr3TcN8
_chemical_formula_sum   'Cs8 Cr6 Tc2 N16'
_cell_volume   579.96113564
_cell_formula_units_Z   2
loop_
 _symmetry_equiv_pos_site_id
 _symmetry_equiv_pos_as_xyz
  1  'x, y, z'
loop_
 _atom_site_type_symbol
 _atom_site_label
 _atom_site_symmetry_multiplicity
 _atom_site_fract_x
 _atom_site_fract_y
 _atom_site_fract_z
 _atom_site_occupancy
  Cs  Cs0  1  0.750000  0.118208  0.000000  1
  Cs  Cs1  1  0.250000  0.881792  0.500000  1
  Cs  Cs2  1  0.250000  0.874743  0.000000  1
  Cs  Cs3  1  0.750000  0.125257  0.500000  1
  Cs  Cs4  1  0.740569  0.371632  0.247022  1
  Cs  Cs5  1  0.240569  0.628368  0.252978  1
  Cs  Cs6  1  0.259431  0.628368  0.747022  1
  Cs  Cs7  1  0.759431  0.371632  0.752978  1
  Cr  Cr8  1  0.750000  0.634001  0.000000  1
  Cr  Cr9  1  0.250000  0.365999  0.500000  1
  Cr  Cr10  1  0.243751  0.121191  0.252286  1
  Cr  Cr11  1  0.743751  0.878809  0.247714  1
  Cr  Cr12  1  0.756249  0.878809  0.752286  1
  Cr  Cr13  1  0.256249  0.121191  0.747714  1
  Tc  Tc14  1  0.250000  0.375840  0.000000  1
  Tc  Tc15  1  0.750000  0.624160  0.500000  1
  N  N16  1  0.990552  0.003140  0.250010  1
  N  N17  1  0.490552  0.996860  0.249990  1
  N  N18  1  0.009448  0.996860  0.750010  1
  N  N19  1  0.509448  0.003140  0.749990  1
  N  N20  1  0.247713  0.242792  0.376254  1
  N  N21  1  0.747713  0.757208  0.123746  1
  N  N22  1  0.752287  0.757208  0.876254  1
  N  N23  1  0.252287  0.242792  0.623746  1
  N  N24  1  0.752356  0.753090  0.629313  1
  N  N25  1  0.252356  0.246910  0.870687  1
  N  N26  1  0.247644  0.246910  0.129313  1
  N  N27  1  0.747644  0.753090  0.370687  1
  N  N28  1  0.493089  0.492890  0.499895  1
  N  N29  1  0.993089  0.507110  0.000105  1
  N  N30  1  0.506911  0.507110  0.999895  1
  N  N31  1  0.006911  0.492890  0.500105  1
