# generated using pymatgen
data_Th2Cu17Si8Rh
_symmetry_space_group_name_H-M   'P 1'
_cell_length_a   8.20277000
_cell_length_b   8.20277031
_cell_length_c   8.19180800
_cell_angle_alpha   120.12081294
_cell_angle_beta   120.32424847
_cell_angle_gamma   89.69217311
_symmetry_Int_Tables_number   1
_chemical_formula_structural   Th2Cu17Si8Rh
_chemical_formula_sum   'Th2 Cu17 Si8 Rh1'
_cell_volume   388.16742676
_cell_formula_units_Z   1
loop_
 _symmetry_equiv_pos_site_id
 _symmetry_equiv_pos_as_xyz
  1  'x, y, z'
loop_
 _atom_site_type_symbol
 _atom_site_label
 _atom_site_symmetry_multiplicity
 _atom_site_fract_x
 _atom_site_fract_y
 _atom_site_fract_z
 _atom_site_occupancy
  Th  Th0  1  0.740942  0.747746  0.997556  1
  Th  Th1  1  0.249811  0.256614  0.997556  1
  Cu  Cu2  1  0.711786  0.554879  0.266666  1
  Cu  Cu3  1  0.293623  0.420943  0.714565  1
  Cu  Cu4  1  0.935103  0.798647  0.733750  1
  Cu  Cu5  1  0.565191  0.298388  0.863579  1
  Cu  Cu6  1  0.306062  0.557826  0.496253  1
  Cu  Cu7  1  0.060702  0.810206  0.509084  1
  Cu  Cu8  1  0.698879  0.448382  0.509084  1
  Cu  Cu9  1  0.938428  0.190191  0.496253  1
  Cu  Cu10  1  0.444058  0.941242  0.752331  1
  Cu  Cu11  1  0.184533  0.699950  0.253941  1
  Cu  Cu12  1  0.553991  0.069408  0.253941  1
  Cu  Cu13  1  0.200248  0.939117  0.139365  1
  Cu  Cu14  1  0.063090  0.200669  0.263760  1
  Cu  Cu15  1  0.003155  0.500375  0.503530  1
  Cu  Cu16  1  0.497904  0.005832  0.503736  1
  Cu  Cu17  1  0.811089  0.308273  0.752331  1
  Cu  Cu18  1  0.798424  0.062822  0.861246  1
  Si  Si19  1  0.296886  0.790597  0.854620  1
  Si  Si20  1  0.064023  0.557734  0.854620  1
  Si  Si21  1  0.553541  0.704564  0.491268  1
  Si  Si22  1  0.786704  0.937727  0.491268  1
  Si  Si23  1  0.446037  0.297395  0.501841  1
  Si  Si24  1  0.945156  0.441916  0.150275  1
  Si  Si25  1  0.708360  0.205119  0.150275  1
  Si  Si26  1  0.204447  0.055806  0.501841  1
  Rh  Rh27  1  0.437829  0.697632  0.135461  1
