# generated using pymatgen
data_CsPd2Cl9
_symmetry_space_group_name_H-M   'P 1'
_cell_length_a   6.58707500
_cell_length_b   9.87786760
_cell_length_c   12.22035020
_cell_angle_alpha   66.63052143
_cell_angle_beta   90.00000000
_cell_angle_gamma   90.00000000
_symmetry_Int_Tables_number   1
_chemical_formula_structural   CsPd2Cl9
_chemical_formula_sum   'Cs2 Pd4 Cl18'
_cell_volume   729.90457014
_cell_formula_units_Z   2
loop_
 _symmetry_equiv_pos_site_id
 _symmetry_equiv_pos_as_xyz
  1  'x, y, z'
loop_
 _atom_site_type_symbol
 _atom_site_label
 _atom_site_symmetry_multiplicity
 _atom_site_fract_x
 _atom_site_fract_y
 _atom_site_fract_z
 _atom_site_occupancy
  Cs  Cs0  1  0.596379  0.500000  0.750000  1
  Cs  Cs1  1  0.403621  0.500000  0.250000  1
  Pd  Pd2  1  0.255069  0.843359  0.852672  1
  Pd  Pd3  1  0.744931  0.156641  0.147328  1
  Pd  Pd4  1  0.255069  0.156641  0.647328  1
  Pd  Pd5  1  0.744931  0.843359  0.352672  1
  Cl  Cl6  1  0.110675  0.786923  0.037088  1
  Cl  Cl7  1  0.889325  0.213077  0.962912  1
  Cl  Cl8  1  0.110675  0.213077  0.462912  1
  Cl  Cl9  1  0.889325  0.786923  0.537088  1
  Cl  Cl10  1  0.120720  0.632950  0.842428  1
  Cl  Cl11  1  0.879280  0.367050  0.157572  1
  Cl  Cl12  1  0.120720  0.367050  0.657572  1
  Cl  Cl13  1  0.879280  0.632950  0.342428  1
  Cl  Cl14  1  0.975835  0.000000  0.750000  1
  Cl  Cl15  1  0.024165  0.000000  0.250000  1
  Cl  Cl16  1  0.392213  0.071986  0.846329  1
  Cl  Cl17  1  0.607787  0.928014  0.153671  1
  Cl  Cl18  1  0.392213  0.928014  0.653671  1
  Cl  Cl19  1  0.607787  0.071986  0.346329  1
  Cl  Cl20  1  0.547993  0.716537  0.936841  1
  Cl  Cl21  1  0.452007  0.283463  0.063159  1
  Cl  Cl22  1  0.547993  0.283463  0.563159  1
  Cl  Cl23  1  0.452007  0.716537  0.436841  1
