# generated using pymatgen
data_Np3Ga3Ru2Rh
_symmetry_space_group_name_H-M   'P 1'
_cell_length_a   6.94446800
_cell_length_b   6.94447012
_cell_length_c   4.00957500
_cell_angle_alpha   90.00000000
_cell_angle_beta   90.00000000
_cell_angle_gamma   120.00000894
_symmetry_Int_Tables_number   1
_chemical_formula_structural   Np3Ga3Ru2Rh
_chemical_formula_sum   'Np3 Ga3 Ru2 Rh1'
_cell_volume   167.45843526
_cell_formula_units_Z   1
loop_
 _symmetry_equiv_pos_site_id
 _symmetry_equiv_pos_as_xyz
  1  'x, y, z'
loop_
 _atom_site_type_symbol
 _atom_site_label
 _atom_site_symmetry_multiplicity
 _atom_site_fract_x
 _atom_site_fract_y
 _atom_site_fract_z
 _atom_site_occupancy
  Np  Np0  1  0.000000  0.425000  0.500000  1
  Np  Np1  1  0.575000  0.575000  0.500000  1
  Np  Np2  1  0.425000  0.000000  0.500000  1
  Ga  Ga3  1  0.000000  0.758819  0.000000  1
  Ga  Ga4  1  0.241181  0.241181  0.000000  1
  Ga  Ga5  1  0.758819  0.000000  0.000000  1
  Ru  Ru6  1  0.333333  0.666667  0.000000  1
  Ru  Ru7  1  0.666667  0.333333  0.000000  1
  Rh  Rh8  1  0.000000  0.000000  0.500000  1
