# generated using pymatgen
data_Tb3Y13In4IrRu3
_symmetry_space_group_name_H-M   'P 1'
_cell_length_a   9.70011778
_cell_length_b   9.70058220
_cell_length_c   9.71619700
_cell_angle_alpha   59.94673462
_cell_angle_beta   59.94514740
_cell_angle_gamma   59.99073892
_symmetry_Int_Tables_number   1
_chemical_formula_structural   Tb3Y13In4IrRu3
_chemical_formula_sum   'Tb3 Y13 In4 Ir1 Ru3'
_cell_volume   645.90763614
_cell_formula_units_Z   1
loop_
 _symmetry_equiv_pos_site_id
 _symmetry_equiv_pos_as_xyz
  1  'x, y, z'
loop_
 _atom_site_type_symbol
 _atom_site_label
 _atom_site_symmetry_multiplicity
 _atom_site_fract_x
 _atom_site_fract_y
 _atom_site_fract_z
 _atom_site_occupancy
  Tb  Tb0  1  0.558358  0.939498  0.558237  1
  Tb  Tb1  1  0.706839  0.098353  0.097404  1
  Tb  Tb2  1  0.558358  0.939498  0.943908  1
  Y  Y3  1  0.098601  0.708085  0.096656  1
  Y  Y4  1  0.942754  0.941400  0.557924  1
  Y  Y5  1  0.941857  0.557791  0.944295  1
  Y  Y6  1  0.308318  0.690669  0.308706  1
  Y  Y7  1  0.941857  0.557791  0.556059  1
  Y  Y8  1  0.309533  0.308175  0.691146  1
  Y  Y9  1  0.099562  0.097418  0.098293  1
  Y  Y10  1  0.555689  0.556463  0.943925  1
  Y  Y11  1  0.099562  0.097418  0.704727  1
  Y  Y12  1  0.690204  0.307523  0.692177  1
  Y  Y13  1  0.692668  0.693172  0.307080  1
  Y  Y14  1  0.690204  0.307523  0.310097  1
  Y  Y15  1  0.308318  0.690669  0.692307  1
  In  In16  1  0.331854  0.333188  0.332535  1
  In  In17  1  0.000779  0.333061  0.333079  1
  In  In18  1  0.332174  0.001352  0.333237  1
  In  In19  1  0.331854  0.333188  0.002422  1
  Ir  Ir20  1  0.892199  0.328421  0.889690  1
  Ru  Ru21  1  0.885981  0.892923  0.887880  1
  Ru  Ru22  1  0.885981  0.892923  0.333217  1
  Ru  Ru23  1  0.336502  0.893495  0.885002  1
