# generated using pymatgen
data_Nb6Si6Tc5Ir
_symmetry_space_group_name_H-M   'P 1'
_cell_length_a   7.55670654
_cell_length_b   7.53113307
_cell_length_c   7.56138065
_cell_angle_alpha   127.43117200
_cell_angle_beta   123.93371899
_cell_angle_gamma   80.54537023
_symmetry_Int_Tables_number   1
_chemical_formula_structural   Nb6Si6Tc5Ir
_chemical_formula_sum   'Nb6 Si6 Tc5 Ir1'
_cell_volume   273.32495338
_cell_formula_units_Z   1
loop_
 _symmetry_equiv_pos_site_id
 _symmetry_equiv_pos_as_xyz
  1  'x, y, z'
loop_
 _atom_site_type_symbol
 _atom_site_label
 _atom_site_symmetry_multiplicity
 _atom_site_fract_x
 _atom_site_fract_y
 _atom_site_fract_z
 _atom_site_occupancy
  Nb  Nb0  1  0.948089  0.911952  0.470472  1
  Nb  Nb1  1  0.054660  0.504089  0.954845  1
  Nb  Nb2  1  0.533678  0.503657  0.461020  1
  Nb  Nb3  1  0.467714  0.935842  0.969675  1
  Nb  Nb4  1  0.752996  0.080316  0.840151  1
  Nb  Nb5  1  0.250510  0.093393  0.339052  1
  Si  Si6  1  0.727316  0.488511  0.261030  1
  Si  Si7  1  0.277964  0.510979  0.729157  1
  Si  Si8  1  0.668003  0.173868  0.509714  1
  Si  Si9  1  0.328632  0.837116  0.498914  1
  Si  Si10  1  0.167928  0.172564  0.005451  1
  Si  Si11  1  0.836841  0.833555  0.009646  1
  Tc  Tc12  1  0.470449  0.751841  0.222579  1
  Tc  Tc13  1  0.020355  0.751592  0.776053  1
  Tc  Tc14  1  0.900610  0.251755  0.409132  1
  Tc  Tc15  1  0.090054  0.501766  0.341131  1
  Tc  Tc16  1  0.340635  0.253255  0.844638  1
  Ir  Ir17  1  0.663565  0.501747  0.915137  1
