# generated using pymatgen
data_CrInI18
_symmetry_space_group_name_H-M   'P 1'
_cell_length_a   10.15994631
_cell_length_b   10.15994677
_cell_length_c   10.15994723
_cell_angle_alpha   89.38968710
_cell_angle_beta   89.38968636
_cell_angle_gamma   89.38969397
_symmetry_Int_Tables_number   1
_chemical_formula_structural   CrInI18
_chemical_formula_sum   'Cr1 In1 I18'
_cell_volume   1048.57837857
_cell_formula_units_Z   1
loop_
 _symmetry_equiv_pos_site_id
 _symmetry_equiv_pos_as_xyz
  1  'x, y, z'
loop_
 _atom_site_type_symbol
 _atom_site_label
 _atom_site_symmetry_multiplicity
 _atom_site_fract_x
 _atom_site_fract_y
 _atom_site_fract_z
 _atom_site_occupancy
  Cr  Cr0  1  0.000000  0.000000  0.000000  1
  In  In1  1  0.500000  0.500000  0.500000  1
  I  I2  1  0.732240  0.997014  0.025554  1
  I  I3  1  0.748055  0.118755  0.618064  1
  I  I4  1  0.025554  0.732240  0.997014  1
  I  I5  1  0.251945  0.881245  0.381936  1
  I  I6  1  0.118755  0.618064  0.748055  1
  I  I7  1  0.002986  0.974446  0.267760  1
  I  I8  1  0.618064  0.748055  0.118755  1
  I  I9  1  0.974446  0.267760  0.002986  1
  I  I10  1  0.881245  0.381936  0.251945  1
  I  I11  1  0.381936  0.251945  0.881245  1
  I  I12  1  0.997014  0.025554  0.732240  1
  I  I13  1  0.267760  0.002986  0.974446  1
  I  I14  1  0.792231  0.525000  0.488258  1
  I  I15  1  0.511742  0.207769  0.475000  1
  I  I16  1  0.475000  0.511742  0.207769  1
  I  I17  1  0.488258  0.792231  0.525000  1
  I  I18  1  0.525000  0.488258  0.792231  1
  I  I19  1  0.207769  0.475000  0.511742  1
