# generated using pymatgen
data_Yb11Pr(TmSn2)8
_symmetry_space_group_name_H-M   'P 1'
_cell_length_a   7.82911558
_cell_length_b   8.42114782
_cell_length_c   15.99386000
_cell_angle_alpha   90.01796202
_cell_angle_beta   90.13452503
_cell_angle_gamma   89.90160917
_symmetry_Int_Tables_number   1
_chemical_formula_structural   Yb11Pr(TmSn2)8
_chemical_formula_sum   'Yb11 Pr1 Tm8 Sn16'
_cell_volume   1054.47291070
_cell_formula_units_Z   1
loop_
 _symmetry_equiv_pos_site_id
 _symmetry_equiv_pos_as_xyz
  1  'x, y, z'
loop_
 _atom_site_type_symbol
 _atom_site_label
 _atom_site_symmetry_multiplicity
 _atom_site_fract_x
 _atom_site_fract_y
 _atom_site_fract_z
 _atom_site_occupancy
  Yb  Yb0  1  0.000392  0.813355  0.907479  1
  Yb  Yb1  1  0.499500  0.313709  0.093071  1
  Yb  Yb2  1  0.000443  0.186840  0.406760  1
  Yb  Yb3  1  0.499477  0.315076  0.406514  1
  Yb  Yb4  1  0.999374  0.187044  0.093116  1
  Yb  Yb5  1  0.500203  0.686259  0.906559  1
  Yb  Yb6  1  0.000761  0.813981  0.592547  1
  Yb  Yb7  1  0.830183  0.509490  0.751106  1
  Yb  Yb8  1  0.329031  0.990391  0.750663  1
  Yb  Yb9  1  0.170389  0.489149  0.249948  1
  Yb  Yb10  1  0.670242  0.010766  0.249781  1
  Pr  Pr11  1  0.501996  0.683582  0.593340  1
  Tm  Tm12  1  0.667460  0.168693  0.622458  1
  Tm  Tm13  1  0.167959  0.332469  0.878288  1
  Tm  Tm14  1  0.331319  0.833035  0.122284  1
  Tm  Tm15  1  0.831735  0.667278  0.377675  1
  Tm  Tm16  1  0.331405  0.832832  0.376819  1
  Tm  Tm17  1  0.831333  0.666934  0.122192  1
  Tm  Tm18  1  0.669240  0.167264  0.877801  1
  Tm  Tm19  1  0.166912  0.331701  0.621879  1
  Sn  Sn20  1  0.673969  0.963777  0.460784  1
  Sn  Sn21  1  0.174142  0.537017  0.039638  1
  Sn  Sn22  1  0.327063  0.035468  0.959609  1
  Sn  Sn23  1  0.825802  0.462206  0.539785  1
  Sn  Sn24  1  0.326416  0.034653  0.540340  1
  Sn  Sn25  1  0.826197  0.463858  0.959968  1
  Sn  Sn26  1  0.673516  0.964413  0.040079  1
  Sn  Sn27  1  0.176969  0.538508  0.460636  1
  Sn  Sn28  1  0.464787  0.373980  0.749815  1
  Sn  Sn29  1  0.964420  0.127175  0.749504  1
  Sn  Sn30  1  0.533988  0.626384  0.249658  1
  Sn  Sn31  1  0.033859  0.873373  0.249709  1
  Sn  Sn32  1  0.710081  0.871714  0.750285  1
  Sn  Sn33  1  0.211783  0.627172  0.749542  1
  Sn  Sn34  1  0.288895  0.126831  0.249983  1
  Sn  Sn35  1  0.788762  0.373624  0.250383  1
