# generated using pymatgen
data_Dy2ReTcB8
_symmetry_space_group_name_H-M   'P 1'
_cell_length_a   3.60723300
_cell_length_b   5.97172311
_cell_length_c   11.55901321
_cell_angle_alpha   89.97841953
_cell_angle_beta   90.00000000
_cell_angle_gamma   90.00000000
_symmetry_Int_Tables_number   1
_chemical_formula_structural   Dy2ReTcB8
_chemical_formula_sum   'Dy4 Re2 Tc2 B16'
_cell_volume   248.99727072
_cell_formula_units_Z   2
loop_
 _symmetry_equiv_pos_site_id
 _symmetry_equiv_pos_as_xyz
  1  'x, y, z'
loop_
 _atom_site_type_symbol
 _atom_site_label
 _atom_site_symmetry_multiplicity
 _atom_site_fract_x
 _atom_site_fract_y
 _atom_site_fract_z
 _atom_site_occupancy
  Dy  Dy0  1  0.000000  0.626838  0.348980  1
  Dy  Dy1  1  0.000000  0.373162  0.651020  1
  Dy  Dy2  1  0.000000  0.126690  0.149012  1
  Dy  Dy3  1  0.000000  0.873310  0.850988  1
  Re  Re4  1  0.000000  0.133018  0.412687  1
  Re  Re5  1  0.000000  0.866982  0.587313  1
  Tc  Tc6  1  0.000000  0.633799  0.087880  1
  Tc  Tc7  1  0.000000  0.366201  0.912120  1
  B  B8  1  0.500000  0.787264  0.184716  1
  B  B9  1  0.500000  0.212736  0.815284  1
  B  B10  1  0.500000  0.287543  0.314979  1
  B  B11  1  0.500000  0.712457  0.685021  1
  B  B12  1  0.500000  0.863627  0.031444  1
  B  B13  1  0.500000  0.136373  0.968556  1
  B  B14  1  0.500000  0.363569  0.468585  1
  B  B15  1  0.500000  0.636431  0.531415  1
  B  B16  1  0.500000  0.886107  0.452652  1
  B  B17  1  0.500000  0.113893  0.547348  1
  B  B18  1  0.500000  0.386577  0.047111  1
  B  B19  1  0.500000  0.613423  0.952889  1
  B  B20  1  0.500000  0.977111  0.307658  1
  B  B21  1  0.500000  0.022889  0.692342  1
  B  B22  1  0.500000  0.476984  0.192142  1
  B  B23  1  0.500000  0.523016  0.807858  1
