# generated using pymatgen
data_Yb15Lu(ThPt4)4
_symmetry_space_group_name_H-M   'P 1'
_cell_length_a   7.54842442
_cell_length_b   7.65910741
_cell_length_c   14.71968331
_cell_angle_alpha   90.11374669
_cell_angle_beta   89.96095332
_cell_angle_gamma   90.05179007
_symmetry_Int_Tables_number   1
_chemical_formula_structural   Yb15Lu(ThPt4)4
_chemical_formula_sum   'Yb15 Lu1 Th4 Pt16'
_cell_volume   851.00439625
_cell_formula_units_Z   1
loop_
 _symmetry_equiv_pos_site_id
 _symmetry_equiv_pos_as_xyz
  1  'x, y, z'
loop_
 _atom_site_type_symbol
 _atom_site_label
 _atom_site_symmetry_multiplicity
 _atom_site_fract_x
 _atom_site_fract_y
 _atom_site_fract_z
 _atom_site_occupancy
  Yb  Yb0  1  0.850498  0.665530  0.121600  1
  Yb  Yb1  1  0.649257  0.165208  0.878665  1
  Yb  Yb2  1  0.149375  0.333874  0.620271  1
  Yb  Yb3  1  0.490438  0.676029  0.595102  1
  Yb  Yb4  1  0.990541  0.822393  0.905097  1
  Yb  Yb5  1  0.509595  0.322124  0.094493  1
  Yb  Yb6  1  0.008014  0.177962  0.405311  1
  Yb  Yb7  1  0.502126  0.318692  0.402986  1
  Yb  Yb8  1  0.000636  0.184221  0.095988  1
  Yb  Yb9  1  0.497942  0.682675  0.902383  1
  Yb  Yb10  1  0.998074  0.816223  0.597969  1
  Yb  Yb11  1  0.808755  0.512566  0.749703  1
  Yb  Yb12  1  0.308428  0.985866  0.750181  1
  Yb  Yb13  1  0.189927  0.483730  0.249349  1
  Yb  Yb14  1  0.694366  0.014426  0.250050  1
  Lu  Lu15  1  0.351050  0.834199  0.377609  1
  Th  Th16  1  0.647841  0.158900  0.622427  1
  Th  Th17  1  0.148701  0.339828  0.876405  1
  Th  Th18  1  0.351727  0.840337  0.123310  1
  Th  Th19  1  0.852838  0.661102  0.377755  1
  Pt  Pt20  1  0.685482  0.958499  0.457830  1
  Pt  Pt21  1  0.194127  0.539834  0.040434  1
  Pt  Pt22  1  0.305444  0.040484  0.960316  1
  Pt  Pt23  1  0.808241  0.458256  0.539713  1
  Pt  Pt24  1  0.322876  0.029621  0.540934  1
  Pt  Pt25  1  0.826454  0.466273  0.955638  1
  Pt  Pt26  1  0.674104  0.966130  0.044780  1
  Pt  Pt27  1  0.180302  0.544671  0.455640  1
  Pt  Pt28  1  0.446931  0.377951  0.746361  1
  Pt  Pt29  1  0.946733  0.120075  0.752290  1
  Pt  Pt30  1  0.549566  0.624388  0.251784  1
  Pt  Pt31  1  0.057666  0.878977  0.255097  1
  Pt  Pt32  1  0.679122  0.864201  0.745880  1
  Pt  Pt33  1  0.179742  0.634677  0.753753  1
  Pt  Pt34  1  0.325896  0.132488  0.249585  1
  Pt  Pt35  1  0.817184  0.367589  0.253309  1
