# generated using pymatgen
data_DyHo11Co4SnPt
_symmetry_space_group_name_H-M   'P 1'
_cell_length_a   8.27698057
_cell_length_b   8.27698038
_cell_length_c   8.27607417
_cell_angle_alpha   106.81895693
_cell_angle_beta   110.48606802
_cell_angle_gamma   111.14576417
_symmetry_Int_Tables_number   1
_chemical_formula_structural   DyHo11Co4SnPt
_chemical_formula_sum   'Dy1 Ho11 Co4 Sn1 Pt1'
_cell_volume   435.72570497
_cell_formula_units_Z   1
loop_
 _symmetry_equiv_pos_site_id
 _symmetry_equiv_pos_as_xyz
  1  'x, y, z'
loop_
 _atom_site_type_symbol
 _atom_site_label
 _atom_site_symmetry_multiplicity
 _atom_site_fract_x
 _atom_site_fract_y
 _atom_site_fract_z
 _atom_site_occupancy
  Dy  Dy0  1  0.800617  0.214419  0.015037  1
  Ho  Ho1  1  0.476223  0.291120  0.185192  1
  Ho  Ho2  1  0.105992  0.291136  0.814820  1
  Ho  Ho3  1  0.894072  0.708969  0.185192  1
  Ho  Ho4  1  0.523684  0.708828  0.814820  1
  Ho  Ho5  1  0.305353  0.620236  0.314930  1
  Ho  Ho6  1  0.305183  0.990339  0.685026  1
  Ho  Ho7  1  0.694688  0.379842  0.685026  1
  Ho  Ho8  1  0.694695  0.009576  0.314930  1
  Ho  Ho9  1  0.199420  0.214325  0.413745  1
  Ho  Ho10  1  0.800630  0.785631  0.586261  1
  Ho  Ho11  1  0.199366  0.785684  0.985049  1
  Co  Co12  1  0.499999  0.612042  0.112041  1
  Co  Co13  1  0.499962  0.387993  0.887955  1
  Co  Co14  1  0.378088  0.000014  0.378102  1
  Co  Co15  1  0.621873  0.999942  0.621815  1
  Sn  Sn16  1  0.000022  0.500040  0.500061  1
  Pt  Pt17  1  0.000135  0.999864  0.999999  1
