# generated using pymatgen
data_Sr20(InAg3)3
_symmetry_space_group_name_H-M   'P 1'
_cell_length_a   8.60159500
_cell_length_b   8.60159500
_cell_length_c   15.94600600
_cell_angle_alpha   90.00000000
_cell_angle_beta   90.00000000
_cell_angle_gamma   90.00000000
_symmetry_Int_Tables_number   1
_chemical_formula_structural   Sr20(InAg3)3
_chemical_formula_sum   'Sr20 In3 Ag9'
_cell_volume   1179.80410706
_cell_formula_units_Z   1
loop_
 _symmetry_equiv_pos_site_id
 _symmetry_equiv_pos_as_xyz
  1  'x, y, z'
loop_
 _atom_site_type_symbol
 _atom_site_label
 _atom_site_symmetry_multiplicity
 _atom_site_fract_x
 _atom_site_fract_y
 _atom_site_fract_z
 _atom_site_occupancy
  Sr  Sr0  1  0.674045  0.164829  0.104817  1
  Sr  Sr1  1  0.171279  0.670782  0.607536  1
  Sr  Sr2  1  0.325955  0.835171  0.104817  1
  Sr  Sr3  1  0.828721  0.329218  0.607536  1
  Sr  Sr4  1  0.835171  0.674045  0.104817  1
  Sr  Sr5  1  0.329218  0.171279  0.607536  1
  Sr  Sr6  1  0.164829  0.325955  0.104817  1
  Sr  Sr7  1  0.670782  0.828721  0.607536  1
  Sr  Sr8  1  0.835171  0.325955  0.895183  1
  Sr  Sr9  1  0.329218  0.828721  0.392464  1
  Sr  Sr10  1  0.164829  0.674045  0.895183  1
  Sr  Sr11  1  0.670782  0.171279  0.392464  1
  Sr  Sr12  1  0.674045  0.835171  0.895183  1
  Sr  Sr13  1  0.171279  0.329218  0.392464  1
  Sr  Sr14  1  0.325955  0.164829  0.895183  1
  Sr  Sr15  1  0.828721  0.670782  0.392464  1
  Sr  Sr16  1  0.500000  0.500000  0.755622  1
  Sr  Sr17  1  0.000000  0.000000  0.254563  1
  Sr  Sr18  1  0.000000  0.000000  0.745437  1
  Sr  Sr19  1  0.500000  0.500000  0.244378  1
  In  In20  1  0.500000  0.500000  0.500000  1
  In  In21  1  0.500000  0.500000  0.000000  1
  In  In22  1  0.000000  0.000000  0.500000  1
  Ag  Ag23  1  0.622381  0.121379  0.752318  1
  Ag  Ag24  1  0.121379  0.622381  0.247682  1
  Ag  Ag25  1  0.878621  0.377619  0.247682  1
  Ag  Ag26  1  0.377619  0.878621  0.752318  1
  Ag  Ag27  1  0.878621  0.622381  0.752318  1
  Ag  Ag28  1  0.377619  0.121379  0.247682  1
  Ag  Ag29  1  0.121379  0.377619  0.752318  1
  Ag  Ag30  1  0.622381  0.878621  0.247682  1
  Ag  Ag31  1  0.000000  0.000000  0.000000  1
