# generated using pymatgen
data_Lu3PaGe6Ir7
_symmetry_space_group_name_H-M   'P 1'
_cell_length_a   7.23190532
_cell_length_b   7.24690991
_cell_length_c   7.24691041
_cell_angle_alpha   109.50397401
_cell_angle_beta   109.43003900
_cell_angle_gamma   109.43004712
_symmetry_Int_Tables_number   1
_chemical_formula_structural   Lu3PaGe6Ir7
_chemical_formula_sum   'Lu3 Pa1 Ge6 Ir7'
_cell_volume   292.55126827
_cell_formula_units_Z   1
loop_
 _symmetry_equiv_pos_site_id
 _symmetry_equiv_pos_as_xyz
  1  'x, y, z'
loop_
 _atom_site_type_symbol
 _atom_site_label
 _atom_site_symmetry_multiplicity
 _atom_site_fract_x
 _atom_site_fract_y
 _atom_site_fract_z
 _atom_site_occupancy
  Lu  Lu0  1  0.000000  0.000000  0.500000  1
  Lu  Lu1  1  0.000000  0.500000  0.000000  1
  Lu  Lu2  1  0.500000  0.500000  0.500000  1
  Pa  Pa3  1  0.500000  0.000000  0.000000  1
  Ge  Ge4  1  0.687550  0.680153  0.999870  1
  Ge  Ge5  1  0.312450  0.000130  0.319847  1
  Ge  Ge6  1  0.007395  0.319880  0.319880  1
  Ge  Ge7  1  0.312450  0.319847  0.000130  1
  Ge  Ge8  1  0.687550  0.999870  0.680153  1
  Ge  Ge9  1  0.992605  0.680120  0.680120  1
  Ir  Ir10  1  0.748122  0.248184  0.496435  1
  Ir  Ir11  1  0.748122  0.496435  0.248184  1
  Ir  Ir12  1  0.500000  0.248225  0.751775  1
  Ir  Ir13  1  0.251878  0.503565  0.751816  1
  Ir  Ir14  1  0.251878  0.751816  0.503565  1
  Ir  Ir15  1  0.500000  0.751775  0.248225  1
  Ir  Ir16  1  0.000000  0.000000  0.000000  1
