# generated using pymatgen
data_CaYb3(Si5Pt3)2
_symmetry_space_group_name_H-M   'P 1'
_cell_length_a   8.24449548
_cell_length_b   8.24747126
_cell_length_c   8.24747084
_cell_angle_alpha   137.98816722
_cell_angle_beta   104.48190667
_cell_angle_gamma   90.40175614
_symmetry_Int_Tables_number   1
_chemical_formula_structural   CaYb3(Si5Pt3)2
_chemical_formula_sum   'Ca1 Yb3 Si10 Pt6'
_cell_volume   346.94672627
_cell_formula_units_Z   1
loop_
 _symmetry_equiv_pos_site_id
 _symmetry_equiv_pos_as_xyz
  1  'x, y, z'
loop_
 _atom_site_type_symbol
 _atom_site_label
 _atom_site_symmetry_multiplicity
 _atom_site_fract_x
 _atom_site_fract_y
 _atom_site_fract_z
 _atom_site_occupancy
  Ca  Ca0  1  0.895044  0.129034  0.766010  1
  Yb  Yb1  1  0.636812  0.370637  0.266175  1
  Yb  Yb2  1  0.363216  0.629356  0.733860  1
  Yb  Yb3  1  0.104513  0.870681  0.233831  1
  Si  Si4  1  0.462324  0.112399  0.349926  1
  Si  Si5  1  0.537375  0.887311  0.650063  1
  Si  Si6  1  0.762396  0.612446  0.149950  1
  Si  Si7  1  0.237723  0.387912  0.849811  1
  Si  Si8  1  0.270415  0.520455  0.250688  1
  Si  Si9  1  0.729894  0.480219  0.749836  1
  Si  Si10  1  0.729894  0.980058  0.249674  1
  Si  Si11  1  0.270415  0.019727  0.749961  1
  Si  Si12  1  0.000150  0.250025  0.250384  1
  Si  Si13  1  0.000150  0.749766  0.750125  1
  Pt  Pt14  1  0.499429  0.250105  0.749843  1
  Pt  Pt15  1  0.499429  0.749586  0.249324  1
  Pt  Pt16  1  0.252234  0.136061  0.116173  1
  Pt  Pt17  1  0.747947  0.863843  0.884104  1
  Pt  Pt18  1  0.020455  0.635958  0.384496  1
  Pt  Pt19  1  0.980187  0.364423  0.615765  1
