# generated using pymatgen
data_Ag2AuO4
_symmetry_space_group_name_H-M   'P 1'
_cell_length_a   9.29530400
_cell_length_b   3.90586516
_cell_length_c   5.69715746
_cell_angle_alpha   76.83236788
_cell_angle_beta   90.00000000
_cell_angle_gamma   90.00000000
_symmetry_Int_Tables_number   1
_chemical_formula_structural   Ag2AuO4
_chemical_formula_sum   'Ag4 Au2 O8'
_cell_volume   201.40381518
_cell_formula_units_Z   2
loop_
 _symmetry_equiv_pos_site_id
 _symmetry_equiv_pos_as_xyz
  1  'x, y, z'
loop_
 _atom_site_type_symbol
 _atom_site_label
 _atom_site_symmetry_multiplicity
 _atom_site_fract_x
 _atom_site_fract_y
 _atom_site_fract_z
 _atom_site_occupancy
  Ag  Ag0  1  0.141973  0.314415  0.448421  1
  Ag  Ag1  1  0.641973  0.685585  0.051579  1
  Ag  Ag2  1  0.499142  0.987495  0.508115  1
  Ag  Ag3  1  0.999142  0.012505  0.991885  1
  Au  Au4  1  0.862789  0.715513  0.542844  1
  Au  Au5  1  0.362789  0.284487  0.957156  1
  O  O6  1  0.696403  0.934149  0.332796  1
  O  O7  1  0.196403  0.065851  0.167204  1
  O  O8  1  0.304310  0.070650  0.677558  1
  O  O9  1  0.804310  0.929350  0.822442  1
  O  O10  1  0.956375  0.549739  0.262556  1
  O  O11  1  0.456375  0.450261  0.237444  1
  O  O12  1  0.539009  0.512490  0.770024  1
  O  O13  1  0.039009  0.487510  0.729976  1
