# generated using pymatgen
data_Ba6Er2RhO12
_symmetry_space_group_name_H-M   'P 1'
_cell_length_a   9.47375772
_cell_length_b   9.47375698
_cell_length_c   7.35145400
_cell_angle_alpha   67.31716858
_cell_angle_beta   67.31717702
_cell_angle_gamma   36.87818295
_symmetry_Int_Tables_number   1
_chemical_formula_structural   Ba6Er2RhO12
_chemical_formula_sum   'Ba6 Er2 Rh1 O12'
_cell_volume   361.77051786
_cell_formula_units_Z   1
loop_
 _symmetry_equiv_pos_site_id
 _symmetry_equiv_pos_as_xyz
  1  'x, y, z'
loop_
 _atom_site_type_symbol
 _atom_site_label
 _atom_site_symmetry_multiplicity
 _atom_site_fract_x
 _atom_site_fract_y
 _atom_site_fract_z
 _atom_site_occupancy
  Ba  Ba0  1  0.880228  0.880228  0.709886  1
  Ba  Ba1  1  0.215742  0.215742  0.711402  1
  Ba  Ba2  1  0.547981  0.547981  0.709071  1
  Ba  Ba3  1  0.452019  0.452019  0.290929  1
  Ba  Ba4  1  0.784258  0.784258  0.288598  1
  Ba  Ba5  1  0.119772  0.119772  0.290114  1
  Er  Er6  1  0.665311  0.665311  0.998956  1
  Er  Er7  1  0.334689  0.334689  0.001044  1
  Rh  Rh8  1  0.000000  0.000000  0.000000  1
  O  O9  1  0.950704  0.950704  0.300745  1
  O  O10  1  0.282687  0.282687  0.332561  1
  O  O11  1  0.605571  0.605571  0.332008  1
  O  O12  1  0.394429  0.394429  0.667992  1
  O  O13  1  0.717313  0.717313  0.667439  1
  O  O14  1  0.049296  0.049296  0.699255  1
  O  O15  1  0.500000  0.000000  0.000000  1
  O  O16  1  0.845127  0.308995  0.001048  1
  O  O17  1  0.154873  0.691005  0.998952  1
  O  O18  1  0.000000  0.500000  0.000000  1
  O  O19  1  0.308995  0.845127  0.001048  1
  O  O20  1  0.691005  0.154873  0.998952  1
