# generated using pymatgen
data_Ca3Dy(Si3Ni5)4
_symmetry_space_group_name_H-M   'P 1'
_cell_length_a   3.79267800
_cell_length_b   6.64573334
_cell_length_c   18.79256922
_cell_angle_alpha   89.86918880
_cell_angle_beta   90.00000000
_cell_angle_gamma   90.00000000
_symmetry_Int_Tables_number   1
_chemical_formula_structural   Ca3Dy(Si3Ni5)4
_chemical_formula_sum   'Ca3 Dy1 Si12 Ni20'
_cell_volume   473.66785236
_cell_formula_units_Z   1
loop_
 _symmetry_equiv_pos_site_id
 _symmetry_equiv_pos_as_xyz
  1  'x, y, z'
loop_
 _atom_site_type_symbol
 _atom_site_label
 _atom_site_symmetry_multiplicity
 _atom_site_fract_x
 _atom_site_fract_y
 _atom_site_fract_z
 _atom_site_occupancy
  Ca  Ca0  1  0.250000  0.876676  0.357251  1
  Ca  Ca1  1  0.750000  0.123182  0.643261  1
  Ca  Ca2  1  0.750000  0.376047  0.142332  1
  Dy  Dy3  1  0.250000  0.625056  0.856787  1
  Si  Si4  1  0.250000  0.077342  0.085784  1
  Si  Si5  1  0.750000  0.921414  0.913615  1
  Si  Si6  1  0.750000  0.577806  0.413962  1
  Si  Si7  1  0.250000  0.422026  0.586433  1
  Si  Si8  1  0.250000  0.657390  0.074067  1
  Si  Si9  1  0.750000  0.344910  0.926003  1
  Si  Si10  1  0.750000  0.157317  0.425795  1
  Si  Si11  1  0.250000  0.842713  0.574260  1
  Si  Si12  1  0.250000  0.376881  0.261617  1
  Si  Si13  1  0.750000  0.622134  0.738530  1
  Si  Si14  1  0.750000  0.877073  0.237924  1
  Si  Si15  1  0.250000  0.121291  0.762497  1
  Ni  Ni16  1  0.250000  0.066484  0.206899  1
  Ni  Ni17  1  0.750000  0.931733  0.792913  1
  Ni  Ni18  1  0.750000  0.565811  0.293069  1
  Ni  Ni19  1  0.250000  0.432368  0.707415  1
  Ni  Ni20  1  0.250000  0.614181  0.484320  1
  Ni  Ni21  1  0.750000  0.386070  0.515764  1
  Ni  Ni22  1  0.750000  0.114201  0.015224  1
  Ni  Ni23  1  0.250000  0.885783  0.983991  1
  Ni  Ni24  1  0.250000  0.685856  0.199703  1
  Ni  Ni25  1  0.750000  0.315006  0.801397  1
  Ni  Ni26  1  0.750000  0.185559  0.300264  1
  Ni  Ni27  1  0.250000  0.812930  0.699887  1
  Ni  Ni28  1  0.250000  0.359202  0.383497  1
  Ni  Ni29  1  0.750000  0.641661  0.616603  1
  Ni  Ni30  1  0.750000  0.857243  0.115915  1
  Ni  Ni31  1  0.250000  0.144586  0.884399  1
  Ni  Ni32  1  0.250000  0.366866  0.003918  1
  Ni  Ni33  1  0.750000  0.635088  0.994925  1
  Ni  Ni34  1  0.750000  0.865352  0.496066  1
  Ni  Ni35  1  0.250000  0.134761  0.503712  1
