# generated using pymatgen
data_PrNd7(YIn5)4
_symmetry_space_group_name_H-M   'P 1'
_cell_length_a   6.67217121
_cell_length_b   10.55421612
_cell_length_c   12.44630428
_cell_angle_alpha   90.00602570
_cell_angle_beta   89.97661980
_cell_angle_gamma   89.98371908
_symmetry_Int_Tables_number   1
_chemical_formula_structural   PrNd7(YIn5)4
_chemical_formula_sum   'Pr1 Nd7 Y4 In20'
_cell_volume   876.46287013
_cell_formula_units_Z   1
loop_
 _symmetry_equiv_pos_site_id
 _symmetry_equiv_pos_as_xyz
  1  'x, y, z'
loop_
 _atom_site_type_symbol
 _atom_site_label
 _atom_site_symmetry_multiplicity
 _atom_site_fract_x
 _atom_site_fract_y
 _atom_site_fract_z
 _atom_site_occupancy
  Pr  Pr0  1  0.611371  0.489898  0.643874  1
  Nd  Nd1  1  0.888814  0.489960  0.143907  1
  Nd  Nd2  1  0.611249  0.010067  0.643888  1
  Nd  Nd3  1  0.111244  0.989936  0.856135  1
  Nd  Nd4  1  0.388656  0.510064  0.355839  1
  Nd  Nd5  1  0.111286  0.510034  0.856210  1
  Nd  Nd6  1  0.388707  0.989950  0.356024  1
  Nd  Nd7  1  0.888793  0.010080  0.143933  1
  Y  Y8  1  0.349393  0.750046  0.059885  1
  Y  Y9  1  0.150373  0.749996  0.559832  1
  Y  Y10  1  0.650618  0.249991  0.940179  1
  Y  Y11  1  0.849507  0.249826  0.439980  1
  In  In12  1  0.616763  0.750604  0.502895  1
  In  In13  1  0.883369  0.750019  0.003379  1
  In  In14  1  0.382884  0.249745  0.496532  1
  In  In15  1  0.116619  0.249997  0.996652  1
  In  In16  1  0.654528  0.750026  0.243956  1
  In  In17  1  0.845801  0.750388  0.744203  1
  In  In18  1  0.345151  0.249647  0.756191  1
  In  In19  1  0.154543  0.249985  0.255976  1
  In  In20  1  0.110873  0.749996  0.284390  1
  In  In21  1  0.388916  0.750245  0.784589  1
  In  In22  1  0.889752  0.249435  0.715780  1
  In  In23  1  0.610917  0.249999  0.215615  1
  In  In24  1  0.874464  0.545382  0.403893  1
  In  In25  1  0.625772  0.954719  0.904080  1
  In  In26  1  0.125747  0.045252  0.595898  1
  In  In27  1  0.374251  0.454688  0.095934  1
  In  In28  1  0.125271  0.454548  0.595743  1
  In  In29  1  0.374247  0.045280  0.095911  1
  In  In30  1  0.874303  0.954710  0.404061  1
  In  In31  1  0.625818  0.545486  0.904637  1
