# generated using pymatgen
data_Nb2SiPRh2
_symmetry_space_group_name_H-M   'P 1'
_cell_length_a   3.76449400
_cell_length_b   6.42001500
_cell_length_c   7.30796900
_cell_angle_alpha   90.00000000
_cell_angle_beta   90.00000000
_cell_angle_gamma   90.00000000
_symmetry_Int_Tables_number   1
_chemical_formula_structural   Nb2SiPRh2
_chemical_formula_sum   'Nb4 Si2 P2 Rh4'
_cell_volume   176.61978367
_cell_formula_units_Z   2
loop_
 _symmetry_equiv_pos_site_id
 _symmetry_equiv_pos_as_xyz
  1  'x, y, z'
loop_
 _atom_site_type_symbol
 _atom_site_label
 _atom_site_symmetry_multiplicity
 _atom_site_fract_x
 _atom_site_fract_y
 _atom_site_fract_z
 _atom_site_occupancy
  Nb  Nb0  1  0.250000  0.025981  0.827911  1
  Nb  Nb1  1  0.250000  0.525981  0.672089  1
  Nb  Nb2  1  0.750000  0.971196  0.168036  1
  Nb  Nb3  1  0.750000  0.471196  0.331964  1
  Si  Si4  1  0.250000  0.766587  0.373630  1
  Si  Si5  1  0.250000  0.266587  0.126370  1
  P  P6  1  0.750000  0.235717  0.625699  1
  P  P7  1  0.750000  0.735717  0.874301  1
  Rh  Rh8  1  0.250000  0.146214  0.441280  1
  Rh  Rh9  1  0.250000  0.646214  0.058720  1
  Rh  Rh10  1  0.750000  0.854305  0.564358  1
  Rh  Rh11  1  0.750000  0.354305  0.935642  1
