# generated using pymatgen
data_DyY4(MnB3)2
_symmetry_space_group_name_H-M   'P 1'
_cell_length_a   5.45482839
_cell_length_b   5.45482831
_cell_length_c   8.28125797
_cell_angle_alpha   70.77079730
_cell_angle_beta   70.77079851
_cell_angle_gamma   59.99999793
_symmetry_Int_Tables_number   1
_chemical_formula_structural   DyY4(MnB3)2
_chemical_formula_sum   'Dy1 Y4 Mn2 B6'
_cell_volume   197.36355061
_cell_formula_units_Z   1
loop_
 _symmetry_equiv_pos_site_id
 _symmetry_equiv_pos_as_xyz
  1  'x, y, z'
loop_
 _atom_site_type_symbol
 _atom_site_label
 _atom_site_symmetry_multiplicity
 _atom_site_fract_x
 _atom_site_fract_y
 _atom_site_fract_z
 _atom_site_occupancy
  Dy  Dy0  1  0.000000  0.000000  0.000000  1
  Y  Y1  1  0.251026  0.251026  0.246922  1
  Y  Y2  1  0.748974  0.748974  0.753078  1
  Y  Y3  1  0.416228  0.416228  0.751318  1
  Y  Y4  1  0.583772  0.583772  0.248682  1
  Mn  Mn5  1  0.115148  0.115148  0.654555  1
  Mn  Mn6  1  0.884852  0.884852  0.345445  1
  B  B7  1  0.166177  0.833823  0.500000  1
  B  B8  1  0.833823  0.500000  0.500000  1
  B  B9  1  0.500000  0.166177  0.500000  1
  B  B10  1  0.166177  0.500000  0.500000  1
  B  B11  1  0.500000  0.833823  0.500000  1
  B  B12  1  0.833823  0.166177  0.500000  1
