# generated using pymatgen
data_Er3In3Ag2Hg
_symmetry_space_group_name_H-M   'P 1'
_cell_length_a   7.77573400
_cell_length_b   7.77573521
_cell_length_c   4.08014800
_cell_angle_alpha   90.00000000
_cell_angle_beta   90.00000000
_cell_angle_gamma   120.00000335
_symmetry_Int_Tables_number   1
_chemical_formula_structural   Er3In3Ag2Hg
_chemical_formula_sum   'Er3 In3 Ag2 Hg1'
_cell_volume   213.64335637
_cell_formula_units_Z   1
loop_
 _symmetry_equiv_pos_site_id
 _symmetry_equiv_pos_as_xyz
  1  'x, y, z'
loop_
 _atom_site_type_symbol
 _atom_site_label
 _atom_site_symmetry_multiplicity
 _atom_site_fract_x
 _atom_site_fract_y
 _atom_site_fract_z
 _atom_site_occupancy
  Er  Er0  1  0.595661  0.001772  0.500000  1
  Er  Er1  1  0.406111  0.404339  0.500000  1
  Er  Er2  1  0.998228  0.593889  0.500000  1
  In  In3  1  0.991780  0.254181  0.000000  1
  In  In4  1  0.745819  0.737598  0.000000  1
  In  In5  1  0.262402  0.008220  0.000000  1
  Ag  Ag6  1  0.666667  0.333333  0.000000  1
  Ag  Ag7  1  0.000000  0.000000  0.500000  1
  Hg  Hg8  1  0.333333  0.666667  0.000000  1
