# generated using pymatgen
data_Dy6Er2Ti11Si16Rh
_symmetry_space_group_name_H-M   'P 1'
_cell_length_a   7.03679914
_cell_length_b   7.03573791
_cell_length_c   12.87185202
_cell_angle_alpha   89.88785846
_cell_angle_beta   90.10305712
_cell_angle_gamma   89.81974326
_symmetry_Int_Tables_number   1
_chemical_formula_structural   Dy6Er2Ti11Si16Rh
_chemical_formula_sum   'Dy6 Er2 Ti11 Si16 Rh1'
_cell_volume   637.26806752
_cell_formula_units_Z   1
loop_
 _symmetry_equiv_pos_site_id
 _symmetry_equiv_pos_as_xyz
  1  'x, y, z'
loop_
 _atom_site_type_symbol
 _atom_site_label
 _atom_site_symmetry_multiplicity
 _atom_site_fract_x
 _atom_site_fract_y
 _atom_site_fract_z
 _atom_site_occupancy
  Dy  Dy0  1  0.660040  0.995805  0.967228  1
  Dy  Dy1  1  0.158511  0.503387  0.782157  1
  Dy  Dy2  1  0.841019  0.498981  0.285100  1
  Dy  Dy3  1  0.503428  0.158729  0.217809  1
  Dy  Dy4  1  0.499034  0.840912  0.714915  1
  Dy  Dy5  1  0.342198  0.001883  0.468094  1
  Er  Er6  1  0.996405  0.659613  0.032797  1
  Er  Er7  1  0.001229  0.342459  0.532143  1
  Ti  Ti8  1  0.344192  0.505876  0.374921  1
  Ti  Ti9  1  0.850391  0.996280  0.376397  1
  Ti  Ti10  1  0.006158  0.151200  0.124850  1
  Ti  Ti11  1  0.996264  0.850417  0.623702  1
  Ti  Ti12  1  0.506073  0.344359  0.625141  1
  Ti  Ti13  1  0.151175  0.006168  0.875150  1
  Ti  Ti14  1  0.824556  0.173150  0.748593  1
  Ti  Ti15  1  0.172947  0.824416  0.251264  1
  Ti  Ti16  1  0.326349  0.326699  0.999990  1
  Ti  Ti17  1  0.493154  0.650943  0.127597  1
  Ti  Ti18  1  0.651136  0.493278  0.872364  1
  Si  Si19  1  0.049543  0.712489  0.436057  1
  Si  Si20  1  0.952276  0.291958  0.934599  1
  Si  Si21  1  0.713572  0.050199  0.564140  1
  Si  Si22  1  0.207710  0.453337  0.184118  1
  Si  Si23  1  0.790409  0.550159  0.682526  1
  Si  Si24  1  0.452976  0.208069  0.815637  1
  Si  Si25  1  0.550648  0.790022  0.317245  1
  Si  Si26  1  0.291046  0.951807  0.065473  1
  Si  Si27  1  0.798060  0.867510  0.185095  1
  Si  Si28  1  0.296635  0.627157  0.565742  1
  Si  Si29  1  0.704724  0.369781  0.065734  1
  Si  Si30  1  0.628214  0.297239  0.434439  1
  Si  Si31  1  0.368812  0.704276  0.934311  1
  Si  Si32  1  0.130837  0.203494  0.316084  1
  Si  Si33  1  0.202904  0.131327  0.683831  1
  Si  Si34  1  0.867921  0.797604  0.814779  1
  Rh  Rh35  1  0.669456  0.669016  0.499977  1
