# generated using pymatgen
data_Y5Co16(P4W)3
_symmetry_space_group_name_H-M   'P 1'
_cell_length_a   12.08029700
_cell_length_b   12.08029704
_cell_length_c   3.71041600
_cell_angle_alpha   90.00000000
_cell_angle_beta   90.00000000
_cell_angle_gamma   119.99999167
_symmetry_Int_Tables_number   1
_chemical_formula_structural   Y5Co16(P4W)3
_chemical_formula_sum   'Y5 Co16 P12 W3'
_cell_volume   468.93051758
_cell_formula_units_Z   1
loop_
 _symmetry_equiv_pos_site_id
 _symmetry_equiv_pos_as_xyz
  1  'x, y, z'
loop_
 _atom_site_type_symbol
 _atom_site_label
 _atom_site_symmetry_multiplicity
 _atom_site_fract_x
 _atom_site_fract_y
 _atom_site_fract_z
 _atom_site_occupancy
  Y  Y0  1  0.666667  0.333333  0.000000  1
  Y  Y1  1  0.333333  0.666667  0.000000  1
  Y  Y2  1  0.185083  0.185083  0.500000  1
  Y  Y3  1  0.814917  0.000000  0.500000  1
  Y  Y4  1  0.000000  0.814917  0.500000  1
  Co  Co5  1  0.823387  0.198926  0.000000  1
  Co  Co6  1  0.801074  0.624462  0.000000  1
  Co  Co7  1  0.375538  0.176613  0.000000  1
  Co  Co8  1  0.198926  0.823387  0.000000  1
  Co  Co9  1  0.624462  0.801074  0.000000  1
  Co  Co10  1  0.176613  0.375538  0.000000  1
  Co  Co11  1  0.644091  0.126858  0.500000  1
  Co  Co12  1  0.873142  0.517234  0.500000  1
  Co  Co13  1  0.482766  0.355909  0.500000  1
  Co  Co14  1  0.126858  0.644091  0.500000  1
  Co  Co15  1  0.517234  0.873142  0.500000  1
  Co  Co16  1  0.355909  0.482766  0.500000  1
  Co  Co17  1  0.718538  0.718538  0.500000  1
  Co  Co18  1  0.281462  0.000000  0.500000  1
  Co  Co19  1  0.000000  0.281462  0.500000  1
  Co  Co20  1  0.000000  0.000000  0.000000  1
  P  P21  1  0.359935  0.359935  0.000000  1
  P  P22  1  0.640065  0.000000  0.000000  1
  P  P23  1  0.000000  0.640065  0.000000  1
  P  P24  1  0.834287  0.313849  0.500000  1
  P  P25  1  0.686151  0.520438  0.500000  1
  P  P26  1  0.479562  0.165713  0.500000  1
  P  P27  1  0.313849  0.834287  0.500000  1
  P  P28  1  0.520438  0.686151  0.500000  1
  P  P29  1  0.165713  0.479562  0.500000  1
  P  P30  1  0.822068  0.822068  0.000000  1
  P  P31  1  0.177932  0.000000  0.000000  1
  P  P32  1  0.000000  0.177932  0.000000  1
  W  W33  1  0.553438  0.553438  0.000000  1
  W  W34  1  0.446562  0.000000  0.000000  1
  W  W35  1  0.000000  0.446562  0.000000  1
