# generated using pymatgen
data_Dy2Si2P4Pd21
_symmetry_space_group_name_H-M   'P 1'
_cell_length_a   8.68664744
_cell_length_b   8.68665100
_cell_length_c   8.68516800
_cell_angle_alpha   60.00564726
_cell_angle_beta   60.00569463
_cell_angle_gamma   60.06292087
_symmetry_Int_Tables_number   1
_chemical_formula_structural   Dy2Si2P4Pd21
_chemical_formula_sum   'Dy2 Si2 P4 Pd21'
_cell_volume   463.67229037
_cell_formula_units_Z   1
loop_
 _symmetry_equiv_pos_site_id
 _symmetry_equiv_pos_as_xyz
  1  'x, y, z'
loop_
 _atom_site_type_symbol
 _atom_site_label
 _atom_site_symmetry_multiplicity
 _atom_site_fract_x
 _atom_site_fract_y
 _atom_site_fract_z
 _atom_site_occupancy
  Dy  Dy0  1  0.749874  0.749873  0.751583  1
  Dy  Dy1  1  0.250126  0.250125  0.251333  1
  Si  Si2  1  0.738780  0.261220  0.740612  1
  Si  Si3  1  0.261220  0.738780  0.740613  1
  P  P4  1  0.737942  0.737942  0.264127  1
  P  P5  1  0.260795  0.739205  0.263027  1
  P  P6  1  0.739205  0.260795  0.263027  1
  P  P7  1  0.262058  0.262058  0.740012  1
  Pd  Pd8  1  0.999999  0.000001  0.994816  1
  Pd  Pd9  1  0.614495  0.614495  0.156778  1
  Pd  Pd10  1  0.614780  0.154758  0.614812  1
  Pd  Pd11  1  0.154758  0.614780  0.614811  1
  Pd  Pd12  1  0.616068  0.616068  0.614665  1
  Pd  Pd13  1  0.383931  0.383932  0.846802  1
  Pd  Pd14  1  0.385220  0.845242  0.384349  1
  Pd  Pd15  1  0.845241  0.385220  0.384349  1
  Pd  Pd16  1  0.385506  0.385506  0.385767  1
  Pd  Pd17  1  0.000000  0.000000  0.342845  1
  Pd  Pd18  1  0.655246  0.001513  0.341580  1
  Pd  Pd19  1  0.001513  0.655246  0.341581  1
  Pd  Pd20  1  0.654413  0.345586  0.002600  1
  Pd  Pd21  1  0.998487  0.344755  0.998339  1
  Pd  Pd22  1  0.003961  0.344628  0.652823  1
  Pd  Pd23  1  0.345587  0.654414  0.002599  1
  Pd  Pd24  1  0.344629  0.003962  0.652823  1
  Pd  Pd25  1  0.344754  0.998487  0.998339  1
  Pd  Pd26  1  0.000000  0.000000  0.652162  1
  Pd  Pd27  1  0.996039  0.655372  0.001412  1
  Pd  Pd28  1  0.655372  0.996039  0.001413  1
