# generated using pymatgen
data_La2Y14Cd4Co3Ni
_symmetry_space_group_name_H-M   'P 1'
_cell_length_a   9.57113168
_cell_length_b   9.57926029
_cell_length_c   9.61517100
_cell_angle_alpha   59.87591654
_cell_angle_beta   59.84767773
_cell_angle_gamma   60.00481305
_symmetry_Int_Tables_number   1
_chemical_formula_structural   La2Y14Cd4Co3Ni
_chemical_formula_sum   'La2 Y14 Cd4 Co3 Ni1'
_cell_volume   622.07475414
_cell_formula_units_Z   1
loop_
 _symmetry_equiv_pos_site_id
 _symmetry_equiv_pos_as_xyz
  1  'x, y, z'
loop_
 _atom_site_type_symbol
 _atom_site_label
 _atom_site_symmetry_multiplicity
 _atom_site_fract_x
 _atom_site_fract_y
 _atom_site_fract_z
 _atom_site_occupancy
  La  La0  1  0.590907  0.596477  0.600876  1
  La  La1  1  0.590907  0.596477  0.211739  1
  Y  Y2  1  0.599291  0.200010  0.600349  1
  Y  Y3  1  0.202365  0.599778  0.598928  1
  Y  Y4  1  0.066936  0.436860  0.438174  1
  Y  Y5  1  0.436545  0.064499  0.060958  1
  Y  Y6  1  0.436545  0.064499  0.437998  1
  Y  Y7  1  0.066936  0.436860  0.058029  1
  Y  Y8  1  0.436106  0.436889  0.063502  1
  Y  Y9  1  0.067385  0.057494  0.437560  1
  Y  Y10  1  0.185427  0.814877  0.813942  1
  Y  Y11  1  0.812565  0.187663  0.185494  1
  Y  Y12  1  0.812565  0.187663  0.814277  1
  Y  Y13  1  0.185427  0.814877  0.185754  1
  Y  Y14  1  0.812012  0.815590  0.186199  1
  Y  Y15  1  0.189073  0.189914  0.810507  1
  Cd  Cd16  1  0.831550  0.831731  0.827978  1
  Cd  Cd17  1  0.831550  0.831731  0.508740  1
  Cd  Cd18  1  0.833150  0.506847  0.830000  1
  Cd  Cd19  1  0.505743  0.833792  0.830233  1
  Co  Co20  1  0.392334  0.391112  0.393480  1
  Co  Co21  1  0.392334  0.391112  0.823074  1
  Co  Co22  1  0.392729  0.825613  0.390829  1
  Ni  Ni23  1  0.829616  0.387631  0.391377  1
