# generated using pymatgen
data_HoU3(SnIr2)2
_symmetry_space_group_name_H-M   'P 1'
_cell_length_a   7.67543489
_cell_length_b   7.67918701
_cell_length_c   3.54584800
_cell_angle_alpha   90.00000000
_cell_angle_beta   90.00000000
_cell_angle_gamma   91.42720915
_symmetry_Int_Tables_number   1
_chemical_formula_structural   HoU3(SnIr2)2
_chemical_formula_sum   'Ho1 U3 Sn2 Ir4'
_cell_volume   208.93134513
_cell_formula_units_Z   1
loop_
 _symmetry_equiv_pos_site_id
 _symmetry_equiv_pos_as_xyz
  1  'x, y, z'
loop_
 _atom_site_type_symbol
 _atom_site_label
 _atom_site_symmetry_multiplicity
 _atom_site_fract_x
 _atom_site_fract_y
 _atom_site_fract_z
 _atom_site_occupancy
  Ho  Ho0  1  0.170735  0.329264  0.000000  1
  U  U1  1  0.832378  0.667668  0.000000  1
  U  U2  1  0.668850  0.172421  0.000000  1
  U  U3  1  0.327602  0.831148  0.000000  1
  Sn  Sn4  1  0.002715  0.008505  0.500000  1
  Sn  Sn5  1  0.491463  0.497337  0.500000  1
  Ir  Ir6  1  0.387130  0.112757  0.500000  1
  Ir  Ir7  1  0.642699  0.857219  0.500000  1
  Ir  Ir8  1  0.850837  0.374467  0.500000  1
  Ir  Ir9  1  0.125591  0.649215  0.500000  1
