# generated using pymatgen
data_LaY(SeO3)3
_symmetry_space_group_name_H-M   'P 1'
_cell_length_a   7.08162711
_cell_length_b   8.04349310
_cell_length_c   9.27678600
_cell_angle_alpha   69.44847348
_cell_angle_beta   76.36795613
_cell_angle_gamma   64.57849054
_symmetry_Int_Tables_number   1
_chemical_formula_structural   LaY(SeO3)3
_chemical_formula_sum   'La2 Y2 Se6 O18'
_cell_volume   444.61486321
_cell_formula_units_Z   2
loop_
 _symmetry_equiv_pos_site_id
 _symmetry_equiv_pos_as_xyz
  1  'x, y, z'
loop_
 _atom_site_type_symbol
 _atom_site_label
 _atom_site_symmetry_multiplicity
 _atom_site_fract_x
 _atom_site_fract_y
 _atom_site_fract_z
 _atom_site_occupancy
  La  La0  1  0.631521  0.349487  0.322109  1
  La  La1  1  0.368479  0.650513  0.677891  1
  Y  Y2  1  0.233453  0.308799  0.124803  1
  Y  Y3  1  0.766547  0.691201  0.875197  1
  Se  Se4  1  0.451038  0.167820  0.754540  1
  Se  Se5  1  0.184499  0.759819  0.036144  1
  Se  Se6  1  0.858021  0.779047  0.500432  1
  Se  Se7  1  0.815501  0.240181  0.963856  1
  Se  Se8  1  0.548962  0.832180  0.245460  1
  Se  Se9  1  0.141979  0.220953  0.499568  1
  O  O10  1  0.677734  0.010421  0.838562  1
  O  O11  1  0.322266  0.989579  0.161438  1
  O  O12  1  0.627959  0.804995  0.627107  1
  O  O13  1  0.372041  0.195005  0.372893  1
  O  O14  1  0.392699  0.771058  0.898588  1
  O  O15  1  0.333002  0.327265  0.865838  1
  O  O16  1  0.909908  0.351001  0.049746  1
  O  O17  1  0.530207  0.327501  0.596741  1
  O  O18  1  0.714562  0.442705  0.815844  1
  O  O19  1  0.090092  0.648999  0.950254  1
  O  O20  1  0.160162  0.994105  0.586909  1
  O  O21  1  0.018103  0.683396  0.652338  1
  O  O22  1  0.607301  0.228942  0.101412  1
  O  O23  1  0.666998  0.672735  0.134162  1
  O  O24  1  0.469793  0.672499  0.403259  1
  O  O25  1  0.285438  0.557295  0.184156  1
  O  O26  1  0.839838  0.005895  0.413091  1
  O  O27  1  0.981897  0.316604  0.347662  1
