# generated using pymatgen
data_IrPd3(Pb2O7)2
_symmetry_space_group_name_H-M   'P 1'
_cell_length_a   7.38509235
_cell_length_b   7.39805205
_cell_length_c   7.39740003
_cell_angle_alpha   60.01201816
_cell_angle_beta   59.94425276
_cell_angle_gamma   59.94631071
_symmetry_Int_Tables_number   1
_chemical_formula_structural   IrPd3(Pb2O7)2
_chemical_formula_sum   'Ir1 Pd3 Pb4 O14'
_cell_volume   285.57297000
_cell_formula_units_Z   1
loop_
 _symmetry_equiv_pos_site_id
 _symmetry_equiv_pos_as_xyz
  1  'x, y, z'
loop_
 _atom_site_type_symbol
 _atom_site_label
 _atom_site_symmetry_multiplicity
 _atom_site_fract_x
 _atom_site_fract_y
 _atom_site_fract_z
 _atom_site_occupancy
  Ir  Ir0  1  0.125000  0.625000  0.625000  1
  Pd  Pd1  1  0.625000  0.125000  0.625000  1
  Pd  Pd2  1  0.625000  0.625000  0.125000  1
  Pd  Pd3  1  0.625000  0.625000  0.625000  1
  Pb  Pb4  1  0.625000  0.125000  0.125000  1
  Pb  Pb5  1  0.125000  0.625000  0.125000  1
  Pb  Pb6  1  0.125000  0.125000  0.625000  1
  Pb  Pb7  1  0.125000  0.125000  0.125000  1
  O  O8  1  0.710127  0.703148  0.293340  1
  O  O9  1  0.288486  0.300923  0.705236  1
  O  O10  1  0.710039  0.293350  0.703263  1
  O  O11  1  0.288707  0.705122  0.301009  1
  O  O12  1  0.288647  0.705061  0.705248  1
  O  O13  1  0.710079  0.293349  0.293328  1
  O  O14  1  0.539873  0.546852  0.956660  1
  O  O15  1  0.961514  0.949077  0.544764  1
  O  O16  1  0.539961  0.956650  0.546737  1
  O  O17  1  0.961293  0.544878  0.948991  1
  O  O18  1  0.961353  0.544939  0.544752  1
  O  O19  1  0.539921  0.956651  0.956672  1
  O  O20  1  0.240764  0.253130  0.252971  1
  O  O21  1  0.009236  0.996870  0.997029  1
