# generated using pymatgen
data_CeHo3Al4Ru3Rh
_symmetry_space_group_name_H-M   'P 1'
_cell_length_a   4.04122900
_cell_length_b   6.97279002
_cell_length_c   8.12271537
_cell_angle_alpha   90.32736961
_cell_angle_beta   90.00000000
_cell_angle_gamma   90.00000000
_symmetry_Int_Tables_number   1
_chemical_formula_structural   CeHo3Al4Ru3Rh
_chemical_formula_sum   'Ce1 Ho3 Al4 Ru3 Rh1'
_cell_volume   228.88334623
_cell_formula_units_Z   1
loop_
 _symmetry_equiv_pos_site_id
 _symmetry_equiv_pos_as_xyz
  1  'x, y, z'
loop_
 _atom_site_type_symbol
 _atom_site_label
 _atom_site_symmetry_multiplicity
 _atom_site_fract_x
 _atom_site_fract_y
 _atom_site_fract_z
 _atom_site_occupancy
  Ce  Ce0  1  0.250000  0.531500  0.180336  1
  Ho  Ho1  1  0.750000  0.465816  0.818403  1
  Ho  Ho2  1  0.750000  0.960970  0.680104  1
  Ho  Ho3  1  0.250000  0.033656  0.319535  1
  Al  Al4  1  0.250000  0.638515  0.560975  1
  Al  Al5  1  0.750000  0.359220  0.444706  1
  Al  Al6  1  0.750000  0.870218  0.057207  1
  Al  Al7  1  0.250000  0.135616  0.939591  1
  Ru  Ru8  1  0.250000  0.765028  0.878957  1
  Ru  Ru9  1  0.750000  0.244322  0.126062  1
  Ru  Ru10  1  0.750000  0.728194  0.371206  1
  Rh  Rh11  1  0.250000  0.266948  0.622917  1
