# generated using pymatgen
data_Y6Zr5Al11Os7
_symmetry_space_group_name_H-M   'P 1'
_cell_length_a   9.22782887
_cell_length_b   9.22782855
_cell_length_c   9.20706687
_cell_angle_alpha   59.92538378
_cell_angle_beta   59.92537768
_cell_angle_gamma   60.00000681
_symmetry_Int_Tables_number   1
_chemical_formula_structural   Y6Zr5Al11Os7
_chemical_formula_sum   'Y6 Zr5 Al11 Os7'
_cell_volume   553.75112411
_cell_formula_units_Z   1
loop_
 _symmetry_equiv_pos_site_id
 _symmetry_equiv_pos_as_xyz
  1  'x, y, z'
loop_
 _atom_site_type_symbol
 _atom_site_label
 _atom_site_symmetry_multiplicity
 _atom_site_fract_x
 _atom_site_fract_y
 _atom_site_fract_z
 _atom_site_occupancy
  Y  Y0  1  0.703638  0.703638  0.297565  1
  Y  Y1  1  0.295160  0.703638  0.297565  1
  Y  Y2  1  0.703638  0.295160  0.297565  1
  Y  Y3  1  0.296559  0.296559  0.712406  1
  Y  Y4  1  0.694475  0.296559  0.712406  1
  Y  Y5  1  0.296559  0.694475  0.712406  1
  Zr  Zr6  1  0.880778  0.880778  0.357666  1
  Zr  Zr7  1  0.876748  0.363323  0.883179  1
  Zr  Zr8  1  0.363323  0.876748  0.883179  1
  Zr  Zr9  1  0.876748  0.876748  0.883179  1
  Zr  Zr10  1  0.124842  0.124842  0.625475  1
  Al  Al11  1  0.119609  0.640325  0.120458  1
  Al  Al12  1  0.640325  0.119609  0.120458  1
  Al  Al13  1  0.119609  0.119609  0.120458  1
  Al  Al14  1  0.666861  0.666861  0.999419  1
  Al  Al15  1  0.668795  0.995008  0.667403  1
  Al  Al16  1  0.995008  0.668795  0.667403  1
  Al  Al17  1  0.668795  0.668795  0.667403  1
  Al  Al18  1  0.328071  0.328071  0.015786  1
  Al  Al19  1  0.336034  0.004133  0.323798  1
  Al  Al20  1  0.004133  0.336034  0.323798  1
  Al  Al21  1  0.336034  0.336034  0.323798  1
  Os  Os22  1  0.002644  0.002644  0.992068  1
  Os  Os23  1  0.000367  0.000367  0.499750  1
  Os  Os24  1  0.499516  0.000367  0.499750  1
  Os  Os25  1  0.000367  0.499516  0.499750  1
  Os  Os26  1  0.499322  0.499322  0.998637  1
  Os  Os27  1  0.002721  0.499322  0.998637  1
  Os  Os28  1  0.499322  0.002721  0.998637  1
