# generated using pymatgen
data_Dy3Er9In2Fe2Os
_symmetry_space_group_name_H-M   'P 1'
_cell_length_a   8.32129162
_cell_length_b   8.32133999
_cell_length_c   8.32297777
_cell_angle_alpha   108.73079259
_cell_angle_beta   108.78097614
_cell_angle_gamma   110.90416970
_symmetry_Int_Tables_number   1
_chemical_formula_structural   Dy3Er9In2Fe2Os
_chemical_formula_sum   'Dy3 Er9 In2 Fe2 Os1'
_cell_volume   443.48100481
_cell_formula_units_Z   1
loop_
 _symmetry_equiv_pos_site_id
 _symmetry_equiv_pos_as_xyz
  1  'x, y, z'
loop_
 _atom_site_type_symbol
 _atom_site_label
 _atom_site_symmetry_multiplicity
 _atom_site_fract_x
 _atom_site_fract_y
 _atom_site_fract_z
 _atom_site_occupancy
  Dy  Dy0  1  0.307325  0.307068  0.614376  1
  Dy  Dy1  1  0.692958  0.692681  0.385642  1
  Dy  Dy2  1  0.307039  0.692937  0.999971  1
  Er  Er3  1  0.692498  0.307459  0.999966  1
  Er  Er4  1  0.430340  0.192025  0.238030  1
  Er  Er5  1  0.569954  0.808351  0.761937  1
  Er  Er6  1  0.953546  0.191987  0.761896  1
  Er  Er7  1  0.192335  0.954040  0.762020  1
  Er  Er8  1  0.045955  0.807687  0.238002  1
  Er  Er9  1  0.808034  0.046416  0.238083  1
  Er  Er10  1  0.191650  0.430080  0.238099  1
  Er  Er11  1  0.807932  0.569631  0.761974  1
  In  In12  1  0.500025  0.000041  0.500056  1
  In  In13  1  0.999952  0.499978  0.499941  1
  Fe  Fe14  1  0.384903  0.384476  0.000011  1
  Fe  Fe15  1  0.615551  0.615141  0.000005  1
  Os  Os16  1  0.000005  0.000001  0.999991  1
