# generated using pymatgen
data_Dy3Ho(CuSi3)2
_symmetry_space_group_name_H-M   'P 1'
_cell_length_a   8.01037161
_cell_length_b   7.98965129
_cell_length_c   5.68194702
_cell_angle_alpha   69.39457402
_cell_angle_beta   69.00394031
_cell_angle_gamma   41.60148167
_symmetry_Int_Tables_number   1
_chemical_formula_structural   Dy3Ho(CuSi3)2
_chemical_formula_sum   'Dy3 Ho1 Cu2 Si6'
_cell_volume   223.33089541
_cell_formula_units_Z   1
loop_
 _symmetry_equiv_pos_site_id
 _symmetry_equiv_pos_as_xyz
  1  'x, y, z'
loop_
 _atom_site_type_symbol
 _atom_site_label
 _atom_site_symmetry_multiplicity
 _atom_site_fract_x
 _atom_site_fract_y
 _atom_site_fract_z
 _atom_site_occupancy
  Dy  Dy0  1  0.256419  0.743581  0.256420  1
  Dy  Dy1  1  0.743580  0.256420  0.743581  1
  Dy  Dy2  1  0.749999  0.750001  0.750000  1
  Ho  Ho3  1  0.249999  0.250001  0.250000  1
  Cu  Cu4  1  0.833328  0.833328  0.166672  1
  Cu  Cu5  1  0.166672  0.166672  0.833328  1
  Si  Si6  1  0.839980  0.328918  0.160031  1
  Si  Si7  1  0.671072  0.160031  0.328918  1
  Si  Si8  1  0.668561  0.668562  0.331439  1
  Si  Si9  1  0.331438  0.331439  0.668562  1
  Si  Si10  1  0.328918  0.839979  0.671072  1
  Si  Si11  1  0.160031  0.671072  0.839979  1
