# generated using pymatgen
data_Yb2SmDy(Ru2O7)2
_symmetry_space_group_name_H-M   'P 1'
_cell_length_a   7.25558483
_cell_length_b   7.25237695
_cell_length_c   7.25237690
_cell_angle_alpha   59.92997216
_cell_angle_beta   59.89968595
_cell_angle_gamma   59.89968662
_symmetry_Int_Tables_number   1
_chemical_formula_structural   Yb2SmDy(Ru2O7)2
_chemical_formula_sum   'Yb2 Sm1 Dy1 Ru4 O14'
_cell_volume   269.29502290
_cell_formula_units_Z   1
loop_
 _symmetry_equiv_pos_site_id
 _symmetry_equiv_pos_as_xyz
  1  'x, y, z'
loop_
 _atom_site_type_symbol
 _atom_site_label
 _atom_site_symmetry_multiplicity
 _atom_site_fract_x
 _atom_site_fract_y
 _atom_site_fract_z
 _atom_site_occupancy
  Yb  Yb0  1  0.125000  0.125000  0.625000  1
  Yb  Yb1  1  0.125000  0.625000  0.125000  1
  Sm  Sm2  1  0.625000  0.125000  0.125000  1
  Dy  Dy3  1  0.125000  0.125000  0.125000  1
  Ru  Ru4  1  0.625000  0.625000  0.125000  1
  Ru  Ru5  1  0.625000  0.125000  0.625000  1
  Ru  Ru6  1  0.125000  0.625000  0.625000  1
  Ru  Ru7  1  0.625000  0.625000  0.625000  1
  O  O8  1  0.245968  0.248249  0.248249  1
  O  O9  1  0.004032  0.001751  0.001751  1
  O  O10  1  0.298572  0.704244  0.297691  1
  O  O11  1  0.547695  0.952656  0.548215  1
  O  O12  1  0.298572  0.297691  0.704244  1
  O  O13  1  0.708147  0.294669  0.294669  1
  O  O14  1  0.303022  0.697415  0.697415  1
  O  O15  1  0.702305  0.701785  0.297344  1
  O  O16  1  0.702305  0.297344  0.701785  1
  O  O17  1  0.946978  0.552585  0.552585  1
  O  O18  1  0.541853  0.955331  0.955331  1
  O  O19  1  0.951428  0.545756  0.952309  1
  O  O20  1  0.547695  0.548215  0.952656  1
  O  O21  1  0.951428  0.952309  0.545756  1
