# generated using pymatgen
data_Dy9Ho11CoBi8Ru3
_symmetry_space_group_name_H-M   'P 1'
_cell_length_a   7.97300016
_cell_length_b   8.99108700
_cell_length_c   12.42153850
_cell_angle_alpha   90.00000000
_cell_angle_beta   89.76686627
_cell_angle_gamma   90.00000000
_symmetry_Int_Tables_number   1
_chemical_formula_structural   Dy9Ho11CoBi8Ru3
_chemical_formula_sum   'Dy9 Ho11 Co1 Bi8 Ru3'
_cell_volume   890.44226802
_cell_formula_units_Z   1
loop_
 _symmetry_equiv_pos_site_id
 _symmetry_equiv_pos_as_xyz
  1  'x, y, z'
loop_
 _atom_site_type_symbol
 _atom_site_label
 _atom_site_symmetry_multiplicity
 _atom_site_fract_x
 _atom_site_fract_y
 _atom_site_fract_z
 _atom_site_occupancy
  Dy  Dy0  1  0.345073  0.750000  0.701529  1
  Dy  Dy1  1  0.656712  0.250000  0.293405  1
  Dy  Dy2  1  0.843514  0.250000  0.792515  1
  Dy  Dy3  1  0.155282  0.750000  0.205829  1
  Dy  Dy4  1  0.879542  0.750000  0.806556  1
  Dy  Dy5  1  0.119799  0.250000  0.192937  1
  Dy  Dy6  1  0.379300  0.250000  0.692355  1
  Dy  Dy7  1  0.616544  0.750000  0.311999  1
  Dy  Dy8  1  0.054301  0.750000  0.496951  1
  Ho  Ho9  1  0.675837  0.543543  0.563787  1
  Ho  Ho10  1  0.324733  0.461940  0.436852  1
  Ho  Ho11  1  0.176122  0.458181  0.935717  1
  Ho  Ho12  1  0.324733  0.038060  0.436852  1
  Ho  Ho13  1  0.823673  0.542676  0.064455  1
  Ho  Ho14  1  0.675837  0.956457  0.563787  1
  Ho  Ho15  1  0.823673  0.957324  0.064455  1
  Ho  Ho16  1  0.176122  0.041819  0.935717  1
  Ho  Ho17  1  0.947551  0.250000  0.503264  1
  Ho  Ho18  1  0.554444  0.250000  0.003525  1
  Ho  Ho19  1  0.445664  0.750000  0.995870  1
  Co  Co20  1  0.429631  0.750000  0.491043  1
  Bi  Bi21  1  0.570871  0.508617  0.827178  1
  Bi  Bi22  1  0.428778  0.492098  0.172833  1
  Bi  Bi23  1  0.071884  0.491648  0.672126  1
  Bi  Bi24  1  0.428778  0.007902  0.172833  1
  Bi  Bi25  1  0.928595  0.508642  0.328280  1
  Bi  Bi26  1  0.570871  0.991383  0.827178  1
  Bi  Bi27  1  0.928595  0.991358  0.328280  1
  Bi  Bi28  1  0.071884  0.008352  0.672126  1
  Ru  Ru29  1  0.073677  0.750000  0.989130  1
  Ru  Ru30  1  0.925482  0.250000  0.010520  1
  Ru  Ru31  1  0.572498  0.250000  0.510116  1
