# generated using pymatgen
data_HfPaCo6B
_symmetry_space_group_name_H-M   'P 1'
_cell_length_a   5.40631737
_cell_length_b   5.40631799
_cell_length_c   5.40631800
_cell_angle_alpha   59.99999994
_cell_angle_beta   59.99999614
_cell_angle_gamma   59.99999416
_symmetry_Int_Tables_number   1
_chemical_formula_structural   HfPaCo6B
_chemical_formula_sum   'Hf1 Pa1 Co6 B1'
_cell_volume   111.73511508
_cell_formula_units_Z   1
loop_
 _symmetry_equiv_pos_site_id
 _symmetry_equiv_pos_as_xyz
  1  'x, y, z'
loop_
 _atom_site_type_symbol
 _atom_site_label
 _atom_site_symmetry_multiplicity
 _atom_site_fract_x
 _atom_site_fract_y
 _atom_site_fract_z
 _atom_site_occupancy
  Hf  Hf0  1  0.750000  0.750000  0.750000  1
  Pa  Pa1  1  0.250000  0.250000  0.250000  1
  Co  Co2  1  0.741379  0.258622  0.258622  1
  Co  Co3  1  0.741379  0.741379  0.258622  1
  Co  Co4  1  0.258622  0.741379  0.258622  1
  Co  Co5  1  0.258622  0.741379  0.741379  1
  Co  Co6  1  0.258622  0.258622  0.741379  1
  Co  Co7  1  0.741379  0.258622  0.741379  1
  B  B8  1  0.000000  0.000000  0.000000  1
