# generated using pymatgen
data_Lu4Be3(BRu2)5
_symmetry_space_group_name_H-M   'P 1'
_cell_length_a   3.10498000
_cell_length_b   8.72173940
_cell_length_c   10.23956222
_cell_angle_alpha   90.34212924
_cell_angle_beta   90.00000000
_cell_angle_gamma   90.00000000
_symmetry_Int_Tables_number   1
_chemical_formula_structural   Lu4Be3(BRu2)5
_chemical_formula_sum   'Lu4 Be3 B5 Ru10'
_cell_volume   277.29086330
_cell_formula_units_Z   1
loop_
 _symmetry_equiv_pos_site_id
 _symmetry_equiv_pos_as_xyz
  1  'x, y, z'
loop_
 _atom_site_type_symbol
 _atom_site_label
 _atom_site_symmetry_multiplicity
 _atom_site_fract_x
 _atom_site_fract_y
 _atom_site_fract_z
 _atom_site_occupancy
  Lu  Lu0  1  0.500000  0.843115  0.183237  1
  Lu  Lu1  1  0.500000  0.158746  0.815789  1
  Lu  Lu2  1  0.500000  0.659009  0.680682  1
  Lu  Lu3  1  0.500000  0.343818  0.318014  1
  Be  Be4  1  0.500000  0.962971  0.593954  1
  Be  Be5  1  0.500000  0.038300  0.406691  1
  Be  Be6  1  0.500000  0.845005  0.901907  1
  B  B7  1  0.500000  0.146256  0.098875  1
  B  B8  1  0.500000  0.653713  0.402891  1
  B  B9  1  0.500000  0.347382  0.596615  1
  B  B10  1  0.500000  0.464729  0.911639  1
  B  B11  1  0.500000  0.533157  0.089554  1
  Ru  Ru12  1  0.000000  0.645439  0.959957  1
  Ru  Ru13  1  0.000000  0.340670  0.045678  1
  Ru  Ru14  1  0.000000  0.833069  0.447495  1
  Ru  Ru15  1  0.000000  0.169206  0.548917  1
  Ru  Ru16  1  0.000000  0.008132  0.001493  1
  Ru  Ru17  1  0.000000  0.407597  0.761123  1
  Ru  Ru18  1  0.000000  0.593401  0.239093  1
  Ru  Ru19  1  0.000000  0.500884  0.499979  1
  Ru  Ru20  1  0.000000  0.902948  0.743587  1
  Ru  Ru21  1  0.000000  0.102455  0.252828  1
