# generated using pymatgen
data_Ba4SrTc3O16
_symmetry_space_group_name_H-M   'P 1'
_cell_length_a   10.85800100
_cell_length_b   10.85800188
_cell_length_c   7.95338900
_cell_angle_alpha   90.00000000
_cell_angle_beta   90.00000000
_cell_angle_gamma   119.99999429
_symmetry_Int_Tables_number   1
_chemical_formula_structural   Ba4SrTc3O16
_chemical_formula_sum   'Ba8 Sr2 Tc6 O32'
_cell_volume   812.04981296
_cell_formula_units_Z   2
loop_
 _symmetry_equiv_pos_site_id
 _symmetry_equiv_pos_as_xyz
  1  'x, y, z'
loop_
 _atom_site_type_symbol
 _atom_site_label
 _atom_site_symmetry_multiplicity
 _atom_site_fract_x
 _atom_site_fract_y
 _atom_site_fract_z
 _atom_site_occupancy
  Ba  Ba0  1  0.740146  0.000000  0.750818  1
  Ba  Ba1  1  0.259854  0.259854  0.750818  1
  Ba  Ba2  1  0.000000  0.740146  0.750818  1
  Ba  Ba3  1  0.258868  0.000000  0.251406  1
  Ba  Ba4  1  0.741132  0.741132  0.251406  1
  Ba  Ba5  1  0.000000  0.258868  0.251406  1
  Ba  Ba6  1  0.333333  0.666667  0.496839  1
  Ba  Ba7  1  0.666667  0.333333  0.496839  1
  Sr  Sr8  1  0.666667  0.333333  0.999729  1
  Sr  Sr9  1  0.333333  0.666667  0.999729  1
  Tc  Tc10  1  0.608180  0.000000  0.190192  1
  Tc  Tc11  1  0.391820  0.391820  0.190192  1
  Tc  Tc12  1  0.000000  0.608180  0.190192  1
  Tc  Tc13  1  0.383114  0.000000  0.705953  1
  Tc  Tc14  1  0.616886  0.616886  0.705953  1
  Tc  Tc15  1  0.000000  0.383114  0.705953  1
  O  O16  1  0.000000  0.000000  0.206353  1
  O  O17  1  0.000000  0.000000  0.698595  1
  O  O18  1  0.608654  0.865540  0.049002  1
  O  O19  1  0.256886  0.391346  0.049002  1
  O  O20  1  0.134460  0.743114  0.049002  1
  O  O21  1  0.743114  0.134460  0.049002  1
  O  O22  1  0.865540  0.608654  0.049002  1
  O  O23  1  0.391346  0.256886  0.049002  1
  O  O24  1  0.386895  0.132983  0.556222  1
  O  O25  1  0.746088  0.613105  0.556222  1
  O  O26  1  0.867017  0.253912  0.556222  1
  O  O27  1  0.253912  0.867017  0.556222  1
  O  O28  1  0.132983  0.386895  0.556222  1
  O  O29  1  0.613105  0.746088  0.556222  1
  O  O30  1  0.418813  0.865724  0.229304  1
  O  O31  1  0.446911  0.581187  0.229304  1
  O  O32  1  0.134276  0.553089  0.229304  1
  O  O33  1  0.553089  0.134276  0.229304  1
  O  O34  1  0.865724  0.418813  0.229304  1
  O  O35  1  0.581187  0.446911  0.229304  1
  O  O36  1  0.569408  0.134636  0.754504  1
  O  O37  1  0.565228  0.430592  0.754504  1
  O  O38  1  0.865364  0.434772  0.754504  1
  O  O39  1  0.434772  0.865364  0.754504  1
  O  O40  1  0.134636  0.569408  0.754504  1
  O  O41  1  0.430592  0.565228  0.754504  1
  O  O42  1  0.706523  0.000000  0.366058  1
  O  O43  1  0.293477  0.293477  0.366058  1
  O  O44  1  0.000000  0.706523  0.366058  1
  O  O45  1  0.274513  0.000000  0.869950  1
  O  O46  1  0.725487  0.725487  0.869950  1
  O  O47  1  0.000000  0.274513  0.869950  1
