# generated using pymatgen
data_Lu4Si4Ir3Ru
_symmetry_space_group_name_H-M   'P 1'
_cell_length_a   4.22277400
_cell_length_b   6.77344288
_cell_length_c   7.27987883
_cell_angle_alpha   89.91677153
_cell_angle_beta   90.00000000
_cell_angle_gamma   90.00000000
_symmetry_Int_Tables_number   1
_chemical_formula_structural   Lu4Si4Ir3Ru
_chemical_formula_sum   'Lu4 Si4 Ir3 Ru1'
_cell_volume   208.22410486
_cell_formula_units_Z   1
loop_
 _symmetry_equiv_pos_site_id
 _symmetry_equiv_pos_as_xyz
  1  'x, y, z'
loop_
 _atom_site_type_symbol
 _atom_site_label
 _atom_site_symmetry_multiplicity
 _atom_site_fract_x
 _atom_site_fract_y
 _atom_site_fract_z
 _atom_site_occupancy
  Lu  Lu0  1  0.750000  0.000661  0.812100  1
  Lu  Lu1  1  0.250000  0.496669  0.311626  1
  Lu  Lu2  1  0.750000  0.504779  0.687078  1
  Lu  Lu3  1  0.250000  0.997929  0.188371  1
  Si  Si4  1  0.750000  0.202469  0.390552  1
  Si  Si5  1  0.250000  0.296361  0.887359  1
  Si  Si6  1  0.750000  0.703343  0.115048  1
  Si  Si7  1  0.250000  0.796677  0.606260  1
  Ir  Ir8  1  0.250000  0.159246  0.566326  1
  Ir  Ir9  1  0.750000  0.339700  0.066002  1
  Ir  Ir10  1  0.250000  0.658235  0.933453  1
  Ru  Ru11  1  0.750000  0.843932  0.435824  1
