# generated using pymatgen
data_Sc4Si6Tc5Mo2Os
_symmetry_space_group_name_H-M   'P 1'
_cell_length_a   7.56269193
_cell_length_b   7.56278251
_cell_length_c   7.56278300
_cell_angle_alpha   126.63580153
_cell_angle_beta   128.06928332
_cell_angle_gamma   77.68210417
_symmetry_Int_Tables_number   1
_chemical_formula_structural   Sc4Si6Tc5Mo2Os
_chemical_formula_sum   'Sc4 Si6 Tc5 Mo2 Os1'
_cell_volume   264.94955320
_cell_formula_units_Z   1
loop_
 _symmetry_equiv_pos_site_id
 _symmetry_equiv_pos_as_xyz
  1  'x, y, z'
loop_
 _atom_site_type_symbol
 _atom_site_label
 _atom_site_symmetry_multiplicity
 _atom_site_fract_x
 _atom_site_fract_y
 _atom_site_fract_z
 _atom_site_occupancy
  Sc  Sc0  1  0.548831  0.094947  0.044453  1
  Sc  Sc1  1  0.451169  0.495621  0.546115  1
  Sc  Sc2  1  0.949690  0.495618  0.044270  1
  Sc  Sc3  1  0.050310  0.094579  0.545929  1
  Si  Si4  1  0.336861  0.829499  0.492923  1
  Si  Si5  1  0.663139  0.156062  0.492637  1
  Si  Si6  1  0.838148  0.832585  0.994162  1
  Si  Si7  1  0.161852  0.156013  0.994435  1
  Si  Si8  1  0.749711  0.501427  0.250933  1
  Si  Si9  1  0.250289  0.501221  0.751714  1
  Tc  Tc10  1  0.126078  0.754757  0.628883  1
  Tc  Tc11  1  0.873922  0.502806  0.628679  1
  Tc  Tc12  1  0.626195  0.755334  0.128909  1
  Tc  Tc13  1  0.373805  0.502713  0.129139  1
  Tc  Tc14  1  0.500000  0.235158  0.735158  1
  Mo  Mo15  1  0.747990  0.898753  0.646623  1
  Mo  Mo16  1  0.252010  0.898633  0.150762  1
  Os  Os17  1  0.000000  0.238279  0.238279  1
