# generated using pymatgen
data_Eu3Ho5(CuP)12
_symmetry_space_group_name_H-M   'P 1'
_cell_length_a   3.92326500
_cell_length_b   10.72086355
_cell_length_c   12.93193234
_cell_angle_alpha   90.09357995
_cell_angle_beta   90.00000000
_cell_angle_gamma   90.00000000
_symmetry_Int_Tables_number   1
_chemical_formula_structural   Eu3Ho5(CuP)12
_chemical_formula_sum   'Eu3 Ho5 Cu12 P12'
_cell_volume   543.92654870
_cell_formula_units_Z   1
loop_
 _symmetry_equiv_pos_site_id
 _symmetry_equiv_pos_as_xyz
  1  'x, y, z'
loop_
 _atom_site_type_symbol
 _atom_site_label
 _atom_site_symmetry_multiplicity
 _atom_site_fract_x
 _atom_site_fract_y
 _atom_site_fract_z
 _atom_site_occupancy
  Eu  Eu0  1  0.250000  0.931880  0.792309  1
  Eu  Eu1  1  0.750000  0.431952  0.707124  1
  Eu  Eu2  1  0.250000  0.568535  0.293776  1
  Ho  Ho3  1  0.750000  0.068700  0.207296  1
  Ho  Ho4  1  0.250000  0.843031  0.500848  1
  Ho  Ho5  1  0.750000  0.343209  0.998964  1
  Ho  Ho6  1  0.250000  0.656709  0.001680  1
  Ho  Ho7  1  0.750000  0.155561  0.497447  1
  Cu  Cu8  1  0.250000  0.398618  0.514087  1
  Cu  Cu9  1  0.750000  0.902028  0.986897  1
  Cu  Cu10  1  0.250000  0.098963  0.014807  1
  Cu  Cu11  1  0.750000  0.600840  0.486763  1
  Cu  Cu12  1  0.250000  0.272056  0.332797  1
  Cu  Cu13  1  0.750000  0.772196  0.168977  1
  Cu  Cu14  1  0.250000  0.229505  0.832158  1
  Cu  Cu15  1  0.750000  0.729746  0.667579  1
  Cu  Cu16  1  0.250000  0.864147  0.279223  1
  Cu  Cu17  1  0.750000  0.359878  0.220304  1
  Cu  Cu18  1  0.250000  0.637582  0.780820  1
  Cu  Cu19  1  0.750000  0.137424  0.719001  1
  P  P20  1  0.250000  0.233497  0.643101  1
  P  P21  1  0.750000  0.735058  0.856401  1
  P  P22  1  0.250000  0.259331  0.145240  1
  P  P23  1  0.750000  0.766194  0.356633  1
  P  P24  1  0.250000  0.606637  0.597759  1
  P  P25  1  0.750000  0.107420  0.902021  1
  P  P26  1  0.250000  0.895437  0.098902  1
  P  P27  1  0.750000  0.393722  0.403130  1
  P  P28  1  0.250000  0.058382  0.368022  1
  P  P29  1  0.750000  0.557519  0.126131  1
  P  P30  1  0.250000  0.441943  0.874823  1
  P  P31  1  0.750000  0.942301  0.624978  1
