# generated using pymatgen
data_Tb2Mn3Fe5Co4P7
_symmetry_space_group_name_H-M   'P 1'
_cell_length_a   9.04143828
_cell_length_b   9.06065113
_cell_length_c   3.60748300
_cell_angle_alpha   90.00000000
_cell_angle_beta   90.00000000
_cell_angle_gamma   119.90153151
_symmetry_Int_Tables_number   1
_chemical_formula_structural   Tb2Mn3Fe5Co4P7
_chemical_formula_sum   'Tb2 Mn3 Fe5 Co4 P7'
_cell_volume   256.18985193
_cell_formula_units_Z   1
loop_
 _symmetry_equiv_pos_site_id
 _symmetry_equiv_pos_as_xyz
  1  'x, y, z'
loop_
 _atom_site_type_symbol
 _atom_site_label
 _atom_site_symmetry_multiplicity
 _atom_site_fract_x
 _atom_site_fract_y
 _atom_site_fract_z
 _atom_site_occupancy
  Tb  Tb0  1  0.666890  0.333893  0.000000  1
  Tb  Tb1  1  0.333021  0.666109  0.500000  1
  Mn  Mn2  1  0.104525  0.878865  0.500000  1
  Mn  Mn3  1  0.775451  0.895750  0.500000  1
  Mn  Mn4  1  0.119697  0.223191  0.500000  1
  Fe  Fe5  1  0.275438  0.119348  0.000000  1
  Fe  Fe6  1  0.846708  0.727229  0.000000  1
  Fe  Fe7  1  0.879848  0.153525  0.000000  1
  Fe  Fe8  1  0.612394  0.564062  0.500000  1
  Fe  Fe9  1  0.950770  0.387747  0.500000  1
  Co  Co10  1  0.061230  0.632512  0.000000  1
  Co  Co11  1  0.569879  0.938429  0.000000  1
  Co  Co12  1  0.366813  0.428511  0.000000  1
  Co  Co13  1  0.437997  0.049713  0.500000  1
  P  P14  1  0.300937  0.890611  0.000000  1
  P  P15  1  0.589572  0.697020  0.000000  1
  P  P16  1  0.106852  0.409780  0.000000  1
  P  P17  1  0.405331  0.288927  0.500000  1
  P  P18  1  0.880112  0.594143  0.500000  1
  P  P19  1  0.715837  0.120258  0.500000  1
  P  P20  1  0.000696  0.000378  0.000000  1
