# generated using pymatgen
data_Lu2Mo3P7(Ir2Rh)3
_symmetry_space_group_name_H-M   'P 1'
_cell_length_a   3.96237600
_cell_length_b   9.51395889
_cell_length_c   9.51375400
_cell_angle_alpha   120.00133794
_cell_angle_beta   90.00000954
_cell_angle_gamma   90.00007066
_symmetry_Int_Tables_number   1
_chemical_formula_structural   Lu2Mo3P7(Ir2Rh)3
_chemical_formula_sum   'Lu2 Mo3 P7 Ir6 Rh3'
_cell_volume   310.59441977
_cell_formula_units_Z   1
loop_
 _symmetry_equiv_pos_site_id
 _symmetry_equiv_pos_as_xyz
  1  'x, y, z'
loop_
 _atom_site_type_symbol
 _atom_site_label
 _atom_site_symmetry_multiplicity
 _atom_site_fract_x
 _atom_site_fract_y
 _atom_site_fract_z
 _atom_site_occupancy
  Lu  Lu0  1  0.261712  0.666655  0.333314  1
  Lu  Lu1  1  0.761936  0.333300  0.666665  1
  Mo  Mo2  1  0.761949  0.089624  0.866423  1
  Mo  Mo3  1  0.761949  0.133641  0.223231  1
  Mo  Mo4  1  0.761949  0.776823  0.910400  1
  P  P5  1  0.262197  0.000014  0.999996  1
  P  P6  1  0.761815  0.878469  0.591626  1
  P  P7  1  0.761821  0.408370  0.286833  1
  P  P8  1  0.761812  0.713138  0.121521  1
  P  P9  1  0.261922  0.120790  0.416437  1
  P  P10  1  0.261917  0.583571  0.704375  1
  P  P11  1  0.261914  0.295635  0.879222  1
  Ir  Ir12  1  0.261904  0.887855  0.161862  1
  Ir  Ir13  1  0.261902  0.838174  0.725950  1
  Ir  Ir14  1  0.261903  0.274038  0.112197  1
  Ir  Ir15  1  0.261898  0.370069  0.440967  1
  Ir  Ir16  1  0.261891  0.559019  0.929147  1
  Ir  Ir17  1  0.261898  0.070889  0.629934  1
  Rh  Rh18  1  0.761905  0.611885  0.553814  1
  Rh  Rh19  1  0.761899  0.446063  0.057987  1
  Rh  Rh20  1  0.761906  0.941972  0.388100  1
