# generated using pymatgen
data_Tb11HoFe2I17
_symmetry_space_group_name_H-M   'P 1'
_cell_length_a   9.73151000
_cell_length_b   11.69802178
_cell_length_c   11.72240820
_cell_angle_alpha   93.58494305
_cell_angle_beta   104.76330190
_cell_angle_gamma   114.06302462
_symmetry_Int_Tables_number   1
_chemical_formula_structural   Tb11HoFe2I17
_chemical_formula_sum   'Tb11 Ho1 Fe2 I17'
_cell_volume   1157.15504555
_cell_formula_units_Z   1
loop_
 _symmetry_equiv_pos_site_id
 _symmetry_equiv_pos_as_xyz
  1  'x, y, z'
loop_
 _atom_site_type_symbol
 _atom_site_label
 _atom_site_symmetry_multiplicity
 _atom_site_fract_x
 _atom_site_fract_y
 _atom_site_fract_z
 _atom_site_occupancy
  Tb  Tb0  1  0.053586  0.504741  0.320275  1
  Tb  Tb1  1  0.991269  0.807270  0.589700  1
  Tb  Tb2  1  0.658212  0.241855  0.280022  1
  Tb  Tb3  1  0.010057  0.190972  0.413577  1
  Tb  Tb4  1  0.218305  0.672139  0.982022  1
  Tb  Tb5  1  0.253140  0.976820  0.888596  1
  Tb  Tb6  1  0.347404  0.758418  0.718502  1
  Tb  Tb7  1  0.948309  0.498229  0.680898  1
  Tb  Tb8  1  0.744458  0.019889  0.110426  1
  Tb  Tb9  1  0.138860  0.286184  0.153459  1
  Tb  Tb10  1  0.779072  0.328898  0.014689  1
  Ho  Ho11  1  0.857931  0.713367  0.846451  1
  Fe  Fe12  1  0.103905  0.738214  0.786161  1
  Fe  Fe13  1  0.896339  0.262107  0.214182  1
  I  I14  1  0.783683  0.527939  0.416973  1
  I  I15  1  0.643004  0.420907  0.761824  1
  I  I16  1  0.843717  0.895923  0.327499  1
  I  I17  1  0.328007  0.214176  0.368478  1
  I  I18  1  0.156240  0.103691  0.672820  1
  I  I19  1  0.585900  0.053277  0.842253  1
  I  I20  1  0.759452  0.188829  0.538779  1
  I  I21  1  0.552710  0.710669  0.955153  1
  I  I22  1  0.355439  0.579829  0.237895  1
  I  I23  1  0.217686  0.471419  0.582518  1
  I  I24  1  0.055944  0.367489  0.897265  1
  I  I25  1  0.448373  0.288568  0.045599  1
  I  I26  1  0.000017  0.000513  0.000417  1
  I  I27  1  0.240966  0.811836  0.460548  1
  I  I28  1  0.415028  0.947705  0.157638  1
  I  I29  1  0.670849  0.785600  0.632389  1
  I  I30  1  0.942136  0.632526  0.102993  1
