# generated using pymatgen
data_DyY2Zn3Ag2Ru
_symmetry_space_group_name_H-M   'P 1'
_cell_length_a   7.49629605
_cell_length_b   7.50478088
_cell_length_c   3.84820000
_cell_angle_alpha   90.00000000
_cell_angle_beta   90.00000000
_cell_angle_gamma   120.19493577
_symmetry_Int_Tables_number   1
_chemical_formula_structural   DyY2Zn3Ag2Ru
_chemical_formula_sum   'Dy1 Y2 Zn3 Ag2 Ru1'
_cell_volume   187.11843276
_cell_formula_units_Z   1
loop_
 _symmetry_equiv_pos_site_id
 _symmetry_equiv_pos_as_xyz
  1  'x, y, z'
loop_
 _atom_site_type_symbol
 _atom_site_label
 _atom_site_symmetry_multiplicity
 _atom_site_fract_x
 _atom_site_fract_y
 _atom_site_fract_z
 _atom_site_occupancy
  Dy  Dy0  1  0.972295  0.576998  0.500000  1
  Y  Y1  1  0.421991  0.395222  0.500000  1
  Y  Y2  1  0.604106  0.026690  0.500000  1
  Zn  Zn3  1  0.736311  0.729004  0.000000  1
  Zn  Zn4  1  0.271696  0.009444  0.000000  1
  Zn  Zn5  1  0.991142  0.261076  0.000000  1
  Ag  Ag6  1  0.330919  0.665882  0.000000  1
  Ag  Ag7  1  0.999849  0.998455  0.500000  1
  Ru  Ru8  1  0.671691  0.337229  0.000000  1
