# generated using pymatgen
data_ErTm4(In2Ni)2
_symmetry_space_group_name_H-M   'P 1'
_cell_length_a   3.54742800
_cell_length_b   7.93969900
_cell_length_c   17.77977400
_cell_angle_alpha   90.00000000
_cell_angle_beta   90.00000000
_cell_angle_gamma   90.00000000
_symmetry_Int_Tables_number   1
_chemical_formula_structural   ErTm4(In2Ni)2
_chemical_formula_sum   'Er2 Tm8 In8 Ni4'
_cell_volume   500.77641207
_cell_formula_units_Z   2
loop_
 _symmetry_equiv_pos_site_id
 _symmetry_equiv_pos_as_xyz
  1  'x, y, z'
loop_
 _atom_site_type_symbol
 _atom_site_label
 _atom_site_symmetry_multiplicity
 _atom_site_fract_x
 _atom_site_fract_y
 _atom_site_fract_z
 _atom_site_occupancy
  Er  Er0  1  0.000000  0.500000  0.500000  1
  Er  Er1  1  0.000000  0.000000  0.000000  1
  Tm  Tm2  1  0.000000  0.747137  0.278056  1
  Tm  Tm3  1  0.000000  0.252863  0.721944  1
  Tm  Tm4  1  0.000000  0.752863  0.778056  1
  Tm  Tm5  1  0.000000  0.247137  0.221944  1
  Tm  Tm6  1  0.000000  0.617605  0.088749  1
  Tm  Tm7  1  0.000000  0.382395  0.911251  1
  Tm  Tm8  1  0.000000  0.882395  0.588749  1
  Tm  Tm9  1  0.000000  0.117605  0.411251  1
  In  In10  1  0.500000  0.704340  0.931293  1
  In  In11  1  0.500000  0.295660  0.068707  1
  In  In12  1  0.500000  0.795660  0.431293  1
  In  In13  1  0.500000  0.204340  0.568707  1
  In  In14  1  0.500000  0.571858  0.651872  1
  In  In15  1  0.500000  0.428142  0.348128  1
  In  In16  1  0.500000  0.928142  0.151872  1
  In  In17  1  0.500000  0.071858  0.848128  1
  Ni  Ni18  1  0.500000  0.525376  0.195813  1
  Ni  Ni19  1  0.500000  0.474624  0.804187  1
  Ni  Ni20  1  0.500000  0.974624  0.695813  1
  Ni  Ni21  1  0.500000  0.025376  0.304187  1
