# generated using pymatgen
data_DyYCdPd2
_symmetry_space_group_name_H-M   'P 1'
_cell_length_a   7.78244200
_cell_length_b   7.78465900
_cell_length_c   3.69563900
_cell_angle_alpha   90.00000000
_cell_angle_beta   90.00000000
_cell_angle_gamma   90.00000000
_symmetry_Int_Tables_number   1
_chemical_formula_structural   DyYCdPd2
_chemical_formula_sum   'Dy2 Y2 Cd2 Pd4'
_cell_volume   223.89532615
_cell_formula_units_Z   2
loop_
 _symmetry_equiv_pos_site_id
 _symmetry_equiv_pos_as_xyz
  1  'x, y, z'
loop_
 _atom_site_type_symbol
 _atom_site_label
 _atom_site_symmetry_multiplicity
 _atom_site_fract_x
 _atom_site_fract_y
 _atom_site_fract_z
 _atom_site_occupancy
  Dy  Dy0  1  0.171074  0.328676  0.500000  1
  Dy  Dy1  1  0.671074  0.171324  0.500000  1
  Y  Y2  1  0.328660  0.828861  0.500000  1
  Y  Y3  1  0.828660  0.671139  0.500000  1
  Cd  Cd4  1  0.000208  0.999690  0.000000  1
  Cd  Cd5  1  0.500208  0.500310  0.000000  1
  Pd  Pd6  1  0.371365  0.130764  0.000000  1
  Pd  Pd7  1  0.871365  0.369236  0.000000  1
  Pd  Pd8  1  0.128694  0.626392  0.000000  1
  Pd  Pd9  1  0.628694  0.873608  0.000000  1
