# generated using pymatgen
data_SrNdBi2O7
_symmetry_space_group_name_H-M   'P 1'
_cell_length_a   7.90237018
_cell_length_b   7.90237113
_cell_length_c   7.91889400
_cell_angle_alpha   59.93080190
_cell_angle_beta   59.93079791
_cell_angle_gamma   60.11501038
_symmetry_Int_Tables_number   1
_chemical_formula_structural   SrNdBi2O7
_chemical_formula_sum   'Sr2 Nd2 Bi4 O14'
_cell_volume   349.61056379
_cell_formula_units_Z   2
loop_
 _symmetry_equiv_pos_site_id
 _symmetry_equiv_pos_as_xyz
  1  'x, y, z'
loop_
 _atom_site_type_symbol
 _atom_site_label
 _atom_site_symmetry_multiplicity
 _atom_site_fract_x
 _atom_site_fract_y
 _atom_site_fract_z
 _atom_site_occupancy
  Sr  Sr0  1  0.125000  0.125000  0.125000  1
  Sr  Sr1  1  0.125000  0.125000  0.625000  1
  Nd  Nd2  1  0.625000  0.125000  0.125000  1
  Nd  Nd3  1  0.125000  0.625000  0.125000  1
  Bi  Bi4  1  0.625000  0.625000  0.125000  1
  Bi  Bi5  1  0.625000  0.625000  0.625000  1
  Bi  Bi6  1  0.625000  0.125000  0.625000  1
  Bi  Bi7  1  0.125000  0.625000  0.625000  1
  O  O8  1  0.698063  0.296584  0.285477  1
  O  O9  1  0.706078  0.706078  0.293922  1
  O  O10  1  0.296584  0.698063  0.285477  1
  O  O11  1  0.986432  0.986432  0.013568  1
  O  O12  1  0.698063  0.296584  0.719875  1
  O  O13  1  0.953416  0.551937  0.530125  1
  O  O14  1  0.296584  0.698063  0.719875  1
  O  O15  1  0.551937  0.953416  0.530125  1
  O  O16  1  0.263568  0.263568  0.236432  1
  O  O17  1  0.953416  0.551937  0.964523  1
  O  O18  1  0.543922  0.543922  0.956078  1
  O  O19  1  0.956681  0.956681  0.543319  1
  O  O20  1  0.551937  0.953416  0.964523  1
  O  O21  1  0.293319  0.293319  0.706681  1
