# generated using pymatgen
data_Th2Ta2TiSi4
_symmetry_space_group_name_H-M   'P 1'
_cell_length_a   7.17290810
_cell_length_b   7.17234003
_cell_length_c   13.32197716
_cell_angle_alpha   89.99541917
_cell_angle_beta   89.98316944
_cell_angle_gamma   89.99037398
_symmetry_Int_Tables_number   1
_chemical_formula_structural   Th2Ta2TiSi4
_chemical_formula_sum   'Th8 Ta8 Ti4 Si16'
_cell_volume   685.36953482
_cell_formula_units_Z   4
loop_
 _symmetry_equiv_pos_site_id
 _symmetry_equiv_pos_as_xyz
  1  'x, y, z'
loop_
 _atom_site_type_symbol
 _atom_site_label
 _atom_site_symmetry_multiplicity
 _atom_site_fract_x
 _atom_site_fract_y
 _atom_site_fract_z
 _atom_site_occupancy
  Th  Th0  1  0.337172  0.001167  0.468933  1
  Th  Th1  1  0.499167  0.837929  0.718059  1
  Th  Th2  1  0.500847  0.161383  0.218387  1
  Th  Th3  1  0.837862  0.498785  0.281836  1
  Th  Th4  1  0.162062  0.501690  0.782407  1
  Th  Th5  1  0.662360  0.998626  0.968260  1
  Th  Th6  1  0.001579  0.337683  0.531401  1
  Th  Th7  1  0.997915  0.662929  0.031927  1
  Ta  Ta8  1  0.332043  0.331564  0.999129  1
  Ta  Ta9  1  0.171458  0.829054  0.249057  1
  Ta  Ta10  1  0.830363  0.171163  0.750293  1
  Ta  Ta11  1  0.670032  0.668254  0.500379  1
  Ta  Ta12  1  0.159418  0.006247  0.876761  1
  Ta  Ta13  1  0.493581  0.660233  0.126445  1
  Ta  Ta14  1  0.506265  0.341344  0.627147  1
  Ta  Ta15  1  0.658364  0.494481  0.873585  1
  Ti  Ti16  1  0.339973  0.506363  0.373369  1
  Ti  Ti17  1  0.838985  0.992804  0.376907  1
  Ti  Ti18  1  0.006418  0.158554  0.123068  1
  Ti  Ti19  1  0.993147  0.839703  0.623564  1
  Si  Si20  1  0.199533  0.122890  0.685291  1
  Si  Si21  1  0.375011  0.702047  0.935918  1
  Si  Si22  1  0.623565  0.301395  0.436405  1
  Si  Si23  1  0.699639  0.374304  0.064313  1
  Si  Si24  1  0.301791  0.625114  0.563290  1
  Si  Si25  1  0.800857  0.877160  0.186516  1
  Si  Si26  1  0.123413  0.196199  0.313186  1
  Si  Si27  1  0.875397  0.800574  0.813354  1
  Si  Si28  1  0.287209  0.960270  0.065024  1
  Si  Si29  1  0.540542  0.787945  0.315688  1
  Si  Si30  1  0.459339  0.210858  0.814432  1
  Si  Si31  1  0.790653  0.542108  0.684838  1
  Si  Si32  1  0.210806  0.458577  0.185471  1
  Si  Si33  1  0.714147  0.039505  0.564057  1
  Si  Si34  1  0.958959  0.288560  0.936202  1
  Si  Si35  1  0.040129  0.712537  0.435099  1
