# generated using pymatgen
data_Ba2Ag3Sb4Pd
_symmetry_space_group_name_H-M   'P 1'
_cell_length_a   4.86501500
_cell_length_b   4.86501500
_cell_length_c   11.45292700
_cell_angle_alpha   90.00000000
_cell_angle_beta   90.00000000
_cell_angle_gamma   90.00000000
_symmetry_Int_Tables_number   1
_chemical_formula_structural   Ba2Ag3Sb4Pd
_chemical_formula_sum   'Ba2 Ag3 Sb4 Pd1'
_cell_volume   271.07212470
_cell_formula_units_Z   1
loop_
 _symmetry_equiv_pos_site_id
 _symmetry_equiv_pos_as_xyz
  1  'x, y, z'
loop_
 _atom_site_type_symbol
 _atom_site_label
 _atom_site_symmetry_multiplicity
 _atom_site_fract_x
 _atom_site_fract_y
 _atom_site_fract_z
 _atom_site_occupancy
  Ba  Ba0  1  0.000000  0.500000  0.243002  1
  Ba  Ba1  1  0.500000  0.000000  0.749974  1
  Ag  Ag2  1  0.000000  0.000000  0.002106  1
  Ag  Ag3  1  0.500000  0.500000  0.002106  1
  Ag  Ag4  1  0.000000  0.500000  0.628892  1
  Sb  Sb5  1  0.000000  0.000000  0.491841  1
  Sb  Sb6  1  0.500000  0.500000  0.491841  1
  Sb  Sb7  1  0.000000  0.500000  0.868832  1
  Sb  Sb8  1  0.500000  0.000000  0.140538  1
  Pd  Pd9  1  0.500000  0.000000  0.380867  1
