# generated using pymatgen
data_Er3Tm5(B6Os)4
_symmetry_space_group_name_H-M   'P 1'
_cell_length_a   3.62158000
_cell_length_b   9.08129900
_cell_length_c   11.45725200
_cell_angle_alpha   90.00073600
_cell_angle_beta   90.00000000
_cell_angle_gamma   90.00000000
_symmetry_Int_Tables_number   1
_chemical_formula_structural   Er3Tm5(B6Os)4
_chemical_formula_sum   'Er3 Tm5 B24 Os4'
_cell_volume   376.81356051
_cell_formula_units_Z   1
loop_
 _symmetry_equiv_pos_site_id
 _symmetry_equiv_pos_as_xyz
  1  'x, y, z'
loop_
 _atom_site_type_symbol
 _atom_site_label
 _atom_site_symmetry_multiplicity
 _atom_site_fract_x
 _atom_site_fract_y
 _atom_site_fract_z
 _atom_site_occupancy
  Er  Er0  1  0.000000  0.321838  0.414097  1
  Er  Er1  1  0.000000  0.678147  0.585959  1
  Er  Er2  1  0.000000  0.821875  0.085830  1
  Tm  Tm3  1  0.000000  0.178378  0.914160  1
  Tm  Tm4  1  0.000000  0.943880  0.373018  1
  Tm  Tm5  1  0.000000  0.056168  0.626989  1
  Tm  Tm6  1  0.000000  0.443772  0.126770  1
  Tm  Tm7  1  0.000000  0.556107  0.873140  1
  B  B8  1  0.500000  0.553776  0.433397  1
  B  B9  1  0.500000  0.446118  0.566715  1
  B  B10  1  0.500000  0.053884  0.066352  1
  B  B11  1  0.500000  0.946463  0.933431  1
  B  B12  1  0.500000  0.748768  0.420101  1
  B  B13  1  0.500000  0.251194  0.580020  1
  B  B14  1  0.500000  0.248654  0.079581  1
  B  B15  1  0.500000  0.751355  0.920105  1
  B  B16  1  0.500000  0.791539  0.265985  1
  B  B17  1  0.500000  0.208310  0.734223  1
  B  B18  1  0.500000  0.291493  0.233793  1
  B  B19  1  0.500000  0.708533  0.766107  1
  B  B20  1  0.500000  0.631195  0.184618  1
  B  B21  1  0.500000  0.368535  0.815515  1
  B  B22  1  0.500000  0.131253  0.315245  1
  B  B23  1  0.500000  0.868878  0.684763  1
  B  B24  1  0.500000  0.982360  0.213061  1
  B  B25  1  0.500000  0.017969  0.786996  1
  B  B26  1  0.500000  0.482270  0.286753  1
  B  B27  1  0.500000  0.517569  0.713300  1
  B  B28  1  0.500000  0.606125  0.029347  1
  B  B29  1  0.500000  0.393461  0.970512  1
  B  B30  1  0.500000  0.105981  0.470681  1
  B  B31  1  0.500000  0.894069  0.529353  1
  Os  Os32  1  0.000000  0.637411  0.321039  1
  Os  Os33  1  0.000000  0.362399  0.679161  1
  Os  Os34  1  0.000000  0.137352  0.178696  1
  Os  Os35  1  0.000000  0.862921  0.821189  1
