# generated using pymatgen
data_Ca2Yb2Sb6Rh7
_symmetry_space_group_name_H-M   'P 1'
_cell_length_a   7.62050929
_cell_length_b   7.62050976
_cell_length_c   7.59238281
_cell_angle_alpha   109.43589589
_cell_angle_beta   109.43590480
_cell_angle_gamma   109.69129039
_symmetry_Int_Tables_number   1
_chemical_formula_structural   Ca2Yb2Sb6Rh7
_chemical_formula_sum   'Ca2 Yb2 Sb6 Rh7'
_cell_volume   338.78062902
_cell_formula_units_Z   1
loop_
 _symmetry_equiv_pos_site_id
 _symmetry_equiv_pos_as_xyz
  1  'x, y, z'
loop_
 _atom_site_type_symbol
 _atom_site_label
 _atom_site_symmetry_multiplicity
 _atom_site_fract_x
 _atom_site_fract_y
 _atom_site_fract_z
 _atom_site_occupancy
  Ca  Ca0  1  0.000000  0.000000  0.500000  1
  Ca  Ca1  1  0.500000  0.500000  0.500000  1
  Yb  Yb2  1  0.500000  0.000000  0.000000  1
  Yb  Yb3  1  0.000000  0.500000  0.000000  1
  Sb  Sb4  1  0.318412  0.999943  0.318354  1
  Sb  Sb5  1  0.000057  0.681588  0.681646  1
  Sb  Sb6  1  0.681609  0.681609  0.000000  1
  Sb  Sb7  1  0.681588  0.000057  0.681646  1
  Sb  Sb8  1  0.999943  0.318412  0.318354  1
  Sb  Sb9  1  0.318391  0.318391  0.000000  1
  Rh  Rh10  1  0.249976  0.502024  0.752000  1
  Rh  Rh11  1  0.502024  0.249976  0.752000  1
  Rh  Rh12  1  0.750000  0.250000  0.500000  1
  Rh  Rh13  1  0.497976  0.750024  0.248000  1
  Rh  Rh14  1  0.000000  0.000000  0.000000  1
  Rh  Rh15  1  0.250000  0.750000  0.500000  1
  Rh  Rh16  1  0.750024  0.497976  0.248000  1
