# generated using pymatgen
data_Zn2Sn3Rh6Au
_symmetry_space_group_name_H-M   'P 1'
_cell_length_a   4.46419000
_cell_length_b   6.32722000
_cell_length_c   13.52080400
_cell_angle_alpha   90.00000000
_cell_angle_beta   90.00085553
_cell_angle_gamma   90.00000000
_symmetry_Int_Tables_number   1
_chemical_formula_structural   Zn2Sn3Rh6Au
_chemical_formula_sum   'Zn4 Sn6 Rh12 Au2'
_cell_volume   381.90744334
_cell_formula_units_Z   2
loop_
 _symmetry_equiv_pos_site_id
 _symmetry_equiv_pos_as_xyz
  1  'x, y, z'
loop_
 _atom_site_type_symbol
 _atom_site_label
 _atom_site_symmetry_multiplicity
 _atom_site_fract_x
 _atom_site_fract_y
 _atom_site_fract_z
 _atom_site_occupancy
  Zn  Zn0  1  0.999977  0.500000  0.338034  1
  Zn  Zn1  1  0.500001  0.000000  0.501032  1
  Zn  Zn2  1  0.000025  0.500000  0.665584  1
  Zn  Zn3  1  0.500011  0.000000  0.828620  1
  Sn  Sn4  1  0.999963  0.000000  0.002961  1
  Sn  Sn5  1  0.500004  0.500000  0.163990  1
  Sn  Sn6  1  0.000079  0.000000  0.334328  1
  Sn  Sn7  1  0.500005  0.500000  0.501887  1
  Sn  Sn8  1  0.000006  0.000000  0.664728  1
  Sn  Sn9  1  0.500014  0.500000  0.832406  1
  Rh  Rh10  1  0.499995  0.237459  0.989485  1
  Rh  Rh11  1  0.499995  0.762541  0.989485  1
  Rh  Rh12  1  0.999966  0.262517  0.177135  1
  Rh  Rh13  1  0.999966  0.737484  0.177135  1
  Rh  Rh14  1  0.499972  0.254402  0.340820  1
  Rh  Rh15  1  0.499972  0.745600  0.340820  1
  Rh  Rh16  1  0.999997  0.248675  0.501395  1
  Rh  Rh17  1  0.999997  0.751325  0.501395  1
  Rh  Rh18  1  0.500029  0.251293  0.665261  1
  Rh  Rh19  1  0.500029  0.748709  0.665261  1
  Rh  Rh20  1  0.000022  0.245657  0.825802  1
  Rh  Rh21  1  0.000022  0.754344  0.825802  1
  Au  Au22  1  0.999997  0.500000  0.999977  1
  Au  Au23  1  0.499958  0.000000  0.166659  1
