# generated using pymatgen
data_Hf3Co7(P3Ru)2
_symmetry_space_group_name_H-M   'P 1'
_cell_length_a   3.66464600
_cell_length_b   10.36206100
_cell_length_c   12.06000500
_cell_angle_alpha   90.00000000
_cell_angle_beta   90.00000000
_cell_angle_gamma   90.00000000
_symmetry_Int_Tables_number   1
_chemical_formula_structural   Hf3Co7(P3Ru)2
_chemical_formula_sum   'Hf6 Co14 P12 Ru4'
_cell_volume   457.95801174
_cell_formula_units_Z   2
loop_
 _symmetry_equiv_pos_site_id
 _symmetry_equiv_pos_as_xyz
  1  'x, y, z'
loop_
 _atom_site_type_symbol
 _atom_site_label
 _atom_site_symmetry_multiplicity
 _atom_site_fract_x
 _atom_site_fract_y
 _atom_site_fract_z
 _atom_site_occupancy
  Hf  Hf0  1  0.000000  0.500000  0.534410  1
  Hf  Hf1  1  0.500000  0.000000  0.469857  1
  Hf  Hf2  1  0.500000  0.822518  0.206673  1
  Hf  Hf3  1  0.500000  0.177482  0.206673  1
  Hf  Hf4  1  0.000000  0.679276  0.792984  1
  Hf  Hf5  1  0.000000  0.320724  0.792984  1
  Co  Co6  1  0.000000  0.500000  0.986780  1
  Co  Co7  1  0.500000  0.000000  0.013332  1
  Co  Co8  1  0.000000  0.197069  0.571219  1
  Co  Co9  1  0.000000  0.802931  0.571219  1
  Co  Co10  1  0.500000  0.875375  0.708175  1
  Co  Co11  1  0.500000  0.124625  0.708175  1
  Co  Co12  1  0.000000  0.625429  0.287354  1
  Co  Co13  1  0.000000  0.374571  0.287354  1
  Co  Co14  1  0.500000  0.331708  0.988719  1
  Co  Co15  1  0.500000  0.668292  0.988719  1
  Co  Co16  1  0.000000  0.166787  0.009450  1
  Co  Co17  1  0.000000  0.833213  0.009450  1
  Co  Co18  1  0.500000  0.500000  0.707429  1
  Co  Co19  1  0.000000  0.000000  0.293695  1
  P  P20  1  0.500000  0.317593  0.624083  1
  P  P21  1  0.500000  0.682407  0.624083  1
  P  P22  1  0.000000  0.177806  0.380529  1
  P  P23  1  0.000000  0.822194  0.380529  1
  P  P24  1  0.500000  0.500000  0.880185  1
  P  P25  1  0.000000  0.000000  0.120211  1
  P  P26  1  0.500000  0.844038  0.889779  1
  P  P27  1  0.500000  0.155962  0.889779  1
  P  P28  1  0.000000  0.657978  0.108330  1
  P  P29  1  0.000000  0.342022  0.108330  1
  P  P30  1  0.500000  0.500000  0.352720  1
  P  P31  1  0.000000  0.000000  0.642399  1
  Ru  Ru32  1  0.500000  0.298689  0.433946  1
  Ru  Ru33  1  0.500000  0.701311  0.433946  1
  Ru  Ru34  1  0.500000  0.500000  0.161093  1
  Ru  Ru35  1  0.000000  0.000000  0.835409  1
