# generated using pymatgen
data_CuHg2(PO3)4
_symmetry_space_group_name_H-M   'P 1'
_cell_length_a   5.16062302
_cell_length_b   7.54640875
_cell_length_c   10.41955123
_cell_angle_alpha   112.20989590
_cell_angle_beta   105.54974108
_cell_angle_gamma   113.85950142
_symmetry_Int_Tables_number   1
_chemical_formula_structural   CuHg2(PO3)4
_chemical_formula_sum   'Cu1 Hg2 P4 O12'
_cell_volume   298.09229634
_cell_formula_units_Z   1
loop_
 _symmetry_equiv_pos_site_id
 _symmetry_equiv_pos_as_xyz
  1  'x, y, z'
loop_
 _atom_site_type_symbol
 _atom_site_label
 _atom_site_symmetry_multiplicity
 _atom_site_fract_x
 _atom_site_fract_y
 _atom_site_fract_z
 _atom_site_occupancy
  Cu  Cu0  1  0.000000  0.000000  0.000000  1
  Hg  Hg1  1  0.558679  0.660042  0.471717  1
  Hg  Hg2  1  0.441321  0.339958  0.528283  1
  P  P3  1  0.308673  0.814493  0.239109  1
  P  P4  1  0.721399  0.327226  0.080096  1
  P  P5  1  0.278601  0.672774  0.919904  1
  P  P6  1  0.691327  0.185507  0.760891  1
  O  O7  1  0.598694  0.883306  0.382174  1
  O  O8  1  0.341166  0.691293  0.085668  1
  O  O9  1  0.738356  0.999865  0.752363  1
  O  O10  1  0.984163  0.603143  0.208822  1
  O  O11  1  0.133599  0.800665  0.891512  1
  O  O12  1  0.577246  0.716164  0.905060  1
  O  O13  1  0.422754  0.283836  0.094940  1
  O  O14  1  0.866401  0.199335  0.108488  1
  O  O15  1  0.015837  0.396857  0.791178  1
  O  O16  1  0.261644  0.000135  0.247637  1
  O  O17  1  0.658834  0.308707  0.914332  1
  O  O18  1  0.401306  0.116694  0.617826  1
