# generated using pymatgen
data_Ho17(TmBi4)3
_symmetry_space_group_name_H-M   'P 1'
_cell_length_a   8.22209610
_cell_length_b   9.49132201
_cell_length_c   11.99553213
_cell_angle_alpha   90.00031023
_cell_angle_beta   90.01689754
_cell_angle_gamma   89.99411338
_symmetry_Int_Tables_number   1
_chemical_formula_structural   Ho17(TmBi4)3
_chemical_formula_sum   'Ho17 Tm3 Bi12'
_cell_volume   936.11402869
_cell_formula_units_Z   1
loop_
 _symmetry_equiv_pos_site_id
 _symmetry_equiv_pos_as_xyz
  1  'x, y, z'
loop_
 _atom_site_type_symbol
 _atom_site_label
 _atom_site_symmetry_multiplicity
 _atom_site_fract_x
 _atom_site_fract_y
 _atom_site_fract_z
 _atom_site_occupancy
  Ho  Ho0  1  0.353607  0.750004  0.216389  1
  Ho  Ho1  1  0.853550  0.749936  0.283650  1
  Ho  Ho2  1  0.646241  0.249867  0.783708  1
  Ho  Ho3  1  0.146514  0.249873  0.716437  1
  Ho  Ho4  1  0.808089  0.435758  0.558976  1
  Ho  Ho5  1  0.307950  0.435593  0.940993  1
  Ho  Ho6  1  0.808022  0.064225  0.559037  1
  Ho  Ho7  1  0.692054  0.935634  0.058995  1
  Ho  Ho8  1  0.192008  0.564392  0.440987  1
  Ho  Ho9  1  0.476532  0.249916  0.488882  1
  Ho  Ho10  1  0.976786  0.249951  0.011083  1
  Ho  Ho11  1  0.523159  0.750089  0.511070  1
  Ho  Ho12  1  0.023213  0.749930  0.988937  1
  Ho  Ho13  1  0.314436  0.249913  0.218079  1
  Ho  Ho14  1  0.814425  0.249990  0.281865  1
  Ho  Ho15  1  0.685581  0.749935  0.781905  1
  Ho  Ho16  1  0.185511  0.750089  0.718065  1
  Tm  Tm17  1  0.691963  0.564640  0.058990  1
  Tm  Tm18  1  0.192017  0.935412  0.441008  1
  Tm  Tm19  1  0.308023  0.064634  0.941030  1
  Bi  Bi20  1  0.405453  0.750395  0.957479  1
  Bi  Bi21  1  0.905620  0.750185  0.542459  1
  Bi  Bi22  1  0.594519  0.250395  0.042538  1
  Bi  Bi23  1  0.094688  0.249422  0.457404  1
  Bi  Bi24  1  0.565987  0.996177  0.325689  1
  Bi  Bi25  1  0.066080  0.503794  0.174265  1
  Bi  Bi26  1  0.433884  0.496178  0.674337  1
  Bi  Bi27  1  0.934003  0.003777  0.825731  1
  Bi  Bi28  1  0.433843  0.003808  0.674317  1
  Bi  Bi29  1  0.933915  0.496140  0.825777  1
  Bi  Bi30  1  0.566164  0.503800  0.325638  1
  Bi  Bi31  1  0.066163  0.996145  0.174280  1
