# generated using pymatgen
data_Ho3Cd2InCuIrAu
_symmetry_space_group_name_H-M   'P 1'
_cell_length_a   7.80766800
_cell_length_b   7.80766815
_cell_length_c   3.70909400
_cell_angle_alpha   90.00000000
_cell_angle_beta   90.00000000
_cell_angle_gamma   119.99999938
_symmetry_Int_Tables_number   1
_chemical_formula_structural   Ho3Cd2InCuIrAu
_chemical_formula_sum   'Ho3 Cd2 In1 Cu1 Ir1 Au1'
_cell_volume   195.81283626
_cell_formula_units_Z   1
loop_
 _symmetry_equiv_pos_site_id
 _symmetry_equiv_pos_as_xyz
  1  'x, y, z'
loop_
 _atom_site_type_symbol
 _atom_site_label
 _atom_site_symmetry_multiplicity
 _atom_site_fract_x
 _atom_site_fract_y
 _atom_site_fract_z
 _atom_site_occupancy
  Ho  Ho0  1  0.580890  0.975541  0.000000  1
  Ho  Ho1  1  0.022615  0.601263  0.000000  1
  Ho  Ho2  1  0.397124  0.421526  0.000000  1
  Cd  Cd3  1  0.997833  0.252159  0.500000  1
  Cd  Cd4  1  0.748567  0.744187  0.500000  1
  In  In5  1  0.252290  0.002500  0.500000  1
  Cu  Cu6  1  0.001427  0.000381  0.000000  1
  Ir  Ir7  1  0.333348  0.669278  0.500000  1
  Au  Au8  1  0.665906  0.333166  0.500000  1
