# generated using pymatgen
data_Yb3MnCoO6
_symmetry_space_group_name_H-M   'P 1'
_cell_length_a   6.28087243
_cell_length_b   6.28976652
_cell_length_c   6.29456268
_cell_angle_alpha   91.62420730
_cell_angle_beta   91.60186968
_cell_angle_gamma   91.58414592
_symmetry_Int_Tables_number   1
_chemical_formula_structural   Yb3MnCoO6
_chemical_formula_sum   'Yb6 Mn2 Co2 O12'
_cell_volume   248.37039606
_cell_formula_units_Z   2
loop_
 _symmetry_equiv_pos_site_id
 _symmetry_equiv_pos_as_xyz
  1  'x, y, z'
loop_
 _atom_site_type_symbol
 _atom_site_label
 _atom_site_symmetry_multiplicity
 _atom_site_fract_x
 _atom_site_fract_y
 _atom_site_fract_z
 _atom_site_occupancy
  Yb  Yb0  1  0.751862  0.387859  0.112616  1
  Yb  Yb1  1  0.250669  0.612730  0.887626  1
  Yb  Yb2  1  0.386508  0.113256  0.750137  1
  Yb  Yb3  1  0.113387  0.748063  0.386282  1
  Yb  Yb4  1  0.613456  0.885988  0.247872  1
  Yb  Yb5  1  0.887180  0.251519  0.612908  1
  Mn  Mn6  1  0.499085  0.499416  0.501467  1
  Mn  Mn7  1  0.998649  0.001204  0.000330  1
  Co  Co8  1  0.254783  0.246169  0.249091  1
  Co  Co9  1  0.752882  0.751998  0.745175  1
  O  O10  1  0.582395  0.450206  0.790748  1
  O  O11  1  0.951687  0.084982  0.290354  1
  O  O12  1  0.790748  0.581452  0.450501  1
  O  O13  1  0.047660  0.916400  0.708849  1
  O  O14  1  0.915289  0.711004  0.049521  1
  O  O15  1  0.451987  0.790352  0.585078  1
  O  O16  1  0.081150  0.290811  0.949699  1
  O  O17  1  0.414534  0.548674  0.210908  1
  O  O18  1  0.548117  0.207996  0.418101  1
  O  O19  1  0.290488  0.951332  0.082720  1
  O  O20  1  0.209337  0.418562  0.550460  1
  O  O21  1  0.708150  0.050031  0.919557  1
