# generated using pymatgen
data_Dy8TiNb10Si16Ru
_symmetry_space_group_name_H-M   'P 1'
_cell_length_a   7.04545137
_cell_length_b   7.04963430
_cell_length_c   12.99986108
_cell_angle_alpha   89.88135621
_cell_angle_beta   90.13552433
_cell_angle_gamma   89.74808407
_symmetry_Int_Tables_number   1
_chemical_formula_structural   Dy8TiNb10Si16Ru
_chemical_formula_sum   'Dy8 Ti1 Nb10 Si16 Ru1'
_cell_volume   645.66577758
_cell_formula_units_Z   1
loop_
 _symmetry_equiv_pos_site_id
 _symmetry_equiv_pos_as_xyz
  1  'x, y, z'
loop_
 _atom_site_type_symbol
 _atom_site_label
 _atom_site_symmetry_multiplicity
 _atom_site_fract_x
 _atom_site_fract_y
 _atom_site_fract_z
 _atom_site_occupancy
  Dy  Dy0  1  0.997898  0.657848  0.032535  1
  Dy  Dy1  1  0.002044  0.342706  0.531612  1
  Dy  Dy2  1  0.657932  0.997377  0.967984  1
  Dy  Dy3  1  0.158688  0.503650  0.781358  1
  Dy  Dy4  1  0.840222  0.498788  0.283838  1
  Dy  Dy5  1  0.503997  0.158099  0.218626  1
  Dy  Dy6  1  0.499434  0.841579  0.715771  1
  Dy  Dy7  1  0.342587  0.002031  0.468483  1
  Ti  Ti8  1  0.653047  0.493838  0.874768  1
  Nb  Nb9  1  0.341340  0.505491  0.375713  1
  Nb  Nb10  1  0.850839  0.997894  0.374969  1
  Nb  Nb11  1  0.008080  0.152751  0.125211  1
  Nb  Nb12  1  0.997522  0.851910  0.625502  1
  Nb  Nb13  1  0.506995  0.342311  0.624832  1
  Nb  Nb14  1  0.151674  0.006302  0.874447  1
  Nb  Nb15  1  0.825713  0.171031  0.747436  1
  Nb  Nb16  1  0.170659  0.825903  0.252269  1
  Nb  Nb17  1  0.327722  0.328028  0.000095  1
  Nb  Nb18  1  0.495051  0.651495  0.124834  1
  Si  Si19  1  0.041682  0.709493  0.439438  1
  Si  Si20  1  0.951765  0.294959  0.934574  1
  Si  Si21  1  0.709330  0.042012  0.560516  1
  Si  Si22  1  0.205193  0.454373  0.186591  1
  Si  Si23  1  0.790122  0.551530  0.682101  1
  Si  Si24  1  0.454524  0.207243  0.814543  1
  Si  Si25  1  0.551071  0.790820  0.318369  1
  Si  Si26  1  0.293629  0.952951  0.064371  1
  Si  Si27  1  0.796408  0.865331  0.183985  1
  Si  Si28  1  0.301067  0.630977  0.566147  1
  Si  Si29  1  0.703069  0.366152  0.066058  1
  Si  Si30  1  0.630914  0.301013  0.433969  1
  Si  Si31  1  0.367929  0.702634  0.932953  1
  Si  Si32  1  0.133568  0.204688  0.317120  1
  Si  Si33  1  0.205692  0.133624  0.682965  1
  Si  Si34  1  0.863836  0.795403  0.816142  1
  Ru  Ru35  1  0.668756  0.667766  0.499874  1
