# generated using pymatgen
data_Dy3Y3MnFeB14
_symmetry_space_group_name_H-M   'P 1'
_cell_length_a   8.04885901
_cell_length_b   8.04885885
_cell_length_c   9.31058202
_cell_angle_alpha   90.00636900
_cell_angle_beta   89.99363036
_cell_angle_gamma   155.33306060
_symmetry_Int_Tables_number   1
_chemical_formula_structural   Dy3Y3MnFeB14
_chemical_formula_sum   'Dy3 Y3 Mn1 Fe1 B14'
_cell_volume   251.73196381
_cell_formula_units_Z   1
loop_
 _symmetry_equiv_pos_site_id
 _symmetry_equiv_pos_as_xyz
  1  'x, y, z'
loop_
 _atom_site_type_symbol
 _atom_site_label
 _atom_site_symmetry_multiplicity
 _atom_site_fract_x
 _atom_site_fract_y
 _atom_site_fract_z
 _atom_site_occupancy
  Dy  Dy0  1  0.895443  0.104557  0.559730  1
  Dy  Dy1  1  0.104477  0.895523  0.438456  1
  Dy  Dy2  1  0.104491  0.895509  0.061535  1
  Y  Y3  1  0.758206  0.241794  0.250002  1
  Y  Y4  1  0.242202  0.757798  0.749960  1
  Y  Y5  1  0.895407  0.104593  0.940134  1
  Mn  Mn6  1  0.946524  0.053476  0.250054  1
  Fe  Fe7  1  0.054366  0.945634  0.749981  1
  B  B8  1  0.540010  0.459990  0.250006  1
  B  B9  1  0.460511  0.539489  0.749944  1
  B  B10  1  0.521767  0.478233  0.901631  1
  B  B11  1  0.478252  0.521748  0.098561  1
  B  B12  1  0.478208  0.521792  0.401499  1
  B  B13  1  0.521719  0.478281  0.598393  1
  B  B14  1  0.629815  0.370185  0.846810  1
  B  B15  1  0.369821  0.630179  0.153197  1
  B  B16  1  0.727259  0.272741  0.966493  1
  B  B17  1  0.272281  0.727719  0.032606  1
  B  B18  1  0.272310  0.727690  0.467416  1
  B  B19  1  0.727286  0.272714  0.533522  1
  B  B20  1  0.629824  0.370176  0.653187  1
  B  B21  1  0.369824  0.630176  0.346883  1
