# generated using pymatgen
data_YbHo3Ru8
_symmetry_space_group_name_H-M   'P 1'
_cell_length_a   5.23535866
_cell_length_b   5.23535867
_cell_length_c   8.96229200
_cell_angle_alpha   90.00092663
_cell_angle_beta   89.99907083
_cell_angle_gamma   120.00159993
_symmetry_Int_Tables_number   1
_chemical_formula_structural   YbHo3Ru8
_chemical_formula_sum   'Yb1 Ho3 Ru8'
_cell_volume   212.73335967
_cell_formula_units_Z   1
loop_
 _symmetry_equiv_pos_site_id
 _symmetry_equiv_pos_as_xyz
  1  'x, y, z'
loop_
 _atom_site_type_symbol
 _atom_site_label
 _atom_site_symmetry_multiplicity
 _atom_site_fract_x
 _atom_site_fract_y
 _atom_site_fract_z
 _atom_site_occupancy
  Yb  Yb0  1  0.666654  0.333346  0.935652  1
  Ho  Ho1  1  0.666655  0.333345  0.572674  1
  Ho  Ho2  1  0.333359  0.666641  0.432271  1
  Ho  Ho3  1  0.333349  0.666651  0.062935  1
  Ru  Ru4  1  0.000004  0.999996  0.497672  1
  Ru  Ru5  1  0.000013  0.999987  0.999485  1
  Ru  Ru6  1  0.170583  0.341236  0.749428  1
  Ru  Ru7  1  0.170642  0.829358  0.749424  1
  Ru  Ru8  1  0.658764  0.829417  0.749428  1
  Ru  Ru9  1  0.828616  0.657176  0.250338  1
  Ru  Ru10  1  0.828537  0.171463  0.250355  1
  Ru  Ru11  1  0.342824  0.171384  0.250338  1
