# generated using pymatgen
data_V3Re2Si2Mo
_symmetry_space_group_name_H-M   'P 1'
_cell_length_a   4.79512397
_cell_length_b   4.79512344
_cell_length_c   4.73848980
_cell_angle_alpha   89.96203978
_cell_angle_beta   90.03795499
_cell_angle_gamma   90.09373614
_symmetry_Int_Tables_number   1
_chemical_formula_structural   V3Re2Si2Mo
_chemical_formula_sum   'V3 Re2 Si2 Mo1'
_cell_volume   108.95290381
_cell_formula_units_Z   1
loop_
 _symmetry_equiv_pos_site_id
 _symmetry_equiv_pos_as_xyz
  1  'x, y, z'
loop_
 _atom_site_type_symbol
 _atom_site_label
 _atom_site_symmetry_multiplicity
 _atom_site_fract_x
 _atom_site_fract_y
 _atom_site_fract_z
 _atom_site_occupancy
  V  V0  1  0.499942  0.249355  0.999797  1
  V  V1  1  0.749355  0.999942  0.500203  1
  V  V2  1  0.999887  0.499887  0.250000  1
  Re  Re3  1  0.501564  0.749752  0.001152  1
  Re  Re4  1  0.249752  0.001564  0.498848  1
  Si  Si5  1  0.505245  0.494526  0.494196  1
  Si  Si6  1  0.994526  0.005245  0.005804  1
  Mo  Mo7  1  0.999729  0.499729  0.750000  1
