# generated using pymatgen
data_Er2Lu3InSb2
_symmetry_space_group_name_H-M   'P 1'
_cell_length_a   6.32756101
_cell_length_b   8.85099306
_cell_length_c   8.82166585
_cell_angle_alpha   120.11004789
_cell_angle_beta   90.00106256
_cell_angle_gamma   89.99788756
_symmetry_Int_Tables_number   1
_chemical_formula_structural   Er2Lu3InSb2
_chemical_formula_sum   'Er4 Lu6 In2 Sb4'
_cell_volume   427.39251443
_cell_formula_units_Z   2
loop_
 _symmetry_equiv_pos_site_id
 _symmetry_equiv_pos_as_xyz
  1  'x, y, z'
loop_
 _atom_site_type_symbol
 _atom_site_label
 _atom_site_symmetry_multiplicity
 _atom_site_fract_x
 _atom_site_fract_y
 _atom_site_fract_z
 _atom_site_occupancy
  Er  Er0  1  0.750028  0.240791  0.000000  1
  Er  Er1  1  0.750009  0.761179  0.759054  1
  Er  Er2  1  0.750009  0.002125  0.240946  1
  Er  Er3  1  0.250004  0.761856  0.000000  1
  Lu  Lu4  1  0.498376  0.331908  0.663384  1
  Lu  Lu5  1  0.498376  0.668524  0.336616  1
  Lu  Lu6  1  0.001632  0.668519  0.336606  1
  Lu  Lu7  1  0.001632  0.331913  0.663394  1
  Lu  Lu8  1  0.249993  0.237483  0.241980  1
  Lu  Lu9  1  0.249993  0.995503  0.758020  1
  In  In10  1  0.249998  0.604246  0.604218  1
  In  In11  1  0.249998  0.000027  0.395782  1
  Sb  Sb12  1  0.749989  0.607103  0.000000  1
  Sb  Sb13  1  0.749977  0.396250  0.394327  1
  Sb  Sb14  1  0.749977  0.001922  0.605673  1
  Sb  Sb15  1  0.250014  0.390653  0.000000  1
