# generated using pymatgen
data_MgSc5(AlRh2)6
_symmetry_space_group_name_H-M   'P 1'
_cell_length_a   4.42532800
_cell_length_b   6.18814600
_cell_length_c   13.18377900
_cell_angle_alpha   90.00000000
_cell_angle_beta   89.99904290
_cell_angle_gamma   90.00000000
_symmetry_Int_Tables_number   1
_chemical_formula_structural   MgSc5(AlRh2)6
_chemical_formula_sum   'Mg1 Sc5 Al6 Rh12'
_cell_volume   361.03219483
_cell_formula_units_Z   1
loop_
 _symmetry_equiv_pos_site_id
 _symmetry_equiv_pos_as_xyz
  1  'x, y, z'
loop_
 _atom_site_type_symbol
 _atom_site_label
 _atom_site_symmetry_multiplicity
 _atom_site_fract_x
 _atom_site_fract_y
 _atom_site_fract_z
 _atom_site_occupancy
  Mg  Mg0  1  0.500082  0.000000  0.833294  1
  Sc  Sc1  1  0.000003  0.500000  0.998442  1
  Sc  Sc2  1  0.499907  0.000000  0.165605  1
  Sc  Sc3  1  0.999892  0.500000  0.333355  1
  Sc  Sc4  1  0.500006  0.000000  0.501052  1
  Sc  Sc5  1  0.000099  0.500000  0.668234  1
  Al  Al6  1  0.999994  0.000000  0.998081  1
  Al  Al7  1  0.499915  0.500000  0.164045  1
  Al  Al8  1  0.999885  0.000000  0.333378  1
  Al  Al9  1  0.500002  0.500000  0.502531  1
  Al  Al10  1  0.000091  0.000000  0.668630  1
  Al  Al11  1  0.500106  0.500000  0.833375  1
  Rh  Rh12  1  0.499991  0.248808  0.998280  1
  Rh  Rh13  1  0.499991  0.751191  0.998280  1
  Rh  Rh14  1  0.999923  0.249177  0.166116  1
  Rh  Rh15  1  0.999923  0.750824  0.166116  1
  Rh  Rh16  1  0.499911  0.250032  0.333288  1
  Rh  Rh17  1  0.499911  0.749968  0.333288  1
  Rh  Rh18  1  0.999998  0.249135  0.500590  1
  Rh  Rh19  1  0.999998  0.750864  0.500590  1
  Rh  Rh20  1  0.500108  0.248838  0.668383  1
  Rh  Rh21  1  0.500108  0.751162  0.668383  1
  Rh  Rh22  1  0.000082  0.247273  0.833331  1
  Rh  Rh23  1  0.000082  0.752728  0.833331  1
