# generated using pymatgen
data_CeHo3Mg3AlIr4
_symmetry_space_group_name_H-M   'P 1'
_cell_length_a   7.01633756
_cell_length_b   4.10433800
_cell_length_c   8.47171635
_cell_angle_alpha   90.00000000
_cell_angle_beta   89.72183528
_cell_angle_gamma   90.00000000
_symmetry_Int_Tables_number   1
_chemical_formula_structural   CeHo3Mg3AlIr4
_chemical_formula_sum   'Ce1 Ho3 Mg3 Al1 Ir4'
_cell_volume   243.96070606
_cell_formula_units_Z   1
loop_
 _symmetry_equiv_pos_site_id
 _symmetry_equiv_pos_as_xyz
  1  'x, y, z'
loop_
 _atom_site_type_symbol
 _atom_site_label
 _atom_site_symmetry_multiplicity
 _atom_site_fract_x
 _atom_site_fract_y
 _atom_site_fract_z
 _atom_site_occupancy
  Ce  Ce0  1  0.532444  0.750000  0.685097  1
  Ho  Ho1  1  0.961199  0.250000  0.174147  1
  Ho  Ho2  1  0.465424  0.250000  0.318409  1
  Ho  Ho3  1  0.040782  0.750000  0.826310  1
  Mg  Mg4  1  0.868432  0.250000  0.560012  1
  Mg  Mg5  1  0.139293  0.750000  0.435062  1
  Mg  Mg6  1  0.635793  0.750000  0.062143  1
  Al  Al7  1  0.359240  0.250000  0.946039  1
  Ir  Ir8  1  0.735367  0.250000  0.870090  1
  Ir  Ir9  1  0.257025  0.250000  0.637902  1
  Ir  Ir10  1  0.254858  0.750000  0.111723  1
  Ir  Ir11  1  0.750145  0.750000  0.373066  1
