# generated using pymatgen
data_Ti5Co16Si7Os
_symmetry_space_group_name_H-M   'P 1'
_cell_length_a   7.82313196
_cell_length_b   7.82704881
_cell_length_c   7.82704998
_cell_angle_alpha   59.96689611
_cell_angle_beta   60.01655361
_cell_angle_gamma   60.01655802
_symmetry_Int_Tables_number   1
_chemical_formula_structural   Ti5Co16Si7Os
_chemical_formula_sum   'Ti5 Co16 Si7 Os1'
_cell_volume   338.89223279
_cell_formula_units_Z   1
loop_
 _symmetry_equiv_pos_site_id
 _symmetry_equiv_pos_as_xyz
  1  'x, y, z'
loop_
 _atom_site_type_symbol
 _atom_site_label
 _atom_site_symmetry_multiplicity
 _atom_site_fract_x
 _atom_site_fract_y
 _atom_site_fract_z
 _atom_site_occupancy
  Ti  Ti0  1  0.804578  0.795698  0.195422  1
  Ti  Ti1  1  0.789764  0.210236  0.210236  1
  Ti  Ti2  1  0.204302  0.195422  0.795698  1
  Ti  Ti3  1  0.804578  0.195422  0.795698  1
  Ti  Ti4  1  0.204302  0.795698  0.195422  1
  Co  Co5  1  0.620200  0.617510  0.142090  1
  Co  Co6  1  0.165575  0.493219  0.175629  1
  Co  Co7  1  0.857910  0.379800  0.379800  1
  Co  Co8  1  0.506781  0.834425  0.834425  1
  Co  Co9  1  0.510061  0.164816  0.164816  1
  Co  Co10  1  0.835184  0.839694  0.489939  1
  Co  Co11  1  0.165575  0.175629  0.493219  1
  Co  Co12  1  0.145382  0.619291  0.619291  1
  Co  Co13  1  0.160306  0.164816  0.164816  1
  Co  Co14  1  0.380709  0.383964  0.854618  1
  Co  Co15  1  0.616036  0.619291  0.619291  1
  Co  Co16  1  0.380709  0.854618  0.383964  1
  Co  Co17  1  0.382490  0.379800  0.379800  1
  Co  Co18  1  0.824371  0.834425  0.834425  1
  Co  Co19  1  0.620200  0.142090  0.617510  1
  Co  Co20  1  0.835184  0.489939  0.839694  1
  Si  Si21  1  0.494119  0.993728  0.505881  1
  Si  Si22  1  0.494119  0.505881  0.993728  1
  Si  Si23  1  0.503290  0.496710  0.496710  1
  Si  Si24  1  0.006272  0.993728  0.505881  1
  Si  Si25  1  0.006272  0.505881  0.993728  1
  Si  Si26  1  0.995956  0.504044  0.504044  1
  Si  Si27  1  0.495956  0.004044  0.004044  1
  Os  Os28  1  0.189819  0.810181  0.810181  1
