# generated using pymatgen
data_ZnCo7(SiO4)4
_symmetry_space_group_name_H-M   'P 1'
_cell_length_a   5.12561670
_cell_length_b   6.78593084
_cell_length_c   10.50257810
_cell_angle_alpha   90.00293127
_cell_angle_beta   89.98356692
_cell_angle_gamma   90.05700952
_symmetry_Int_Tables_number   1
_chemical_formula_structural   ZnCo7(SiO4)4
_chemical_formula_sum   'Zn1 Co7 Si4 O16'
_cell_volume   365.30131961
_cell_formula_units_Z   1
loop_
 _symmetry_equiv_pos_site_id
 _symmetry_equiv_pos_as_xyz
  1  'x, y, z'
loop_
 _atom_site_type_symbol
 _atom_site_label
 _atom_site_symmetry_multiplicity
 _atom_site_fract_x
 _atom_site_fract_y
 _atom_site_fract_z
 _atom_site_occupancy
  Zn  Zn0  1  0.821168  0.998247  0.155422  1
  Co  Co1  1  0.677777  0.996512  0.656343  1
  Co  Co2  1  0.822684  0.503461  0.156384  1
  Co  Co3  1  0.322005  0.496732  0.343589  1
  Co  Co4  1  0.177737  0.003163  0.843348  1
  Co  Co5  1  0.322389  0.002976  0.343700  1
  Co  Co6  1  0.178027  0.496720  0.843715  1
  Co  Co7  1  0.678387  0.503692  0.656845  1
  Si  Si8  1  0.177654  0.250125  0.593647  1
  Si  Si9  1  0.321826  0.248996  0.093621  1
  Si  Si10  1  0.822431  0.750143  0.405894  1
  Si  Si11  1  0.677469  0.750516  0.906755  1
  O  O12  1  0.858994  0.250231  0.614895  1
  O  O13  1  0.640790  0.250005  0.114668  1
  O  O14  1  0.141214  0.749817  0.385570  1
  O  O15  1  0.358876  0.750235  0.885816  1
  O  O16  1  0.238696  0.249602  0.942403  1
  O  O17  1  0.261729  0.249896  0.442544  1
  O  O18  1  0.762157  0.750630  0.057917  1
  O  O19  1  0.737954  0.750126  0.557130  1
  O  O20  1  0.297000  0.052112  0.663904  1
  O  O21  1  0.202932  0.446872  0.164104  1
  O  O22  1  0.703004  0.551968  0.335676  1
  O  O23  1  0.796773  0.948185  0.835998  1
  O  O24  1  0.703230  0.947863  0.335291  1
  O  O25  1  0.797002  0.552337  0.836720  1
  O  O26  1  0.297341  0.448081  0.664161  1
  O  O27  1  0.202754  0.050759  0.163940  1
