# generated using pymatgen
data_CaLa2(ErSi2)2
_symmetry_space_group_name_H-M   'P 1'
_cell_length_a   7.85676000
_cell_length_b   7.85676000
_cell_length_c   14.36682600
_cell_angle_alpha   90.00000000
_cell_angle_beta   90.00000000
_cell_angle_gamma   90.00000000
_symmetry_Int_Tables_number   1
_chemical_formula_structural   CaLa2(ErSi2)2
_chemical_formula_sum   'Ca4 La8 Er8 Si16'
_cell_volume   886.84517169
_cell_formula_units_Z   4
loop_
 _symmetry_equiv_pos_site_id
 _symmetry_equiv_pos_as_xyz
  1  'x, y, z'
loop_
 _atom_site_type_symbol
 _atom_site_label
 _atom_site_symmetry_multiplicity
 _atom_site_fract_x
 _atom_site_fract_y
 _atom_site_fract_z
 _atom_site_occupancy
  Ca  Ca0  1  0.685663  0.685663  0.500000  1
  Ca  Ca1  1  0.814337  0.185663  0.750000  1
  Ca  Ca2  1  0.185663  0.814337  0.250000  1
  Ca  Ca3  1  0.314337  0.314337  0.000000  1
  La  La4  1  0.990292  0.638583  0.041418  1
  La  La5  1  0.009708  0.361417  0.541418  1
  La  La6  1  0.638583  0.990292  0.958582  1
  La  La7  1  0.138583  0.509708  0.791418  1
  La  La8  1  0.861417  0.490292  0.291418  1
  La  La9  1  0.509708  0.138583  0.208582  1
  La  La10  1  0.490292  0.861417  0.708582  1
  La  La11  1  0.361417  0.009708  0.458582  1
  Er  Er12  1  0.365470  0.492842  0.375951  1
  Er  Er13  1  0.865470  0.007158  0.374049  1
  Er  Er14  1  0.992842  0.134530  0.125951  1
  Er  Er15  1  0.007158  0.865470  0.625951  1
  Er  Er16  1  0.634530  0.507158  0.875951  1
  Er  Er17  1  0.492842  0.365470  0.624049  1
  Er  Er18  1  0.507158  0.634530  0.124049  1
  Er  Er19  1  0.134530  0.992842  0.874049  1
  Si  Si20  1  0.074601  0.712052  0.440850  1
  Si  Si21  1  0.925399  0.287948  0.940850  1
  Si  Si22  1  0.712052  0.074601  0.559150  1
  Si  Si23  1  0.212053  0.425399  0.190850  1
  Si  Si24  1  0.787948  0.574601  0.690850  1
  Si  Si25  1  0.425399  0.212053  0.809150  1
  Si  Si26  1  0.574601  0.787948  0.309150  1
  Si  Si27  1  0.287948  0.925399  0.059150  1
  Si  Si28  1  0.848076  0.789237  0.811594  1
  Si  Si29  1  0.151924  0.210763  0.311594  1
  Si  Si30  1  0.789237  0.848076  0.188406  1
  Si  Si31  1  0.289237  0.651924  0.561594  1
  Si  Si32  1  0.710763  0.348076  0.061594  1
  Si  Si33  1  0.651924  0.289237  0.438406  1
  Si  Si34  1  0.348076  0.710763  0.938406  1
  Si  Si35  1  0.210763  0.151924  0.688406  1
