# generated using pymatgen
data_Nb12Fe8Si4CN3
_symmetry_space_group_name_H-M   'P 1'
_cell_length_a   8.00727270
_cell_length_b   8.01299726
_cell_length_c   8.00731301
_cell_angle_alpha   60.02285227
_cell_angle_beta   59.99988457
_cell_angle_gamma   60.02308033
_symmetry_Int_Tables_number   1
_chemical_formula_structural   Nb12Fe8Si4CN3
_chemical_formula_sum   'Nb12 Fe8 Si4 C1 N3'
_cell_volume   363.41405000
_cell_formula_units_Z   1
loop_
 _symmetry_equiv_pos_site_id
 _symmetry_equiv_pos_as_xyz
  1  'x, y, z'
loop_
 _atom_site_type_symbol
 _atom_site_label
 _atom_site_symmetry_multiplicity
 _atom_site_fract_x
 _atom_site_fract_y
 _atom_site_fract_z
 _atom_site_occupancy
  Nb  Nb0  1  0.798470  0.798883  0.201327  1
  Nb  Nb1  1  0.201356  0.200617  0.799010  1
  Nb  Nb2  1  0.799011  0.200618  0.799019  1
  Nb  Nb3  1  0.201327  0.798875  0.201327  1
  Nb  Nb4  1  0.201328  0.798881  0.798474  1
  Nb  Nb5  1  0.799003  0.200621  0.201358  1
  Nb  Nb6  1  0.451530  0.451117  0.048673  1
  Nb  Nb7  1  0.048644  0.049383  0.450990  1
  Nb  Nb8  1  0.450989  0.049382  0.450981  1
  Nb  Nb9  1  0.048673  0.451125  0.048673  1
  Nb  Nb10  1  0.048672  0.451119  0.451526  1
  Nb  Nb11  1  0.450997  0.049379  0.048642  1
  Fe  Fe12  1  0.735830  0.421405  0.421374  1
  Fe  Fe13  1  0.421498  0.735508  0.421490  1
  Fe  Fe14  1  0.421381  0.421396  0.735829  1
  Fe  Fe15  1  0.421378  0.421399  0.421377  1
  Fe  Fe16  1  0.514170  0.828595  0.828626  1
  Fe  Fe17  1  0.828502  0.514492  0.828510  1
  Fe  Fe18  1  0.828619  0.828604  0.514171  1
  Fe  Fe19  1  0.828622  0.828601  0.828623  1
  Si  Si20  1  0.125000  0.625000  0.625000  1
  Si  Si21  1  0.625000  0.125000  0.625000  1
  Si  Si22  1  0.625000  0.625000  0.125000  1
  Si  Si23  1  0.625000  0.625000  0.625000  1
  C  C24  1  0.125000  0.625000  0.125000  1
  N  N25  1  0.625000  0.125000  0.125000  1
  N  N26  1  0.125000  0.125000  0.625000  1
  N  N27  1  0.125000  0.125000  0.125000  1
