# generated using pymatgen
data_TlCd3As(PN2)6
_symmetry_space_group_name_H-M   'P 1'
_cell_length_a   7.44285094
_cell_length_b   7.46880910
_cell_length_c   7.46880900
_cell_angle_alpha   109.54151102
_cell_angle_beta   109.40082834
_cell_angle_gamma   109.40084349
_symmetry_Int_Tables_number   1
_chemical_formula_structural   TlCd3As(PN2)6
_chemical_formula_sum   'Tl1 Cd3 As1 P6 N12'
_cell_volume   319.88705544
_cell_formula_units_Z   1
loop_
 _symmetry_equiv_pos_site_id
 _symmetry_equiv_pos_as_xyz
  1  'x, y, z'
loop_
 _atom_site_type_symbol
 _atom_site_label
 _atom_site_symmetry_multiplicity
 _atom_site_fract_x
 _atom_site_fract_y
 _atom_site_fract_z
 _atom_site_occupancy
  Tl  Tl0  1  0.675821  0.000000  0.000000  1
  Cd  Cd1  1  0.995655  0.000000  0.653390  1
  Cd  Cd2  1  0.995655  0.653390  0.000000  1
  Cd  Cd3  1  0.342265  0.346610  0.346610  1
  As  As4  1  0.018996  0.000000  0.000000  1
  P  P5  1  0.247918  0.749203  0.499826  1
  P  P6  1  0.748091  0.249378  0.500174  1
  P  P7  1  0.748091  0.500174  0.249378  1
  P  P8  1  0.247918  0.499826  0.749203  1
  P  P9  1  0.498714  0.750622  0.250797  1
  P  P10  1  0.498714  0.250797  0.750622  1
  N  N11  1  0.704071  0.285596  0.285596  1
  N  N12  1  0.287659  0.710168  0.289838  1
  N  N13  1  0.293615  0.582820  0.582820  1
  N  N14  1  0.577490  0.579670  0.289832  1
  N  N15  1  0.418474  0.714404  0.000000  1
  N  N16  1  0.997821  0.710162  0.420330  1
  N  N17  1  0.577490  0.289832  0.579670  1
  N  N18  1  0.710795  0.000000  0.417180  1
  N  N19  1  0.418474  0.000000  0.714404  1
  N  N20  1  0.710795  0.417180  0.000000  1
  N  N21  1  0.287659  0.289838  0.710168  1
  N  N22  1  0.997821  0.420330  0.710162  1
