# generated using pymatgen
data_Tm4V3ReB16
_symmetry_space_group_name_H-M   'P 1'
_cell_length_a   3.47171100
_cell_length_b   5.95574579
_cell_length_c   11.52423644
_cell_angle_alpha   90.00777394
_cell_angle_beta   90.00000000
_cell_angle_gamma   90.00000000
_symmetry_Int_Tables_number   1
_chemical_formula_structural   Tm4V3ReB16
_chemical_formula_sum   'Tm4 V3 Re1 B16'
_cell_volume   238.28234976
_cell_formula_units_Z   1
loop_
 _symmetry_equiv_pos_site_id
 _symmetry_equiv_pos_as_xyz
  1  'x, y, z'
loop_
 _atom_site_type_symbol
 _atom_site_label
 _atom_site_symmetry_multiplicity
 _atom_site_fract_x
 _atom_site_fract_y
 _atom_site_fract_z
 _atom_site_occupancy
  Tm  Tm0  1  0.500000  0.373126  0.151797  1
  Tm  Tm1  1  0.500000  0.624889  0.848747  1
  Tm  Tm2  1  0.500000  0.124445  0.650910  1
  Tm  Tm3  1  0.500000  0.876614  0.350347  1
  V  V4  1  0.500000  0.372595  0.415826  1
  V  V5  1  0.500000  0.627635  0.582770  1
  V  V6  1  0.500000  0.128795  0.917444  1
  Re  Re7  1  0.500000  0.871150  0.083503  1
  B  B8  1  0.000000  0.114972  0.047430  1
  B  B9  1  0.000000  0.885268  0.951820  1
  B  B10  1  0.000000  0.384556  0.547910  1
  B  B11  1  0.000000  0.615364  0.452112  1
  B  B12  1  0.000000  0.134966  0.467532  1
  B  B13  1  0.000000  0.865617  0.532513  1
  B  B14  1  0.000000  0.365519  0.967510  1
  B  B15  1  0.000000  0.633545  0.031664  1
  B  B16  1  0.000000  0.023475  0.193311  1
  B  B17  1  0.000000  0.977411  0.806841  1
  B  B18  1  0.000000  0.476696  0.693129  1
  B  B19  1  0.000000  0.523356  0.306912  1
  B  B20  1  0.000000  0.213361  0.314033  1
  B  B21  1  0.000000  0.787214  0.685929  1
  B  B22  1  0.000000  0.286131  0.814229  1
  B  B23  1  0.000000  0.713300  0.185782  1
