# generated using pymatgen
data_Tb16Cd4CoNiIr2
_symmetry_space_group_name_H-M   'P 1'
_cell_length_a   9.61295482
_cell_length_b   9.62262758
_cell_length_c   9.65481356
_cell_angle_alpha   59.85516852
_cell_angle_beta   59.82662064
_cell_angle_gamma   59.75819604
_symmetry_Int_Tables_number   1
_chemical_formula_structural   Tb16Cd4CoNiIr2
_chemical_formula_sum   'Tb16 Cd4 Co1 Ni1 Ir2'
_cell_volume   628.83207586
_cell_formula_units_Z   1
loop_
 _symmetry_equiv_pos_site_id
 _symmetry_equiv_pos_as_xyz
  1  'x, y, z'
loop_
 _atom_site_type_symbol
 _atom_site_label
 _atom_site_symmetry_multiplicity
 _atom_site_fract_x
 _atom_site_fract_y
 _atom_site_fract_z
 _atom_site_occupancy
  Tb  Tb0  1  0.347652  0.351477  0.341894  1
  Tb  Tb1  1  0.349192  0.352946  0.956594  1
  Tb  Tb2  1  0.354124  0.951259  0.348458  1
  Tb  Tb3  1  0.954548  0.354578  0.346147  1
  Tb  Tb4  1  0.808181  0.188404  0.190402  1
  Tb  Tb5  1  0.185565  0.806641  0.815766  1
  Tb  Tb6  1  0.187692  0.805650  0.189983  1
  Tb  Tb7  1  0.809007  0.187230  0.811893  1
  Tb  Tb8  1  0.189148  0.189578  0.810172  1
  Tb  Tb9  1  0.814359  0.807186  0.187864  1
  Tb  Tb10  1  0.938578  0.561319  0.564487  1
  Tb  Tb11  1  0.559063  0.938861  0.936895  1
  Tb  Tb12  1  0.559798  0.939144  0.565663  1
  Tb  Tb13  1  0.938371  0.560658  0.937208  1
  Tb  Tb14  1  0.563884  0.566845  0.935664  1
  Tb  Tb15  1  0.939529  0.939768  0.560265  1
  Cd  Cd16  1  0.579614  0.579763  0.582140  1
  Cd  Cd17  1  0.579972  0.579700  0.256559  1
  Cd  Cd18  1  0.579758  0.256836  0.581014  1
  Cd  Cd19  1  0.256205  0.579966  0.581408  1
  Co  Co20  1  0.142495  0.576639  0.141836  1
  Ni  Ni21  1  0.575962  0.141455  0.141787  1
  Ir  Ir22  1  0.143860  0.141893  0.141667  1
  Ir  Ir23  1  0.143438  0.142201  0.574233  1
