# generated using pymatgen
data_Ti2Sn2IrRh2
_symmetry_space_group_name_H-M   'P 1'
_cell_length_a   7.61945113
_cell_length_b   7.61945102
_cell_length_c   7.61945019
_cell_angle_alpha   33.91390180
_cell_angle_beta   33.91390561
_cell_angle_gamma   33.91390287
_symmetry_Int_Tables_number   1
_chemical_formula_structural   Ti2Sn2IrRh2
_chemical_formula_sum   'Ti2 Sn2 Ir1 Rh2'
_cell_volume   122.73119652
_cell_formula_units_Z   1
loop_
 _symmetry_equiv_pos_site_id
 _symmetry_equiv_pos_as_xyz
  1  'x, y, z'
loop_
 _atom_site_type_symbol
 _atom_site_label
 _atom_site_symmetry_multiplicity
 _atom_site_fract_x
 _atom_site_fract_y
 _atom_site_fract_z
 _atom_site_occupancy
  Ti  Ti0  1  0.754560  0.754560  0.754560  1
  Ti  Ti1  1  0.245889  0.245889  0.245889  1
  Sn  Sn2  1  0.992953  0.992953  0.992953  1
  Sn  Sn3  1  0.504809  0.504809  0.504809  1
  Ir  Ir4  1  0.123182  0.123182  0.123182  1
  Rh  Rh5  1  0.627263  0.627263  0.627263  1
  Rh  Rh6  1  0.376346  0.376346  0.376346  1
