# generated using pymatgen
data_Dy2Tm10OsRu3
_symmetry_space_group_name_H-M   'P 1'
_cell_length_a   7.31887613
_cell_length_b   8.96452700
_cell_length_c   6.23376910
_cell_angle_alpha   90.00000000
_cell_angle_beta   90.05820402
_cell_angle_gamma   90.00000000
_symmetry_Int_Tables_number   1
_chemical_formula_structural   Dy2Tm10OsRu3
_chemical_formula_sum   'Dy2 Tm10 Os1 Ru3'
_cell_volume   408.99901711
_cell_formula_units_Z   1
loop_
 _symmetry_equiv_pos_site_id
 _symmetry_equiv_pos_as_xyz
  1  'x, y, z'
loop_
 _atom_site_type_symbol
 _atom_site_label
 _atom_site_symmetry_multiplicity
 _atom_site_fract_x
 _atom_site_fract_y
 _atom_site_fract_z
 _atom_site_occupancy
  Dy  Dy0  1  0.039509  0.250000  0.628561  1
  Dy  Dy1  1  0.960070  0.750000  0.370304  1
  Tm  Tm2  1  0.459316  0.750000  0.130697  1
  Tm  Tm3  1  0.539490  0.250000  0.869189  1
  Tm  Tm4  1  0.176012  0.063402  0.164937  1
  Tm  Tm5  1  0.823984  0.937749  0.836477  1
  Tm  Tm6  1  0.326621  0.936581  0.667349  1
  Tm  Tm7  1  0.823984  0.562251  0.836477  1
  Tm  Tm8  1  0.673766  0.063908  0.331595  1
  Tm  Tm9  1  0.176012  0.436598  0.164937  1
  Tm  Tm10  1  0.673766  0.436092  0.331595  1
  Tm  Tm11  1  0.326621  0.563419  0.667349  1
  Os  Os12  1  0.882093  0.250000  0.041184  1
  Ru  Ru13  1  0.384208  0.250000  0.461501  1
  Ru  Ru14  1  0.616034  0.750000  0.538247  1
  Ru  Ru15  1  0.118514  0.750000  0.959601  1
