# generated using pymatgen
data_Cs4As2Pt
_symmetry_space_group_name_H-M   'P 1'
_cell_length_a   10.28387521
_cell_length_b   10.28387491
_cell_length_c   10.28387493
_cell_angle_alpha   35.57778816
_cell_angle_beta   35.57779071
_cell_angle_gamma   35.57779061
_symmetry_Int_Tables_number   1
_chemical_formula_structural   Cs4As2Pt
_chemical_formula_sum   'Cs4 As2 Pt1'
_cell_volume   329.04455326
_cell_formula_units_Z   1
loop_
 _symmetry_equiv_pos_site_id
 _symmetry_equiv_pos_as_xyz
  1  'x, y, z'
loop_
 _atom_site_type_symbol
 _atom_site_label
 _atom_site_symmetry_multiplicity
 _atom_site_fract_x
 _atom_site_fract_y
 _atom_site_fract_z
 _atom_site_occupancy
  Cs  Cs0  1  0.210908  0.210908  0.210908  1
  Cs  Cs1  1  0.370240  0.370240  0.370240  1
  Cs  Cs2  1  0.629760  0.629760  0.629760  1
  Cs  Cs3  1  0.789093  0.789093  0.789093  1
  As  As4  1  0.082341  0.082341  0.082341  1
  As  As5  1  0.917659  0.917659  0.917659  1
  Pt  Pt6  1  0.000000  0.000000  0.000000  1
