# generated using pymatgen
data_Ho6GaNiOs
_symmetry_space_group_name_H-M   'P 1'
_cell_length_a   8.31500992
_cell_length_b   8.31501034
_cell_length_c   8.31501035
_cell_angle_alpha   113.11788786
_cell_angle_beta   110.22655923
_cell_angle_gamma   105.16754185
_symmetry_Int_Tables_number   1
_chemical_formula_structural   Ho6GaNiOs
_chemical_formula_sum   'Ho12 Ga2 Ni2 Os2'
_cell_volume   440.39550430
_cell_formula_units_Z   2
loop_
 _symmetry_equiv_pos_site_id
 _symmetry_equiv_pos_as_xyz
  1  'x, y, z'
loop_
 _atom_site_type_symbol
 _atom_site_label
 _atom_site_symmetry_multiplicity
 _atom_site_fract_x
 _atom_site_fract_y
 _atom_site_fract_z
 _atom_site_occupancy
  Ho  Ho0  1  0.435203  0.241902  0.193301  1
  Ho  Ho1  1  0.564797  0.758098  0.806699  1
  Ho  Ho2  1  0.048601  0.241902  0.806699  1
  Ho  Ho3  1  0.951399  0.758098  0.193301  1
  Ho  Ho4  1  0.180588  0.278619  0.459206  1
  Ho  Ho5  1  0.819412  0.721381  0.540794  1
  Ho  Ho6  1  0.180588  0.721381  0.901969  1
  Ho  Ho7  1  0.819412  0.278619  0.098031  1
  Ho  Ho8  1  0.330388  0.642238  0.311851  1
  Ho  Ho9  1  0.669612  0.357762  0.688149  1
  Ho  Ho10  1  0.330388  0.018536  0.688149  1
  Ho  Ho11  1  0.669612  0.981464  0.311851  1
  Ga  Ga12  1  0.500000  0.500000  0.000000  1
  Ga  Ga13  1  0.000000  0.000000  0.000000  1
  Ni  Ni14  1  0.117243  0.617243  0.500000  1
  Ni  Ni15  1  0.882757  0.382757  0.500000  1
  Os  Os16  1  0.329841  0.000000  0.329841  1
  Os  Os17  1  0.670159  0.000000  0.670159  1
