# generated using pymatgen
data_Y3Ho5VOs3C8
_symmetry_space_group_name_H-M   'P 1'
_cell_length_a   5.07976900
_cell_length_b   6.51946742
_cell_length_c   9.78145134
_cell_angle_alpha   89.77578713
_cell_angle_beta   90.00000000
_cell_angle_gamma   90.00000000
_symmetry_Int_Tables_number   1
_chemical_formula_structural   Y3Ho5VOs3C8
_chemical_formula_sum   'Y3 Ho5 V1 Os3 C8'
_cell_volume   323.93364380
_cell_formula_units_Z   1
loop_
 _symmetry_equiv_pos_site_id
 _symmetry_equiv_pos_as_xyz
  1  'x, y, z'
loop_
 _atom_site_type_symbol
 _atom_site_label
 _atom_site_symmetry_multiplicity
 _atom_site_fract_x
 _atom_site_fract_y
 _atom_site_fract_z
 _atom_site_occupancy
  Y  Y0  1  0.750000  0.467682  0.780392  1
  Y  Y1  1  0.750000  0.973229  0.716025  1
  Y  Y2  1  0.250000  0.029428  0.283653  1
  Ho  Ho3  1  0.250000  0.682958  0.557666  1
  Ho  Ho4  1  0.750000  0.321535  0.444343  1
  Ho  Ho5  1  0.750000  0.819939  0.055317  1
  Ho  Ho6  1  0.250000  0.175967  0.942729  1
  Ho  Ho7  1  0.250000  0.532853  0.212574  1
  V  V8  1  0.250000  0.723924  0.866137  1
  Os  Os9  1  0.750000  0.277289  0.135045  1
  Os  Os10  1  0.750000  0.775818  0.364215  1
  Os  Os11  1  0.250000  0.226445  0.635081  1
  C  C12  1  0.250000  0.459804  0.761942  1
  C  C13  1  0.750000  0.541557  0.242098  1
  C  C14  1  0.750000  0.041790  0.258894  1
  C  C15  1  0.250000  0.957090  0.741393  1
  C  C16  1  0.250000  0.818944  0.051008  1
  C  C17  1  0.750000  0.174252  0.951620  1
  C  C18  1  0.750000  0.675601  0.550405  1
  C  C19  1  0.250000  0.323894  0.449465  1
