# generated using pymatgen
data_Dy6CoP12Ir13Rh4
_symmetry_space_group_name_H-M   'P 1'
_cell_length_a   3.93832300
_cell_length_b   11.14606300
_cell_length_c   12.76463800
_cell_angle_alpha   90.00000000
_cell_angle_beta   90.00000000
_cell_angle_gamma   90.00000000
_symmetry_Int_Tables_number   1
_chemical_formula_structural   Dy6CoP12Ir13Rh4
_chemical_formula_sum   'Dy6 Co1 P12 Ir13 Rh4'
_cell_volume   560.32671378
_cell_formula_units_Z   1
loop_
 _symmetry_equiv_pos_site_id
 _symmetry_equiv_pos_as_xyz
  1  'x, y, z'
loop_
 _atom_site_type_symbol
 _atom_site_label
 _atom_site_symmetry_multiplicity
 _atom_site_fract_x
 _atom_site_fract_y
 _atom_site_fract_z
 _atom_site_occupancy
  Dy  Dy0  1  0.000000  0.500000  0.521639  1
  Dy  Dy1  1  0.500000  0.000000  0.477932  1
  Dy  Dy2  1  0.500000  0.818746  0.202326  1
  Dy  Dy3  1  0.500000  0.181254  0.202326  1
  Dy  Dy4  1  0.000000  0.687367  0.798034  1
  Dy  Dy5  1  0.000000  0.312633  0.798034  1
  Co  Co6  1  0.500000  0.000000  0.022472  1
  P  P7  1  0.500000  0.500000  0.878619  1
  P  P8  1  0.000000  0.000000  0.120506  1
  P  P9  1  0.500000  0.500000  0.354678  1
  P  P10  1  0.000000  0.000000  0.643415  1
  P  P11  1  0.500000  0.315109  0.618665  1
  P  P12  1  0.500000  0.684891  0.618665  1
  P  P13  1  0.000000  0.184590  0.381160  1
  P  P14  1  0.000000  0.815410  0.381160  1
  P  P15  1  0.500000  0.854007  0.896383  1
  P  P16  1  0.500000  0.145993  0.896383  1
  P  P17  1  0.000000  0.657274  0.105858  1
  P  P18  1  0.000000  0.342726  0.105858  1
  Ir  Ir19  1  0.500000  0.500000  0.700761  1
  Ir  Ir20  1  0.000000  0.000000  0.298954  1
  Ir  Ir21  1  0.000000  0.500000  0.976897  1
  Ir  Ir22  1  0.000000  0.159504  0.003807  1
  Ir  Ir23  1  0.000000  0.840496  0.003807  1
  Ir  Ir24  1  0.500000  0.294055  0.429561  1
  Ir  Ir25  1  0.500000  0.705945  0.429561  1
  Ir  Ir26  1  0.000000  0.207286  0.569969  1
  Ir  Ir27  1  0.000000  0.792714  0.569969  1
  Ir  Ir28  1  0.500000  0.871579  0.712961  1
  Ir  Ir29  1  0.500000  0.128421  0.712961  1
  Ir  Ir30  1  0.000000  0.629383  0.286135  1
  Ir  Ir31  1  0.000000  0.370617  0.286135  1
  Rh  Rh32  1  0.500000  0.500000  0.175489  1
  Rh  Rh33  1  0.000000  0.000000  0.823409  1
  Rh  Rh34  1  0.500000  0.332456  0.997758  1
  Rh  Rh35  1  0.500000  0.667544  0.997758  1
