# generated using pymatgen
data_CsMnInF6
_symmetry_space_group_name_H-M   'P 1'
_cell_length_a   7.87029071
_cell_length_b   7.87029099
_cell_length_c   7.87029005
_cell_angle_alpha   121.07347747
_cell_angle_beta   119.10795743
_cell_angle_gamma   89.85139634
_symmetry_Int_Tables_number   1
_chemical_formula_structural   CsMnInF6
_chemical_formula_sum   'Cs2 Mn2 In2 F12'
_cell_volume   344.11178070
_cell_formula_units_Z   2
loop_
 _symmetry_equiv_pos_site_id
 _symmetry_equiv_pos_as_xyz
  1  'x, y, z'
loop_
 _atom_site_type_symbol
 _atom_site_label
 _atom_site_symmetry_multiplicity
 _atom_site_fract_x
 _atom_site_fract_y
 _atom_site_fract_z
 _atom_site_occupancy
  Cs  Cs0  1  0.360777  0.610777  0.750000  1
  Cs  Cs1  1  0.639223  0.389223  0.250000  1
  Mn  Mn2  1  0.000000  0.000000  0.500000  1
  Mn  Mn3  1  0.000000  0.500000  0.000000  1
  In  In4  1  0.000000  0.000000  0.000000  1
  In  In5  1  0.500000  0.000000  0.500000  1
  F  F6  1  0.320445  0.070445  0.250000  1
  F  F7  1  0.929957  0.679957  0.250000  1
  F  F8  1  0.325773  0.680472  0.251267  1
  F  F9  1  0.929206  0.074506  0.248733  1
  F  F10  1  0.325773  0.074506  0.645300  1
  F  F11  1  0.929206  0.680472  0.854700  1
  F  F12  1  0.679555  0.929555  0.750000  1
  F  F13  1  0.070043  0.320043  0.750000  1
  F  F14  1  0.674227  0.319528  0.748733  1
  F  F15  1  0.070794  0.925494  0.751267  1
  F  F16  1  0.674227  0.925494  0.354700  1
  F  F17  1  0.070794  0.319528  0.145300  1
