# generated using pymatgen
data_LiTb12Th4Zn3Rh4
_symmetry_space_group_name_H-M   'P 1'
_cell_length_a   9.69626722
_cell_length_b   9.68835101
_cell_length_c   9.68835200
_cell_angle_alpha   60.00000345
_cell_angle_beta   60.02700669
_cell_angle_gamma   60.02700499
_symmetry_Int_Tables_number   1
_chemical_formula_structural   LiTb12Th4Zn3Rh4
_chemical_formula_sum   'Li1 Tb12 Th4 Zn3 Rh4'
_cell_volume   643.82304709
_cell_formula_units_Z   1
loop_
 _symmetry_equiv_pos_site_id
 _symmetry_equiv_pos_as_xyz
  1  'x, y, z'
loop_
 _atom_site_type_symbol
 _atom_site_label
 _atom_site_symmetry_multiplicity
 _atom_site_fract_x
 _atom_site_fract_y
 _atom_site_fract_z
 _atom_site_occupancy
  Li  Li0  1  0.283374  0.572209  0.572209  1
  Tb  Tb1  1  0.808489  0.190987  0.190987  1
  Tb  Tb2  1  0.186726  0.812714  0.812714  1
  Tb  Tb3  1  0.186726  0.812714  0.187845  1
  Tb  Tb4  1  0.808489  0.190987  0.809537  1
  Tb  Tb5  1  0.186726  0.187845  0.812714  1
  Tb  Tb6  1  0.808489  0.809537  0.190987  1
  Tb  Tb7  1  0.929491  0.566409  0.566409  1
  Tb  Tb8  1  0.563569  0.934980  0.934980  1
  Tb  Tb9  1  0.563569  0.934980  0.566469  1
  Tb  Tb10  1  0.929491  0.566409  0.937691  1
  Tb  Tb11  1  0.563569  0.566469  0.934980  1
  Tb  Tb12  1  0.929491  0.937691  0.566409  1
  Th  Th13  1  0.353289  0.350685  0.350685  1
  Th  Th14  1  0.353289  0.350685  0.945343  1
  Th  Th15  1  0.353289  0.945343  0.350685  1
  Th  Th16  1  0.940686  0.353105  0.353105  1
  Zn  Zn17  1  0.584222  0.584100  0.584100  1
  Zn  Zn18  1  0.584222  0.584100  0.247578  1
  Zn  Zn19  1  0.584222  0.247578  0.584100  1
  Rh  Rh20  1  0.143815  0.144589  0.144589  1
  Rh  Rh21  1  0.143815  0.144589  0.567005  1
  Rh  Rh22  1  0.143815  0.567005  0.144589  1
  Rh  Rh23  1  0.567133  0.144288  0.144288  1
