# generated using pymatgen
data_Y6ScCo16NiP12
_symmetry_space_group_name_H-M   'P 1'
_cell_length_a   3.72598700
_cell_length_b   10.58572600
_cell_length_c   12.31724200
_cell_angle_alpha   90.00000000
_cell_angle_beta   90.00000000
_cell_angle_gamma   90.00000000
_symmetry_Int_Tables_number   1
_chemical_formula_structural   Y6ScCo16NiP12
_chemical_formula_sum   'Y6 Sc1 Co16 Ni1 P12'
_cell_volume   485.82007653
_cell_formula_units_Z   1
loop_
 _symmetry_equiv_pos_site_id
 _symmetry_equiv_pos_as_xyz
  1  'x, y, z'
loop_
 _atom_site_type_symbol
 _atom_site_label
 _atom_site_symmetry_multiplicity
 _atom_site_fract_x
 _atom_site_fract_y
 _atom_site_fract_z
 _atom_site_occupancy
  Y  Y0  1  0.000000  0.500000  0.524973  1
  Y  Y1  1  0.500000  0.000000  0.477787  1
  Y  Y2  1  0.500000  0.820568  0.207460  1
  Y  Y3  1  0.500000  0.179432  0.207460  1
  Y  Y4  1  0.000000  0.684621  0.796768  1
  Y  Y5  1  0.000000  0.315379  0.796768  1
  Sc  Sc6  1  0.500000  0.500000  0.152141  1
  Co  Co7  1  0.000000  0.000000  0.837090  1
  Co  Co8  1  0.000000  0.000000  0.296285  1
  Co  Co9  1  0.000000  0.500000  0.985005  1
  Co  Co10  1  0.500000  0.000000  0.013764  1
  Co  Co11  1  0.500000  0.326864  0.989633  1
  Co  Co12  1  0.500000  0.673136  0.989633  1
  Co  Co13  1  0.000000  0.161775  0.001558  1
  Co  Co14  1  0.000000  0.838225  0.001558  1
  Co  Co15  1  0.500000  0.295031  0.434339  1
  Co  Co16  1  0.500000  0.704969  0.434339  1
  Co  Co17  1  0.000000  0.201645  0.570443  1
  Co  Co18  1  0.000000  0.798355  0.570443  1
  Co  Co19  1  0.500000  0.880417  0.708080  1
  Co  Co20  1  0.500000  0.119583  0.708080  1
  Co  Co21  1  0.000000  0.622353  0.296027  1
  Co  Co22  1  0.000000  0.377647  0.296027  1
  Ni  Ni23  1  0.500000  0.500000  0.703589  1
  P  P24  1  0.500000  0.500000  0.884328  1
  P  P25  1  0.000000  0.000000  0.116675  1
  P  P26  1  0.500000  0.500000  0.356938  1
  P  P27  1  0.000000  0.000000  0.655418  1
  P  P28  1  0.500000  0.308083  0.616920  1
  P  P29  1  0.500000  0.691917  0.616920  1
  P  P30  1  0.000000  0.189097  0.386022  1
  P  P31  1  0.000000  0.810903  0.386022  1
  P  P32  1  0.500000  0.852513  0.889617  1
  P  P33  1  0.500000  0.147487  0.889617  1
  P  P34  1  0.000000  0.663620  0.101135  1
  P  P35  1  0.000000  0.336380  0.101135  1
