# generated using pymatgen
data_YbLu3Mn2(FeB8)2
_symmetry_space_group_name_H-M   'P 1'
_cell_length_a   3.33439900
_cell_length_b   5.85707904
_cell_length_c   11.31977916
_cell_angle_alpha   89.97128717
_cell_angle_beta   90.00000000
_cell_angle_gamma   90.00000000
_symmetry_Int_Tables_number   1
_chemical_formula_structural   YbLu3Mn2(FeB8)2
_chemical_formula_sum   'Yb1 Lu3 Mn2 Fe2 B16'
_cell_volume   221.07343090
_cell_formula_units_Z   1
loop_
 _symmetry_equiv_pos_site_id
 _symmetry_equiv_pos_as_xyz
  1  'x, y, z'
loop_
 _atom_site_type_symbol
 _atom_site_label
 _atom_site_symmetry_multiplicity
 _atom_site_fract_x
 _atom_site_fract_y
 _atom_site_fract_z
 _atom_site_occupancy
  Yb  Yb0  1  0.500000  0.872780  0.350587  1
  Lu  Lu1  1  0.500000  0.373038  0.151630  1
  Lu  Lu2  1  0.500000  0.626294  0.848563  1
  Lu  Lu3  1  0.500000  0.126872  0.649175  1
  Mn  Mn4  1  0.500000  0.127478  0.914814  1
  Mn  Mn5  1  0.500000  0.872150  0.083207  1
  Fe  Fe6  1  0.500000  0.366203  0.414215  1
  Fe  Fe7  1  0.500000  0.632766  0.588812  1
  B  B8  1  0.000000  0.113778  0.046345  1
  B  B9  1  0.000000  0.887121  0.952299  1
  B  B10  1  0.000000  0.387520  0.546963  1
  B  B11  1  0.000000  0.612150  0.454110  1
  B  B12  1  0.000000  0.138316  0.468966  1
  B  B13  1  0.000000  0.861415  0.532495  1
  B  B14  1  0.000000  0.363508  0.967349  1
  B  B15  1  0.000000  0.636233  0.031475  1
  B  B16  1  0.000000  0.025430  0.191346  1
  B  B17  1  0.000000  0.975829  0.807299  1
  B  B18  1  0.000000  0.475321  0.691377  1
  B  B19  1  0.000000  0.523446  0.309626  1
  B  B20  1  0.000000  0.218892  0.316465  1
  B  B21  1  0.000000  0.783038  0.683836  1
  B  B22  1  0.000000  0.283525  0.815114  1
  B  B23  1  0.000000  0.716892  0.183934  1
