# generated using pymatgen
data_Pr2DyCd(Ir2O7)2
_symmetry_space_group_name_H-M   'P 1'
_cell_length_a   7.26277703
_cell_length_b   7.40442516
_cell_length_c   7.40442544
_cell_angle_alpha   60.33403409
_cell_angle_beta   59.52178363
_cell_angle_gamma   59.52178737
_symmetry_Int_Tables_number   1
_chemical_formula_structural   Pr2DyCd(Ir2O7)2
_chemical_formula_sum   'Pr2 Dy1 Cd1 Ir4 O14'
_cell_volume   280.19556039
_cell_formula_units_Z   1
loop_
 _symmetry_equiv_pos_site_id
 _symmetry_equiv_pos_as_xyz
  1  'x, y, z'
loop_
 _atom_site_type_symbol
 _atom_site_label
 _atom_site_symmetry_multiplicity
 _atom_site_fract_x
 _atom_site_fract_y
 _atom_site_fract_z
 _atom_site_occupancy
  Pr  Pr0  1  0.125000  0.125000  0.625000  1
  Pr  Pr1  1  0.125000  0.625000  0.125000  1
  Dy  Dy2  1  0.125000  0.125000  0.125000  1
  Cd  Cd3  1  0.625000  0.125000  0.125000  1
  Ir  Ir4  1  0.625000  0.625000  0.625000  1
  Ir  Ir5  1  0.125000  0.625000  0.625000  1
  Ir  Ir6  1  0.625000  0.125000  0.625000  1
  Ir  Ir7  1  0.625000  0.625000  0.125000  1
  O  O8  1  0.960963  0.541159  0.541159  1
  O  O9  1  0.289212  0.292417  0.717144  1
  O  O10  1  0.960788  0.532856  0.957583  1
  O  O11  1  0.710782  0.298828  0.298828  1
  O  O12  1  0.550818  0.548466  0.951009  1
  O  O13  1  0.550818  0.951009  0.548466  1
  O  O14  1  0.539218  0.951172  0.951172  1
  O  O15  1  0.256394  0.241924  0.241924  1
  O  O16  1  0.289037  0.708841  0.708841  1
  O  O17  1  0.699182  0.298991  0.701534  1
  O  O18  1  0.993606  0.008076  0.008076  1
  O  O19  1  0.960788  0.957583  0.532856  1
  O  O20  1  0.289212  0.717144  0.292417  1
  O  O21  1  0.699182  0.701534  0.298991  1
