# generated using pymatgen
data_Tb3Ho3MnTe2
_symmetry_space_group_name_H-M   'P 1'
_cell_length_a   4.10597200
_cell_length_b   8.29839193
_cell_length_c   8.29994705
_cell_angle_alpha   119.99379719
_cell_angle_beta   90.00000000
_cell_angle_gamma   90.00000000
_symmetry_Int_Tables_number   1
_chemical_formula_structural   Tb3Ho3MnTe2
_chemical_formula_sum   'Tb3 Ho3 Mn1 Te2'
_cell_volume   244.93058566
_cell_formula_units_Z   1
loop_
 _symmetry_equiv_pos_site_id
 _symmetry_equiv_pos_as_xyz
  1  'x, y, z'
loop_
 _atom_site_type_symbol
 _atom_site_label
 _atom_site_symmetry_multiplicity
 _atom_site_fract_x
 _atom_site_fract_y
 _atom_site_fract_z
 _atom_site_occupancy
  Tb  Tb0  1  0.500000  0.605008  0.000000  1
  Tb  Tb1  1  0.500000  0.395020  0.395006  1
  Tb  Tb2  1  0.500000  0.000013  0.604994  1
  Ho  Ho3  1  0.000000  0.236839  0.000000  1
  Ho  Ho4  1  0.000000  0.763092  0.763056  1
  Ho  Ho5  1  0.000000  0.000037  0.236944  1
  Mn  Mn6  1  0.500000  0.999864  0.000000  1
  Te  Te7  1  0.000000  0.333352  0.666675  1
  Te  Te8  1  0.000000  0.666677  0.333325  1
