# generated using pymatgen
data_DyHo4Zr2P12Ir17
_symmetry_space_group_name_H-M   'P 1'
_cell_length_a   12.66111500
_cell_length_b   12.89057793
_cell_length_c   3.98485500
_cell_angle_alpha   90.00000000
_cell_angle_beta   90.00000000
_cell_angle_gamma   119.41287736
_symmetry_Int_Tables_number   1
_chemical_formula_structural   DyHo4Zr2P12Ir17
_chemical_formula_sum   'Dy1 Ho4 Zr2 P12 Ir17'
_cell_volume   566.53481377
_cell_formula_units_Z   1
loop_
 _symmetry_equiv_pos_site_id
 _symmetry_equiv_pos_as_xyz
  1  'x, y, z'
loop_
 _atom_site_type_symbol
 _atom_site_label
 _atom_site_symmetry_multiplicity
 _atom_site_fract_x
 _atom_site_fract_y
 _atom_site_fract_z
 _atom_site_occupancy
  Dy  Dy0  1  0.812815  0.000000  0.000000  1
  Ho  Ho1  1  0.330180  0.661451  0.500000  1
  Ho  Ho2  1  0.668730  0.338549  0.500000  1
  Ho  Ho3  1  0.000426  0.815493  0.000000  1
  Ho  Ho4  1  0.184933  0.184507  0.000000  1
  Zr  Zr5  1  0.997706  0.447052  0.500000  1
  Zr  Zr6  1  0.550654  0.552948  0.500000  1
  P  P7  1  0.005880  0.651045  0.500000  1
  P  P8  1  0.354835  0.348955  0.500000  1
  P  P9  1  0.644885  0.000000  0.500000  1
  P  P10  1  0.514699  0.686345  0.000000  1
  P  P11  1  0.309787  0.825125  0.000000  1
  P  P12  1  0.164670  0.481095  0.000000  1
  P  P13  1  0.484662  0.174875  0.000000  1
  P  P14  1  0.683575  0.518905  0.000000  1
  P  P15  1  0.828354  0.313655  0.000000  1
  P  P16  1  0.999396  0.174061  0.500000  1
  P  P17  1  0.825335  0.825939  0.500000  1
  P  P18  1  0.181537  0.000000  0.500000  1
  Ir  Ir19  1  0.504792  0.864669  0.000000  1
  Ir  Ir20  1  0.128058  0.644151  0.000000  1
  Ir  Ir21  1  0.354854  0.495688  0.000000  1
  Ir  Ir22  1  0.483906  0.355849  0.000000  1
  Ir  Ir23  1  0.859167  0.504312  0.000000  1
  Ir  Ir24  1  0.640124  0.135331  0.000000  1
  Ir  Ir25  1  0.464517  0.000000  0.500000  1
  Ir  Ir26  1  0.996828  0.277514  0.000000  1
  Ir  Ir27  1  0.719314  0.722486  0.000000  1
  Ir  Ir28  1  0.290200  0.000000  0.000000  1
  Ir  Ir29  1  0.623917  0.808409  0.500000  1
  Ir  Ir30  1  0.203804  0.825712  0.500000  1
  Ir  Ir31  1  0.177853  0.365627  0.500000  1
  Ir  Ir32  1  0.378092  0.174288  0.500000  1
  Ir  Ir33  1  0.812226  0.634373  0.500000  1
  Ir  Ir34  1  0.815509  0.191591  0.500000  1
  Ir  Ir35  1  0.003784  0.000000  0.500000  1
