# generated using pymatgen
data_Tb17Er2MgIr12
_symmetry_space_group_name_H-M   'P 1'
_cell_length_a   10.90573800
_cell_length_b   10.90573800
_cell_length_c   6.32251200
_cell_angle_alpha   90.00000000
_cell_angle_beta   90.00000000
_cell_angle_gamma   90.00000000
_symmetry_Int_Tables_number   1
_chemical_formula_structural   Tb17Er2MgIr12
_chemical_formula_sum   'Tb17 Er2 Mg1 Ir12'
_cell_volume   751.96873180
_cell_formula_units_Z   1
loop_
 _symmetry_equiv_pos_site_id
 _symmetry_equiv_pos_as_xyz
  1  'x, y, z'
loop_
 _atom_site_type_symbol
 _atom_site_label
 _atom_site_symmetry_multiplicity
 _atom_site_fract_x
 _atom_site_fract_y
 _atom_site_fract_z
 _atom_site_occupancy
  Tb  Tb0  1  0.284424  0.084985  0.378977  1
  Tb  Tb1  1  0.290284  0.911920  0.879100  1
  Tb  Tb2  1  0.709716  0.088080  0.879100  1
  Tb  Tb3  1  0.715576  0.915015  0.378977  1
  Tb  Tb4  1  0.588575  0.791158  0.879429  1
  Tb  Tb5  1  0.587813  0.208639  0.377525  1
  Tb  Tb6  1  0.412187  0.791361  0.377525  1
  Tb  Tb7  1  0.411425  0.208842  0.879429  1
  Tb  Tb8  1  0.208639  0.412187  0.622475  1
  Tb  Tb9  1  0.208842  0.588575  0.120571  1
  Tb  Tb10  1  0.791158  0.411425  0.120571  1
  Tb  Tb11  1  0.791361  0.587813  0.622475  1
  Tb  Tb12  1  0.911920  0.709716  0.120900  1
  Tb  Tb13  1  0.915015  0.284424  0.621023  1
  Tb  Tb14  1  0.084985  0.715576  0.621023  1
  Tb  Tb15  1  0.088080  0.290284  0.120900  1
  Tb  Tb16  1  0.000000  0.000000  0.000000  1
  Er  Er17  1  0.500000  0.500000  0.000000  1
  Er  Er18  1  0.500000  0.500000  0.500000  1
  Mg  Mg19  1  0.000000  0.000000  0.500000  1
  Ir  Ir20  1  0.846447  0.154035  0.248373  1
  Ir  Ir21  1  0.845965  0.846447  0.751627  1
  Ir  Ir22  1  0.154035  0.153553  0.751627  1
  Ir  Ir23  1  0.153553  0.845965  0.248373  1
  Ir  Ir24  1  0.653228  0.347335  0.748330  1
  Ir  Ir25  1  0.652665  0.653228  0.251670  1
  Ir  Ir26  1  0.347335  0.346772  0.251670  1
  Ir  Ir27  1  0.346772  0.652665  0.748330  1
  Ir  Ir28  1  0.500000  0.000000  0.123116  1
  Ir  Ir29  1  0.500000  0.000000  0.620000  1
  Ir  Ir30  1  0.000000  0.500000  0.876884  1
  Ir  Ir31  1  0.000000  0.500000  0.380000  1
