# generated using pymatgen
data_Gd3Dy2Sn3
_symmetry_space_group_name_H-M   'P 1'
_cell_length_a   9.01389800
_cell_length_b   9.01389830
_cell_length_c   6.61529600
_cell_angle_alpha   90.00000000
_cell_angle_beta   90.00000000
_cell_angle_gamma   119.99999890
_symmetry_Int_Tables_number   1
_chemical_formula_structural   Gd3Dy2Sn3
_chemical_formula_sum   'Gd6 Dy4 Sn6'
_cell_volume   465.48448586
_cell_formula_units_Z   2
loop_
 _symmetry_equiv_pos_site_id
 _symmetry_equiv_pos_as_xyz
  1  'x, y, z'
loop_
 _atom_site_type_symbol
 _atom_site_label
 _atom_site_symmetry_multiplicity
 _atom_site_fract_x
 _atom_site_fract_y
 _atom_site_fract_z
 _atom_site_occupancy
  Gd  Gd0  1  0.760384  0.000000  0.750000  1
  Gd  Gd1  1  0.760384  0.760384  0.250000  1
  Gd  Gd2  1  0.239616  0.000000  0.250000  1
  Gd  Gd3  1  0.239616  0.239616  0.750000  1
  Gd  Gd4  1  0.000000  0.760384  0.750000  1
  Gd  Gd5  1  0.000000  0.239616  0.250000  1
  Dy  Dy6  1  0.333333  0.666667  0.500000  1
  Dy  Dy7  1  0.666667  0.333333  0.000000  1
  Dy  Dy8  1  0.666667  0.333333  0.500000  1
  Dy  Dy9  1  0.333333  0.666667  0.000000  1
  Sn  Sn10  1  0.396818  0.000000  0.750000  1
  Sn  Sn11  1  0.396818  0.396818  0.250000  1
  Sn  Sn12  1  0.000000  0.603182  0.250000  1
  Sn  Sn13  1  0.000000  0.396818  0.750000  1
  Sn  Sn14  1  0.603182  0.603182  0.750000  1
  Sn  Sn15  1  0.603182  0.000000  0.250000  1
