# generated using pymatgen
data_YbAg4Pb
_symmetry_space_group_name_H-M   'P 1'
_cell_length_a   5.70539228
_cell_length_b   5.70539551
_cell_length_c   5.70539526
_cell_angle_alpha   59.30025993
_cell_angle_beta   59.30032640
_cell_angle_gamma   59.30048206
_symmetry_Int_Tables_number   1
_chemical_formula_structural   YbAg4Pb
_chemical_formula_sum   'Yb1 Ag4 Pb1'
_cell_volume   129.23126433
_cell_formula_units_Z   1
loop_
 _symmetry_equiv_pos_site_id
 _symmetry_equiv_pos_as_xyz
  1  'x, y, z'
loop_
 _atom_site_type_symbol
 _atom_site_label
 _atom_site_symmetry_multiplicity
 _atom_site_fract_x
 _atom_site_fract_y
 _atom_site_fract_z
 _atom_site_occupancy
  Yb  Yb0  1  0.501272  0.501272  0.501273  1
  Ag  Ag1  1  0.873444  0.873445  0.376289  1
  Ag  Ag2  1  0.873444  0.376289  0.873445  1
  Ag  Ag3  1  0.376288  0.873445  0.873446  1
  Ag  Ag4  1  0.874186  0.874186  0.874185  1
  Pb  Pb5  1  0.251363  0.251360  0.251357  1
