# generated using pymatgen
data_Tm3Cd3AgIrAu
_symmetry_space_group_name_H-M   'P 1'
_cell_length_a   3.65221900
_cell_length_b   7.91833229
_cell_length_c   7.91833200
_cell_angle_alpha   119.99999880
_cell_angle_beta   90.00000000
_cell_angle_gamma   90.00000000
_symmetry_Int_Tables_number   1
_chemical_formula_structural   Tm3Cd3AgIrAu
_chemical_formula_sum   'Tm3 Cd3 Ag1 Ir1 Au1'
_cell_volume   198.31468664
_cell_formula_units_Z   1
loop_
 _symmetry_equiv_pos_site_id
 _symmetry_equiv_pos_as_xyz
  1  'x, y, z'
loop_
 _atom_site_type_symbol
 _atom_site_label
 _atom_site_symmetry_multiplicity
 _atom_site_fract_x
 _atom_site_fract_y
 _atom_site_fract_z
 _atom_site_occupancy
  Tm  Tm0  1  0.000000  0.420021  0.391455  1
  Tm  Tm1  1  0.000000  0.971433  0.579979  1
  Tm  Tm2  1  0.000000  0.608545  0.028567  1
  Cd  Cd3  1  0.500000  0.727879  0.732167  1
  Cd  Cd4  1  0.500000  0.004288  0.272121  1
  Cd  Cd5  1  0.500000  0.267833  0.995712  1
  Ag  Ag6  1  0.000000  0.000000  0.000000  1
  Ir  Ir7  1  0.500000  0.666667  0.333333  1
  Au  Au8  1  0.500000  0.333333  0.666667  1
