# generated using pymatgen
data_AcPIr
_symmetry_space_group_name_H-M   'P 1'
_cell_length_a   6.45230400
_cell_length_b   6.45230400
_cell_length_c   6.45230400
_cell_angle_alpha   90.00000000
_cell_angle_beta   90.00000000
_cell_angle_gamma   90.00000000
_symmetry_Int_Tables_number   1
_chemical_formula_structural   AcPIr
_chemical_formula_sum   'Ac4 P4 Ir4'
_cell_volume   268.62378421
_cell_formula_units_Z   4
loop_
 _symmetry_equiv_pos_site_id
 _symmetry_equiv_pos_as_xyz
  1  'x, y, z'
loop_
 _atom_site_type_symbol
 _atom_site_label
 _atom_site_symmetry_multiplicity
 _atom_site_fract_x
 _atom_site_fract_y
 _atom_site_fract_z
 _atom_site_occupancy
  Ac  Ac0  1  0.393152  0.893152  0.606848  1
  Ac  Ac1  1  0.893152  0.606848  0.393152  1
  Ac  Ac2  1  0.606848  0.393152  0.893152  1
  Ac  Ac3  1  0.106848  0.106848  0.106848  1
  P  P4  1  0.671033  0.171033  0.328967  1
  P  P5  1  0.171033  0.328967  0.671033  1
  P  P6  1  0.328967  0.671033  0.171033  1
  P  P7  1  0.828967  0.828967  0.828967  1
  Ir  Ir8  1  0.091838  0.591838  0.908162  1
  Ir  Ir9  1  0.591838  0.908162  0.091838  1
  Ir  Ir10  1  0.908162  0.091838  0.591838  1
  Ir  Ir11  1  0.408162  0.408162  0.408162  1
