# generated using pymatgen
data_Nb12Zn3Pt5N4
_symmetry_space_group_name_H-M   'P 1'
_cell_length_a   7.05303029
_cell_length_b   7.05302902
_cell_length_c   7.05302956
_cell_angle_alpha   90.16157939
_cell_angle_beta   90.16157315
_cell_angle_gamma   90.16157754
_symmetry_Int_Tables_number   1
_chemical_formula_structural   Nb12Zn3Pt5N4
_chemical_formula_sum   'Nb12 Zn3 Pt5 N4'
_cell_volume   350.85036551
_cell_formula_units_Z   1
loop_
 _symmetry_equiv_pos_site_id
 _symmetry_equiv_pos_as_xyz
  1  'x, y, z'
loop_
 _atom_site_type_symbol
 _atom_site_label
 _atom_site_symmetry_multiplicity
 _atom_site_fract_x
 _atom_site_fract_y
 _atom_site_fract_z
 _atom_site_occupancy
  Nb  Nb0  1  0.792019  0.953831  0.376841  1
  Nb  Nb1  1  0.703837  0.041396  0.875929  1
  Nb  Nb2  1  0.207087  0.455278  0.124197  1
  Nb  Nb3  1  0.298134  0.544326  0.628709  1
  Nb  Nb4  1  0.953831  0.376841  0.792019  1
  Nb  Nb5  1  0.041396  0.875929  0.703837  1
  Nb  Nb6  1  0.455278  0.124197  0.207087  1
  Nb  Nb7  1  0.544326  0.628709  0.298134  1
  Nb  Nb8  1  0.376841  0.792019  0.953831  1
  Nb  Nb9  1  0.875929  0.703837  0.041396  1
  Nb  Nb10  1  0.124197  0.207087  0.455278  1
  Nb  Nb11  1  0.628709  0.298134  0.544326  1
  Zn  Zn12  1  0.181500  0.818599  0.315000  1
  Zn  Zn13  1  0.315000  0.181500  0.818599  1
  Zn  Zn14  1  0.818599  0.315000  0.181500  1
  Pt  Pt15  1  0.684826  0.684826  0.684826  1
  Pt  Pt16  1  0.566046  0.423785  0.938021  1
  Pt  Pt17  1  0.423785  0.938021  0.566046  1
  Pt  Pt18  1  0.938021  0.566046  0.423785  1
  Pt  Pt19  1  0.068672  0.068672  0.068672  1
  N  N20  1  0.874585  0.124379  0.625716  1
  N  N21  1  0.625716  0.874585  0.124379  1
  N  N22  1  0.124379  0.625716  0.874585  1
  N  N23  1  0.377289  0.377289  0.377289  1
