# generated using pymatgen
data_Tb4Er8ZnCo4Bi
_symmetry_space_group_name_H-M   'P 1'
_cell_length_a   8.35879269
_cell_length_b   8.35879139
_cell_length_c   8.35879279
_cell_angle_alpha   109.68862584
_cell_angle_beta   111.21807860
_cell_angle_gamma   107.52807049
_symmetry_Int_Tables_number   1
_chemical_formula_structural   Tb4Er8ZnCo4Bi
_chemical_formula_sum   'Tb4 Er8 Zn1 Co4 Bi1'
_cell_volume   449.11256904
_cell_formula_units_Z   1
loop_
 _symmetry_equiv_pos_site_id
 _symmetry_equiv_pos_as_xyz
  1  'x, y, z'
loop_
 _atom_site_type_symbol
 _atom_site_label
 _atom_site_symmetry_multiplicity
 _atom_site_fract_x
 _atom_site_fract_y
 _atom_site_fract_z
 _atom_site_occupancy
  Tb  Tb0  1  0.285645  0.183622  0.469267  1
  Tb  Tb1  1  0.714355  0.816378  0.530733  1
  Tb  Tb2  1  0.285645  0.816378  0.102023  1
  Tb  Tb3  1  0.714355  0.183622  0.897977  1
  Er  Er4  1  0.623680  0.313822  0.309857  1
  Er  Er5  1  0.376320  0.686178  0.690143  1
  Er  Er6  1  0.003966  0.313822  0.690143  1
  Er  Er7  1  0.996034  0.686178  0.309857  1
  Er  Er8  1  0.217749  0.424621  0.206871  1
  Er  Er9  1  0.782251  0.575379  0.793129  1
  Er  Er10  1  0.217749  0.010878  0.793129  1
  Er  Er11  1  0.782251  0.989122  0.206871  1
  Zn  Zn12  1  0.000000  0.000000  0.000000  1
  Co  Co13  1  0.000000  0.377432  0.377432  1
  Co  Co14  1  0.000000  0.622568  0.622568  1
  Co  Co15  1  0.387472  0.887472  0.500000  1
  Co  Co16  1  0.612528  0.112528  0.500000  1
  Bi  Bi17  1  0.500000  0.500000  0.000000  1
