# generated using pymatgen
data_Rb8Tl2O7
_symmetry_space_group_name_H-M   'P 1'
_cell_length_a   18.99870500
_cell_length_b   7.11432772
_cell_length_c   7.31541000
_cell_angle_alpha   61.16559957
_cell_angle_beta   90.00000000
_cell_angle_gamma   90.00000000
_symmetry_Int_Tables_number   1
_chemical_formula_structural   Rb8Tl2O7
_chemical_formula_sum   'Rb16 Tl4 O14'
_cell_volume   866.18211013
_cell_formula_units_Z   2
loop_
 _symmetry_equiv_pos_site_id
 _symmetry_equiv_pos_as_xyz
  1  'x, y, z'
loop_
 _atom_site_type_symbol
 _atom_site_label
 _atom_site_symmetry_multiplicity
 _atom_site_fract_x
 _atom_site_fract_y
 _atom_site_fract_z
 _atom_site_occupancy
  Rb  Rb0  1  0.503697  0.043515  0.230120  1
  Rb  Rb1  1  0.003697  0.456485  0.769880  1
  Rb  Rb2  1  0.496303  0.956485  0.769880  1
  Rb  Rb3  1  0.996303  0.543515  0.230120  1
  Rb  Rb4  1  0.704080  0.052743  0.228643  1
  Rb  Rb5  1  0.204080  0.447257  0.771357  1
  Rb  Rb6  1  0.295920  0.947257  0.771357  1
  Rb  Rb7  1  0.795920  0.552743  0.228643  1
  Rb  Rb8  1  0.085394  0.995616  0.345919  1
  Rb  Rb9  1  0.585394  0.504384  0.654081  1
  Rb  Rb10  1  0.914606  0.004384  0.654081  1
  Rb  Rb11  1  0.414606  0.495616  0.345919  1
  Rb  Rb12  1  0.809578  0.449072  0.789597  1
  Rb  Rb13  1  0.309578  0.050928  0.210403  1
  Rb  Rb14  1  0.190422  0.550928  0.210403  1
  Rb  Rb15  1  0.690422  0.949072  0.789597  1
  Tl  Tl16  1  0.602174  0.498726  0.162602  1
  Tl  Tl17  1  0.102174  0.001274  0.837398  1
  Tl  Tl18  1  0.397826  0.501274  0.837398  1
  Tl  Tl19  1  0.897826  0.998726  0.162602  1
  O  O20  1  0.500000  0.500000  0.000000  1
  O  O21  1  0.000000  0.000000  0.000000  1
  O  O22  1  0.184089  0.005887  0.051308  1
  O  O23  1  0.684089  0.494113  0.948692  1
  O  O24  1  0.815911  0.994113  0.948692  1
  O  O25  1  0.315911  0.505887  0.051308  1
  O  O26  1  0.893067  0.299863  0.171625  1
  O  O27  1  0.393067  0.200137  0.828375  1
  O  O28  1  0.106933  0.700137  0.828375  1
  O  O29  1  0.606933  0.799863  0.171625  1
  O  O30  1  0.600727  0.204558  0.460936  1
  O  O31  1  0.100727  0.295442  0.539064  1
  O  O32  1  0.399273  0.795442  0.539064  1
  O  O33  1  0.899273  0.704558  0.460936  1
