# generated using pymatgen
data_Ho9Tm3Th4(AlCo)4
_symmetry_space_group_name_H-M   'P 1'
_cell_length_a   9.47427712
_cell_length_b   9.47705373
_cell_length_c   9.47338692
_cell_angle_alpha   60.26256358
_cell_angle_beta   60.23214764
_cell_angle_gamma   60.21273674
_symmetry_Int_Tables_number   1
_chemical_formula_structural   Ho9Tm3Th4(AlCo)4
_chemical_formula_sum   'Ho9 Tm3 Th4 Al4 Co4'
_cell_volume   604.67479548
_cell_formula_units_Z   1
loop_
 _symmetry_equiv_pos_site_id
 _symmetry_equiv_pos_as_xyz
  1  'x, y, z'
loop_
 _atom_site_type_symbol
 _atom_site_label
 _atom_site_symmetry_multiplicity
 _atom_site_fract_x
 _atom_site_fract_y
 _atom_site_fract_z
 _atom_site_occupancy
  Ho  Ho0  1  0.810307  0.190703  0.809887  1
  Ho  Ho1  1  0.190796  0.190282  0.811774  1
  Ho  Ho2  1  0.810816  0.810047  0.190542  1
  Ho  Ho3  1  0.936025  0.564428  0.563989  1
  Ho  Ho4  1  0.564074  0.935762  0.936555  1
  Ho  Ho5  1  0.564264  0.935630  0.564409  1
  Ho  Ho6  1  0.936110  0.564414  0.936147  1
  Ho  Ho7  1  0.563989  0.564495  0.936316  1
  Ho  Ho8  1  0.936450  0.935739  0.563647  1
  Tm  Tm9  1  0.809901  0.191120  0.191919  1
  Tm  Tm10  1  0.191609  0.809666  0.809744  1
  Tm  Tm11  1  0.191061  0.810168  0.191341  1
  Th  Th12  1  0.345407  0.346014  0.344919  1
  Th  Th13  1  0.346526  0.347831  0.956760  1
  Th  Th14  1  0.346314  0.956658  0.346664  1
  Th  Th15  1  0.957048  0.346827  0.345694  1
  Al  Al16  1  0.580231  0.580305  0.579317  1
  Al  Al17  1  0.577914  0.578137  0.265920  1
  Al  Al18  1  0.577822  0.266312  0.577937  1
  Al  Al19  1  0.266312  0.578060  0.578019  1
  Co  Co20  1  0.142156  0.143265  0.145476  1
  Co  Co21  1  0.142797  0.141585  0.569000  1
  Co  Co22  1  0.143168  0.569517  0.141452  1
  Co  Co23  1  0.568904  0.143039  0.142570  1
