# generated using pymatgen
data_Tb4Er7(Lu3Bi4)3
_symmetry_space_group_name_H-M   'P 1'
_cell_length_a   8.18768859
_cell_length_b   9.42300104
_cell_length_c   11.94506382
_cell_angle_alpha   90.00331886
_cell_angle_beta   89.95766307
_cell_angle_gamma   90.01008244
_symmetry_Int_Tables_number   1
_chemical_formula_structural   Tb4Er7(Lu3Bi4)3
_chemical_formula_sum   'Tb4 Er7 Lu9 Bi12'
_cell_volume   921.59244088
_cell_formula_units_Z   1
loop_
 _symmetry_equiv_pos_site_id
 _symmetry_equiv_pos_as_xyz
  1  'x, y, z'
loop_
 _atom_site_type_symbol
 _atom_site_label
 _atom_site_symmetry_multiplicity
 _atom_site_fract_x
 _atom_site_fract_y
 _atom_site_fract_z
 _atom_site_occupancy
  Tb  Tb0  1  0.313396  0.250150  0.218278  1
  Tb  Tb1  1  0.813381  0.250052  0.281977  1
  Tb  Tb2  1  0.686618  0.750153  0.781799  1
  Tb  Tb3  1  0.186758  0.749878  0.718205  1
  Er  Er4  1  0.352642  0.750046  0.217677  1
  Er  Er5  1  0.852719  0.750199  0.282268  1
  Er  Er6  1  0.647728  0.250321  0.782129  1
  Er  Er7  1  0.147155  0.250255  0.717569  1
  Er  Er8  1  0.692534  0.565632  0.059560  1
  Er  Er9  1  0.192321  0.934277  0.440493  1
  Er  Er10  1  0.307547  0.065637  0.940397  1
  Lu  Lu11  1  0.807244  0.433124  0.559640  1
  Lu  Lu12  1  0.307535  0.433304  0.940433  1
  Lu  Lu13  1  0.807489  0.066942  0.559477  1
  Lu  Lu14  1  0.692429  0.933262  0.059542  1
  Lu  Lu15  1  0.192657  0.566739  0.440420  1
  Lu  Lu16  1  0.477037  0.250102  0.488994  1
  Lu  Lu17  1  0.976614  0.250120  0.011027  1
  Lu  Lu18  1  0.523550  0.749882  0.511078  1
  Lu  Lu19  1  0.023403  0.750210  0.988910  1
  Bi  Bi20  1  0.403843  0.749015  0.959094  1
  Bi  Bi21  1  0.903404  0.749564  0.541102  1
  Bi  Bi22  1  0.596207  0.248980  0.040873  1
  Bi  Bi23  1  0.095942  0.251402  0.459247  1
  Bi  Bi24  1  0.565704  0.994718  0.326963  1
  Bi  Bi25  1  0.065529  0.505445  0.173175  1
  Bi  Bi26  1  0.434547  0.494681  0.672987  1
  Bi  Bi27  1  0.934308  0.005473  0.826815  1
  Bi  Bi28  1  0.434478  0.005369  0.673068  1
  Bi  Bi29  1  0.934327  0.494862  0.826701  1
  Bi  Bi30  1  0.565425  0.505386  0.326936  1
  Bi  Bi31  1  0.065528  0.994821  0.173167  1
