# generated using pymatgen
data_NdTaNb5Sn6
_symmetry_space_group_name_H-M   'P 1'
_cell_length_a   5.83366400
_cell_length_b   5.82875067
_cell_length_c   9.64124400
_cell_angle_alpha   90.00000000
_cell_angle_beta   90.00000000
_cell_angle_gamma   120.02788839
_symmetry_Int_Tables_number   1
_chemical_formula_structural   NdTaNb5Sn6
_chemical_formula_sum   'Nd1 Ta1 Nb5 Sn6'
_cell_volume   283.83012007
_cell_formula_units_Z   1
loop_
 _symmetry_equiv_pos_site_id
 _symmetry_equiv_pos_as_xyz
  1  'x, y, z'
loop_
 _atom_site_type_symbol
 _atom_site_label
 _atom_site_symmetry_multiplicity
 _atom_site_fract_x
 _atom_site_fract_y
 _atom_site_fract_z
 _atom_site_occupancy
  Nd  Nd0  1  0.000000  0.000000  0.999993  1
  Ta  Ta1  1  0.500000  0.000000  0.750250  1
  Nb  Nb2  1  0.000000  0.500000  0.749583  1
  Nb  Nb3  1  0.500000  0.500000  0.749583  1
  Nb  Nb4  1  0.000000  0.500000  0.250434  1
  Nb  Nb5  1  0.500000  0.500000  0.250434  1
  Nb  Nb6  1  0.500000  0.000000  0.250456  1
  Sn  Sn7  1  0.666385  0.332768  0.499863  1
  Sn  Sn8  1  0.333615  0.667232  0.499863  1
  Sn  Sn9  1  0.666627  0.333253  0.000035  1
  Sn  Sn10  1  0.333373  0.666747  0.000035  1
  Sn  Sn11  1  0.000000  0.000000  0.667152  1
  Sn  Sn12  1  0.000000  0.000000  0.332319  1
