# generated using pymatgen
data_Sc4InB4AsRh10
_symmetry_space_group_name_H-M   'P 1'
_cell_length_a   9.34818300
_cell_length_b   9.34818300
_cell_length_c   3.19165700
_cell_angle_alpha   90.00000000
_cell_angle_beta   90.00000000
_cell_angle_gamma   90.00000000
_symmetry_Int_Tables_number   1
_chemical_formula_structural   Sc4InB4AsRh10
_chemical_formula_sum   'Sc4 In1 B4 As1 Rh10'
_cell_volume   278.91419882
_cell_formula_units_Z   1
loop_
 _symmetry_equiv_pos_site_id
 _symmetry_equiv_pos_as_xyz
  1  'x, y, z'
loop_
 _atom_site_type_symbol
 _atom_site_label
 _atom_site_symmetry_multiplicity
 _atom_site_fract_x
 _atom_site_fract_y
 _atom_site_fract_z
 _atom_site_occupancy
  Sc  Sc0  1  0.825491  0.325707  0.000000  1
  Sc  Sc1  1  0.325707  0.174509  0.000000  1
  Sc  Sc2  1  0.674293  0.825491  0.000000  1
  Sc  Sc3  1  0.174509  0.674293  0.000000  1
  In  In4  1  0.500000  0.500000  0.000000  1
  B  B5  1  0.623598  0.121136  0.000000  1
  B  B6  1  0.121136  0.376402  0.000000  1
  B  B7  1  0.878864  0.623598  0.000000  1
  B  B8  1  0.376402  0.878864  0.000000  1
  As  As9  1  0.000000  0.000000  0.000000  1
  Rh  Rh10  1  0.067562  0.215516  0.500000  1
  Rh  Rh11  1  0.215516  0.932438  0.500000  1
  Rh  Rh12  1  0.784484  0.067562  0.500000  1
  Rh  Rh13  1  0.932438  0.784484  0.500000  1
  Rh  Rh14  1  0.422645  0.724232  0.500000  1
  Rh  Rh15  1  0.577355  0.275768  0.500000  1
  Rh  Rh16  1  0.724232  0.577355  0.500000  1
  Rh  Rh17  1  0.275768  0.422645  0.500000  1
  Rh  Rh18  1  0.500000  0.000000  0.500000  1
  Rh  Rh19  1  0.000000  0.500000  0.500000  1
