# generated using pymatgen
data_Y(HfH5)3
_symmetry_space_group_name_H-M   'P 1'
_cell_length_a   7.03903993
_cell_length_b   7.05556842
_cell_length_c   7.08220369
_cell_angle_alpha   109.55367236
_cell_angle_beta   109.45941082
_cell_angle_gamma   109.19985096
_symmetry_Int_Tables_number   1
_chemical_formula_structural   Y(HfH5)3
_chemical_formula_sum   'Y2 Hf6 H30'
_cell_volume   271.43124386
_cell_formula_units_Z   2
loop_
 _symmetry_equiv_pos_site_id
 _symmetry_equiv_pos_as_xyz
  1  'x, y, z'
loop_
 _atom_site_type_symbol
 _atom_site_label
 _atom_site_symmetry_multiplicity
 _atom_site_fract_x
 _atom_site_fract_y
 _atom_site_fract_z
 _atom_site_occupancy
  Y  Y0  1  0.909234  0.907874  0.907213  1
  Y  Y1  1  0.502021  0.000661  0.092786  1
  Hf  Hf2  1  0.005971  0.111237  0.505994  1
  Hf  Hf3  1  0.106781  0.496967  0.000667  1
  Hf  Hf4  1  0.999977  0.605243  0.494006  1
  Hf  Hf5  1  0.606114  0.496300  0.999332  1
  Hf  Hf6  1  0.497358  0.000741  0.593972  1
  Hf  Hf7  1  0.403385  0.406768  0.406027  1
  H  H8  1  0.667551  0.978225  0.402283  1
  H  H9  1  0.223552  0.304352  0.846319  1
  H  H10  1  0.194456  0.423055  0.539518  1
  H  H11  1  0.090968  0.288992  0.127254  1
  H  H12  1  0.281484  0.138447  0.105746  1
  H  H13  1  0.128628  0.102923  0.293715  1
  H  H14  1  0.463715  0.161739  0.872746  1
  H  H15  1  0.722302  0.339775  0.810049  1
  H  H16  1  0.625794  0.384189  0.252215  1
  H  H17  1  0.238621  0.621637  0.367627  1
  H  H18  1  0.761109  0.871091  0.142545  1
  H  H19  1  0.118564  0.728544  0.857456  1
  H  H20  1  0.370994  0.254010  0.632373  1
  H  H21  1  0.873579  0.131974  0.747785  1
  H  H22  1  0.765267  0.575942  0.597716  1
  H  H23  1  0.305043  0.832164  0.228677  1
  H  H24  1  0.381043  0.637079  0.969755  1
  H  H25  1  0.975999  0.383044  0.660788  1
  H  H26  1  0.527217  0.196208  0.430426  1
  H  H27  1  0.412252  0.529727  0.189952  1
  H  H28  1  0.863319  0.238425  0.328088  1
  H  H29  1  0.911287  0.667324  0.030245  1
  H  H30  1  0.815209  0.722256  0.339211  1
  H  H31  1  0.154938  0.883538  0.460482  1
  H  H32  1  0.675738  0.032701  0.894253  1
  H  H33  1  0.334913  0.809209  0.706286  1
  H  H34  1  0.877234  0.458034  0.153681  1
  H  H35  1  0.596791  0.765782  0.569574  1
  H  H36  1  0.576367  0.603488  0.771323  1
  H  H37  1  0.035230  0.910335  0.671911  1
