# generated using pymatgen
data_CeMnAgPt3
_symmetry_space_group_name_H-M   'P 1'
_cell_length_a   5.47736008
_cell_length_b   5.25059155
_cell_length_c   5.47735900
_cell_angle_alpha   58.56072750
_cell_angle_beta   60.00000049
_cell_angle_gamma   58.56072364
_symmetry_Int_Tables_number   1
_chemical_formula_structural   CeMnAgPt3
_chemical_formula_sum   'Ce1 Mn1 Ag1 Pt3'
_cell_volume   108.90228900
_cell_formula_units_Z   1
loop_
 _symmetry_equiv_pos_site_id
 _symmetry_equiv_pos_as_xyz
  1  'x, y, z'
loop_
 _atom_site_type_symbol
 _atom_site_label
 _atom_site_symmetry_multiplicity
 _atom_site_fract_x
 _atom_site_fract_y
 _atom_site_fract_z
 _atom_site_occupancy
  Ce  Ce0  1  0.502981  0.491056  0.502981  1
  Mn  Mn1  1  0.123055  0.630837  0.123055  1
  Ag  Ag2  1  0.752275  0.743174  0.752275  1
  Pt  Pt3  1  0.123061  0.128311  0.625568  1
  Pt  Pt4  1  0.625568  0.128311  0.123061  1
  Pt  Pt5  1  0.123061  0.128311  0.123061  1
