# generated using pymatgen
data_Tm7Lu(B6Ir)4
_symmetry_space_group_name_H-M   'P 1'
_cell_length_a   3.60292600
_cell_length_b   9.10846634
_cell_length_c   11.44773000
_cell_angle_alpha   89.98524068
_cell_angle_beta   90.00000000
_cell_angle_gamma   90.00000000
_symmetry_Int_Tables_number   1
_chemical_formula_structural   Tm7Lu(B6Ir)4
_chemical_formula_sum   'Tm7 Lu1 B24 Ir4'
_cell_volume   375.68163334
_cell_formula_units_Z   1
loop_
 _symmetry_equiv_pos_site_id
 _symmetry_equiv_pos_as_xyz
  1  'x, y, z'
loop_
 _atom_site_type_symbol
 _atom_site_label
 _atom_site_symmetry_multiplicity
 _atom_site_fract_x
 _atom_site_fract_y
 _atom_site_fract_z
 _atom_site_occupancy
  Tm  Tm0  1  0.500000  0.321447  0.413267  1
  Tm  Tm1  1  0.500000  0.678539  0.586439  1
  Tm  Tm2  1  0.500000  0.178196  0.913370  1
  Tm  Tm3  1  0.500000  0.821766  0.086759  1
  Tm  Tm4  1  0.500000  0.444546  0.125642  1
  Tm  Tm5  1  0.500000  0.555350  0.874556  1
  Tm  Tm6  1  0.500000  0.055332  0.625228  1
  Lu  Lu7  1  0.500000  0.944611  0.374509  1
  B  B8  1  0.000000  0.108224  0.470042  1
  B  B9  1  0.000000  0.891438  0.529088  1
  B  B10  1  0.000000  0.390354  0.970253  1
  B  B11  1  0.000000  0.609623  0.029919  1
  B  B12  1  0.000000  0.132017  0.316604  1
  B  B13  1  0.000000  0.867494  0.683412  1
  B  B14  1  0.000000  0.367317  0.816328  1
  B  B15  1  0.000000  0.632747  0.183818  1
  B  B16  1  0.000000  0.053424  0.065860  1
  B  B17  1  0.000000  0.946420  0.934375  1
  B  B18  1  0.000000  0.446446  0.565521  1
  B  B19  1  0.000000  0.553881  0.434266  1
  B  B20  1  0.000000  0.481886  0.287161  1
  B  B21  1  0.000000  0.518198  0.712924  1
  B  B22  1  0.000000  0.018227  0.786935  1
  B  B23  1  0.000000  0.981515  0.213432  1
  B  B24  1  0.000000  0.249990  0.079229  1
  B  B25  1  0.000000  0.749914  0.920951  1
  B  B26  1  0.000000  0.249672  0.578837  1
  B  B27  1  0.000000  0.750936  0.420834  1
  B  B28  1  0.000000  0.294174  0.235608  1
  B  B29  1  0.000000  0.705646  0.764458  1
  B  B30  1  0.000000  0.205546  0.735288  1
  B  B31  1  0.000000  0.794915  0.264930  1
  Ir  Ir32  1  0.500000  0.138490  0.179348  1
  Ir  Ir33  1  0.500000  0.860984  0.820914  1
  Ir  Ir34  1  0.500000  0.360917  0.678864  1
  Ir  Ir35  1  0.500000  0.639821  0.321034  1
