# generated using pymatgen
data_Np(BH4)3
_symmetry_space_group_name_H-M   'P 1'
_cell_length_a   7.91775300
_cell_length_b   7.91775361
_cell_length_c   7.91775300
_cell_angle_alpha   120.00000161
_cell_angle_beta   90.00000000
_cell_angle_gamma   120.00000161
_symmetry_Int_Tables_number   1
_chemical_formula_structural   Np(BH4)3
_chemical_formula_sum   'Np2 B6 H24'
_cell_volume   350.98686426
_cell_formula_units_Z   2
loop_
 _symmetry_equiv_pos_site_id
 _symmetry_equiv_pos_as_xyz
  1  'x, y, z'
loop_
 _atom_site_type_symbol
 _atom_site_label
 _atom_site_symmetry_multiplicity
 _atom_site_fract_x
 _atom_site_fract_y
 _atom_site_fract_z
 _atom_site_occupancy
  Np  Np0  1  0.000000  0.000000  0.000000  1
  Np  Np1  1  0.500000  0.000000  0.500000  1
  B  B2  1  0.250000  0.000000  0.250000  1
  B  B3  1  0.750001  0.000000  0.250000  1
  B  B4  1  0.250000  0.500000  0.250000  1
  B  B5  1  0.750000  0.000000  0.750000  1
  B  B6  1  0.250000  0.000000  0.750001  1
  B  B7  1  0.750001  0.500000  0.750001  1
  H  H8  1  0.280791  0.000000  0.096898  1
  H  H9  1  0.096898  0.377688  0.096898  1
  H  H10  1  0.719210  0.816109  0.096898  1
  H  H11  1  0.596899  0.000000  0.219210  1
  H  H12  1  0.403102  0.622313  0.219210  1
  H  H13  1  0.219210  0.816109  0.219210  1
  H  H14  1  0.096898  0.000000  0.280791  1
  H  H15  1  0.903102  0.183892  0.280791  1
  H  H16  1  0.280791  0.377688  0.280791  1
  H  H17  1  0.780790  0.000000  0.403101  1
  H  H18  1  0.403102  0.183892  0.403102  1
  H  H19  1  0.219210  0.622313  0.403102  1
  H  H20  1  0.219210  0.000000  0.596899  1
  H  H21  1  0.780791  0.377688  0.596899  1
  H  H22  1  0.596899  0.816109  0.596899  1
  H  H23  1  0.903101  0.000000  0.719209  1
  H  H24  1  0.719210  0.622313  0.719210  1
  H  H25  1  0.096898  0.816109  0.719210  1
  H  H26  1  0.403101  0.000000  0.780790  1
  H  H27  1  0.780790  0.183892  0.780790  1
  H  H28  1  0.596899  0.377688  0.780791  1
  H  H29  1  0.719209  0.000000  0.903101  1
  H  H30  1  0.903101  0.622313  0.903101  1
  H  H31  1  0.280791  0.183892  0.903102  1
