# generated using pymatgen
data_NbZn2B2Rh5
_symmetry_space_group_name_H-M   'P 1'
_cell_length_a   9.39669300
_cell_length_b   9.37488600
_cell_length_c   2.94578100
_cell_angle_alpha   90.00000000
_cell_angle_beta   90.00000000
_cell_angle_gamma   90.00000000
_symmetry_Int_Tables_number   1
_chemical_formula_structural   NbZn2B2Rh5
_chemical_formula_sum   'Nb2 Zn4 B4 Rh10'
_cell_volume   259.50246662
_cell_formula_units_Z   2
loop_
 _symmetry_equiv_pos_site_id
 _symmetry_equiv_pos_as_xyz
  1  'x, y, z'
loop_
 _atom_site_type_symbol
 _atom_site_label
 _atom_site_symmetry_multiplicity
 _atom_site_fract_x
 _atom_site_fract_y
 _atom_site_fract_z
 _atom_site_occupancy
  Nb  Nb0  1  0.674522  0.828696  0.000000  1
  Nb  Nb1  1  0.174522  0.671304  0.000000  1
  Zn  Zn2  1  0.820651  0.317926  0.000000  1
  Zn  Zn3  1  0.320651  0.182074  0.000000  1
  Zn  Zn4  1  0.000011  0.999298  0.000000  1
  Zn  Zn5  1  0.500011  0.500702  0.000000  1
  B  B6  1  0.629738  0.131395  0.000000  1
  B  B7  1  0.129738  0.368605  0.000000  1
  B  B8  1  0.873837  0.625316  0.000000  1
  B  B9  1  0.373837  0.874684  0.000000  1
  Rh  Rh10  1  0.075370  0.212707  0.500000  1
  Rh  Rh11  1  0.215393  0.923289  0.500000  1
  Rh  Rh12  1  0.782004  0.063465  0.500000  1
  Rh  Rh13  1  0.932985  0.781476  0.500000  1
  Rh  Rh14  1  0.432985  0.718524  0.500000  1
  Rh  Rh15  1  0.575370  0.287293  0.500000  1
  Rh  Rh16  1  0.715393  0.576711  0.500000  1
  Rh  Rh17  1  0.282004  0.436535  0.500000  1
  Rh  Rh18  1  0.495490  0.006422  0.500000  1
  Rh  Rh19  1  0.995490  0.493578  0.500000  1
