# generated using pymatgen
data_KInSn2Au3
_symmetry_space_group_name_H-M   'P 1'
_cell_length_a   4.77168500
_cell_length_b   7.92437184
_cell_length_c   9.31529970
_cell_angle_alpha   89.73462557
_cell_angle_beta   90.00000000
_cell_angle_gamma   90.00000000
_symmetry_Int_Tables_number   1
_chemical_formula_structural   KInSn2Au3
_chemical_formula_sum   'K2 In2 Sn4 Au6'
_cell_volume   352.23198122
_cell_formula_units_Z   2
loop_
 _symmetry_equiv_pos_site_id
 _symmetry_equiv_pos_as_xyz
  1  'x, y, z'
loop_
 _atom_site_type_symbol
 _atom_site_label
 _atom_site_symmetry_multiplicity
 _atom_site_fract_x
 _atom_site_fract_y
 _atom_site_fract_z
 _atom_site_occupancy
  K  K0  1  0.000000  0.500425  0.261302  1
  K  K1  1  0.500000  0.999391  0.738202  1
  In  In2  1  0.500000  0.200478  0.119294  1
  In  In3  1  0.000000  0.001333  0.381759  1
  Sn  Sn4  1  0.500000  0.801945  0.117978  1
  Sn  Sn5  1  0.000000  0.699779  0.880811  1
  Sn  Sn6  1  0.000000  0.299020  0.884226  1
  Sn  Sn7  1  0.500000  0.500012  0.618118  1
  Au  Au8  1  0.500000  0.784124  0.415914  1
  Au  Au9  1  0.000000  0.997936  0.064161  1
  Au  Au10  1  0.500000  0.498817  0.935267  1
  Au  Au11  1  0.000000  0.715658  0.581628  1
  Au  Au12  1  0.000000  0.285767  0.583562  1
  Au  Au13  1  0.500000  0.215316  0.417779  1
