# generated using pymatgen
data_Sm3Ho3Co16(ReP6)2
_symmetry_space_group_name_H-M   'P 1'
_cell_length_a   3.73907200
_cell_length_b   10.54703026
_cell_length_c   12.27225731
_cell_angle_alpha   89.97438017
_cell_angle_beta   90.00000000
_cell_angle_gamma   90.00000000
_symmetry_Int_Tables_number   1
_chemical_formula_structural   Sm3Ho3Co16(ReP6)2
_chemical_formula_sum   'Sm3 Ho3 Co16 Re2 P12'
_cell_volume   483.96998600
_cell_formula_units_Z   1
loop_
 _symmetry_equiv_pos_site_id
 _symmetry_equiv_pos_as_xyz
  1  'x, y, z'
loop_
 _atom_site_type_symbol
 _atom_site_label
 _atom_site_symmetry_multiplicity
 _atom_site_fract_x
 _atom_site_fract_y
 _atom_site_fract_z
 _atom_site_occupancy
  Sm  Sm0  1  0.000000  0.500132  0.523635  1
  Sm  Sm1  1  0.500000  0.000018  0.476054  1
  Sm  Sm2  1  0.000000  0.318086  0.794291  1
  Ho  Ho3  1  0.500000  0.817811  0.205537  1
  Ho  Ho4  1  0.500000  0.182050  0.205422  1
  Ho  Ho5  1  0.000000  0.682623  0.794627  1
  Co  Co6  1  0.500000  0.501831  0.703654  1
  Co  Co7  1  0.000000  0.999935  0.295730  1
  Co  Co8  1  0.000000  0.500867  0.988578  1
  Co  Co9  1  0.500000  0.999309  0.012693  1
  Co  Co10  1  0.500000  0.332392  0.991532  1
  Co  Co11  1  0.500000  0.668327  0.990423  1
  Co  Co12  1  0.000000  0.166922  0.010661  1
  Co  Co13  1  0.000000  0.832205  0.010165  1
  Co  Co14  1  0.500000  0.296259  0.429376  1
  Co  Co15  1  0.500000  0.703858  0.429949  1
  Co  Co16  1  0.000000  0.203468  0.568689  1
  Co  Co17  1  0.000000  0.796395  0.569925  1
  Co  Co18  1  0.500000  0.878945  0.710303  1
  Co  Co19  1  0.500000  0.118969  0.709458  1
  Co  Co20  1  0.000000  0.620613  0.289765  1
  Co  Co21  1  0.000000  0.379351  0.289519  1
  Re  Re22  1  0.500000  0.500385  0.155306  1
  Re  Re23  1  0.000000  0.999361  0.844973  1
  P  P24  1  0.500000  0.501672  0.881986  1
  P  P25  1  0.000000  0.999735  0.119326  1
  P  P26  1  0.500000  0.500011  0.346493  1
  P  P27  1  0.000000  0.000223  0.653339  1
  P  P28  1  0.500000  0.309315  0.614811  1
  P  P29  1  0.500000  0.690478  0.616824  1
  P  P30  1  0.000000  0.189882  0.382556  1
  P  P31  1  0.000000  0.809830  0.382898  1
  P  P32  1  0.500000  0.845691  0.892930  1
  P  P33  1  0.500000  0.152825  0.894102  1
  P  P34  1  0.000000  0.654674  0.107484  1
  P  P35  1  0.000000  0.345550  0.106985  1
