# generated using pymatgen
data_Sc2Co3(ReB2)2
_symmetry_space_group_name_H-M   'P 1'
_cell_length_a   3.09648900
_cell_length_b   8.30754556
_cell_length_c   9.33484100
_cell_angle_alpha   89.97899913
_cell_angle_beta   90.00000000
_cell_angle_gamma   90.00000000
_symmetry_Int_Tables_number   1
_chemical_formula_structural   Sc2Co3(ReB2)2
_chemical_formula_sum   'Sc4 Co6 Re4 B8'
_cell_volume   240.13151951
_cell_formula_units_Z   2
loop_
 _symmetry_equiv_pos_site_id
 _symmetry_equiv_pos_as_xyz
  1  'x, y, z'
loop_
 _atom_site_type_symbol
 _atom_site_label
 _atom_site_symmetry_multiplicity
 _atom_site_fract_x
 _atom_site_fract_y
 _atom_site_fract_z
 _atom_site_occupancy
  Sc  Sc0  1  0.500000  0.837210  0.180791  1
  Sc  Sc1  1  0.500000  0.162790  0.819209  1
  Sc  Sc2  1  0.500000  0.662699  0.680773  1
  Sc  Sc3  1  0.500000  0.337301  0.319227  1
  Co  Co4  1  0.000000  0.000000  0.000000  1
  Co  Co5  1  0.000000  0.410414  0.755761  1
  Co  Co6  1  0.000000  0.589586  0.244239  1
  Co  Co7  1  0.000000  0.500000  0.500000  1
  Co  Co8  1  0.000000  0.910384  0.744237  1
  Co  Co9  1  0.000000  0.089616  0.255763  1
  Re  Re10  1  0.000000  0.666337  0.953021  1
  Re  Re11  1  0.000000  0.333663  0.046979  1
  Re  Re12  1  0.000000  0.833576  0.452974  1
  Re  Re13  1  0.000000  0.166424  0.547026  1
  B  B14  1  0.500000  0.965073  0.596466  1
  B  B15  1  0.500000  0.034927  0.403534  1
  B  B16  1  0.500000  0.861359  0.898032  1
  B  B17  1  0.500000  0.138641  0.101968  1
  B  B18  1  0.500000  0.638631  0.397984  1
  B  B19  1  0.500000  0.361369  0.602016  1
  B  B20  1  0.500000  0.465088  0.903531  1
  B  B21  1  0.500000  0.534912  0.096469  1
