# generated using pymatgen
data_PtOF8
_symmetry_space_group_name_H-M   'P 1'
_cell_length_a   5.29946819
_cell_length_b   5.73713247
_cell_length_c   10.37204477
_cell_angle_alpha   91.00336426
_cell_angle_beta   93.44331578
_cell_angle_gamma   91.30408655
_symmetry_Int_Tables_number   1
_chemical_formula_structural   PtOF8
_chemical_formula_sum   'Pt2 O2 F16'
_cell_volume   314.64192409
_cell_formula_units_Z   2
loop_
 _symmetry_equiv_pos_site_id
 _symmetry_equiv_pos_as_xyz
  1  'x, y, z'
loop_
 _atom_site_type_symbol
 _atom_site_label
 _atom_site_symmetry_multiplicity
 _atom_site_fract_x
 _atom_site_fract_y
 _atom_site_fract_z
 _atom_site_occupancy
  Pt  Pt0  1  0.000000  0.000000  0.500000  1
  Pt  Pt1  1  0.000000  0.000000  0.000000  1
  O  O2  1  0.465106  0.470705  0.753127  1
  O  O3  1  0.534894  0.529295  0.246873  1
  F  F4  1  0.828111  0.152111  0.359744  1
  F  F5  1  0.171889  0.847889  0.640256  1
  F  F6  1  0.718125  0.044865  0.602838  1
  F  F7  1  0.281875  0.955135  0.397162  1
  F  F8  1  0.389142  0.546551  0.129597  1
  F  F9  1  0.610858  0.453449  0.870403  1
  F  F10  1  0.360616  0.470082  0.338695  1
  F  F11  1  0.639384  0.529918  0.661305  1
  F  F12  1  0.876371  0.273465  0.079440  1
  F  F13  1  0.123629  0.726535  0.920560  1
  F  F14  1  0.319040  0.051451  0.091866  1
  F  F15  1  0.680960  0.948549  0.908134  1
  F  F16  1  0.892484  0.816150  0.138725  1
  F  F17  1  0.107516  0.183850  0.861275  1
  F  F18  1  0.857332  0.706398  0.440003  1
  F  F19  1  0.142668  0.293602  0.559997  1
