# generated using pymatgen
data_Ce(Nd3Sb2)3
_symmetry_space_group_name_H-M   'P 1'
_cell_length_a   9.44600300
_cell_length_b   9.44600226
_cell_length_c   6.52760000
_cell_angle_alpha   90.00000000
_cell_angle_beta   90.00000000
_cell_angle_gamma   119.99999908
_symmetry_Int_Tables_number   1
_chemical_formula_structural   Ce(Nd3Sb2)3
_chemical_formula_sum   'Ce1 Nd9 Sb6'
_cell_volume   504.40605807
_cell_formula_units_Z   1
loop_
 _symmetry_equiv_pos_site_id
 _symmetry_equiv_pos_as_xyz
  1  'x, y, z'
loop_
 _atom_site_type_symbol
 _atom_site_label
 _atom_site_symmetry_multiplicity
 _atom_site_fract_x
 _atom_site_fract_y
 _atom_site_fract_z
 _atom_site_occupancy
  Ce  Ce0  1  0.666667  0.333333  0.500000  1
  Nd  Nd1  1  0.666667  0.333333  0.000000  1
  Nd  Nd2  1  0.333333  0.666667  0.000000  1
  Nd  Nd3  1  0.333333  0.666667  0.500000  1
  Nd  Nd4  1  0.742643  0.742743  0.749565  1
  Nd  Nd5  1  0.257257  0.999900  0.749565  1
  Nd  Nd6  1  0.000100  0.257357  0.749565  1
  Nd  Nd7  1  0.257257  0.257357  0.250435  1
  Nd  Nd8  1  0.742643  0.999900  0.250435  1
  Nd  Nd9  1  0.000100  0.742743  0.250435  1
  Sb  Sb10  1  0.382039  0.381807  0.749479  1
  Sb  Sb11  1  0.618193  0.000232  0.749479  1
  Sb  Sb12  1  0.999768  0.617961  0.749479  1
  Sb  Sb13  1  0.618193  0.617961  0.250521  1
  Sb  Sb14  1  0.382039  0.000232  0.250521  1
  Sb  Sb15  1  0.999768  0.381807  0.250521  1
