# generated using pymatgen
data_Na4CrCo19As12
_symmetry_space_group_name_H-M   'P 1'
_cell_length_a   3.72993900
_cell_length_b   10.66716345
_cell_length_c   12.28070340
_cell_angle_alpha   90.12592647
_cell_angle_beta   90.00000000
_cell_angle_gamma   90.00000000
_symmetry_Int_Tables_number   1
_chemical_formula_structural   Na4CrCo19As12
_chemical_formula_sum   'Na4 Cr1 Co19 As12'
_cell_volume   488.62183781
_cell_formula_units_Z   1
loop_
 _symmetry_equiv_pos_site_id
 _symmetry_equiv_pos_as_xyz
  1  'x, y, z'
loop_
 _atom_site_type_symbol
 _atom_site_label
 _atom_site_symmetry_multiplicity
 _atom_site_fract_x
 _atom_site_fract_y
 _atom_site_fract_z
 _atom_site_occupancy
  Na  Na0  1  0.250000  0.580603  0.703831  1
  Na  Na1  1  0.250000  0.920360  0.205387  1
  Na  Na2  1  0.750000  0.419472  0.295293  1
  Na  Na3  1  0.750000  0.081732  0.793980  1
  Cr  Cr4  1  0.250000  0.706803  0.987770  1
  Co  Co5  1  0.250000  0.792169  0.486780  1
  Co  Co6  1  0.750000  0.290786  0.012790  1
  Co  Co7  1  0.750000  0.207953  0.513768  1
  Co  Co8  1  0.250000  0.407379  0.490744  1
  Co  Co9  1  0.250000  0.093448  0.990289  1
  Co  Co10  1  0.750000  0.592282  0.510638  1
  Co  Co11  1  0.750000  0.907875  0.009806  1
  Co  Co12  1  0.250000  0.214163  0.177414  1
  Co  Co13  1  0.250000  0.284202  0.676771  1
  Co  Co14  1  0.750000  0.785737  0.823362  1
  Co  Co15  1  0.750000  0.714189  0.325687  1
  Co  Co16  1  0.250000  0.880945  0.694677  1
  Co  Co17  1  0.250000  0.619752  0.196297  1
  Co  Co18  1  0.750000  0.119609  0.304454  1
  Co  Co19  1  0.750000  0.378691  0.803643  1
  Co  Co20  1  0.250000  0.463302  0.933431  1
  Co  Co21  1  0.250000  0.035414  0.434396  1
  Co  Co22  1  0.750000  0.535534  0.064730  1
  Co  Co23  1  0.750000  0.965041  0.565001  1
  As  As24  1  0.250000  0.416498  0.115919  1
  As  As25  1  0.250000  0.082733  0.616394  1
  As  As26  1  0.750000  0.580741  0.880696  1
  As  As27  1  0.750000  0.916864  0.383530  1
  As  As28  1  0.250000  0.262676  0.868519  1
  As  As29  1  0.250000  0.236446  0.369027  1
  As  As30  1  0.750000  0.736964  0.135376  1
  As  As31  1  0.750000  0.764223  0.631516  1
  As  As32  1  0.250000  0.597716  0.390217  1
  As  As33  1  0.250000  0.907568  0.885346  1
  As  As34  1  0.750000  0.401597  0.611290  1
  As  As35  1  0.750000  0.098531  0.111227  1
