# generated using pymatgen
data_Tb2Zn3Ga5Ni2
_symmetry_space_group_name_H-M   'P 1'
_cell_length_a   4.11619500
_cell_length_b   6.44747600
_cell_length_c   7.95486617
_cell_angle_alpha   90.00000000
_cell_angle_beta   104.99423669
_cell_angle_gamma   90.00000000
_symmetry_Int_Tables_number   1
_chemical_formula_structural   Tb2Zn3Ga5Ni2
_chemical_formula_sum   'Tb2 Zn3 Ga5 Ni2'
_cell_volume   203.92667291
_cell_formula_units_Z   1
loop_
 _symmetry_equiv_pos_site_id
 _symmetry_equiv_pos_as_xyz
  1  'x, y, z'
loop_
 _atom_site_type_symbol
 _atom_site_label
 _atom_site_symmetry_multiplicity
 _atom_site_fract_x
 _atom_site_fract_y
 _atom_site_fract_z
 _atom_site_occupancy
  Tb  Tb0  1  0.874632  0.750000  0.749264  1
  Tb  Tb1  1  0.123210  0.250000  0.246420  1
  Zn  Zn2  1  0.500918  0.508816  0.001837  1
  Zn  Zn3  1  0.500918  0.991184  0.001837  1
  Zn  Zn4  1  0.067656  0.750000  0.135311  1
  Ga  Ga5  1  0.933068  0.250000  0.866136  1
  Ga  Ga6  1  0.683180  0.551225  0.366359  1
  Ga  Ga7  1  0.315318  0.448603  0.630636  1
  Ga  Ga8  1  0.683180  0.948775  0.366359  1
  Ga  Ga9  1  0.315318  0.051397  0.630636  1
  Ni  Ni10  1  0.223432  0.750000  0.446864  1
  Ni  Ni11  1  0.779171  0.250000  0.558342  1
