# generated using pymatgen
data_SmY5NiBr10
_symmetry_space_group_name_H-M   'P 1'
_cell_length_a   7.34465313
_cell_length_b   9.18883651
_cell_length_c   9.29263938
_cell_angle_alpha   107.52676937
_cell_angle_beta   96.35512452
_cell_angle_gamma   105.10759693
_symmetry_Int_Tables_number   1
_chemical_formula_structural   SmY5NiBr10
_chemical_formula_sum   'Sm1 Y5 Ni1 Br10'
_cell_volume   565.04370708
_cell_formula_units_Z   1
loop_
 _symmetry_equiv_pos_site_id
 _symmetry_equiv_pos_as_xyz
  1  'x, y, z'
loop_
 _atom_site_type_symbol
 _atom_site_label
 _atom_site_symmetry_multiplicity
 _atom_site_fract_x
 _atom_site_fract_y
 _atom_site_fract_z
 _atom_site_occupancy
  Sm  Sm0  1  0.872759  0.951624  0.244891  1
  Y  Y1  1  0.125925  0.047507  0.758806  1
  Y  Y2  1  0.032929  0.706884  0.907759  1
  Y  Y3  1  0.967645  0.292180  0.089328  1
  Y  Y4  1  0.648222  0.870311  0.827725  1
  Y  Y5  1  0.351692  0.129880  0.172483  1
  Ni  Ni6  1  0.999851  0.999554  0.000494  1
  Br  Br7  1  0.655420  0.551729  0.729725  1
  Br  Br8  1  0.344420  0.448369  0.269145  1
  Br  Br9  1  0.752440  0.920833  0.551336  1
  Br  Br10  1  0.252619  0.082854  0.457606  1
  Br  Br11  1  0.915538  0.623249  0.168980  1
  Br  Br12  1  0.087052  0.371215  0.826427  1
  Br  Br13  1  0.546534  0.178691  0.913630  1
  Br  Br14  1  0.448038  0.819345  0.083153  1
  Br  Br15  1  0.226369  0.749425  0.658385  1
  Br  Br16  1  0.772547  0.256350  0.340127  1
