# generated using pymatgen
data_ErTm7B24(RuW)2
_symmetry_space_group_name_H-M   'P 1'
_cell_length_a   3.59241800
_cell_length_b   9.15936754
_cell_length_c   11.54773134
_cell_angle_alpha   89.77966732
_cell_angle_beta   90.00000000
_cell_angle_gamma   90.00000000
_symmetry_Int_Tables_number   1
_chemical_formula_structural   ErTm7B24(RuW)2
_chemical_formula_sum   'Er1 Tm7 B24 Ru2 W2'
_cell_volume   379.96693917
_cell_formula_units_Z   1
loop_
 _symmetry_equiv_pos_site_id
 _symmetry_equiv_pos_as_xyz
  1  'x, y, z'
loop_
 _atom_site_type_symbol
 _atom_site_label
 _atom_site_symmetry_multiplicity
 _atom_site_fract_x
 _atom_site_fract_y
 _atom_site_fract_z
 _atom_site_occupancy
  Er  Er0  1  0.000000  0.321250  0.414015  1
  Tm  Tm1  1  0.000000  0.678736  0.585982  1
  Tm  Tm2  1  0.000000  0.821542  0.086292  1
  Tm  Tm3  1  0.000000  0.178454  0.913665  1
  Tm  Tm4  1  0.000000  0.945314  0.371331  1
  Tm  Tm5  1  0.000000  0.054572  0.628777  1
  Tm  Tm6  1  0.000000  0.441584  0.127521  1
  Tm  Tm7  1  0.000000  0.558494  0.872426  1
  B  B8  1  0.500000  0.551159  0.434961  1
  B  B9  1  0.500000  0.449239  0.565253  1
  B  B10  1  0.500000  0.053571  0.066289  1
  B  B11  1  0.500000  0.946373  0.933650  1
  B  B12  1  0.500000  0.752215  0.422030  1
  B  B13  1  0.500000  0.247713  0.578339  1
  B  B14  1  0.500000  0.248486  0.080732  1
  B  B15  1  0.500000  0.751511  0.919178  1
  B  B16  1  0.500000  0.796543  0.262542  1
  B  B17  1  0.500000  0.203461  0.737489  1
  B  B18  1  0.500000  0.290091  0.233492  1
  B  B19  1  0.500000  0.709824  0.766307  1
  B  B20  1  0.500000  0.632151  0.180751  1
  B  B21  1  0.500000  0.367928  0.819262  1
  B  B22  1  0.500000  0.130490  0.313541  1
  B  B23  1  0.500000  0.869280  0.686321  1
  B  B24  1  0.500000  0.983474  0.211262  1
  B  B25  1  0.500000  0.016445  0.788716  1
  B  B26  1  0.500000  0.476915  0.286062  1
  B  B27  1  0.500000  0.523437  0.713782  1
  B  B28  1  0.500000  0.603604  0.027745  1
  B  B29  1  0.500000  0.396425  0.972188  1
  B  B30  1  0.500000  0.102957  0.470504  1
  B  B31  1  0.500000  0.896694  0.529666  1
  Ru  Ru32  1  0.000000  0.137957  0.177696  1
  Ru  Ru33  1  0.000000  0.861955  0.822155  1
  W  W34  1  0.000000  0.639180  0.319284  1
  W  W35  1  0.000000  0.360977  0.680795  1
