# generated using pymatgen
data_Ac3YAu4
_symmetry_space_group_name_H-M   'P 1'
_cell_length_a   4.90979700
_cell_length_b   6.08144615
_cell_length_c   7.82388079
_cell_angle_alpha   87.86859342
_cell_angle_beta   90.00000000
_cell_angle_gamma   90.00000000
_symmetry_Int_Tables_number   1
_chemical_formula_structural   Ac3YAu4
_chemical_formula_sum   'Ac3 Y1 Au4'
_cell_volume   233.44902218
_cell_formula_units_Z   1
loop_
 _symmetry_equiv_pos_site_id
 _symmetry_equiv_pos_as_xyz
  1  'x, y, z'
loop_
 _atom_site_type_symbol
 _atom_site_label
 _atom_site_symmetry_multiplicity
 _atom_site_fract_x
 _atom_site_fract_y
 _atom_site_fract_z
 _atom_site_occupancy
  Ac  Ac0  1  0.250000  0.351653  0.688177  1
  Ac  Ac1  1  0.250000  0.142042  0.180835  1
  Ac  Ac2  1  0.750000  0.644653  0.312911  1
  Y  Y3  1  0.750000  0.856571  0.816642  1
  Au  Au4  1  0.250000  0.849520  0.564310  1
  Au  Au5  1  0.250000  0.666989  0.018956  1
  Au  Au6  1  0.750000  0.141069  0.466344  1
  Au  Au7  1  0.750000  0.347501  0.951825  1
