# generated using pymatgen
data_TbYb2Y(B4Ru)4
_symmetry_space_group_name_H-M   'P 1'
_cell_length_a   3.55186401
_cell_length_b   5.96332804
_cell_length_c   11.53017659
_cell_angle_alpha   89.97534367
_cell_angle_beta   90.00000615
_cell_angle_gamma   90.00022672
_symmetry_Int_Tables_number   1
_chemical_formula_structural   TbYb2Y(B4Ru)4
_chemical_formula_sum   'Tb1 Yb2 Y1 B16 Ru4'
_cell_volume   244.21984361
_cell_formula_units_Z   1
loop_
 _symmetry_equiv_pos_site_id
 _symmetry_equiv_pos_as_xyz
  1  'x, y, z'
loop_
 _atom_site_type_symbol
 _atom_site_label
 _atom_site_symmetry_multiplicity
 _atom_site_fract_x
 _atom_site_fract_y
 _atom_site_fract_z
 _atom_site_occupancy
  Tb  Tb0  1  0.000005  0.628607  0.349512  1
  Yb  Yb1  1  0.999997  0.370609  0.649778  1
  Yb  Yb2  1  0.000002  0.129361  0.149852  1
  Y  Y3  1  0.999998  0.871406  0.849522  1
  B  B4  1  0.500004  0.788207  0.185017  1
  B  B5  1  0.499995  0.212528  0.814824  1
  B  B6  1  0.500008  0.287257  0.314824  1
  B  B7  1  0.499994  0.711658  0.685158  1
  B  B8  1  0.499998  0.864178  0.031255  1
  B  B9  1  0.499998  0.136157  0.969836  1
  B  B10  1  0.500003  0.363816  0.469863  1
  B  B11  1  0.499999  0.636008  0.531150  1
  B  B12  1  0.500003  0.889522  0.453840  1
  B  B13  1  0.499998  0.114136  0.547505  1
  B  B14  1  0.500001  0.385988  0.047314  1
  B  B15  1  0.499998  0.610918  0.953599  1
  B  B16  1  0.500006  0.975809  0.308178  1
  B  B17  1  0.499995  0.024055  0.691488  1
  B  B18  1  0.500007  0.476054  0.191262  1
  B  B19  1  0.499993  0.524038  0.808042  1
  Ru  Ru20  1  0.000002  0.637865  0.089702  1
  Ru  Ru21  1  0.999994  0.361887  0.909269  1
  Ru  Ru22  1  0.000008  0.137842  0.409337  1
  Ru  Ru23  1  0.999997  0.862094  0.589872  1
