# generated using pymatgen
data_Tb5DyIrBr10
_symmetry_space_group_name_H-M   'P 1'
_cell_length_a   7.42818893
_cell_length_b   9.28734825
_cell_length_c   9.29169977
_cell_angle_alpha   107.54860156
_cell_angle_beta   96.56302672
_cell_angle_gamma   105.05797178
_symmetry_Int_Tables_number   1
_chemical_formula_structural   Tb5DyIrBr10
_chemical_formula_sum   'Tb5 Dy1 Ir1 Br10'
_cell_volume   577.13823681
_cell_formula_units_Z   1
loop_
 _symmetry_equiv_pos_site_id
 _symmetry_equiv_pos_as_xyz
  1  'x, y, z'
loop_
 _atom_site_type_symbol
 _atom_site_label
 _atom_site_symmetry_multiplicity
 _atom_site_fract_x
 _atom_site_fract_y
 _atom_site_fract_z
 _atom_site_occupancy
  Tb  Tb0  1  0.028414  0.698753  0.903679  1
  Tb  Tb1  1  0.641675  0.867733  0.819861  1
  Tb  Tb2  1  0.358531  0.133655  0.180597  1
  Tb  Tb3  1  0.127229  0.048792  0.757316  1
  Tb  Tb4  1  0.873286  0.950433  0.242725  1
  Dy  Dy5  1  0.970595  0.298839  0.095382  1
  Ir  Ir6  1  0.000161  0.999198  0.999775  1
  Br  Br7  1  0.545219  0.177241  0.916863  1
  Br  Br8  1  0.455944  0.824670  0.084139  1
  Br  Br9  1  0.757304  0.918700  0.544068  1
  Br  Br10  1  0.243220  0.082229  0.456097  1
  Br  Br11  1  0.086312  0.370984  0.831353  1
  Br  Br12  1  0.914354  0.627147  0.169980  1
  Br  Br13  1  0.220589  0.748579  0.656455  1
  Br  Br14  1  0.781174  0.252758  0.342441  1
  Br  Br15  1  0.649188  0.550012  0.727562  1
  Br  Br16  1  0.346806  0.450280  0.271709  1
