# generated using pymatgen
data_Dy6TaMn5O18
_symmetry_space_group_name_H-M   'P 1'
_cell_length_a   6.26073358
_cell_length_b   6.25082450
_cell_length_c   11.82703243
_cell_angle_alpha   89.69065111
_cell_angle_beta   90.61773665
_cell_angle_gamma   120.05245853
_symmetry_Int_Tables_number   1
_chemical_formula_structural   Dy6TaMn5O18
_chemical_formula_sum   'Dy6 Ta1 Mn5 O18'
_cell_volume   400.60271902
_cell_formula_units_Z   1
loop_
 _symmetry_equiv_pos_site_id
 _symmetry_equiv_pos_as_xyz
  1  'x, y, z'
loop_
 _atom_site_type_symbol
 _atom_site_label
 _atom_site_symmetry_multiplicity
 _atom_site_fract_x
 _atom_site_fract_y
 _atom_site_fract_z
 _atom_site_occupancy
  Dy  Dy0  1  0.991142  0.000000  0.286299  1
  Dy  Dy1  1  0.995713  0.000000  0.774935  1
  Dy  Dy2  1  0.331396  0.660959  0.248665  1
  Dy  Dy3  1  0.676327  0.341267  0.732493  1
  Dy  Dy4  1  0.335059  0.658733  0.732493  1
  Dy  Dy5  1  0.670438  0.339041  0.248665  1
  Ta  Ta6  1  0.334718  0.000000  0.008185  1
  Mn  Mn7  1  0.332595  0.330311  0.508021  1
  Mn  Mn8  1  0.002284  0.669689  0.508021  1
  Mn  Mn9  1  0.999762  0.333970  0.006229  1
  Mn  Mn10  1  0.665792  0.666030  0.006229  1
  Mn  Mn11  1  0.665538  0.000000  0.508259  1
  O  O12  1  0.300505  0.000000  0.177095  1
  O  O13  1  0.307301  0.301521  0.668741  1
  O  O14  1  0.005780  0.698479  0.668741  1
  O  O15  1  0.998187  0.313746  0.180846  1
  O  O16  1  0.684439  0.686254  0.180846  1
  O  O17  1  0.691993  0.000000  0.668791  1
  O  O18  1  0.636606  0.000000  0.347511  1
  O  O19  1  0.646684  0.644817  0.833139  1
  O  O20  1  0.001867  0.355183  0.833139  1
  O  O21  1  0.000644  0.643020  0.347755  1
  O  O22  1  0.357624  0.356980  0.347755  1
  O  O23  1  0.366991  0.000000  0.841862  1
  O  O24  1  0.997306  0.000000  0.483188  1
  O  O25  1  0.031005  0.000000  0.981783  1
  O  O26  1  0.333891  0.696316  0.028872  1
  O  O27  1  0.668191  0.335545  0.528288  1
  O  O28  1  0.332645  0.664455  0.528288  1
  O  O29  1  0.637576  0.303684  0.028872  1
