# generated using pymatgen
data_Dy5Hf2P12Ir12Rh5
_symmetry_space_group_name_H-M   'P 1'
_cell_length_a   12.67584801
_cell_length_b   12.88527448
_cell_length_c   3.96000100
_cell_angle_alpha   90.00000000
_cell_angle_beta   90.00000000
_cell_angle_gamma   119.45939864
_symmetry_Int_Tables_number   1
_chemical_formula_structural   Dy5Hf2P12Ir12Rh5
_chemical_formula_sum   'Dy5 Hf2 P12 Ir12 Rh5'
_cell_volume   563.16640982
_cell_formula_units_Z   1
loop_
 _symmetry_equiv_pos_site_id
 _symmetry_equiv_pos_as_xyz
  1  'x, y, z'
loop_
 _atom_site_type_symbol
 _atom_site_label
 _atom_site_symmetry_multiplicity
 _atom_site_fract_x
 _atom_site_fract_y
 _atom_site_fract_z
 _atom_site_occupancy
  Dy  Dy0  1  0.329773  0.661853  0.500000  1
  Dy  Dy1  1  0.668385  0.338291  0.500000  1
  Dy  Dy2  1  0.000062  0.814373  0.000000  1
  Dy  Dy3  1  0.184854  0.184746  0.000000  1
  Dy  Dy4  1  0.811618  0.000523  0.000000  1
  Hf  Hf5  1  0.998286  0.446389  0.500000  1
  Hf  Hf6  1  0.550939  0.554178  0.500000  1
  P  P7  1  0.005443  0.650573  0.500000  1
  P  P8  1  0.354607  0.349118  0.500000  1
  P  P9  1  0.641378  0.999372  0.500000  1
  P  P10  1  0.515265  0.686454  0.000000  1
  P  P11  1  0.311940  0.827417  0.000000  1
  P  P12  1  0.164717  0.481876  0.000000  1
  P  P13  1  0.484928  0.172680  0.000000  1
  P  P14  1  0.683977  0.519023  0.000000  1
  P  P15  1  0.828898  0.313576  0.000000  1
  P  P16  1  0.998761  0.174030  0.500000  1
  P  P17  1  0.825792  0.825976  0.500000  1
  P  P18  1  0.182233  0.998894  0.500000  1
  Ir  Ir19  1  0.125669  0.643990  0.000000  1
  Ir  Ir20  1  0.355824  0.494201  0.000000  1
  Ir  Ir21  1  0.484197  0.357174  0.000000  1
  Ir  Ir22  1  0.860694  0.504230  0.000000  1
  Ir  Ir23  1  0.642239  0.135518  0.000000  1
  Ir  Ir24  1  0.997532  0.278529  0.000000  1
  Ir  Ir25  1  0.718548  0.721168  0.000000  1
  Ir  Ir26  1  0.287723  0.999978  0.000000  1
  Ir  Ir27  1  0.379086  0.175140  0.500000  1
  Ir  Ir28  1  0.809655  0.631868  0.500000  1
  Ir  Ir29  1  0.817290  0.192531  0.500000  1
  Ir  Ir30  1  0.004727  0.000662  0.500000  1
  Rh  Rh31  1  0.506505  0.864207  0.000000  1
  Rh  Rh32  1  0.462561  0.002115  0.500000  1
  Rh  Rh33  1  0.624744  0.807210  0.500000  1
  Rh  Rh34  1  0.203275  0.824399  0.500000  1
  Rh  Rh35  1  0.177873  0.367736  0.500000  1
