# generated using pymatgen
data_Sm5Er3Sc11Si16W
_symmetry_space_group_name_H-M   'P 1'
_cell_length_a   7.12154163
_cell_length_b   7.36064444
_cell_length_c   13.95382135
_cell_angle_alpha   90.12484798
_cell_angle_beta   89.69528074
_cell_angle_gamma   89.74977393
_symmetry_Int_Tables_number   1
_chemical_formula_structural   Sm5Er3Sc11Si16W
_chemical_formula_sum   'Sm5 Er3 Sc11 Si16 W1'
_cell_volume   731.42816286
_cell_formula_units_Z   1
loop_
 _symmetry_equiv_pos_site_id
 _symmetry_equiv_pos_as_xyz
  1  'x, y, z'
loop_
 _atom_site_type_symbol
 _atom_site_label
 _atom_site_symmetry_multiplicity
 _atom_site_fract_x
 _atom_site_fract_y
 _atom_site_fract_z
 _atom_site_occupancy
  Sm  Sm0  1  0.011393  0.172480  0.098490  1
  Sm  Sm1  1  0.990508  0.826951  0.897207  1
  Sm  Sm2  1  0.488118  0.675044  0.898266  1
  Sm  Sm3  1  0.992498  0.830135  0.593944  1
  Sm  Sm4  1  0.512415  0.325680  0.098071  1
  Er  Er5  1  0.010539  0.176970  0.403602  1
  Er  Er6  1  0.505342  0.323224  0.409614  1
  Er  Er7  1  0.489233  0.675625  0.595493  1
  Sc  Sc8  1  0.165371  0.492955  0.742994  1
  Sc  Sc9  1  0.836879  0.498436  0.253148  1
  Sc  Sc10  1  0.336681  0.001711  0.255354  1
  Sc  Sc11  1  0.659051  0.003282  0.746162  1
  Sc  Sc12  1  0.663205  0.825534  0.380050  1
  Sc  Sc13  1  0.167179  0.676062  0.379785  1
  Sc  Sc14  1  0.669035  0.824896  0.126730  1
  Sc  Sc15  1  0.833456  0.324180  0.621555  1
  Sc  Sc16  1  0.333438  0.177182  0.873821  1
  Sc  Sc17  1  0.830916  0.323318  0.870305  1
  Sc  Sc18  1  0.169044  0.677095  0.127557  1
  Si  Si19  1  0.045166  0.124099  0.743197  1
  Si  Si20  1  0.962604  0.882912  0.254248  1
  Si  Si21  1  0.464652  0.619808  0.253273  1
  Si  Si22  1  0.532401  0.372458  0.743652  1
  Si  Si23  1  0.290771  0.884175  0.743435  1
  Si  Si24  1  0.710143  0.125162  0.254711  1
  Si  Si25  1  0.213656  0.375022  0.254106  1
  Si  Si26  1  0.784699  0.620721  0.744120  1
  Si  Si27  1  0.180726  0.448457  0.540417  1
  Si  Si28  1  0.837154  0.529154  0.458716  1
  Si  Si29  1  0.333956  0.971314  0.470276  1
  Si  Si30  1  0.846845  0.537093  0.038715  1
  Si  Si31  1  0.642866  0.036119  0.545181  1
  Si  Si32  1  0.151782  0.465144  0.959160  1
  Si  Si33  1  0.658807  0.037641  0.958889  1
  Si  Si34  1  0.344712  0.961784  0.038745  1
  W  W35  1  0.334760  0.178175  0.627014  1
