# generated using pymatgen
data_Tb3Nd3NiBr10
_symmetry_space_group_name_H-M   'P 1'
_cell_length_a   7.45538667
_cell_length_b   9.41589162
_cell_length_c   9.52711939
_cell_angle_alpha   107.91978217
_cell_angle_beta   95.40923258
_cell_angle_gamma   105.70825370
_symmetry_Int_Tables_number   1
_chemical_formula_structural   Tb3Nd3NiBr10
_chemical_formula_sum   'Tb3 Nd3 Ni1 Br10'
_cell_volume   600.96310732
_cell_formula_units_Z   1
loop_
 _symmetry_equiv_pos_site_id
 _symmetry_equiv_pos_as_xyz
  1  'x, y, z'
loop_
 _atom_site_type_symbol
 _atom_site_label
 _atom_site_symmetry_multiplicity
 _atom_site_fract_x
 _atom_site_fract_y
 _atom_site_fract_z
 _atom_site_occupancy
  Tb  Tb0  1  0.030655  0.710237  0.907812  1
  Tb  Tb1  1  0.349063  0.125639  0.169017  1
  Tb  Tb2  1  0.651117  0.870573  0.829854  1
  Nd  Nd3  1  0.132199  0.050185  0.756323  1
  Nd  Nd4  1  0.866133  0.950583  0.243290  1
  Nd  Nd5  1  0.970709  0.298462  0.095445  1
  Ni  Ni6  1  0.999242  0.000487  0.999985  1
  Br  Br7  1  0.550714  0.172835  0.917851  1
  Br  Br8  1  0.443776  0.821486  0.078185  1
  Br  Br9  1  0.359785  0.443017  0.267156  1
  Br  Br10  1  0.657168  0.556659  0.736721  1
  Br  Br11  1  0.248679  0.076895  0.442747  1
  Br  Br12  1  0.749217  0.919887  0.556477  1
  Br  Br13  1  0.761782  0.248811  0.340518  1
  Br  Br14  1  0.230311  0.746625  0.664953  1
  Br  Br15  1  0.085538  0.375617  0.828059  1
  Br  Br16  1  0.913910  0.632003  0.165606  1
