# generated using pymatgen
data_La8PrHoIn6
_symmetry_space_group_name_H-M   'P 1'
_cell_length_a   6.24305416
_cell_length_b   9.60284733
_cell_length_c   9.60284773
_cell_angle_alpha   83.93447780
_cell_angle_beta   71.03063344
_cell_angle_gamma   71.03063776
_symmetry_Int_Tables_number   1
_chemical_formula_structural   La8PrHoIn6
_chemical_formula_sum   'La8 Pr1 Ho1 In6'
_cell_volume   514.86939463
_cell_formula_units_Z   1
loop_
 _symmetry_equiv_pos_site_id
 _symmetry_equiv_pos_as_xyz
  1  'x, y, z'
loop_
 _atom_site_type_symbol
 _atom_site_label
 _atom_site_symmetry_multiplicity
 _atom_site_fract_x
 _atom_site_fract_y
 _atom_site_fract_z
 _atom_site_occupancy
  La  La0  1  0.724297  0.864485  0.689550  1
  La  La1  1  0.278333  0.135515  0.310450  1
  La  La2  1  0.775703  0.310450  0.135515  1
  La  La3  1  0.221667  0.689550  0.864485  1
  La  La4  1  0.586152  0.689550  0.135515  1
  La  La5  1  0.411218  0.310450  0.864485  1
  La  La6  1  0.088782  0.135515  0.689550  1
  La  La7  1  0.913848  0.864485  0.310450  1
  Pr  Pr8  1  0.750000  0.500000  0.500000  1
  Ho  Ho9  1  0.250000  0.500000  0.500000  1
  In  In10  1  0.160182  0.500000  0.184374  1
  In  In11  1  0.844556  0.500000  0.815626  1
  In  In12  1  0.339818  0.815626  0.500000  1
  In  In13  1  0.655444  0.184374  0.500000  1
  In  In14  1  0.250000  0.000000  0.000000  1
  In  In15  1  0.750000  0.000000  0.000000  1
