# generated using pymatgen
data_Hf5Zr5Zn2(SnBi)3
_symmetry_space_group_name_H-M   'P 1'
_cell_length_a   8.75129813
_cell_length_b   8.75129764
_cell_length_c   5.88382900
_cell_angle_alpha   90.00000000
_cell_angle_beta   90.00000000
_cell_angle_gamma   120.01960814
_symmetry_Int_Tables_number   1
_chemical_formula_structural   Hf5Zr5Zn2(SnBi)3
_chemical_formula_sum   'Hf5 Zr5 Zn2 Sn3 Bi3'
_cell_volume   390.16630829
_cell_formula_units_Z   1
loop_
 _symmetry_equiv_pos_site_id
 _symmetry_equiv_pos_as_xyz
  1  'x, y, z'
loop_
 _atom_site_type_symbol
 _atom_site_label
 _atom_site_symmetry_multiplicity
 _atom_site_fract_x
 _atom_site_fract_y
 _atom_site_fract_z
 _atom_site_occupancy
  Hf  Hf0  1  0.666291  0.333154  0.005521  1
  Hf  Hf1  1  0.333154  0.666291  0.005521  1
  Hf  Hf2  1  0.333154  0.666291  0.494479  1
  Hf  Hf3  1  0.666291  0.333154  0.494479  1
  Hf  Hf4  1  0.270348  0.270348  0.250000  1
  Zr  Zr5  1  0.735334  0.735334  0.750000  1
  Zr  Zr6  1  0.264622  0.000433  0.750000  1
  Zr  Zr7  1  0.000433  0.264622  0.750000  1
  Zr  Zr8  1  0.729470  0.999849  0.250000  1
  Zr  Zr9  1  0.999849  0.729470  0.250000  1
  Zn  Zn10  1  0.000600  0.000600  0.008089  1
  Zn  Zn11  1  0.000600  0.000600  0.491911  1
  Sn  Sn12  1  0.616083  0.616083  0.250000  1
  Sn  Sn13  1  0.383030  0.000615  0.250000  1
  Sn  Sn14  1  0.000615  0.383030  0.250000  1
  Bi  Bi15  1  0.388004  0.388004  0.750000  1
  Bi  Bi16  1  0.612128  0.999995  0.750000  1
  Bi  Bi17  1  0.999995  0.612128  0.750000  1
