# generated using pymatgen
data_TbCo3GeB
_symmetry_space_group_name_H-M   'P 1'
_cell_length_a   5.19598600
_cell_length_b   5.19703280
_cell_length_c   6.56692700
_cell_angle_alpha   90.00000000
_cell_angle_beta   90.00000000
_cell_angle_gamma   119.99334993
_symmetry_Int_Tables_number   1
_chemical_formula_structural   TbCo3GeB
_chemical_formula_sum   'Tb2 Co6 Ge2 B2'
_cell_volume   153.58377884
_cell_formula_units_Z   2
loop_
 _symmetry_equiv_pos_site_id
 _symmetry_equiv_pos_as_xyz
  1  'x, y, z'
loop_
 _atom_site_type_symbol
 _atom_site_label
 _atom_site_symmetry_multiplicity
 _atom_site_fract_x
 _atom_site_fract_y
 _atom_site_fract_z
 _atom_site_occupancy
  Tb  Tb0  1  0.999976  0.000000  0.000000  1
  Tb  Tb1  1  0.999989  0.000000  0.500000  1
  Co  Co2  1  0.499987  0.000000  0.291367  1
  Co  Co3  1  0.499986  0.500001  0.291330  1
  Co  Co4  1  0.999984  0.499999  0.291330  1
  Co  Co5  1  0.499987  0.000000  0.708633  1
  Co  Co6  1  0.499986  0.500001  0.708670  1
  Co  Co7  1  0.999984  0.499999  0.708670  1
  Ge  Ge8  1  0.333313  0.666670  0.000000  1
  Ge  Ge9  1  0.666643  0.333330  0.000000  1
  B  B10  1  0.333315  0.666663  0.500000  1
  B  B11  1  0.666651  0.333337  0.500000  1
