# generated using pymatgen
data_Pr3MgCd2Ga2Hg
_symmetry_space_group_name_H-M   'P 1'
_cell_length_a   7.61887998
_cell_length_b   7.61887997
_cell_length_c   4.56135500
_cell_angle_alpha   90.00000000
_cell_angle_beta   90.00000000
_cell_angle_gamma   120.36655720
_symmetry_Int_Tables_number   1
_chemical_formula_structural   Pr3MgCd2Ga2Hg
_chemical_formula_sum   'Pr3 Mg1 Cd2 Ga2 Hg1'
_cell_volume   228.44978182
_cell_formula_units_Z   1
loop_
 _symmetry_equiv_pos_site_id
 _symmetry_equiv_pos_as_xyz
  1  'x, y, z'
loop_
 _atom_site_type_symbol
 _atom_site_label
 _atom_site_symmetry_multiplicity
 _atom_site_fract_x
 _atom_site_fract_y
 _atom_site_fract_z
 _atom_site_occupancy
  Pr  Pr0  1  0.419283  0.419283  0.500000  1
  Pr  Pr1  1  0.576234  0.001409  0.500000  1
  Pr  Pr2  1  0.001409  0.576234  0.500000  1
  Mg  Mg3  1  0.756834  0.756834  0.000000  1
  Cd  Cd4  1  0.253545  0.998732  0.000000  1
  Cd  Cd5  1  0.998732  0.253545  0.000000  1
  Ga  Ga6  1  0.665839  0.337017  0.000000  1
  Ga  Ga7  1  0.337017  0.665839  0.000000  1
  Hg  Hg8  1  0.991107  0.991107  0.500000  1
