# generated using pymatgen
data_Ba3SrCa4(TaN3)4
_symmetry_space_group_name_H-M   'P 1'
_cell_length_a   6.34211651
_cell_length_b   6.55934512
_cell_length_c   12.92017929
_cell_angle_alpha   90.01234097
_cell_angle_beta   89.72727270
_cell_angle_gamma   124.77029390
_symmetry_Int_Tables_number   1
_chemical_formula_structural   Ba3SrCa4(TaN3)4
_chemical_formula_sum   'Ba3 Sr1 Ca4 Ta4 N12'
_cell_volume   441.50415669
_cell_formula_units_Z   1
loop_
 _symmetry_equiv_pos_site_id
 _symmetry_equiv_pos_as_xyz
  1  'x, y, z'
loop_
 _atom_site_type_symbol
 _atom_site_label
 _atom_site_symmetry_multiplicity
 _atom_site_fract_x
 _atom_site_fract_y
 _atom_site_fract_z
 _atom_site_occupancy
  Ba  Ba0  1  0.005677  0.425788  0.858044  1
  Ba  Ba1  1  0.513547  0.914677  0.632848  1
  Ba  Ba2  1  0.508414  0.082105  0.354804  1
  Sr  Sr3  1  0.662589  0.907529  0.069736  1
  Ca  Ca4  1  0.978715  0.612867  0.117145  1
  Ca  Ca5  1  0.197019  0.410914  0.440005  1
  Ca  Ca6  1  0.306745  0.083321  0.933300  1
  Ca  Ca7  1  0.821291  0.585343  0.562948  1
  Ta  Ta8  1  0.829204  0.778857  0.335468  1
  Ta  Ta9  1  0.293281  0.285115  0.168652  1
  Ta  Ta10  1  0.196314  0.211668  0.667700  1
  Ta  Ta11  1  0.691332  0.718614  0.833806  1
  N  N12  1  0.408006  0.375660  0.794886  1
  N  N13  1  0.624296  0.597743  0.209316  1
  N  N14  1  0.921691  0.864491  0.710221  1
  N  N15  1  0.084845  0.132188  0.296094  1
  N  N16  1  0.040406  0.378197  0.623864  1
  N  N17  1  0.545989  0.900237  0.870547  1
  N  N18  1  0.995033  0.628055  0.386530  1
  N  N19  1  0.368626  0.054497  0.116405  1
  N  N20  1  0.872895  0.715386  0.952583  1
  N  N21  1  0.626962  0.772799  0.447819  1
  N  N22  1  0.117077  0.347377  0.064978  1
  N  N23  1  0.390046  0.216572  0.552299  1
