# generated using pymatgen
data_CeCoSb2Pd
_symmetry_space_group_name_H-M   'P 1'
_cell_length_a   4.53126300
_cell_length_b   4.53126300
_cell_length_c   10.10734500
_cell_angle_alpha   90.00000000
_cell_angle_beta   90.00000000
_cell_angle_gamma   90.00000000
_symmetry_Int_Tables_number   1
_chemical_formula_structural   CeCoSb2Pd
_chemical_formula_sum   'Ce2 Co2 Sb4 Pd2'
_cell_volume   207.52748826
_cell_formula_units_Z   2
loop_
 _symmetry_equiv_pos_site_id
 _symmetry_equiv_pos_as_xyz
  1  'x, y, z'
loop_
 _atom_site_type_symbol
 _atom_site_label
 _atom_site_symmetry_multiplicity
 _atom_site_fract_x
 _atom_site_fract_y
 _atom_site_fract_z
 _atom_site_occupancy
  Ce  Ce0  1  0.000000  0.500000  0.254305  1
  Ce  Ce1  1  0.500000  0.000000  0.745695  1
  Co  Co2  1  0.000000  0.500000  0.610193  1
  Co  Co3  1  0.500000  0.000000  0.389807  1
  Sb  Sb4  1  0.000000  0.000000  0.500000  1
  Sb  Sb5  1  0.500000  0.500000  0.500000  1
  Sb  Sb6  1  0.000000  0.500000  0.852737  1
  Sb  Sb7  1  0.500000  0.000000  0.147263  1
  Pd  Pd8  1  0.000000  0.000000  0.000000  1
  Pd  Pd9  1  0.500000  0.500000  0.000000  1
