# generated using pymatgen
data_Pm4Te7Pt
_symmetry_space_group_name_H-M   'P 1'
_cell_length_a   4.26916001
_cell_length_b   8.81670346
_cell_length_c   9.33752902
_cell_angle_alpha   90.04727991
_cell_angle_beta   90.00053757
_cell_angle_gamma   90.00180052
_symmetry_Int_Tables_number   1
_chemical_formula_structural   Pm4Te7Pt
_chemical_formula_sum   'Pm4 Te7 Pt1'
_cell_volume   351.46370484
_cell_formula_units_Z   1
loop_
 _symmetry_equiv_pos_site_id
 _symmetry_equiv_pos_as_xyz
  1  'x, y, z'
loop_
 _atom_site_type_symbol
 _atom_site_label
 _atom_site_symmetry_multiplicity
 _atom_site_fract_x
 _atom_site_fract_y
 _atom_site_fract_z
 _atom_site_occupancy
  Pm  Pm0  1  0.249618  0.125610  0.212584  1
  Pm  Pm1  1  0.750137  0.377003  0.767935  1
  Pm  Pm2  1  0.750113  0.872639  0.767720  1
  Pm  Pm3  1  0.249765  0.625814  0.243520  1
  Te  Te4  1  0.250350  0.318720  0.499881  1
  Te  Te5  1  0.250234  0.929938  0.499444  1
  Te  Te6  1  0.750027  0.624560  0.501660  1
  Te  Te7  1  0.250020  0.125008  0.869427  1
  Te  Te8  1  0.749691  0.379039  0.126940  1
  Te  Te9  1  0.749711  0.872192  0.126946  1
  Te  Te10  1  0.250030  0.625110  0.876015  1
  Pt  Pt11  1  0.750302  0.124367  0.507928  1
