# generated using pymatgen
data_Tm8Lu12ZnBi11
_symmetry_space_group_name_H-M   'P 1'
_cell_length_a   8.08979680
_cell_length_b   9.34740000
_cell_length_c   11.83129925
_cell_angle_alpha   90.00000000
_cell_angle_beta   89.71055849
_cell_angle_gamma   90.00000000
_symmetry_Int_Tables_number   1
_chemical_formula_structural   Tm8Lu12ZnBi11
_chemical_formula_sum   'Tm8 Lu12 Zn1 Bi11'
_cell_volume   894.65447415
_cell_formula_units_Z   1
loop_
 _symmetry_equiv_pos_site_id
 _symmetry_equiv_pos_as_xyz
  1  'x, y, z'
loop_
 _atom_site_type_symbol
 _atom_site_label
 _atom_site_symmetry_multiplicity
 _atom_site_fract_x
 _atom_site_fract_y
 _atom_site_fract_z
 _atom_site_occupancy
  Tm  Tm0  1  0.356423  0.250000  0.294945  1
  Tm  Tm1  1  0.647727  0.750000  0.716644  1
  Tm  Tm2  1  0.149730  0.750000  0.782162  1
  Tm  Tm3  1  0.852724  0.250000  0.216210  1
  Tm  Tm4  1  0.191819  0.250000  0.778771  1
  Tm  Tm5  1  0.809722  0.750000  0.217201  1
  Tm  Tm6  1  0.312806  0.750000  0.281406  1
  Tm  Tm7  1  0.674652  0.250000  0.709927  1
  Lu  Lu8  1  0.036701  0.250000  0.508626  1
  Lu  Lu9  1  0.980828  0.750000  0.490229  1
  Lu  Lu10  1  0.476045  0.750000  0.010008  1
  Lu  Lu11  1  0.524909  0.250000  0.989608  1
  Lu  Lu12  1  0.193949  0.066941  0.061389  1
  Lu  Lu13  1  0.806150  0.933461  0.940409  1
  Lu  Lu14  1  0.309251  0.952196  0.558705  1
  Lu  Lu15  1  0.806150  0.566539  0.940409  1
  Lu  Lu16  1  0.683781  0.072896  0.445719  1
  Lu  Lu17  1  0.193949  0.433059  0.061389  1
  Lu  Lu18  1  0.683781  0.427104  0.445719  1
  Lu  Lu19  1  0.309251  0.547804  0.558705  1
  Zn  Zn20  1  0.407374  0.250000  0.539470  1
  Bi  Bi21  1  0.595015  0.750000  0.457222  1
  Bi  Bi22  1  0.095202  0.750000  0.042705  1
  Bi  Bi23  1  0.906054  0.250000  0.954621  1
  Bi  Bi24  1  0.062828  0.002600  0.324316  1
  Bi  Bi25  1  0.935217  0.997453  0.675235  1
  Bi  Bi26  1  0.435563  0.997068  0.825336  1
  Bi  Bi27  1  0.935217  0.502547  0.675235  1
  Bi  Bi28  1  0.564397  0.003940  0.174014  1
  Bi  Bi29  1  0.062828  0.497400  0.324316  1
  Bi  Bi30  1  0.564397  0.496060  0.174014  1
  Bi  Bi31  1  0.435563  0.502932  0.825336  1
