# generated using pymatgen
data_Nd3Bi(SeO5)2
_symmetry_space_group_name_H-M   'P 1'
_cell_length_a   8.80895027
_cell_length_b   8.80895096
_cell_length_c   11.18164738
_cell_angle_alpha   89.89107667
_cell_angle_beta   90.10892166
_cell_angle_gamma   142.48528185
_symmetry_Int_Tables_number   1
_chemical_formula_structural   Nd3Bi(SeO5)2
_chemical_formula_sum   'Nd6 Bi2 Se4 O20'
_cell_volume   528.37924062
_cell_formula_units_Z   2
loop_
 _symmetry_equiv_pos_site_id
 _symmetry_equiv_pos_as_xyz
  1  'x, y, z'
loop_
 _atom_site_type_symbol
 _atom_site_label
 _atom_site_symmetry_multiplicity
 _atom_site_fract_x
 _atom_site_fract_y
 _atom_site_fract_z
 _atom_site_occupancy
  Nd  Nd0  1  0.754629  0.255670  0.612084  1
  Nd  Nd1  1  0.255670  0.754629  0.387916  1
  Nd  Nd2  1  0.245010  0.755952  0.882157  1
  Nd  Nd3  1  0.755952  0.245010  0.117843  1
  Nd  Nd4  1  0.891627  0.069572  0.379823  1
  Nd  Nd5  1  0.069572  0.891627  0.620177  1
  Bi  Bi6  1  0.403918  0.569773  0.601966  1
  Bi  Bi7  1  0.569773  0.403918  0.398034  1
  Se  Se8  1  0.395142  0.575910  0.126741  1
  Se  Se9  1  0.575910  0.395142  0.873259  1
  Se  Se10  1  0.874120  0.065760  0.867723  1
  Se  Se11  1  0.065760  0.874120  0.132277  1
  O  O12  1  0.144272  0.443060  0.214132  1
  O  O13  1  0.443060  0.144272  0.785868  1
  O  O14  1  0.641232  0.981057  0.790188  1
  O  O15  1  0.981057  0.641232  0.209812  1
  O  O16  1  0.575911  0.900543  0.510015  1
  O  O17  1  0.900543  0.575911  0.489985  1
  O  O18  1  0.083762  0.412156  0.496411  1
  O  O19  1  0.412156  0.083762  0.503589  1
  O  O20  1  0.089161  0.644423  0.706803  1
  O  O21  1  0.644423  0.089161  0.293197  1
  O  O22  1  0.493673  0.819779  0.052885  1
  O  O23  1  0.819779  0.493673  0.947115  1
  O  O24  1  0.170430  0.070226  0.244902  1
  O  O25  1  0.070226  0.170430  0.755098  1
  O  O26  1  0.723266  0.616590  0.766438  1
  O  O27  1  0.616590  0.723266  0.233562  1
  O  O28  1  0.248265  0.248265  0.500000  1
  O  O29  1  0.734289  0.734289  0.500000  1
  O  O30  1  0.336039  0.019827  0.059569  1
  O  O31  1  0.019827  0.336039  0.940431  1
