# generated using pymatgen
data_Y9Ho(Ir2Ru)2
_symmetry_space_group_name_H-M   'P 1'
_cell_length_a   10.88557100
_cell_length_b   10.88557100
_cell_length_c   6.44871300
_cell_angle_alpha   90.00000000
_cell_angle_beta   90.00000000
_cell_angle_gamma   90.00000000
_symmetry_Int_Tables_number   1
_chemical_formula_structural   Y9Ho(Ir2Ru)2
_chemical_formula_sum   'Y18 Ho2 Ir8 Ru4'
_cell_volume   764.14447727
_cell_formula_units_Z   2
loop_
 _symmetry_equiv_pos_site_id
 _symmetry_equiv_pos_as_xyz
  1  'x, y, z'
loop_
 _atom_site_type_symbol
 _atom_site_label
 _atom_site_symmetry_multiplicity
 _atom_site_fract_x
 _atom_site_fract_y
 _atom_site_fract_z
 _atom_site_occupancy
  Y  Y0  1  0.293234  0.086657  0.378617  1
  Y  Y1  1  0.293234  0.913343  0.878617  1
  Y  Y2  1  0.706766  0.086657  0.878617  1
  Y  Y3  1  0.706766  0.913343  0.378617  1
  Y  Y4  1  0.586858  0.793696  0.878543  1
  Y  Y5  1  0.586858  0.206304  0.378543  1
  Y  Y6  1  0.413142  0.793696  0.378543  1
  Y  Y7  1  0.413142  0.206304  0.878543  1
  Y  Y8  1  0.206304  0.413142  0.621457  1
  Y  Y9  1  0.206304  0.586858  0.121457  1
  Y  Y10  1  0.793696  0.413142  0.121457  1
  Y  Y11  1  0.793696  0.586858  0.621457  1
  Y  Y12  1  0.913343  0.706766  0.121383  1
  Y  Y13  1  0.913343  0.293234  0.621383  1
  Y  Y14  1  0.086657  0.706766  0.621383  1
  Y  Y15  1  0.086657  0.293234  0.121383  1
  Y  Y16  1  0.500000  0.500000  0.000000  1
  Y  Y17  1  0.500000  0.500000  0.500000  1
  Ho  Ho18  1  0.000000  0.000000  0.500000  1
  Ho  Ho19  1  0.000000  0.000000  0.000000  1
  Ir  Ir20  1  0.849392  0.150608  0.250000  1
  Ir  Ir21  1  0.849392  0.849392  0.750000  1
  Ir  Ir22  1  0.150608  0.150608  0.750000  1
  Ir  Ir23  1  0.150608  0.849392  0.250000  1
  Ir  Ir24  1  0.652741  0.347259  0.750000  1
  Ir  Ir25  1  0.652741  0.652741  0.250000  1
  Ir  Ir26  1  0.347259  0.347259  0.250000  1
  Ir  Ir27  1  0.347259  0.652741  0.750000  1
  Ru  Ru28  1  0.500000  0.000000  0.123977  1
  Ru  Ru29  1  0.500000  0.000000  0.623977  1
  Ru  Ru30  1  0.000000  0.500000  0.876023  1
  Ru  Ru31  1  0.000000  0.500000  0.376023  1
