# generated using pymatgen
data_Tb10Tl2In6Ni3Rh
_symmetry_space_group_name_H-M   'P 1'
_cell_length_a   3.61541100
_cell_length_b   8.09174562
_cell_length_c   18.17586764
_cell_angle_alpha   89.71194036
_cell_angle_beta   90.00000000
_cell_angle_gamma   90.00000000
_symmetry_Int_Tables_number   1
_chemical_formula_structural   Tb10Tl2In6Ni3Rh
_chemical_formula_sum   'Tb10 Tl2 In6 Ni3 Rh1'
_cell_volume   531.72803542
_cell_formula_units_Z   1
loop_
 _symmetry_equiv_pos_site_id
 _symmetry_equiv_pos_as_xyz
  1  'x, y, z'
loop_
 _atom_site_type_symbol
 _atom_site_label
 _atom_site_symmetry_multiplicity
 _atom_site_fract_x
 _atom_site_fract_y
 _atom_site_fract_z
 _atom_site_occupancy
  Tb  Tb0  1  0.000000  0.500580  0.501181  1
  Tb  Tb1  1  0.000000  0.999585  0.998700  1
  Tb  Tb2  1  0.000000  0.743899  0.281892  1
  Tb  Tb3  1  0.000000  0.256697  0.718583  1
  Tb  Tb4  1  0.000000  0.756806  0.777593  1
  Tb  Tb5  1  0.000000  0.248318  0.222601  1
  Tb  Tb6  1  0.000000  0.615620  0.088119  1
  Tb  Tb7  1  0.000000  0.382692  0.908624  1
  Tb  Tb8  1  0.000000  0.884074  0.588440  1
  Tb  Tb9  1  0.000000  0.115330  0.412332  1
  Tl  Tl10  1  0.500000  0.705838  0.930316  1
  Tl  Tl11  1  0.500000  0.290004  0.067579  1
  In  In12  1  0.500000  0.794612  0.433740  1
  In  In13  1  0.500000  0.203741  0.567598  1
  In  In14  1  0.500000  0.574913  0.651972  1
  In  In15  1  0.500000  0.426201  0.351659  1
  In  In16  1  0.500000  0.923460  0.153698  1
  In  In17  1  0.500000  0.077039  0.845483  1
  Ni  Ni18  1  0.500000  0.472790  0.801100  1
  Ni  Ni19  1  0.500000  0.976811  0.695753  1
  Ni  Ni20  1  0.500000  0.023100  0.305177  1
  Rh  Rh21  1  0.500000  0.527895  0.197857  1
