# generated using pymatgen
data_La3Dy5(Tm3Pt4)4
_symmetry_space_group_name_H-M   'P 1'
_cell_length_a   7.51530208
_cell_length_b   7.58757608
_cell_length_c   14.75479800
_cell_angle_alpha   89.97142602
_cell_angle_beta   90.00819567
_cell_angle_gamma   90.19981090
_symmetry_Int_Tables_number   1
_chemical_formula_structural   La3Dy5(Tm3Pt4)4
_chemical_formula_sum   'La3 Dy5 Tm12 Pt16'
_cell_volume   841.35652936
_cell_formula_units_Z   1
loop_
 _symmetry_equiv_pos_site_id
 _symmetry_equiv_pos_as_xyz
  1  'x, y, z'
loop_
 _atom_site_type_symbol
 _atom_site_label
 _atom_site_symmetry_multiplicity
 _atom_site_fract_x
 _atom_site_fract_y
 _atom_site_fract_z
 _atom_site_occupancy
  La  La0  1  0.493092  0.676083  0.591862  1
  La  La1  1  0.993658  0.824303  0.908363  1
  La  La2  1  0.506239  0.323982  0.093303  1
  Dy  Dy3  1  0.006110  0.175966  0.406156  1
  Dy  Dy4  1  0.506130  0.320348  0.402517  1
  Dy  Dy5  1  0.005551  0.177519  0.099513  1
  Dy  Dy6  1  0.494169  0.676352  0.900837  1
  Dy  Dy7  1  0.993502  0.829064  0.596400  1
  Tm  Tm8  1  0.648686  0.169544  0.620078  1
  Tm  Tm9  1  0.147810  0.330274  0.878896  1
  Tm  Tm10  1  0.351982  0.830171  0.121967  1
  Tm  Tm11  1  0.853241  0.669441  0.379561  1
  Tm  Tm12  1  0.345134  0.835616  0.376951  1
  Tm  Tm13  1  0.848903  0.665964  0.126053  1
  Tm  Tm14  1  0.651408  0.166434  0.875917  1
  Tm  Tm15  1  0.148405  0.332410  0.622130  1
  Tm  Tm16  1  0.812754  0.508881  0.748967  1
  Tm  Tm17  1  0.312987  0.992461  0.749109  1
  Tm  Tm18  1  0.187231  0.490758  0.252075  1
  Tm  Tm19  1  0.688083  0.007446  0.252184  1
  Pt  Pt20  1  0.687821  0.971408  0.455805  1
  Pt  Pt21  1  0.177215  0.531534  0.044085  1
  Pt  Pt22  1  0.322034  0.032184  0.956772  1
  Pt  Pt23  1  0.821845  0.464741  0.541445  1
  Pt  Pt24  1  0.309488  0.039586  0.539047  1
  Pt  Pt25  1  0.809739  0.467365  0.956588  1
  Pt  Pt26  1  0.689907  0.965599  0.044116  1
  Pt  Pt27  1  0.187586  0.525338  0.453537  1
  Pt  Pt28  1  0.445146  0.375881  0.751379  1
  Pt  Pt29  1  0.946016  0.123293  0.747490  1
  Pt  Pt30  1  0.554916  0.622594  0.253599  1
  Pt  Pt31  1  0.053194  0.879941  0.249794  1
  Pt  Pt32  1  0.676808  0.861372  0.748511  1
  Pt  Pt33  1  0.176553  0.639082  0.749521  1
  Pt  Pt34  1  0.320780  0.138589  0.251663  1
  Pt  Pt35  1  0.825873  0.358476  0.253808  1
