# generated using pymatgen
data_YbU2Cu3Sb4
_symmetry_space_group_name_H-M   'P 1'
_cell_length_a   8.30789070
_cell_length_b   8.30789110
_cell_length_c   8.30789108
_cell_angle_alpha   109.60044117
_cell_angle_beta   109.21308109
_cell_angle_gamma   109.60045109
_symmetry_Int_Tables_number   1
_chemical_formula_structural   YbU2Cu3Sb4
_chemical_formula_sum   'Yb2 U4 Cu6 Sb8'
_cell_volume   441.41170556
_cell_formula_units_Z   2
loop_
 _symmetry_equiv_pos_site_id
 _symmetry_equiv_pos_as_xyz
  1  'x, y, z'
loop_
 _atom_site_type_symbol
 _atom_site_label
 _atom_site_symmetry_multiplicity
 _atom_site_fract_x
 _atom_site_fract_y
 _atom_site_fract_z
 _atom_site_occupancy
  Yb  Yb0  1  0.875000  0.250000  0.125000  1
  Yb  Yb1  1  0.625000  0.750000  0.375000  1
  U  U2  1  0.250000  0.129291  0.879291  1
  U  U3  1  0.750000  0.370709  0.620709  1
  U  U4  1  0.120709  0.870709  0.250000  1
  U  U5  1  0.379291  0.629291  0.750000  1
  Cu  Cu6  1  0.375000  0.250000  0.625000  1
  Cu  Cu7  1  0.125000  0.750000  0.875000  1
  Cu  Cu8  1  0.250000  0.618095  0.368095  1
  Cu  Cu9  1  0.750000  0.881905  0.131905  1
  Cu  Cu10  1  0.631905  0.381905  0.250000  1
  Cu  Cu11  1  0.868095  0.118095  0.750000  1
  Sb  Sb12  1  0.662376  0.503268  0.998795  1
  Sb  Sb13  1  0.495527  0.996732  0.659108  1
  Sb  Sb14  1  0.004473  0.663581  0.501205  1
  Sb  Sb15  1  0.837624  0.836419  0.840892  1
  Sb  Sb16  1  0.498795  0.003268  0.162376  1
  Sb  Sb17  1  0.159108  0.496732  0.995527  1
  Sb  Sb18  1  0.001205  0.163581  0.504473  1
  Sb  Sb19  1  0.340892  0.336419  0.337624  1
