# generated using pymatgen
data_Y2Be23Cu3
_symmetry_space_group_name_H-M   'P 1'
_cell_length_a   7.28440200
_cell_length_b   7.28440296
_cell_length_c   7.34017755
_cell_angle_alpha   119.74896367
_cell_angle_beta   90.00000000
_cell_angle_gamma   120.00000471
_symmetry_Int_Tables_number   1
_chemical_formula_structural   Y2Be23Cu3
_chemical_formula_sum   'Y2 Be23 Cu3'
_cell_volume   276.45020555
_cell_formula_units_Z   1
loop_
 _symmetry_equiv_pos_site_id
 _symmetry_equiv_pos_as_xyz
  1  'x, y, z'
loop_
 _atom_site_type_symbol
 _atom_site_label
 _atom_site_symmetry_multiplicity
 _atom_site_fract_x
 _atom_site_fract_y
 _atom_site_fract_z
 _atom_site_occupancy
  Y  Y0  1  0.752374  0.504750  0.257126  1
  Y  Y1  1  0.248975  0.497950  0.746924  1
  Be  Be2  1  0.999618  0.999236  0.998854  1
  Be  Be3  1  0.434547  0.003961  0.220738  1
  Be  Be4  1  0.216778  0.651326  0.220738  1
  Be  Be5  1  0.569415  0.786192  0.220738  1
  Be  Be6  1  0.936936  0.005249  0.296610  1
  Be  Be7  1  0.291360  0.228298  0.296610  1
  Be  Be8  1  0.068313  0.359672  0.296610  1
  Be  Be9  1  0.787889  0.224929  0.437135  1
  Be  Be10  1  0.212205  0.000094  0.437135  1
  Be  Be11  1  0.437041  0.649248  0.437135  1
  Be  Be12  1  0.500544  0.001088  0.501632  1
  Be  Be13  1  0.788599  0.000587  0.565657  1
  Be  Be14  1  0.565071  0.353668  0.565658  1
  Be  Be15  1  0.211988  0.777059  0.565658  1
  Be  Be16  1  0.934810  0.642239  0.702912  1
  Be  Be17  1  0.060675  0.995484  0.702912  1
  Be  Be18  1  0.707428  0.768103  0.702912  1
  Be  Be19  1  0.563770  0.996957  0.780615  1
  Be  Be20  1  0.783658  0.347428  0.780615  1
  Be  Be21  1  0.433187  0.216845  0.780616  1
  Be  Be22  1  0.297200  0.995349  0.934929  1
  Be  Be23  1  0.939581  0.236781  0.934929  1
  Be  Be24  1  0.698149  0.637732  0.934930  1
  Cu  Cu25  1  0.303121  0.358784  0.059892  1
  Cu  Cu26  1  0.701108  0.004228  0.059892  1
  Cu  Cu27  1  0.055664  0.756772  0.059892  1
