# generated using pymatgen
data_Ba4Ca2Sm2Fe4O15
_symmetry_space_group_name_H-M   'P 1'
_cell_length_a   6.91533002
_cell_length_b   11.67529526
_cell_length_c   11.67507292
_cell_angle_alpha   120.03126642
_cell_angle_beta   90.11078698
_cell_angle_gamma   90.08473826
_symmetry_Int_Tables_number   1
_chemical_formula_structural   Ba4Ca2Sm2Fe4O15
_chemical_formula_sum   'Ba8 Ca4 Sm4 Fe8 O30'
_cell_volume   816.07778393
_cell_formula_units_Z   2
loop_
 _symmetry_equiv_pos_site_id
 _symmetry_equiv_pos_as_xyz
  1  'x, y, z'
loop_
 _atom_site_type_symbol
 _atom_site_label
 _atom_site_symmetry_multiplicity
 _atom_site_fract_x
 _atom_site_fract_y
 _atom_site_fract_z
 _atom_site_occupancy
  Ba  Ba0  1  0.667852  0.830270  0.172377  1
  Ba  Ba1  1  0.672230  0.833554  0.659263  1
  Ba  Ba2  1  0.664618  0.338635  0.167108  1
  Ba  Ba3  1  0.169293  0.172710  0.830425  1
  Ba  Ba4  1  0.165398  0.167108  0.338512  1
  Ba  Ba5  1  0.172829  0.659209  0.833547  1
  Ba  Ba6  1  0.987354  0.668129  0.332118  1
  Ba  Ba7  1  0.487999  0.331895  0.667973  1
  Ca  Ca8  1  0.476334  0.998875  0.999746  1
  Ca  Ca9  1  0.976277  0.999642  0.998810  1
  Ca  Ca10  1  0.342501  0.520229  0.041253  1
  Ca  Ca11  1  0.842017  0.041498  0.520419  1
  Sm  Sm12  1  0.336283  0.522117  0.477718  1
  Sm  Sm13  1  0.335449  0.957006  0.478563  1
  Sm  Sm14  1  0.836070  0.477794  0.521946  1
  Sm  Sm15  1  0.835174  0.478439  0.956830  1
  Fe  Fe16  1  0.527194  0.665587  0.330936  1
  Fe  Fe17  1  0.028290  0.331153  0.665555  1
  Fe  Fe18  1  0.162554  0.823066  0.174491  1
  Fe  Fe19  1  0.164705  0.825356  0.651440  1
  Fe  Fe20  1  0.160027  0.350571  0.174657  1
  Fe  Fe21  1  0.663742  0.174243  0.823113  1
  Fe  Fe22  1  0.660961  0.174604  0.350508  1
  Fe  Fe23  1  0.665460  0.651178  0.825011  1
  O  O24  1  0.337508  0.751562  0.250886  1
  O  O25  1  0.342424  0.749903  0.505551  1
  O  O26  1  0.338260  0.496098  0.252610  1
  O  O27  1  0.838664  0.250692  0.751666  1
  O  O28  1  0.839460  0.252574  0.495942  1
  O  O29  1  0.843085  0.505213  0.749385  1
  O  O30  1  0.668857  0.580601  0.418933  1
  O  O31  1  0.674851  0.582222  0.165902  1
  O  O32  1  0.663078  0.836939  0.419041  1
  O  O33  1  0.170231  0.419198  0.580726  1
  O  O34  1  0.163789  0.419336  0.837085  1
  O  O35  1  0.176573  0.166399  0.582570  1
  O  O36  1  0.750717  0.085100  0.909914  1
  O  O37  1  0.751070  0.088185  0.175551  1
  O  O38  1  0.750205  0.826901  0.910920  1
  O  O39  1  0.252128  0.909391  0.085492  1
  O  O40  1  0.249428  0.910973  0.827288  1
  O  O41  1  0.250418  0.175611  0.088536  1
  O  O42  1  0.512813  0.062361  0.672593  1
  O  O43  1  0.526497  0.333498  0.394612  1
  O  O44  1  0.534412  0.604183  0.936533  1
  O  O45  1  0.513988  0.063385  0.390980  1
  O  O46  1  0.531625  0.331741  0.937903  1
  O  O47  1  0.528964  0.605030  0.665968  1
  O  O48  1  0.031489  0.938259  0.332238  1
  O  O49  1  0.028307  0.666151  0.604637  1
  O  O50  1  0.013026  0.390731  0.063216  1
  O  O51  1  0.034057  0.937363  0.604909  1
  O  O52  1  0.011580  0.672655  0.062508  1
  O  O53  1  0.025883  0.394874  0.333589  1
