# generated using pymatgen
data_Gd4HoNi2
_symmetry_space_group_name_H-M   'P 1'
_cell_length_a   8.89859905
_cell_length_b   8.89859997
_cell_length_c   6.82272400
_cell_angle_alpha   85.77295772
_cell_angle_beta   85.77295083
_cell_angle_gamma   42.28648403
_symmetry_Int_Tables_number   1
_chemical_formula_structural   Gd4HoNi2
_chemical_formula_sum   'Gd8 Ho2 Ni4'
_cell_volume   362.36912045
_cell_formula_units_Z   2
loop_
 _symmetry_equiv_pos_site_id
 _symmetry_equiv_pos_as_xyz
  1  'x, y, z'
loop_
 _atom_site_type_symbol
 _atom_site_label
 _atom_site_symmetry_multiplicity
 _atom_site_fract_x
 _atom_site_fract_y
 _atom_site_fract_z
 _atom_site_occupancy
  Gd  Gd0  1  0.010630  0.800517  0.923067  1
  Gd  Gd1  1  0.199483  0.989370  0.576933  1
  Gd  Gd2  1  0.989370  0.199483  0.076933  1
  Gd  Gd3  1  0.800517  0.010630  0.423067  1
  Gd  Gd4  1  0.352323  0.219162  0.811762  1
  Gd  Gd5  1  0.780838  0.647677  0.688238  1
  Gd  Gd6  1  0.647677  0.780838  0.188238  1
  Gd  Gd7  1  0.219162  0.352323  0.311762  1
  Ho  Ho8  1  0.566653  0.433347  0.750000  1
  Ho  Ho9  1  0.433347  0.566653  0.250000  1
  Ni  Ni10  1  0.195800  0.589075  0.569329  1
  Ni  Ni11  1  0.410925  0.804200  0.930671  1
  Ni  Ni12  1  0.804200  0.410925  0.430671  1
  Ni  Ni13  1  0.589075  0.195800  0.069329  1
