# generated using pymatgen
data_Tb6Er4Si5Pb
_symmetry_space_group_name_H-M   'P 1'
_cell_length_a   8.53893500
_cell_length_b   8.56411843
_cell_length_c   6.39085300
_cell_angle_alpha   90.00000000
_cell_angle_beta   90.00000000
_cell_angle_gamma   119.90277030
_symmetry_Int_Tables_number   1
_chemical_formula_structural   Tb6Er4Si5Pb
_chemical_formula_sum   'Tb6 Er4 Si5 Pb1'
_cell_volume   405.13568576
_cell_formula_units_Z   1
loop_
 _symmetry_equiv_pos_site_id
 _symmetry_equiv_pos_as_xyz
  1  'x, y, z'
loop_
 _atom_site_type_symbol
 _atom_site_label
 _atom_site_symmetry_multiplicity
 _atom_site_fract_x
 _atom_site_fract_y
 _atom_site_fract_z
 _atom_site_occupancy
  Tb  Tb0  1  0.987573  0.746485  0.750000  1
  Tb  Tb1  1  0.999016  0.243944  0.250000  1
  Tb  Tb2  1  0.755072  0.756056  0.250000  1
  Tb  Tb3  1  0.765798  0.000000  0.750000  1
  Tb  Tb4  1  0.241088  0.253515  0.750000  1
  Tb  Tb5  1  0.241208  0.000000  0.250000  1
  Er  Er6  1  0.331441  0.657076  0.496012  1
  Er  Er7  1  0.674366  0.342924  0.003988  1
  Er  Er8  1  0.674366  0.342924  0.496012  1
  Er  Er9  1  0.331441  0.657076  0.003988  1
  Si  Si10  1  0.394798  0.393675  0.250000  1
  Si  Si11  1  0.001123  0.606325  0.250000  1
  Si  Si12  1  0.998777  0.395386  0.750000  1
  Si  Si13  1  0.603391  0.604614  0.750000  1
  Si  Si14  1  0.605226  0.000000  0.250000  1
  Pb  Pb15  1  0.395318  0.000000  0.750000  1
