# generated using pymatgen
data_TbUB6Ru
_symmetry_space_group_name_H-M   'P 1'
_cell_length_a   3.59768400
_cell_length_b   9.35383700
_cell_length_c   11.44972700
_cell_angle_alpha   90.00000000
_cell_angle_beta   90.00000000
_cell_angle_gamma   90.00000000
_symmetry_Int_Tables_number   1
_chemical_formula_structural   TbUB6Ru
_chemical_formula_sum   'Tb4 U4 B24 Ru4'
_cell_volume   385.30792718
_cell_formula_units_Z   4
loop_
 _symmetry_equiv_pos_site_id
 _symmetry_equiv_pos_as_xyz
  1  'x, y, z'
loop_
 _atom_site_type_symbol
 _atom_site_label
 _atom_site_symmetry_multiplicity
 _atom_site_fract_x
 _atom_site_fract_y
 _atom_site_fract_z
 _atom_site_occupancy
  Tb  Tb0  1  0.000000  0.336763  0.407209  1
  Tb  Tb1  1  0.000000  0.663237  0.592791  1
  Tb  Tb2  1  0.000000  0.836763  0.092791  1
  Tb  Tb3  1  0.000000  0.163237  0.907209  1
  U  U4  1  0.000000  0.957418  0.398268  1
  U  U5  1  0.000000  0.042582  0.601732  1
  U  U6  1  0.000000  0.457418  0.101732  1
  U  U7  1  0.000000  0.542582  0.898268  1
  B  B8  1  0.500000  0.552121  0.430880  1
  B  B9  1  0.500000  0.447879  0.569120  1
  B  B10  1  0.500000  0.052121  0.069120  1
  B  B11  1  0.500000  0.947879  0.930880  1
  B  B12  1  0.500000  0.742750  0.423081  1
  B  B13  1  0.500000  0.257250  0.576919  1
  B  B14  1  0.500000  0.242750  0.076919  1
  B  B15  1  0.500000  0.757250  0.923081  1
  B  B16  1  0.500000  0.802091  0.274793  1
  B  B17  1  0.500000  0.197909  0.725207  1
  B  B18  1  0.500000  0.302091  0.225207  1
  B  B19  1  0.500000  0.697909  0.774793  1
  B  B20  1  0.500000  0.644297  0.189020  1
  B  B21  1  0.500000  0.355703  0.810980  1
  B  B22  1  0.500000  0.144297  0.310980  1
  B  B23  1  0.500000  0.855703  0.689020  1
  B  B24  1  0.500000  0.988976  0.219348  1
  B  B25  1  0.500000  0.011024  0.780652  1
  B  B26  1  0.500000  0.488976  0.280652  1
  B  B27  1  0.500000  0.511024  0.719348  1
  B  B28  1  0.500000  0.642298  0.039499  1
  B  B29  1  0.500000  0.357702  0.960501  1
  B  B30  1  0.500000  0.142298  0.460501  1
  B  B31  1  0.500000  0.857702  0.539499  1
  Ru  Ru32  1  0.000000  0.645293  0.319552  1
  Ru  Ru33  1  0.000000  0.354707  0.680448  1
  Ru  Ru34  1  0.000000  0.145293  0.180448  1
  Ru  Ru35  1  0.000000  0.854707  0.819552  1
