# generated using pymatgen
data_Hf7Pt20Rh
_symmetry_space_group_name_H-M   'P 1'
_cell_length_a   5.69394400
_cell_length_b   5.69960924
_cell_length_c   16.29739903
_cell_angle_alpha   90.10153540
_cell_angle_beta   90.00000000
_cell_angle_gamma   119.96712516
_symmetry_Int_Tables_number   1
_chemical_formula_structural   Hf7Pt20Rh
_chemical_formula_sum   'Hf7 Pt20 Rh1'
_cell_volume   458.19470779
_cell_formula_units_Z   1
loop_
 _symmetry_equiv_pos_site_id
 _symmetry_equiv_pos_as_xyz
  1  'x, y, z'
loop_
 _atom_site_type_symbol
 _atom_site_label
 _atom_site_symmetry_multiplicity
 _atom_site_fract_x
 _atom_site_fract_y
 _atom_site_fract_z
 _atom_site_occupancy
  Hf  Hf0  1  0.998054  0.996109  0.715798  1
  Hf  Hf1  1  0.666621  0.333241  0.855528  1
  Hf  Hf2  1  0.333694  0.667391  0.144404  1
  Hf  Hf3  1  0.999892  0.999785  0.282584  1
  Hf  Hf4  1  0.669649  0.339297  0.433034  1
  Hf  Hf5  1  0.000159  0.000318  0.999566  1
  Hf  Hf6  1  0.333123  0.666247  0.570172  1
  Pt  Pt7  1  0.331682  0.165300  0.571619  1
  Pt  Pt8  1  0.168902  0.337805  0.857041  1
  Pt  Pt9  1  0.166524  0.333046  0.428662  1
  Pt  Pt10  1  0.166591  0.834818  0.428752  1
  Pt  Pt11  1  0.499970  0.999939  0.713342  1
  Pt  Pt12  1  0.668226  0.834818  0.428752  1
  Pt  Pt13  1  0.169328  0.829894  0.856959  1
  Pt  Pt14  1  0.660564  0.829894  0.856959  1
  Pt  Pt15  1  0.830843  0.169936  0.142727  1
  Pt  Pt16  1  0.833618  0.165300  0.571619  1
  Pt  Pt17  1  0.501139  0.499259  0.713166  1
  Pt  Pt18  1  0.339093  0.169936  0.142727  1
  Pt  Pt19  1  0.830609  0.661219  0.142926  1
  Pt  Pt20  1  0.499474  0.500395  0.286748  1
  Pt  Pt21  1  0.500126  0.000253  0.286342  1
  Pt  Pt22  1  0.500047  0.000096  0.999900  1
  Pt  Pt23  1  0.000920  0.500395  0.286748  1
  Pt  Pt24  1  0.998121  0.499259  0.713166  1
  Pt  Pt25  1  0.500042  0.500222  0.999916  1
  Pt  Pt26  1  0.000180  0.500222  0.999916  1
  Rh  Rh27  1  0.832805  0.665610  0.570923  1
