# generated using pymatgen
data_Sc2Ga10Tc3
_symmetry_space_group_name_H-M   'P 1'
_cell_length_a   9.06978600
_cell_length_b   9.06978600
_cell_length_c   6.03871900
_cell_angle_alpha   90.00000000
_cell_angle_beta   90.00000000
_cell_angle_gamma   90.00000000
_symmetry_Int_Tables_number   1
_chemical_formula_structural   Sc2Ga10Tc3
_chemical_formula_sum   'Sc4 Ga20 Tc6'
_cell_volume   496.75117287
_cell_formula_units_Z   2
loop_
 _symmetry_equiv_pos_site_id
 _symmetry_equiv_pos_as_xyz
  1  'x, y, z'
loop_
 _atom_site_type_symbol
 _atom_site_label
 _atom_site_symmetry_multiplicity
 _atom_site_fract_x
 _atom_site_fract_y
 _atom_site_fract_z
 _atom_site_occupancy
  Sc  Sc0  1  0.182531  0.682531  0.000000  1
  Sc  Sc1  1  0.817469  0.317469  0.000000  1
  Sc  Sc2  1  0.682531  0.817469  0.000000  1
  Sc  Sc3  1  0.317469  0.182531  0.000000  1
  Ga  Ga4  1  0.061243  0.207554  0.716957  1
  Ga  Ga5  1  0.938757  0.792446  0.716957  1
  Ga  Ga6  1  0.561243  0.292446  0.716957  1
  Ga  Ga7  1  0.438757  0.707554  0.716957  1
  Ga  Ga8  1  0.792446  0.061243  0.716957  1
  Ga  Ga9  1  0.207554  0.938757  0.716957  1
  Ga  Ga10  1  0.707554  0.561243  0.716957  1
  Ga  Ga11  1  0.292446  0.438757  0.716957  1
  Ga  Ga12  1  0.938757  0.792446  0.283043  1
  Ga  Ga13  1  0.061243  0.207554  0.283043  1
  Ga  Ga14  1  0.438757  0.707554  0.283043  1
  Ga  Ga15  1  0.561243  0.292446  0.283043  1
  Ga  Ga16  1  0.207554  0.938757  0.283043  1
  Ga  Ga17  1  0.792446  0.061243  0.283043  1
  Ga  Ga18  1  0.292446  0.438757  0.283043  1
  Ga  Ga19  1  0.707554  0.561243  0.283043  1
  Ga  Ga20  1  0.000000  0.500000  0.729334  1
  Ga  Ga21  1  0.500000  0.000000  0.729334  1
  Ga  Ga22  1  0.000000  0.500000  0.270666  1
  Ga  Ga23  1  0.500000  0.000000  0.270666  1
  Tc  Tc24  1  0.177536  0.677536  0.500000  1
  Tc  Tc25  1  0.822464  0.322464  0.500000  1
  Tc  Tc26  1  0.677536  0.822464  0.500000  1
  Tc  Tc27  1  0.322464  0.177536  0.500000  1
  Tc  Tc28  1  0.000000  0.000000  0.000000  1
  Tc  Tc29  1  0.500000  0.500000  0.000000  1
