# generated using pymatgen
data_Nd2Al20ReRh3
_symmetry_space_group_name_H-M   'P 1'
_cell_length_a   6.90348615
_cell_length_b   6.89892734
_cell_length_c   9.23957835
_cell_angle_alpha   90.28912426
_cell_angle_beta   90.38611268
_cell_angle_gamma   97.17931671
_symmetry_Int_Tables_number   1
_chemical_formula_structural   Nd2Al20ReRh3
_chemical_formula_sum   'Nd2 Al20 Re1 Rh3'
_cell_volume   436.58250982
_cell_formula_units_Z   1
loop_
 _symmetry_equiv_pos_site_id
 _symmetry_equiv_pos_as_xyz
  1  'x, y, z'
loop_
 _atom_site_type_symbol
 _atom_site_label
 _atom_site_symmetry_multiplicity
 _atom_site_fract_x
 _atom_site_fract_y
 _atom_site_fract_z
 _atom_site_occupancy
  Nd  Nd0  1  0.868386  0.122556  0.749268  1
  Nd  Nd1  1  0.131614  0.877444  0.250732  1
  Al  Al2  1  0.620075  0.376765  0.547921  1
  Al  Al3  1  0.379925  0.623235  0.452079  1
  Al  Al4  1  0.378915  0.621562  0.050375  1
  Al  Al5  1  0.621085  0.378438  0.949625  1
  Al  Al6  1  0.223270  0.223792  0.499597  1
  Al  Al7  1  0.776730  0.776208  0.500403  1
  Al  Al8  1  0.774169  0.774294  0.998941  1
  Al  Al9  1  0.225831  0.225706  0.001059  1
  Al  Al10  1  0.841559  0.160047  0.104111  1
  Al  Al11  1  0.158441  0.839953  0.895889  1
  Al  Al12  1  0.158216  0.841914  0.602150  1
  Al  Al13  1  0.841784  0.158086  0.397850  1
  Al  Al14  1  0.857170  0.590020  0.749546  1
  Al  Al15  1  0.142830  0.409980  0.250454  1
  Al  Al16  1  0.408320  0.142348  0.750015  1
  Al  Al17  1  0.591680  0.857652  0.249985  1
  Al  Al18  1  0.222914  0.481789  0.750705  1
  Al  Al19  1  0.777086  0.518211  0.249295  1
  Al  Al20  1  0.516955  0.776669  0.745428  1
  Al  Al21  1  0.483045  0.223331  0.254572  1
  Re  Re22  1  0.500000  0.000000  0.500000  1
  Rh  Rh23  1  0.000000  0.500000  0.500000  1
  Rh  Rh24  1  0.000000  0.500000  0.000000  1
  Rh  Rh25  1  0.500000  0.000000  0.000000  1
