# generated using pymatgen
data_LiY2(TmSn2)2
_symmetry_space_group_name_H-M   'P 1'
_cell_length_a   7.54402100
_cell_length_b   8.16682100
_cell_length_c   15.43076400
_cell_angle_alpha   90.00000000
_cell_angle_beta   90.00000000
_cell_angle_gamma   90.00000000
_symmetry_Int_Tables_number   1
_chemical_formula_structural   LiY2(TmSn2)2
_chemical_formula_sum   'Li4 Y8 Tm8 Sn16'
_cell_volume   950.69969518
_cell_formula_units_Z   4
loop_
 _symmetry_equiv_pos_site_id
 _symmetry_equiv_pos_as_xyz
  1  'x, y, z'
loop_
 _atom_site_type_symbol
 _atom_site_label
 _atom_site_symmetry_multiplicity
 _atom_site_fract_x
 _atom_site_fract_y
 _atom_site_fract_z
 _atom_site_occupancy
  Li  Li0  1  0.170013  0.486028  0.750000  1
  Li  Li1  1  0.670013  0.013972  0.750000  1
  Li  Li2  1  0.829987  0.513972  0.250000  1
  Li  Li3  1  0.329987  0.986028  0.250000  1
  Y  Y4  1  0.502568  0.315621  0.907247  1
  Y  Y5  1  0.002568  0.184379  0.592753  1
  Y  Y6  1  0.497432  0.684379  0.407247  1
  Y  Y7  1  0.997432  0.815621  0.092753  1
  Y  Y8  1  0.497432  0.684379  0.092753  1
  Y  Y9  1  0.997432  0.815621  0.407247  1
  Y  Y10  1  0.502568  0.315621  0.592753  1
  Y  Y11  1  0.002568  0.184379  0.907247  1
  Tm  Tm12  1  0.338609  0.830977  0.871386  1
  Tm  Tm13  1  0.838609  0.669023  0.628614  1
  Tm  Tm14  1  0.661391  0.169023  0.371386  1
  Tm  Tm15  1  0.161391  0.330977  0.128614  1
  Tm  Tm16  1  0.661391  0.169023  0.128614  1
  Tm  Tm17  1  0.161391  0.330977  0.371386  1
  Tm  Tm18  1  0.338609  0.830977  0.628614  1
  Tm  Tm19  1  0.838609  0.669023  0.871386  1
  Sn  Sn20  1  0.318512  0.039158  0.038587  1
  Sn  Sn21  1  0.818512  0.460842  0.461413  1
  Sn  Sn22  1  0.681488  0.960842  0.538587  1
  Sn  Sn23  1  0.181488  0.539158  0.961413  1
  Sn  Sn24  1  0.681488  0.960842  0.961413  1
  Sn  Sn25  1  0.181488  0.539158  0.538587  1
  Sn  Sn26  1  0.318512  0.039158  0.461413  1
  Sn  Sn27  1  0.818512  0.460842  0.038587  1
  Sn  Sn28  1  0.523652  0.593262  0.750000  1
  Sn  Sn29  1  0.023652  0.906738  0.750000  1
  Sn  Sn30  1  0.476348  0.406738  0.250000  1
  Sn  Sn31  1  0.976348  0.093262  0.250000  1
  Sn  Sn32  1  0.309190  0.147286  0.750000  1
  Sn  Sn33  1  0.809190  0.352714  0.750000  1
  Sn  Sn34  1  0.690810  0.852714  0.250000  1
  Sn  Sn35  1  0.190810  0.647286  0.250000  1
