# generated using pymatgen
data_Y2Fe10Co2P7
_symmetry_space_group_name_H-M   'P 1'
_cell_length_a   3.64197300
_cell_length_b   8.97537980
_cell_length_c   8.94975380
_cell_angle_alpha   120.03975399
_cell_angle_beta   90.00000000
_cell_angle_gamma   90.00000000
_symmetry_Int_Tables_number   1
_chemical_formula_structural   Y2Fe10Co2P7
_chemical_formula_sum   'Y2 Fe10 Co2 P7'
_cell_volume   253.25449616
_cell_formula_units_Z   1
loop_
 _symmetry_equiv_pos_site_id
 _symmetry_equiv_pos_as_xyz
  1  'x, y, z'
loop_
 _atom_site_type_symbol
 _atom_site_label
 _atom_site_symmetry_multiplicity
 _atom_site_fract_x
 _atom_site_fract_y
 _atom_site_fract_z
 _atom_site_occupancy
  Y  Y0  1  0.000000  0.666053  0.332519  1
  Y  Y1  1  0.500000  0.333135  0.666781  1
  Fe  Fe2  1  0.000000  0.369364  0.943368  1
  Fe  Fe3  1  0.000000  0.055582  0.426892  1
  Fe  Fe4  1  0.000000  0.572121  0.629020  1
  Fe  Fe5  1  0.000000  0.880937  0.725188  1
  Fe  Fe6  1  0.000000  0.273835  0.155398  1
  Fe  Fe7  1  0.000000  0.846458  0.118786  1
  Fe  Fe8  1  0.500000  0.616539  0.049863  1
  Fe  Fe9  1  0.500000  0.120008  0.903403  1
  Fe  Fe10  1  0.500000  0.098014  0.218475  1
  Fe  Fe11  1  0.500000  0.785117  0.881228  1
  Co  Co12  1  0.500000  0.948980  0.564611  1
  Co  Co13  1  0.500000  0.434968  0.384338  1
  P  P14  1  0.000000  0.112707  0.703007  1
  P  P15  1  0.000000  0.296919  0.410317  1
  P  P16  1  0.000000  0.589125  0.888325  1
  P  P17  1  0.500000  0.711324  0.601979  1
  P  P18  1  0.500000  0.400040  0.109581  1
  P  P19  1  0.500000  0.888302  0.287550  1
  P  P20  1  0.000000  0.000469  0.999370  1
