# generated using pymatgen
data_YLu2Zr(Al3Ir)6
_symmetry_space_group_name_H-M   'P 1'
_cell_length_a   7.52254312
_cell_length_b   7.51861312
_cell_length_c   9.39467100
_cell_angle_alpha   90.00000000
_cell_angle_beta   90.00000000
_cell_angle_gamma   119.60853713
_symmetry_Int_Tables_number   1
_chemical_formula_structural   YLu2Zr(Al3Ir)6
_chemical_formula_sum   'Y1 Lu2 Zr1 Al18 Ir6'
_cell_volume   461.97054579
_cell_formula_units_Z   1
loop_
 _symmetry_equiv_pos_site_id
 _symmetry_equiv_pos_as_xyz
  1  'x, y, z'
loop_
 _atom_site_type_symbol
 _atom_site_label
 _atom_site_symmetry_multiplicity
 _atom_site_fract_x
 _atom_site_fract_y
 _atom_site_fract_z
 _atom_site_occupancy
  Y  Y0  1  0.006197  0.327829  0.750000  1
  Lu  Lu1  1  0.671432  0.995650  0.250000  1
  Lu  Lu2  1  0.328361  0.006549  0.750000  1
  Zr  Zr3  1  0.996688  0.671882  0.250000  1
  Al  Al4  1  0.125345  0.122864  0.250000  1
  Al  Al5  1  0.871029  0.868931  0.750000  1
  Al  Al6  1  0.999665  0.337150  0.079671  1
  Al  Al7  1  0.999898  0.666034  0.929446  1
  Al  Al8  1  0.999898  0.666034  0.570554  1
  Al  Al9  1  0.333047  0.998265  0.421305  1
  Al  Al10  1  0.999665  0.337150  0.420329  1
  Al  Al11  1  0.663390  0.997912  0.573952  1
  Al  Al12  1  0.663390  0.997912  0.926048  1
  Al  Al13  1  0.333047  0.998265  0.078695  1
  Al  Al14  1  0.334431  0.333468  0.551572  1
  Al  Al15  1  0.668901  0.667410  0.442335  1
  Al  Al16  1  0.668901  0.667410  0.057665  1
  Al  Al17  1  0.334431  0.333468  0.948428  1
  Al  Al18  1  0.336554  0.550541  0.250000  1
  Al  Al19  1  0.659721  0.451208  0.750000  1
  Al  Al20  1  0.554788  0.343285  0.250000  1
  Al  Al21  1  0.451769  0.661201  0.750000  1
  Ir  Ir22  1  0.672056  0.327514  0.000861  1
  Ir  Ir23  1  0.328339  0.672940  0.001649  1
  Ir  Ir24  1  0.328339  0.672940  0.498351  1
  Ir  Ir25  1  0.672056  0.327514  0.499139  1
  Ir  Ir26  1  0.999330  0.999335  0.000950  1
  Ir  Ir27  1  0.999330  0.999335  0.499050  1
