# generated using pymatgen
data_Y14Th2MgZn3Co4
_symmetry_space_group_name_H-M   'P 1'
_cell_length_a   9.44985023
_cell_length_b   9.44985123
_cell_length_c   9.48475025
_cell_angle_alpha   59.96055598
_cell_angle_beta   59.96055593
_cell_angle_gamma   59.97355500
_symmetry_Int_Tables_number   1
_chemical_formula_structural   Y14Th2MgZn3Co4
_chemical_formula_sum   'Y14 Th2 Mg1 Zn3 Co4'
_cell_volume   598.43205368
_cell_formula_units_Z   1
loop_
 _symmetry_equiv_pos_site_id
 _symmetry_equiv_pos_as_xyz
  1  'x, y, z'
loop_
 _atom_site_type_symbol
 _atom_site_label
 _atom_site_symmetry_multiplicity
 _atom_site_fract_x
 _atom_site_fract_y
 _atom_site_fract_z
 _atom_site_occupancy
  Y  Y0  1  0.598476  0.199996  0.599405  1
  Y  Y1  1  0.199996  0.598476  0.599405  1
  Y  Y2  1  0.059848  0.441762  0.440572  1
  Y  Y3  1  0.439721  0.062196  0.061438  1
  Y  Y4  1  0.441762  0.059848  0.440572  1
  Y  Y5  1  0.062196  0.439721  0.061438  1
  Y  Y6  1  0.440391  0.440391  0.059973  1
  Y  Y7  1  0.061650  0.061650  0.438327  1
  Y  Y8  1  0.190043  0.814853  0.814042  1
  Y  Y9  1  0.814252  0.186622  0.186173  1
  Y  Y10  1  0.814853  0.190043  0.814042  1
  Y  Y11  1  0.186622  0.814252  0.186173  1
  Y  Y12  1  0.812881  0.812881  0.190815  1
  Y  Y13  1  0.188142  0.188142  0.813328  1
  Th  Th14  1  0.595707  0.595707  0.600422  1
  Th  Th15  1  0.593747  0.593747  0.212604  1
  Mg  Mg16  1  0.823218  0.823218  0.822445  1
  Zn  Zn17  1  0.831400  0.831400  0.505797  1
  Zn  Zn18  1  0.831486  0.505841  0.829803  1
  Zn  Zn19  1  0.505841  0.831486  0.829803  1
  Co  Co20  1  0.395764  0.395764  0.387988  1
  Co  Co21  1  0.394815  0.394815  0.821391  1
  Co  Co22  1  0.399713  0.817472  0.392023  1
  Co  Co23  1  0.817472  0.399713  0.392023  1
