# generated using pymatgen
data_Rb13TiV(In3As5)2
_symmetry_space_group_name_H-M   'P 1'
_cell_length_a   9.54350790
_cell_length_b   9.55371175
_cell_length_c   13.67936877
_cell_angle_alpha   81.95003191
_cell_angle_beta   78.87402287
_cell_angle_gamma   63.77081428
_symmetry_Int_Tables_number   1
_chemical_formula_structural   Rb13TiV(In3As5)2
_chemical_formula_sum   'Rb13 Ti1 V1 In6 As10'
_cell_volume   1095.65237360
_cell_formula_units_Z   1
loop_
 _symmetry_equiv_pos_site_id
 _symmetry_equiv_pos_as_xyz
  1  'x, y, z'
loop_
 _atom_site_type_symbol
 _atom_site_label
 _atom_site_symmetry_multiplicity
 _atom_site_fract_x
 _atom_site_fract_y
 _atom_site_fract_z
 _atom_site_occupancy
  Rb  Rb0  1  0.493758  0.870455  0.354302  1
  Rb  Rb1  1  0.504786  0.131271  0.642719  1
  Rb  Rb2  1  0.852469  0.582357  0.886273  1
  Rb  Rb3  1  0.145872  0.416006  0.116817  1
  Rb  Rb4  1  0.088932  0.781314  0.426621  1
  Rb  Rb5  1  0.911142  0.218867  0.569109  1
  Rb  Rb6  1  0.745063  0.684674  0.591308  1
  Rb  Rb7  1  0.256305  0.315768  0.402522  1
  Rb  Rb8  1  0.499280  0.497887  0.002581  1
  Rb  Rb9  1  0.315672  0.929902  0.088852  1
  Rb  Rb10  1  0.682413  0.070208  0.915404  1
  Rb  Rb11  1  0.890204  0.859311  0.167619  1
  Rb  Rb12  1  0.104823  0.143266  0.836590  1
  Ti  Ti13  1  0.621380  0.260799  0.223877  1
  V  V14  1  0.379772  0.737706  0.775301  1
  In  In15  1  0.025714  0.812526  0.708223  1
  In  In16  1  0.979285  0.182713  0.291797  1
  In  In17  1  0.603422  0.444585  0.406767  1
  In  In18  1  0.396332  0.554833  0.591888  1
  In  In19  1  0.724317  0.567580  0.165593  1
  In  In20  1  0.277430  0.434762  0.832156  1
  As  As21  1  0.431185  0.552037  0.250977  1
  As  As22  1  0.564095  0.459864  0.751285  1
  As  As23  1  0.147752  0.747475  0.892134  1
  As  As24  1  0.864586  0.250239  0.102980  1
  As  As25  1  0.708641  0.125927  0.391658  1
  As  As26  1  0.293963  0.871678  0.616573  1
  As  As27  1  0.859919  0.512281  0.353532  1
  As  As28  1  0.136391  0.488579  0.649215  1
  As  As29  1  0.497877  0.860083  0.837728  1
  As  As30  1  0.497221  0.135049  0.157599  1
