# generated using pymatgen
data_NdEr2Al7Cu2
_symmetry_space_group_name_H-M   'P 1'
_cell_length_a   9.11379713
_cell_length_b   9.11379748
_cell_length_c   9.11379700
_cell_angle_alpha   35.13990685
_cell_angle_beta   35.13990372
_cell_angle_gamma   35.13990039
_symmetry_Int_Tables_number   1
_chemical_formula_structural   NdEr2Al7Cu2
_chemical_formula_sum   'Nd1 Er2 Al7 Cu2'
_cell_volume   223.97483327
_cell_formula_units_Z   1
loop_
 _symmetry_equiv_pos_site_id
 _symmetry_equiv_pos_as_xyz
  1  'x, y, z'
loop_
 _atom_site_type_symbol
 _atom_site_label
 _atom_site_symmetry_multiplicity
 _atom_site_fract_x
 _atom_site_fract_y
 _atom_site_fract_z
 _atom_site_occupancy
  Nd  Nd0  1  0.000000  0.000000  0.000000  1
  Er  Er1  1  0.857477  0.857477  0.857477  1
  Er  Er2  1  0.142523  0.142523  0.142523  1
  Al  Al3  1  0.417345  0.417345  0.926628  1
  Al  Al4  1  0.926628  0.417345  0.417345  1
  Al  Al5  1  0.417345  0.926628  0.417345  1
  Al  Al6  1  0.500000  0.500000  0.500000  1
  Al  Al7  1  0.582655  0.073372  0.582655  1
  Al  Al8  1  0.073372  0.582655  0.582655  1
  Al  Al9  1  0.582655  0.582655  0.073372  1
  Cu  Cu10  1  0.664996  0.664996  0.664996  1
  Cu  Cu11  1  0.335004  0.335004  0.335004  1
