# generated using pymatgen
data_Lu11Sc8Si16Mo
_symmetry_space_group_name_H-M   'P 1'
_cell_length_a   7.00604570
_cell_length_b   7.35185523
_cell_length_c   13.89288735
_cell_angle_alpha   90.10496239
_cell_angle_beta   90.18762774
_cell_angle_gamma   89.69960054
_symmetry_Int_Tables_number   1
_chemical_formula_structural   Lu11Sc8Si16Mo
_chemical_formula_sum   'Lu11 Sc8 Si16 Mo1'
_cell_volume   715.57212283
_cell_formula_units_Z   1
loop_
 _symmetry_equiv_pos_site_id
 _symmetry_equiv_pos_as_xyz
  1  'x, y, z'
loop_
 _atom_site_type_symbol
 _atom_site_label
 _atom_site_symmetry_multiplicity
 _atom_site_fract_x
 _atom_site_fract_y
 _atom_site_fract_z
 _atom_site_occupancy
  Lu  Lu0  1  0.988699  0.683485  0.602212  1
  Lu  Lu1  1  0.014921  0.319126  0.405601  1
  Lu  Lu2  1  0.516757  0.181002  0.401877  1
  Lu  Lu3  1  0.013481  0.321027  0.090927  1
  Lu  Lu4  1  0.483103  0.823408  0.599177  1
  Lu  Lu5  1  0.991308  0.684042  0.901776  1
  Lu  Lu6  1  0.484637  0.823785  0.904095  1
  Lu  Lu7  1  0.513298  0.179230  0.092560  1
  Lu  Lu8  1  0.325487  0.321115  0.628781  1
  Lu  Lu9  1  0.675189  0.677193  0.373852  1
  Lu  Lu10  1  0.175512  0.827772  0.376272  1
  Sc  Sc11  1  0.844723  0.007720  0.246684  1
  Sc  Sc12  1  0.344056  0.493148  0.246751  1
  Sc  Sc13  1  0.656166  0.509547  0.752004  1
  Sc  Sc14  1  0.673443  0.677356  0.123713  1
  Sc  Sc15  1  0.824078  0.169147  0.632464  1
  Sc  Sc16  1  0.325796  0.319661  0.873423  1
  Sc  Sc17  1  0.823532  0.168719  0.872895  1
  Sc  Sc18  1  0.175392  0.826548  0.121726  1
  Si  Si19  1  0.023799  0.384878  0.754618  1
  Si  Si20  1  0.977000  0.607181  0.244324  1
  Si  Si21  1  0.474354  0.895553  0.244778  1
  Si  Si22  1  0.517498  0.094407  0.753275  1
  Si  Si23  1  0.280838  0.644831  0.751888  1
  Si  Si24  1  0.720538  0.365323  0.246666  1
  Si  Si25  1  0.216800  0.136383  0.246564  1
  Si  Si26  1  0.789241  0.867041  0.752129  1
  Si  Si27  1  0.148237  0.028350  0.550749  1
  Si  Si28  1  0.839994  0.970844  0.465952  1
  Si  Si29  1  0.346028  0.530311  0.461808  1
  Si  Si30  1  0.843325  0.966135  0.037038  1
  Si  Si31  1  0.665251  0.462558  0.541031  1
  Si  Si32  1  0.155321  0.032185  0.952526  1
  Si  Si33  1  0.659384  0.466320  0.960315  1
  Si  Si34  1  0.344616  0.534218  0.036466  1
  Mo  Mo35  1  0.148199  0.000446  0.753082  1
