# generated using pymatgen
data_Tm9Th(CoSb2)2
_symmetry_space_group_name_H-M   'P 1'
_cell_length_a   7.87563900
_cell_length_b   8.64319017
_cell_length_c   12.09375504
_cell_angle_alpha   89.79079812
_cell_angle_beta   90.00000000
_cell_angle_gamma   90.00000000
_symmetry_Int_Tables_number   1
_chemical_formula_structural   Tm9Th(CoSb2)2
_chemical_formula_sum   'Tm18 Th2 Co4 Sb8'
_cell_volume   823.22422559
_cell_formula_units_Z   2
loop_
 _symmetry_equiv_pos_site_id
 _symmetry_equiv_pos_as_xyz
  1  'x, y, z'
loop_
 _atom_site_type_symbol
 _atom_site_label
 _atom_site_symmetry_multiplicity
 _atom_site_fract_x
 _atom_site_fract_y
 _atom_site_fract_z
 _atom_site_occupancy
  Tm  Tm0  1  0.158659  0.748566  0.204168  1
  Tm  Tm1  1  0.658659  0.251434  0.295832  1
  Tm  Tm2  1  0.842151  0.250305  0.795760  1
  Tm  Tm3  1  0.342151  0.749695  0.704240  1
  Tm  Tm4  1  0.450131  0.749561  0.998929  1
  Tm  Tm5  1  0.950131  0.250439  0.501071  1
  Tm  Tm6  1  0.546225  0.251963  0.000926  1
  Tm  Tm7  1  0.046225  0.748037  0.499074  1
  Tm  Tm8  1  0.625910  0.749607  0.305202  1
  Tm  Tm9  1  0.125910  0.250393  0.194798  1
  Tm  Tm10  1  0.380019  0.253869  0.693692  1
  Tm  Tm11  1  0.880019  0.746131  0.806308  1
  Tm  Tm12  1  0.173865  0.459986  0.934344  1
  Tm  Tm13  1  0.673865  0.540014  0.565656  1
  Tm  Tm14  1  0.181520  0.041417  0.931178  1
  Tm  Tm15  1  0.681520  0.958583  0.568822  1
  Tm  Tm16  1  0.822777  0.540615  0.065391  1
  Tm  Tm17  1  0.322777  0.459385  0.434609  1
  Th  Th18  1  0.824315  0.965016  0.061347  1
  Th  Th19  1  0.324315  0.034984  0.438653  1
  Co  Co20  1  0.429134  0.758936  0.487894  1
  Co  Co21  1  0.929134  0.241064  0.012106  1
  Co  Co22  1  0.566824  0.247524  0.508671  1
  Co  Co23  1  0.066824  0.752476  0.991329  1
  Sb  Sb24  1  0.927542  0.990358  0.327809  1
  Sb  Sb25  1  0.427542  0.009642  0.172191  1
  Sb  Sb26  1  0.068873  0.490319  0.672728  1
  Sb  Sb27  1  0.568873  0.509681  0.827272  1
  Sb  Sb28  1  0.070263  0.009130  0.673833  1
  Sb  Sb29  1  0.570263  0.990870  0.826167  1
  Sb  Sb30  1  0.931794  0.508445  0.326596  1
  Sb  Sb31  1  0.431794  0.491555  0.173404  1
