# generated using pymatgen
data_Dy3YInRu
_symmetry_space_group_name_H-M   'P 1'
_cell_length_a   9.67689554
_cell_length_b   9.67689591
_cell_length_c   9.67952656
_cell_angle_alpha   59.73358468
_cell_angle_beta   59.73358631
_cell_angle_gamma   59.67844897
_symmetry_Int_Tables_number   1
_chemical_formula_structural   Dy3YInRu
_chemical_formula_sum   'Dy12 Y4 In4 Ru4'
_cell_volume   636.78472243
_cell_formula_units_Z   4
loop_
 _symmetry_equiv_pos_site_id
 _symmetry_equiv_pos_as_xyz
  1  'x, y, z'
loop_
 _atom_site_type_symbol
 _atom_site_label
 _atom_site_symmetry_multiplicity
 _atom_site_fract_x
 _atom_site_fract_y
 _atom_site_fract_z
 _atom_site_occupancy
  Dy  Dy0  1  0.441680  0.059550  0.442110  1
  Dy  Dy1  1  0.059550  0.441680  0.442110  1
  Dy  Dy2  1  0.808416  0.808416  0.191857  1
  Dy  Dy3  1  0.191974  0.810566  0.192106  1
  Dy  Dy4  1  0.810566  0.191974  0.192106  1
  Dy  Dy5  1  0.192153  0.192153  0.810214  1
  Dy  Dy6  1  0.808568  0.191862  0.808131  1
  Dy  Dy7  1  0.191862  0.808568  0.808131  1
  Dy  Dy8  1  0.651915  0.651915  0.042276  1
  Dy  Dy9  1  0.652004  0.042687  0.651869  1
  Dy  Dy10  1  0.042687  0.652004  0.651869  1
  Dy  Dy11  1  0.651442  0.651442  0.652033  1
  Y  Y12  1  0.441158  0.441158  0.060487  1
  Y  Y13  1  0.057455  0.442848  0.057344  1
  Y  Y14  1  0.442848  0.057455  0.057344  1
  Y  Y15  1  0.057625  0.057625  0.442908  1
  In  In16  1  0.417701  0.417701  0.747752  1
  In  In17  1  0.417691  0.747647  0.417452  1
  In  In18  1  0.747647  0.417691  0.417452  1
  In  In19  1  0.418034  0.418034  0.417892  1
  Ru  Ru20  1  0.859019  0.859019  0.417041  1
  Ru  Ru21  1  0.859736  0.416796  0.858913  1
  Ru  Ru22  1  0.416796  0.859736  0.858913  1
  Ru  Ru23  1  0.861473  0.861473  0.861688  1
