# generated using pymatgen
data_Sr9Yb4Dy7Pb16
_symmetry_space_group_name_H-M   'P 1'
_cell_length_a   8.22185910
_cell_length_b   8.72463683
_cell_length_c   16.67981800
_cell_angle_alpha   89.98023952
_cell_angle_beta   89.99120548
_cell_angle_gamma   89.96862581
_symmetry_Int_Tables_number   1
_chemical_formula_structural   Sr9Yb4Dy7Pb16
_chemical_formula_sum   'Sr9 Yb4 Dy7 Pb16'
_cell_volume   1196.48869417
_cell_formula_units_Z   1
loop_
 _symmetry_equiv_pos_site_id
 _symmetry_equiv_pos_as_xyz
  1  'x, y, z'
loop_
 _atom_site_type_symbol
 _atom_site_label
 _atom_site_symmetry_multiplicity
 _atom_site_fract_x
 _atom_site_fract_y
 _atom_site_fract_z
 _atom_site_occupancy
  Sr  Sr0  1  0.499060  0.679132  0.594304  1
  Sr  Sr1  1  0.999399  0.821100  0.905215  1
  Sr  Sr2  1  0.499342  0.321894  0.092209  1
  Sr  Sr3  1  0.001132  0.179942  0.408856  1
  Sr  Sr4  1  0.499739  0.320739  0.408913  1
  Sr  Sr5  1  0.001041  0.180394  0.090772  1
  Sr  Sr6  1  0.498402  0.678986  0.905699  1
  Sr  Sr7  1  0.997723  0.821793  0.595334  1
  Sr  Sr8  1  0.671913  0.012860  0.249962  1
  Yb  Yb9  1  0.669692  0.162512  0.623421  1
  Yb  Yb10  1  0.831727  0.505274  0.749233  1
  Yb  Yb11  1  0.333624  0.994846  0.748927  1
  Yb  Yb12  1  0.170495  0.492438  0.250300  1
  Dy  Dy13  1  0.168673  0.336847  0.876032  1
  Dy  Dy14  1  0.330579  0.835557  0.121619  1
  Dy  Dy15  1  0.831010  0.663119  0.377944  1
  Dy  Dy16  1  0.331093  0.835991  0.378129  1
  Dy  Dy17  1  0.830646  0.663695  0.121679  1
  Dy  Dy18  1  0.668927  0.163741  0.875413  1
  Dy  Dy19  1  0.168949  0.336548  0.624829  1
  Pb  Pb20  1  0.667763  0.952870  0.460600  1
  Pb  Pb21  1  0.169014  0.542421  0.040584  1
  Pb  Pb22  1  0.329055  0.041457  0.957437  1
  Pb  Pb23  1  0.834734  0.458603  0.542045  1
  Pb  Pb24  1  0.326278  0.040953  0.541064  1
  Pb  Pb25  1  0.830305  0.457929  0.957985  1
  Pb  Pb26  1  0.669451  0.956575  0.037886  1
  Pb  Pb27  1  0.169486  0.543201  0.459955  1
  Pb  Pb28  1  0.467989  0.370728  0.750219  1
  Pb  Pb29  1  0.971180  0.130544  0.752128  1
  Pb  Pb30  1  0.528970  0.631126  0.249502  1
  Pb  Pb31  1  0.038721  0.856222  0.249632  1
  Pb  Pb32  1  0.708107  0.870419  0.752254  1
  Pb  Pb33  1  0.205945  0.628762  0.751011  1
  Pb  Pb34  1  0.281240  0.128523  0.249487  1
  Pb  Pb35  1  0.798595  0.382256  0.249417  1
