# generated using pymatgen
data_Er4C2Cl3
_symmetry_space_group_name_H-M   'P 1'
_cell_length_a   3.61539700
_cell_length_b   10.38167400
_cell_length_c   19.40892800
_cell_angle_alpha   90.00000000
_cell_angle_beta   90.00000000
_cell_angle_gamma   90.00000000
_symmetry_Int_Tables_number   1
_chemical_formula_structural   Er4C2Cl3
_chemical_formula_sum   'Er16 C8 Cl12'
_cell_volume   728.49223929
_cell_formula_units_Z   4
loop_
 _symmetry_equiv_pos_site_id
 _symmetry_equiv_pos_as_xyz
  1  'x, y, z'
loop_
 _atom_site_type_symbol
 _atom_site_label
 _atom_site_symmetry_multiplicity
 _atom_site_fract_x
 _atom_site_fract_y
 _atom_site_fract_z
 _atom_site_occupancy
  Er  Er0  1  0.250000  0.139015  0.573063  1
  Er  Er1  1  0.250000  0.639015  0.926937  1
  Er  Er2  1  0.750000  0.860985  0.426937  1
  Er  Er3  1  0.750000  0.360985  0.073063  1
  Er  Er4  1  0.250000  0.638043  0.756514  1
  Er  Er5  1  0.250000  0.138043  0.743486  1
  Er  Er6  1  0.750000  0.361957  0.243486  1
  Er  Er7  1  0.750000  0.861957  0.256514  1
  Er  Er8  1  0.250000  0.099637  0.331336  1
  Er  Er9  1  0.250000  0.599637  0.168664  1
  Er  Er10  1  0.750000  0.900363  0.668664  1
  Er  Er11  1  0.750000  0.400363  0.831336  1
  Er  Er12  1  0.250000  0.124556  0.164118  1
  Er  Er13  1  0.250000  0.624556  0.335882  1
  Er  Er14  1  0.750000  0.875444  0.835882  1
  Er  Er15  1  0.750000  0.375444  0.664118  1
  C  C16  1  0.250000  0.863684  0.348307  1
  C  C17  1  0.250000  0.363684  0.151693  1
  C  C18  1  0.750000  0.136316  0.651693  1
  C  C19  1  0.750000  0.636316  0.848307  1
  C  C20  1  0.250000  0.388539  0.749415  1
  C  C21  1  0.250000  0.888539  0.750585  1
  C  C22  1  0.750000  0.611461  0.250585  1
  C  C23  1  0.750000  0.111461  0.249415  1
  Cl  Cl24  1  0.250000  0.379020  0.951943  1
  Cl  Cl25  1  0.250000  0.879020  0.548057  1
  Cl  Cl26  1  0.750000  0.620980  0.048057  1
  Cl  Cl27  1  0.750000  0.120980  0.451943  1
  Cl  Cl28  1  0.250000  0.887466  0.946463  1
  Cl  Cl29  1  0.250000  0.387466  0.553537  1
  Cl  Cl30  1  0.750000  0.112534  0.053537  1
  Cl  Cl31  1  0.750000  0.612534  0.446463  1
  Cl  Cl32  1  0.250000  0.360072  0.354858  1
  Cl  Cl33  1  0.250000  0.860072  0.145142  1
  Cl  Cl34  1  0.750000  0.639928  0.645142  1
  Cl  Cl35  1  0.750000  0.139928  0.854858  1
