# generated using pymatgen
data_Ca12Ac7LaSi16
_symmetry_space_group_name_H-M   'P 1'
_cell_length_a   8.11616380
_cell_length_b   8.11437277
_cell_length_c   15.02340947
_cell_angle_alpha   89.93012501
_cell_angle_beta   90.12188759
_cell_angle_gamma   90.08603027
_symmetry_Int_Tables_number   1
_chemical_formula_structural   Ca12Ac7LaSi16
_chemical_formula_sum   'Ca12 Ac7 La1 Si16'
_cell_volume   989.40128257
_cell_formula_units_Z   1
loop_
 _symmetry_equiv_pos_site_id
 _symmetry_equiv_pos_as_xyz
  1  'x, y, z'
loop_
 _atom_site_type_symbol
 _atom_site_label
 _atom_site_symmetry_multiplicity
 _atom_site_fract_x
 _atom_site_fract_y
 _atom_site_fract_z
 _atom_site_occupancy
  Ca  Ca0  1  0.368784  0.491111  0.375162  1
  Ca  Ca1  1  0.869706  0.008215  0.375835  1
  Ca  Ca2  1  0.991704  0.131025  0.125471  1
  Ca  Ca3  1  0.009341  0.869678  0.623762  1
  Ca  Ca4  1  0.631192  0.508905  0.874504  1
  Ca  Ca5  1  0.489628  0.368157  0.624117  1
  Ca  Ca6  1  0.508321  0.631027  0.125864  1
  Ca  Ca7  1  0.130955  0.991271  0.875455  1
  Ca  Ca8  1  0.685660  0.687969  0.500084  1
  Ca  Ca9  1  0.812397  0.187023  0.749382  1
  Ca  Ca10  1  0.188073  0.813827  0.250962  1
  Ca  Ca11  1  0.312818  0.312708  0.000306  1
  Ac  Ac12  1  0.988685  0.627242  0.047326  1
  Ac  Ac13  1  0.012211  0.371861  0.545352  1
  Ac  Ac14  1  0.627306  0.988285  0.953490  1
  Ac  Ac15  1  0.126880  0.511974  0.796699  1
  Ac  Ac16  1  0.872985  0.488636  0.297127  1
  Ac  Ac17  1  0.511980  0.128326  0.204406  1
  Ac  Ac18  1  0.487643  0.873715  0.702562  1
  La  La19  1  0.378479  0.007202  0.450424  1
  Si  Si20  1  0.083731  0.714595  0.440564  1
  Si  Si21  1  0.918351  0.288306  0.941066  1
  Si  Si22  1  0.706843  0.079553  0.557811  1
  Si  Si23  1  0.212386  0.416906  0.192253  1
  Si  Si24  1  0.788374  0.581466  0.690315  1
  Si  Si25  1  0.418117  0.212315  0.808877  1
  Si  Si26  1  0.580722  0.789758  0.310046  1
  Si  Si27  1  0.288009  0.918617  0.059459  1
  Si  Si28  1  0.837243  0.794569  0.804406  1
  Si  Si29  1  0.165110  0.203522  0.307969  1
  Si  Si30  1  0.793967  0.837346  0.195810  1
  Si  Si31  1  0.296240  0.667575  0.553220  1
  Si  Si32  1  0.706032  0.337400  0.055059  1
  Si  Si33  1  0.658807  0.290442  0.443977  1
  Si  Si34  1  0.336984  0.705414  0.945730  1
  Si  Si35  1  0.204337  0.164062  0.695148  1
