# generated using pymatgen
data_Tm6PdRu
_symmetry_space_group_name_H-M   'P 1'
_cell_length_a   6.35869052
_cell_length_b   7.15256113
_cell_length_c   9.10065500
_cell_angle_alpha   90.00000000
_cell_angle_beta   90.00000000
_cell_angle_gamma   89.94462936
_symmetry_Int_Tables_number   1
_chemical_formula_structural   Tm6PdRu
_chemical_formula_sum   'Tm12 Pd2 Ru2'
_cell_volume   413.90599280
_cell_formula_units_Z   2
loop_
 _symmetry_equiv_pos_site_id
 _symmetry_equiv_pos_as_xyz
  1  'x, y, z'
loop_
 _atom_site_type_symbol
 _atom_site_label
 _atom_site_symmetry_multiplicity
 _atom_site_fract_x
 _atom_site_fract_y
 _atom_site_fract_z
 _atom_site_occupancy
  Tm  Tm0  1  0.625061  0.023518  0.250000  1
  Tm  Tm1  1  0.374939  0.976482  0.750000  1
  Tm  Tm2  1  0.121639  0.460249  0.750000  1
  Tm  Tm3  1  0.878361  0.539751  0.250000  1
  Tm  Tm4  1  0.165720  0.176774  0.059452  1
  Tm  Tm5  1  0.834280  0.823226  0.940548  1
  Tm  Tm6  1  0.679499  0.314453  0.939070  1
  Tm  Tm7  1  0.834280  0.823226  0.559452  1
  Tm  Tm8  1  0.320501  0.685547  0.060930  1
  Tm  Tm9  1  0.165720  0.176774  0.440548  1
  Tm  Tm10  1  0.320501  0.685547  0.439070  1
  Tm  Tm11  1  0.679499  0.314453  0.560930  1
  Pd  Pd12  1  0.454304  0.389671  0.250000  1
  Pd  Pd13  1  0.545696  0.610329  0.750000  1
  Ru  Ru14  1  0.961920  0.112810  0.750000  1
  Ru  Ru15  1  0.038080  0.887190  0.250000  1
