# generated using pymatgen
data_Li3Ca2Ni9As7
_symmetry_space_group_name_H-M   'P 1'
_cell_length_a   3.89709600
_cell_length_b   9.46303724
_cell_length_c   9.46303600
_cell_angle_alpha   119.99999568
_cell_angle_beta   90.00000000
_cell_angle_gamma   90.00000000
_symmetry_Int_Tables_number   1
_chemical_formula_structural   Li3Ca2Ni9As7
_chemical_formula_sum   'Li3 Ca2 Ni9 As7'
_cell_volume   302.22667700
_cell_formula_units_Z   1
loop_
 _symmetry_equiv_pos_site_id
 _symmetry_equiv_pos_as_xyz
  1  'x, y, z'
loop_
 _atom_site_type_symbol
 _atom_site_label
 _atom_site_symmetry_multiplicity
 _atom_site_fract_x
 _atom_site_fract_y
 _atom_site_fract_z
 _atom_site_occupancy
  Li  Li0  1  0.500000  0.790546  0.891736  1
  Li  Li1  1  0.500000  0.101191  0.209454  1
  Li  Li2  1  0.500000  0.108264  0.898809  1
  Ca  Ca3  1  0.000000  0.666667  0.333333  1
  Ca  Ca4  1  0.500000  0.333333  0.666667  1
  Ni  Ni5  1  0.000000  0.572397  0.946194  1
  Ni  Ni6  1  0.000000  0.373796  0.427603  1
  Ni  Ni7  1  0.000000  0.053806  0.626204  1
  Ni  Ni8  1  0.000000  0.874658  0.161294  1
  Ni  Ni9  1  0.000000  0.286637  0.125342  1
  Ni  Ni10  1  0.000000  0.838706  0.713363  1
  Ni  Ni11  1  0.500000  0.953144  0.386881  1
  Ni  Ni12  1  0.500000  0.433737  0.046856  1
  Ni  Ni13  1  0.500000  0.613119  0.566263  1
  As  As14  1  0.500000  0.710253  0.115224  1
  As  As15  1  0.500000  0.404972  0.289747  1
  As  As16  1  0.500000  0.884776  0.595028  1
  As  As17  1  0.000000  0.000000  0.000000  1
  As  As18  1  0.000000  0.587174  0.700491  1
  As  As19  1  0.000000  0.113316  0.412826  1
  As  As20  1  0.000000  0.299509  0.886684  1
