# generated using pymatgen
data_TbDyTiCrO8
_symmetry_space_group_name_H-M   'P 1'
_cell_length_a   6.03557099
_cell_length_b   6.03557072
_cell_length_c   6.03557108
_cell_angle_alpha   106.12457803
_cell_angle_beta   106.12457340
_cell_angle_gamma   116.39433035
_symmetry_Int_Tables_number   1
_chemical_formula_structural   TbDyTiCrO8
_chemical_formula_sum   'Tb1 Dy1 Ti1 Cr1 O8'
_cell_volume   167.37687320
_cell_formula_units_Z   1
loop_
 _symmetry_equiv_pos_site_id
 _symmetry_equiv_pos_as_xyz
  1  'x, y, z'
loop_
 _atom_site_type_symbol
 _atom_site_label
 _atom_site_symmetry_multiplicity
 _atom_site_fract_x
 _atom_site_fract_y
 _atom_site_fract_z
 _atom_site_occupancy
  Tb  Tb0  1  0.750000  0.250000  0.500000  1
  Dy  Dy1  1  0.500000  0.500000  0.000000  1
  Ti  Ti2  1  0.250000  0.750000  0.500000  1
  Cr  Cr3  1  0.000000  0.000000  0.000000  1
  O  O4  1  0.838357  0.017737  0.179380  1
  O  O5  1  0.869322  0.557512  0.311812  1
  O  O6  1  0.245700  0.557512  0.688188  1
  O  O7  1  0.838357  0.658976  0.820620  1
  O  O8  1  0.341024  0.161643  0.179380  1
  O  O9  1  0.442488  0.754300  0.311812  1
  O  O10  1  0.442488  0.130678  0.688188  1
  O  O11  1  0.982263  0.161643  0.820620  1
