# generated using pymatgen
data_Rb2NaTaSe4
_symmetry_space_group_name_H-M   'P 1'
_cell_length_a   14.17492923
_cell_length_b   12.68081356
_cell_length_c   7.98825922
_cell_angle_alpha   83.28583482
_cell_angle_beta   62.68024831
_cell_angle_gamma   34.03391788
_symmetry_Int_Tables_number   1
_chemical_formula_structural   Rb2NaTaSe4
_chemical_formula_sum   'Rb4 Na2 Ta2 Se8'
_cell_volume   605.58271821
_cell_formula_units_Z   2
loop_
 _symmetry_equiv_pos_site_id
 _symmetry_equiv_pos_as_xyz
  1  'x, y, z'
loop_
 _atom_site_type_symbol
 _atom_site_label
 _atom_site_symmetry_multiplicity
 _atom_site_fract_x
 _atom_site_fract_y
 _atom_site_fract_z
 _atom_site_occupancy
  Rb  Rb0  1  0.429263  0.429263  0.070737  1
  Rb  Rb1  1  0.820737  0.820737  0.179263  1
  Rb  Rb2  1  0.070737  0.070737  0.429263  1
  Rb  Rb3  1  0.179263  0.179263  0.820737  1
  Na  Na4  1  0.500000  0.500000  0.500000  1
  Na  Na5  1  0.750000  0.750000  0.750000  1
  Ta  Ta6  1  0.000000  0.000000  0.000000  1
  Ta  Ta7  1  0.250000  0.250000  0.250000  1
  Se  Se8  1  0.757615  0.356018  0.042600  1
  Se  Se9  1  0.843766  0.042600  0.356018  1
  Se  Se10  1  0.042600  0.843766  0.757615  1
  Se  Se11  1  0.356018  0.757615  0.843766  1
  Se  Se12  1  0.492385  0.893982  0.207400  1
  Se  Se13  1  0.893982  0.492385  0.406234  1
  Se  Se14  1  0.207400  0.406234  0.492385  1
  Se  Se15  1  0.406234  0.207400  0.893982  1
