# generated using pymatgen
data_Tb3DyRe2(B8W)2
_symmetry_space_group_name_H-M   'P 1'
_cell_length_a   3.62637700
_cell_length_b   6.01528049
_cell_length_c   11.64048004
_cell_angle_alpha   90.03564348
_cell_angle_beta   90.00000000
_cell_angle_gamma   90.00000000
_symmetry_Int_Tables_number   1
_chemical_formula_structural   Tb3DyRe2(B8W)2
_chemical_formula_sum   'Tb3 Dy1 Re2 B16 W2'
_cell_volume   253.92159713
_cell_formula_units_Z   1
loop_
 _symmetry_equiv_pos_site_id
 _symmetry_equiv_pos_as_xyz
  1  'x, y, z'
loop_
 _atom_site_type_symbol
 _atom_site_label
 _atom_site_symmetry_multiplicity
 _atom_site_fract_x
 _atom_site_fract_y
 _atom_site_fract_z
 _atom_site_occupancy
  Tb  Tb0  1  0.000000  0.627521  0.350799  1
  Tb  Tb1  1  0.000000  0.372497  0.649263  1
  Tb  Tb2  1  0.000000  0.126677  0.150914  1
  Dy  Dy3  1  0.000000  0.873284  0.849104  1
  Re  Re4  1  0.000000  0.133855  0.413388  1
  Re  Re5  1  0.000000  0.866108  0.586879  1
  B  B6  1  0.500000  0.788794  0.186741  1
  B  B7  1  0.500000  0.210734  0.813219  1
  B  B8  1  0.500000  0.284583  0.315982  1
  B  B9  1  0.500000  0.715471  0.684245  1
  B  B10  1  0.500000  0.866694  0.032330  1
  B  B11  1  0.500000  0.133180  0.967272  1
  B  B12  1  0.500000  0.362693  0.469161  1
  B  B13  1  0.500000  0.637327  0.530991  1
  B  B14  1  0.500000  0.886997  0.453106  1
  B  B15  1  0.500000  0.112928  0.547075  1
  B  B16  1  0.500000  0.385480  0.047105  1
  B  B17  1  0.500000  0.614992  0.952513  1
  B  B18  1  0.500000  0.977005  0.309192  1
  B  B19  1  0.500000  0.022783  0.691097  1
  B  B20  1  0.500000  0.475603  0.193814  1
  B  B21  1  0.500000  0.524696  0.806071  1
  W  W22  1  0.000000  0.630109  0.085264  1
  W  W23  1  0.000000  0.369990  0.914475  1
