# generated using pymatgen
data_PrCd2Hg(Ir2O7)2
_symmetry_space_group_name_H-M   'P 1'
_cell_length_a   7.38113270
_cell_length_b   7.29983118
_cell_length_c   7.25025594
_cell_angle_alpha   59.77355369
_cell_angle_beta   59.99447586
_cell_angle_gamma   60.36371198
_symmetry_Int_Tables_number   1
_chemical_formula_structural   PrCd2Hg(Ir2O7)2
_chemical_formula_sum   'Pr1 Cd2 Hg1 Ir4 O14'
_cell_volume   276.49208735
_cell_formula_units_Z   1
loop_
 _symmetry_equiv_pos_site_id
 _symmetry_equiv_pos_as_xyz
  1  'x, y, z'
loop_
 _atom_site_type_symbol
 _atom_site_label
 _atom_site_symmetry_multiplicity
 _atom_site_fract_x
 _atom_site_fract_y
 _atom_site_fract_z
 _atom_site_occupancy
  Pr  Pr0  1  0.625000  0.125000  0.125000  1
  Cd  Cd1  1  0.125000  0.125000  0.125000  1
  Cd  Cd2  1  0.125000  0.625000  0.125000  1
  Hg  Hg3  1  0.125000  0.125000  0.625000  1
  Ir  Ir4  1  0.625000  0.625000  0.625000  1
  Ir  Ir5  1  0.125000  0.625000  0.625000  1
  Ir  Ir6  1  0.625000  0.125000  0.625000  1
  Ir  Ir7  1  0.625000  0.625000  0.125000  1
  O  O8  1  0.944841  0.559724  0.549792  1
  O  O9  1  0.305159  0.304357  0.700208  1
  O  O10  1  0.946091  0.552622  0.948667  1
  O  O11  1  0.703521  0.297134  0.295316  1
  O  O12  1  0.546479  0.545971  0.954684  1
  O  O13  1  0.555777  0.948796  0.546630  1
  O  O14  1  0.546479  0.952866  0.954684  1
  O  O15  1  0.230956  0.253917  0.261209  1
  O  O16  1  0.305159  0.690276  0.700208  1
  O  O17  1  0.694223  0.301204  0.703370  1
  O  O18  1  0.019044  0.996083  0.988791  1
  O  O19  1  0.944841  0.945643  0.549792  1
  O  O20  1  0.303909  0.697378  0.301333  1
  O  O21  1  0.703521  0.704029  0.295316  1
