# generated using pymatgen
data_Tb4ErZn2Sb
_symmetry_space_group_name_H-M   'P 1'
_cell_length_a   8.58053806
_cell_length_b   8.58053770
_cell_length_c   8.58053760
_cell_angle_alpha   123.30326944
_cell_angle_beta   123.30326760
_cell_angle_gamma   84.36787228
_symmetry_Int_Tables_number   1
_chemical_formula_structural   Tb4ErZn2Sb
_chemical_formula_sum   'Tb8 Er2 Zn4 Sb2'
_cell_volume   422.17859988
_cell_formula_units_Z   2
loop_
 _symmetry_equiv_pos_site_id
 _symmetry_equiv_pos_as_xyz
  1  'x, y, z'
loop_
 _atom_site_type_symbol
 _atom_site_label
 _atom_site_symmetry_multiplicity
 _atom_site_fract_x
 _atom_site_fract_y
 _atom_site_fract_z
 _atom_site_occupancy
  Tb  Tb0  1  0.011070  0.511070  0.810895  1
  Tb  Tb1  1  0.700175  0.200175  0.189105  1
  Tb  Tb2  1  0.511070  0.700175  0.500000  1
  Tb  Tb3  1  0.200175  0.011070  0.500000  1
  Tb  Tb4  1  0.988930  0.488930  0.189105  1
  Tb  Tb5  1  0.299825  0.799825  0.810895  1
  Tb  Tb6  1  0.488930  0.299825  0.500000  1
  Tb  Tb7  1  0.799825  0.988930  0.500000  1
  Er  Er8  1  0.000000  0.000000  0.000000  1
  Er  Er9  1  0.500000  0.500000  0.000000  1
  Zn  Zn10  1  0.637535  0.137535  0.775068  1
  Zn  Zn11  1  0.362465  0.862465  0.224932  1
  Zn  Zn12  1  0.137535  0.362465  0.500000  1
  Zn  Zn13  1  0.862465  0.637535  0.500000  1
  Sb  Sb14  1  0.750000  0.750000  0.000000  1
  Sb  Sb15  1  0.250000  0.250000  0.000000  1
