# generated using pymatgen
data_Ta8Nb4RePt3
_symmetry_space_group_name_H-M   'P 1'
_cell_length_a   5.21640100
_cell_length_b   5.21057900
_cell_length_c   10.36028500
_cell_angle_alpha   90.00074993
_cell_angle_beta   90.00000000
_cell_angle_gamma   90.00000000
_symmetry_Int_Tables_number   1
_chemical_formula_structural   Ta8Nb4RePt3
_chemical_formula_sum   'Ta8 Nb4 Re1 Pt3'
_cell_volume   281.59741051
_cell_formula_units_Z   1
loop_
 _symmetry_equiv_pos_site_id
 _symmetry_equiv_pos_as_xyz
  1  'x, y, z'
loop_
 _atom_site_type_symbol
 _atom_site_label
 _atom_site_symmetry_multiplicity
 _atom_site_fract_x
 _atom_site_fract_y
 _atom_site_fract_z
 _atom_site_occupancy
  Ta  Ta0  1  0.000000  0.500079  0.374946  1
  Ta  Ta1  1  0.500000  0.250214  0.999954  1
  Ta  Ta2  1  0.500000  0.246980  0.499885  1
  Ta  Ta3  1  0.750946  0.999921  0.253334  1
  Ta  Ta4  1  0.750598  0.999937  0.747048  1
  Ta  Ta5  1  0.500000  0.752913  0.499912  1
  Ta  Ta6  1  0.249054  0.999921  0.253334  1
  Ta  Ta7  1  0.249402  0.999937  0.747048  1
  Nb  Nb8  1  0.000000  0.499975  0.875522  1
  Nb  Nb9  1  0.000000  0.499990  0.123355  1
  Nb  Nb10  1  0.000000  0.500096  0.625994  1
  Nb  Nb11  1  0.500000  0.750122  0.999943  1
  Re  Re12  1  0.000000  0.000170  0.499190  1
  Pt  Pt13  1  0.500000  0.498993  0.249710  1
  Pt  Pt14  1  0.500000  0.498985  0.750789  1
  Pt  Pt15  1  0.000000  0.001767  0.000035  1
