# generated using pymatgen
data_Ho6Tm10Cd4NiIr3
_symmetry_space_group_name_H-M   'P 1'
_cell_length_a   9.50031522
_cell_length_b   9.50031621
_cell_length_c   9.50031705
_cell_angle_alpha   60.19167617
_cell_angle_beta   60.19167413
_cell_angle_gamma   60.19167678
_symmetry_Int_Tables_number   1
_chemical_formula_structural   Ho6Tm10Cd4NiIr3
_chemical_formula_sum   'Ho6 Tm10 Cd4 Ni1 Ir3'
_cell_volume   608.94791449
_cell_formula_units_Z   1
loop_
 _symmetry_equiv_pos_site_id
 _symmetry_equiv_pos_as_xyz
  1  'x, y, z'
loop_
 _atom_site_type_symbol
 _atom_site_label
 _atom_site_symmetry_multiplicity
 _atom_site_fract_x
 _atom_site_fract_y
 _atom_site_fract_z
 _atom_site_occupancy
  Ho  Ho0  1  0.189122  0.811282  0.811282  1
  Ho  Ho1  1  0.813498  0.187744  0.187744  1
  Ho  Ho2  1  0.811282  0.189122  0.811282  1
  Ho  Ho3  1  0.187744  0.813498  0.187744  1
  Ho  Ho4  1  0.811282  0.811282  0.189122  1
  Ho  Ho5  1  0.187744  0.187744  0.813498  1
  Tm  Tm6  1  0.598942  0.598942  0.598942  1
  Tm  Tm7  1  0.597787  0.597787  0.203573  1
  Tm  Tm8  1  0.597787  0.203573  0.597787  1
  Tm  Tm9  1  0.203573  0.597787  0.597787  1
  Tm  Tm10  1  0.062055  0.439398  0.439398  1
  Tm  Tm11  1  0.437991  0.060642  0.060642  1
  Tm  Tm12  1  0.439398  0.062055  0.439398  1
  Tm  Tm13  1  0.060642  0.437991  0.060642  1
  Tm  Tm14  1  0.439398  0.439398  0.062055  1
  Tm  Tm15  1  0.060642  0.060642  0.437991  1
  Cd  Cd16  1  0.830347  0.830347  0.830347  1
  Cd  Cd17  1  0.831553  0.831553  0.506558  1
  Cd  Cd18  1  0.831553  0.506558  0.831553  1
  Cd  Cd19  1  0.506558  0.831553  0.831553  1
  Ni  Ni20  1  0.391922  0.391922  0.391922  1
  Ir  Ir21  1  0.392225  0.392225  0.824730  1
  Ir  Ir22  1  0.392225  0.824730  0.392225  1
  Ir  Ir23  1  0.824730  0.392225  0.392225  1
