# generated using pymatgen
data_Ce2NdSmSi3Rh4
_symmetry_space_group_name_H-M   'P 1'
_cell_length_a   10.68635279
_cell_length_b   10.68635439
_cell_length_c   7.94274754
_cell_angle_alpha   70.42585910
_cell_angle_beta   70.42586054
_cell_angle_gamma   30.56797485
_symmetry_Int_Tables_number   1
_chemical_formula_structural   Ce2NdSmSi3Rh4
_chemical_formula_sum   'Ce4 Nd2 Sm2 Si6 Rh8'
_cell_volume   432.57301484
_cell_formula_units_Z   2
loop_
 _symmetry_equiv_pos_site_id
 _symmetry_equiv_pos_as_xyz
  1  'x, y, z'
loop_
 _atom_site_type_symbol
 _atom_site_label
 _atom_site_symmetry_multiplicity
 _atom_site_fract_x
 _atom_site_fract_y
 _atom_site_fract_z
 _atom_site_occupancy
  Ce  Ce0  1  0.789716  0.080229  0.168594  1
  Ce  Ce1  1  0.919771  0.210284  0.331406  1
  Ce  Ce2  1  0.210684  0.919631  0.831128  1
  Ce  Ce3  1  0.080369  0.789316  0.668872  1
  Nd  Nd4  1  0.793417  0.544635  0.601865  1
  Nd  Nd5  1  0.455365  0.206583  0.898135  1
  Sm  Sm6  1  0.208374  0.453551  0.398695  1
  Sm  Sm7  1  0.546449  0.791626  0.101305  1
  Si  Si8  1  0.950874  0.703189  0.060673  1
  Si  Si9  1  0.296811  0.049126  0.439327  1
  Si  Si10  1  0.050917  0.294237  0.941916  1
  Si  Si11  1  0.705763  0.949083  0.558084  1
  Si  Si12  1  0.648379  0.351621  0.750000  1
  Si  Si13  1  0.350858  0.649142  0.250000  1
  Rh  Rh14  1  0.577295  0.299513  0.513137  1
  Rh  Rh15  1  0.700487  0.422705  0.986863  1
  Rh  Rh16  1  0.419799  0.702714  0.485511  1
  Rh  Rh17  1  0.297286  0.580201  0.014489  1
  Rh  Rh18  1  0.635546  0.927381  0.313537  1
  Rh  Rh19  1  0.072619  0.364454  0.186463  1
  Rh  Rh20  1  0.363520  0.074298  0.685377  1
  Rh  Rh21  1  0.925702  0.636480  0.814623  1
