# generated using pymatgen
data_Ho(S8Cl)3
_symmetry_space_group_name_H-M   'P 1'
_cell_length_a   15.59184346
_cell_length_b   15.59184290
_cell_length_c   15.59184396
_cell_angle_alpha   119.28038276
_cell_angle_beta   119.28038424
_cell_angle_gamma   119.28037907
_symmetry_Int_Tables_number   1
_chemical_formula_structural   Ho(S8Cl)3
_chemical_formula_sum   'Ho1 S24 Cl3'
_cell_volume   833.99169299
_cell_formula_units_Z   1
loop_
 _symmetry_equiv_pos_site_id
 _symmetry_equiv_pos_as_xyz
  1  'x, y, z'
loop_
 _atom_site_type_symbol
 _atom_site_label
 _atom_site_symmetry_multiplicity
 _atom_site_fract_x
 _atom_site_fract_y
 _atom_site_fract_z
 _atom_site_occupancy
  Ho  Ho0  1  0.424945  0.424945  0.424945  1
  S  S1  1  0.011246  0.598340  0.598340  1
  S  S2  1  0.598340  0.598340  0.011246  1
  S  S3  1  0.598340  0.011246  0.598340  1
  S  S4  1  0.270663  0.870184  0.744994  1
  S  S5  1  0.870184  0.744994  0.270663  1
  S  S6  1  0.744994  0.270663  0.870184  1
  S  S7  1  0.870184  0.270663  0.744994  1
  S  S8  1  0.270663  0.744994  0.870184  1
  S  S9  1  0.744994  0.870184  0.270663  1
  S  S10  1  0.080878  0.598879  0.423436  1
  S  S11  1  0.598879  0.423436  0.080878  1
  S  S12  1  0.423436  0.080878  0.598879  1
  S  S13  1  0.598879  0.080878  0.423436  1
  S  S14  1  0.080878  0.423436  0.598879  1
  S  S15  1  0.423436  0.598879  0.080878  1
  S  S16  1  0.382018  0.763908  0.637281  1
  S  S17  1  0.763908  0.637281  0.382018  1
  S  S18  1  0.637281  0.382018  0.763908  1
  S  S19  1  0.763908  0.382018  0.637281  1
  S  S20  1  0.382018  0.637281  0.763908  1
  S  S21  1  0.637281  0.763908  0.382018  1
  S  S22  1  0.171361  0.445716  0.445716  1
  S  S23  1  0.445716  0.445716  0.171361  1
  S  S24  1  0.445716  0.171361  0.445716  1
  Cl  Cl25  1  0.017447  0.894755  0.894755  1
  Cl  Cl26  1  0.894755  0.894755  0.017447  1
  Cl  Cl27  1  0.894755  0.017447  0.894755  1
