# generated using pymatgen
data_PrGe(AsRh2)3
_symmetry_space_group_name_H-M   'P 1'
_cell_length_a   7.24694500
_cell_length_b   7.24694434
_cell_length_c   3.92311200
_cell_angle_alpha   90.00000000
_cell_angle_beta   90.00000000
_cell_angle_gamma   119.99999843
_symmetry_Int_Tables_number   1
_chemical_formula_structural   PrGe(AsRh2)3
_chemical_formula_sum   'Pr1 Ge1 As3 Rh6'
_cell_volume   178.43138094
_cell_formula_units_Z   1
loop_
 _symmetry_equiv_pos_site_id
 _symmetry_equiv_pos_as_xyz
  1  'x, y, z'
loop_
 _atom_site_type_symbol
 _atom_site_label
 _atom_site_symmetry_multiplicity
 _atom_site_fract_x
 _atom_site_fract_y
 _atom_site_fract_z
 _atom_site_occupancy
  Pr  Pr0  1  0.000000  0.000000  0.000000  1
  Ge  Ge1  1  0.333333  0.666667  0.000000  1
  As  As2  1  0.807309  0.192691  0.500000  1
  As  As3  1  0.807309  0.614617  0.500000  1
  As  As4  1  0.385383  0.192691  0.500000  1
  Rh  Rh5  1  0.534354  0.465646  0.000000  1
  Rh  Rh6  1  0.534354  0.068706  0.000000  1
  Rh  Rh7  1  0.931294  0.465646  0.000000  1
  Rh  Rh8  1  0.199997  0.800003  0.500000  1
  Rh  Rh9  1  0.199997  0.399993  0.500000  1
  Rh  Rh10  1  0.600007  0.800003  0.500000  1
