# generated using pymatgen
data_ErTm7B24Os3W
_symmetry_space_group_name_H-M   'P 1'
_cell_length_a   3.60782300
_cell_length_b   9.11698523
_cell_length_c   11.50312100
_cell_angle_alpha   89.90140013
_cell_angle_beta   90.00000000
_cell_angle_gamma   90.00000000
_symmetry_Int_Tables_number   1
_chemical_formula_structural   ErTm7B24Os3W
_chemical_formula_sum   'Er1 Tm7 B24 Os3 W1'
_cell_volume   378.36549089
_cell_formula_units_Z   1
loop_
 _symmetry_equiv_pos_site_id
 _symmetry_equiv_pos_as_xyz
  1  'x, y, z'
loop_
 _atom_site_type_symbol
 _atom_site_label
 _atom_site_symmetry_multiplicity
 _atom_site_fract_x
 _atom_site_fract_y
 _atom_site_fract_z
 _atom_site_occupancy
  Er  Er0  1  0.000000  0.320728  0.413479  1
  Tm  Tm1  1  0.000000  0.678292  0.585556  1
  Tm  Tm2  1  0.000000  0.819795  0.086904  1
  Tm  Tm3  1  0.000000  0.177779  0.914480  1
  Tm  Tm4  1  0.000000  0.945805  0.373692  1
  Tm  Tm5  1  0.000000  0.057299  0.628083  1
  Tm  Tm6  1  0.000000  0.442812  0.125550  1
  Tm  Tm7  1  0.000000  0.556717  0.872004  1
  B  B8  1  0.500000  0.549866  0.436975  1
  B  B9  1  0.500000  0.446309  0.568374  1
  B  B10  1  0.500000  0.053439  0.066180  1
  B  B11  1  0.500000  0.946721  0.933537  1
  B  B12  1  0.500000  0.752373  0.423140  1
  B  B13  1  0.500000  0.251469  0.581134  1
  B  B14  1  0.500000  0.248608  0.079366  1
  B  B15  1  0.500000  0.751266  0.919417  1
  B  B16  1  0.500000  0.795999  0.263747  1
  B  B17  1  0.500000  0.208241  0.734620  1
  B  B18  1  0.500000  0.290601  0.232194  1
  B  B19  1  0.500000  0.709064  0.765854  1
  B  B20  1  0.500000  0.632060  0.181472  1
  B  B21  1  0.500000  0.368225  0.815379  1
  B  B22  1  0.500000  0.131396  0.314148  1
  B  B23  1  0.500000  0.869531  0.685370  1
  B  B24  1  0.500000  0.982988  0.212577  1
  B  B25  1  0.500000  0.018103  0.788123  1
  B  B26  1  0.500000  0.476377  0.286049  1
  B  B27  1  0.500000  0.517354  0.713382  1
  B  B28  1  0.500000  0.605887  0.027582  1
  B  B29  1  0.500000  0.392980  0.969523  1
  B  B30  1  0.500000  0.106922  0.471180  1
  B  B31  1  0.500000  0.896493  0.530753  1
  Os  Os32  1  0.000000  0.361610  0.680174  1
  Os  Os33  1  0.000000  0.136862  0.177224  1
  Os  Os34  1  0.000000  0.862678  0.821153  1
  W  W35  1  0.000000  0.637351  0.321627  1
