# generated using pymatgen
data_Nb12Zn5Ga3(CuC)4
_symmetry_space_group_name_H-M   'P 1'
_cell_length_a   8.30577477
_cell_length_b   8.30577428
_cell_length_c   8.30072230
_cell_angle_alpha   59.98306861
_cell_angle_beta   59.98307209
_cell_angle_gamma   60.00282531
_symmetry_Int_Tables_number   1
_chemical_formula_structural   Nb12Zn5Ga3(CuC)4
_chemical_formula_sum   'Nb12 Zn5 Ga3 Cu4 C4'
_cell_volume   404.81747298
_cell_formula_units_Z   1
loop_
 _symmetry_equiv_pos_site_id
 _symmetry_equiv_pos_as_xyz
  1  'x, y, z'
loop_
 _atom_site_type_symbol
 _atom_site_label
 _atom_site_symmetry_multiplicity
 _atom_site_fract_x
 _atom_site_fract_y
 _atom_site_fract_z
 _atom_site_occupancy
  Nb  Nb0  1  0.567384  0.932041  0.567744  1
  Nb  Nb1  1  0.315943  0.682617  0.683780  1
  Nb  Nb2  1  0.681512  0.317018  0.318518  1
  Nb  Nb3  1  0.317018  0.681512  0.318518  1
  Nb  Nb4  1  0.684251  0.684251  0.315707  1
  Nb  Nb5  1  0.318576  0.318576  0.681612  1
  Nb  Nb6  1  0.569147  0.569147  0.930588  1
  Nb  Nb7  1  0.932041  0.567384  0.567744  1
  Nb  Nb8  1  0.565145  0.933808  0.933465  1
  Nb  Nb9  1  0.934682  0.934682  0.564288  1
  Nb  Nb10  1  0.682617  0.315943  0.683780  1
  Nb  Nb11  1  0.933808  0.565145  0.933465  1
  Zn  Zn12  1  0.333098  0.333098  0.003382  1
  Zn  Zn13  1  0.919573  0.245139  0.918718  1
  Zn  Zn14  1  0.918784  0.918784  0.245588  1
  Zn  Zn15  1  0.245139  0.919573  0.918718  1
  Zn  Zn16  1  0.332775  0.332775  0.331033  1
  Ga  Ga17  1  0.916878  0.916878  0.917314  1
  Ga  Ga18  1  0.999703  0.335521  0.332708  1
  Ga  Ga19  1  0.335521  0.999703  0.332708  1
  Cu  Cu20  1  0.125186  0.125186  0.127296  1
  Cu  Cu21  1  0.625118  0.124791  0.124502  1
  Cu  Cu22  1  0.124791  0.625118  0.124502  1
  Cu  Cu23  1  0.124392  0.124392  0.623376  1
  C  C24  1  0.624117  0.624117  0.624839  1
  C  C25  1  0.123651  0.624632  0.625440  1
  C  C26  1  0.624632  0.123651  0.625440  1
  C  C27  1  0.624516  0.624516  0.125224  1
