# generated using pymatgen
data_Tb3ErZn4Si3Ge
_symmetry_space_group_name_H-M   'P 1'
_cell_length_a   4.18756100
_cell_length_b   4.18756194
_cell_length_c   15.64635600
_cell_angle_alpha   90.00000000
_cell_angle_beta   90.00000000
_cell_angle_gamma   120.00000049
_symmetry_Int_Tables_number   1
_chemical_formula_structural   Tb3ErZn4Si3Ge
_chemical_formula_sum   'Tb3 Er1 Zn4 Si3 Ge1'
_cell_volume   237.61082770
_cell_formula_units_Z   1
loop_
 _symmetry_equiv_pos_site_id
 _symmetry_equiv_pos_as_xyz
  1  'x, y, z'
loop_
 _atom_site_type_symbol
 _atom_site_label
 _atom_site_symmetry_multiplicity
 _atom_site_fract_x
 _atom_site_fract_y
 _atom_site_fract_z
 _atom_site_occupancy
  Tb  Tb0  1  0.000000  0.000000  0.747998  1
  Tb  Tb1  1  0.000000  0.000000  0.003305  1
  Tb  Tb2  1  0.000000  0.000000  0.498237  1
  Er  Er3  1  0.000000  0.000000  0.250404  1
  Zn  Zn4  1  0.333333  0.666667  0.143713  1
  Zn  Zn5  1  0.666667  0.333333  0.856090  1
  Zn  Zn6  1  0.666667  0.333333  0.637816  1
  Zn  Zn7  1  0.333333  0.666667  0.357561  1
  Si  Si8  1  0.333333  0.666667  0.617497  1
  Si  Si9  1  0.666667  0.333333  0.380945  1
  Si  Si10  1  0.666667  0.333333  0.120417  1
  Ge  Ge11  1  0.333333  0.666667  0.886016  1
