# generated using pymatgen
data_Tm16MgCo4Ag3
_symmetry_space_group_name_H-M   'P 1'
_cell_length_a   9.34254073
_cell_length_b   9.35336757
_cell_length_c   9.35336800
_cell_angle_alpha   60.00000557
_cell_angle_beta   59.96166287
_cell_angle_gamma   59.96166161
_symmetry_Int_Tables_number   1
_chemical_formula_structural   Tm16MgCo4Ag3
_chemical_formula_sum   'Tm16 Mg1 Co4 Ag3'
_cell_volume   577.60924767
_cell_formula_units_Z   1
loop_
 _symmetry_equiv_pos_site_id
 _symmetry_equiv_pos_as_xyz
  1  'x, y, z'
loop_
 _atom_site_type_symbol
 _atom_site_label
 _atom_site_symmetry_multiplicity
 _atom_site_fract_x
 _atom_site_fract_y
 _atom_site_fract_z
 _atom_site_occupancy
  Tm  Tm0  1  0.346478  0.345472  0.345472  1
  Tm  Tm1  1  0.346478  0.345472  0.962579  1
  Tm  Tm2  1  0.346478  0.962579  0.345472  1
  Tm  Tm3  1  0.952761  0.349080  0.349080  1
  Tm  Tm4  1  0.809838  0.189097  0.189097  1
  Tm  Tm5  1  0.185723  0.813761  0.813761  1
  Tm  Tm6  1  0.185723  0.813761  0.186756  1
  Tm  Tm7  1  0.809838  0.189097  0.811968  1
  Tm  Tm8  1  0.185723  0.186756  0.813761  1
  Tm  Tm9  1  0.809838  0.811968  0.189097  1
  Tm  Tm10  1  0.935007  0.562772  0.562772  1
  Tm  Tm11  1  0.561833  0.937212  0.937212  1
  Tm  Tm12  1  0.561833  0.937212  0.563743  1
  Tm  Tm13  1  0.935007  0.562772  0.939448  1
  Tm  Tm14  1  0.561833  0.563743  0.937212  1
  Tm  Tm15  1  0.935007  0.939448  0.562772  1
  Mg  Mg16  1  0.287481  0.570839  0.570839  1
  Co  Co17  1  0.138844  0.142465  0.142465  1
  Co  Co18  1  0.138844  0.142465  0.576226  1
  Co  Co19  1  0.138844  0.576226  0.142465  1
  Co  Co20  1  0.576034  0.141322  0.141322  1
  Ag  Ag21  1  0.583519  0.582878  0.582878  1
  Ag  Ag22  1  0.583519  0.582878  0.250724  1
  Ag  Ag23  1  0.583519  0.250724  0.582878  1
