# generated using pymatgen
data_Nd16Er4Sn13Pb3
_symmetry_space_group_name_H-M   'P 1'
_cell_length_a   8.23937464
_cell_length_b   8.39103953
_cell_length_c   15.97313266
_cell_angle_alpha   89.96327228
_cell_angle_beta   89.89386621
_cell_angle_gamma   90.01769840
_symmetry_Int_Tables_number   1
_chemical_formula_structural   Nd16Er4Sn13Pb3
_chemical_formula_sum   'Nd16 Er4 Sn13 Pb3'
_cell_volume   1104.33099323
_cell_formula_units_Z   1
loop_
 _symmetry_equiv_pos_site_id
 _symmetry_equiv_pos_as_xyz
  1  'x, y, z'
loop_
 _atom_site_type_symbol
 _atom_site_label
 _atom_site_symmetry_multiplicity
 _atom_site_fract_x
 _atom_site_fract_y
 _atom_site_fract_z
 _atom_site_occupancy
  Nd  Nd0  1  0.020446  0.179940  0.400217  1
  Nd  Nd1  1  0.367649  0.837704  0.120845  1
  Nd  Nd2  1  0.133867  0.335778  0.622638  1
  Nd  Nd3  1  0.481550  0.681011  0.901342  1
  Nd  Nd4  1  0.867679  0.662249  0.120968  1
  Nd  Nd5  1  0.132425  0.337580  0.879059  1
  Nd  Nd6  1  0.479966  0.682681  0.600387  1
  Nd  Nd7  1  0.630787  0.161301  0.622653  1
  Nd  Nd8  1  0.867086  0.661792  0.376804  1
  Nd  Nd9  1  0.018448  0.181048  0.098591  1
  Nd  Nd10  1  0.981619  0.819026  0.901332  1
  Nd  Nd11  1  0.632251  0.162254  0.879169  1
  Nd  Nd12  1  0.518423  0.319044  0.098672  1
  Nd  Nd13  1  0.366750  0.839432  0.377972  1
  Nd  Nd14  1  0.983133  0.820913  0.600278  1
  Nd  Nd15  1  0.518250  0.318216  0.399792  1
  Er  Er16  1  0.198778  0.502057  0.248324  1
  Er  Er17  1  0.698671  0.998071  0.248455  1
  Er  Er18  1  0.301026  0.002063  0.750137  1
  Er  Er19  1  0.801253  0.497897  0.751663  1
  Sn  Sn20  1  0.675107  0.852584  0.750091  1
  Sn  Sn21  1  0.291919  0.034931  0.955982  1
  Sn  Sn22  1  0.825195  0.352400  0.249960  1
  Sn  Sn23  1  0.791909  0.465129  0.955990  1
  Sn  Sn24  1  0.563375  0.617580  0.250059  1
  Sn  Sn25  1  0.208134  0.534906  0.043961  1
  Sn  Sn26  1  0.436525  0.382964  0.750056  1
  Sn  Sn27  1  0.174772  0.647121  0.750088  1
  Sn  Sn28  1  0.936002  0.117449  0.750132  1
  Sn  Sn29  1  0.291731  0.035072  0.543882  1
  Sn  Sn30  1  0.708115  0.964999  0.043924  1
  Sn  Sn31  1  0.325089  0.147292  0.249821  1
  Sn  Sn32  1  0.063591  0.882623  0.249973  1
  Pb  Pb33  1  0.791397  0.464951  0.543349  1
  Pb  Pb34  1  0.708583  0.964777  0.456734  1
  Pb  Pb35  1  0.208496  0.535165  0.456702  1
