# generated using pymatgen
data_Sm5NbRuO12
_symmetry_space_group_name_H-M   'P 1'
_cell_length_a   6.97295829
_cell_length_b   6.97295884
_cell_length_c   7.67003666
_cell_angle_alpha   73.98243365
_cell_angle_beta   73.98242861
_cell_angle_gamma   50.41938408
_symmetry_Int_Tables_number   1
_chemical_formula_structural   Sm5NbRuO12
_chemical_formula_sum   'Sm5 Nb1 Ru1 O12'
_cell_volume   273.73719769
_cell_formula_units_Z   1
loop_
 _symmetry_equiv_pos_site_id
 _symmetry_equiv_pos_as_xyz
  1  'x, y, z'
loop_
 _atom_site_type_symbol
 _atom_site_label
 _atom_site_symmetry_multiplicity
 _atom_site_fract_x
 _atom_site_fract_y
 _atom_site_fract_z
 _atom_site_occupancy
  Sm  Sm0  1  0.300439  0.310670  0.359621  1
  Sm  Sm1  1  0.689330  0.699561  0.640379  1
  Sm  Sm2  1  0.682945  0.694810  0.171974  1
  Sm  Sm3  1  0.305190  0.317055  0.828026  1
  Sm  Sm4  1  0.999095  0.000905  0.500000  1
  Nb  Nb5  1  0.792081  0.207919  0.000000  1
  Ru  Ru6  1  0.246699  0.753301  0.000000  1
  O  O7  1  0.092075  0.596924  0.576354  1
  O  O8  1  0.005171  0.993349  0.196286  1
  O  O9  1  0.403076  0.907925  0.423646  1
  O  O10  1  0.503647  0.496113  0.177994  1
  O  O11  1  0.092246  0.584041  0.081289  1
  O  O12  1  0.899331  0.409346  0.423014  1
  O  O13  1  0.006651  0.994829  0.803714  1
  O  O14  1  0.590654  0.100668  0.576986  1
  O  O15  1  0.503887  0.496353  0.822006  1
  O  O16  1  0.573107  0.101582  0.080786  1
  O  O17  1  0.415959  0.907754  0.918711  1
  O  O18  1  0.898418  0.426893  0.919214  1
