# generated using pymatgen
data_HoLu3Si8(CN6)2
_symmetry_space_group_name_H-M   'P 1'
_cell_length_a   5.89820139
_cell_length_b   9.92997400
_cell_length_c   10.29054979
_cell_angle_alpha   90.00000000
_cell_angle_beta   90.33102458
_cell_angle_gamma   90.00000000
_symmetry_Int_Tables_number   1
_chemical_formula_structural   HoLu3Si8(CN6)2
_chemical_formula_sum   'Ho2 Lu6 Si16 C4 N24'
_cell_volume   602.69701181
_cell_formula_units_Z   2
loop_
 _symmetry_equiv_pos_site_id
 _symmetry_equiv_pos_as_xyz
  1  'x, y, z'
loop_
 _atom_site_type_symbol
 _atom_site_label
 _atom_site_symmetry_multiplicity
 _atom_site_fract_x
 _atom_site_fract_y
 _atom_site_fract_z
 _atom_site_occupancy
  Ho  Ho0  1  0.265664  0.932133  0.594082  1
  Ho  Ho1  1  0.234336  0.432133  0.905918  1
  Lu  Lu2  1  0.736565  0.910793  0.084344  1
  Lu  Lu3  1  0.763435  0.410793  0.415656  1
  Lu  Lu4  1  0.263830  0.089412  0.916543  1
  Lu  Lu5  1  0.236170  0.589412  0.583457  1
  Lu  Lu6  1  0.732796  0.072440  0.406714  1
  Lu  Lu7  1  0.767204  0.572440  0.093286  1
  Si  Si8  1  0.019328  0.725258  0.341433  1
  Si  Si9  1  0.480672  0.225258  0.158567  1
  Si  Si10  1  0.980896  0.273717  0.658200  1
  Si  Si11  1  0.519104  0.773717  0.841800  1
  Si  Si12  1  0.525268  0.704087  0.323567  1
  Si  Si13  1  0.974732  0.204087  0.176433  1
  Si  Si14  1  0.475395  0.295504  0.675657  1
  Si  Si15  1  0.024605  0.795504  0.824343  1
  Si  Si16  1  0.242211  0.712295  0.080105  1
  Si  Si17  1  0.257789  0.212295  0.419895  1
  Si  Si18  1  0.757180  0.287809  0.920919  1
  Si  Si19  1  0.742820  0.787809  0.579081  1
  Si  Si20  1  0.253374  0.978202  0.249635  1
  Si  Si21  1  0.246626  0.478202  0.250365  1
  Si  Si22  1  0.746907  0.021709  0.750279  1
  Si  Si23  1  0.753093  0.521709  0.749721  1
  C  C24  1  0.270961  0.790399  0.247510  1
  C  C25  1  0.229039  0.290399  0.252490  1
  C  C26  1  0.729397  0.209701  0.752770  1
  C  C27  1  0.770603  0.709701  0.747230  1
  N  N28  1  0.065997  0.550919  0.366257  1
  N  N29  1  0.434003  0.050919  0.133743  1
  N  N30  1  0.935991  0.448376  0.635052  1
  N  N31  1  0.564009  0.948376  0.864948  1
  N  N32  1  0.773947  0.761610  0.251873  1
  N  N33  1  0.726053  0.261610  0.248127  1
  N  N34  1  0.227047  0.236431  0.746454  1
  N  N35  1  0.272953  0.736431  0.753546  1
  N  N36  1  0.005613  0.787499  0.499915  1
  N  N37  1  0.494387  0.287499  0.000085  1
  N  N38  1  0.994068  0.210345  0.499519  1
  N  N39  1  0.505932  0.710345  0.000481  1
  N  N40  1  0.526050  0.533593  0.275904  1
  N  N41  1  0.973950  0.033593  0.224096  1
  N  N42  1  0.475809  0.466335  0.720882  1
  N  N43  1  0.024191  0.966335  0.779118  1
  N  N44  1  0.155867  0.544268  0.101399  1
  N  N45  1  0.344133  0.044268  0.398601  1
  N  N46  1  0.836687  0.457621  0.901295  1
  N  N47  1  0.663313  0.957621  0.598705  1
  N  N48  1  0.024252  0.787153  0.992296  1
  N  N49  1  0.475748  0.287153  0.507704  1
  N  N50  1  0.975333  0.212390  0.008334  1
  N  N51  1  0.524667  0.712390  0.491666  1
