# generated using pymatgen
data_Ca10NbTcN10
_symmetry_space_group_name_H-M   'P 1'
_cell_length_a   6.93519924
_cell_length_b   6.93519846
_cell_length_c   8.95080964
_cell_angle_alpha   80.19256507
_cell_angle_beta   80.19256439
_cell_angle_gamma   59.66605261
_symmetry_Int_Tables_number   1
_chemical_formula_structural   Ca10NbTcN10
_chemical_formula_sum   'Ca10 Nb1 Tc1 N10'
_cell_volume   364.33533290
_cell_formula_units_Z   1
loop_
 _symmetry_equiv_pos_site_id
 _symmetry_equiv_pos_as_xyz
  1  'x, y, z'
loop_
 _atom_site_type_symbol
 _atom_site_label
 _atom_site_symmetry_multiplicity
 _atom_site_fract_x
 _atom_site_fract_y
 _atom_site_fract_z
 _atom_site_occupancy
  Ca  Ca0  1  0.876295  0.350955  0.831025  1
  Ca  Ca1  1  0.874912  0.874912  0.822018  1
  Ca  Ca2  1  0.740266  0.740266  0.523901  1
  Ca  Ca3  1  0.753703  0.248942  0.506294  1
  Ca  Ca4  1  0.631525  0.134126  0.150800  1
  Ca  Ca5  1  0.350955  0.876295  0.831025  1
  Ca  Ca6  1  0.248942  0.753703  0.506294  1
  Ca  Ca7  1  0.243056  0.243056  0.495214  1
  Ca  Ca8  1  0.139051  0.139051  0.159730  1
  Ca  Ca9  1  0.134126  0.631525  0.150800  1
  Nb  Nb10  1  0.369089  0.369089  0.777166  1
  Tc  Tc11  1  0.630905  0.630905  0.225017  1
  N  N12  1  0.906833  0.474460  0.319009  1
  N  N13  1  0.996412  0.996412  0.013983  1
  N  N14  1  0.677766  0.677766  0.019940  1
  N  N15  1  0.536529  0.536529  0.693760  1
  N  N16  1  0.474460  0.906833  0.319009  1
  N  N17  1  0.538167  0.083392  0.678936  1
  N  N18  1  0.473728  0.473728  0.297575  1
  N  N19  1  0.320028  0.320028  0.999129  1
  N  N20  1  0.062148  0.062148  0.646246  1
  N  N21  1  0.083392  0.538167  0.678936  1
