# generated using pymatgen
data_Nd3Th(TlPd2)2
_symmetry_space_group_name_H-M   'P 1'
_cell_length_a   7.92865800
_cell_length_b   7.92865760
_cell_length_c   3.85353400
_cell_angle_alpha   90.00000000
_cell_angle_beta   90.00000000
_cell_angle_gamma   91.51583090
_symmetry_Int_Tables_number   1
_chemical_formula_structural   Nd3Th(TlPd2)2
_chemical_formula_sum   'Nd3 Th1 Tl2 Pd4'
_cell_volume   242.16230254
_cell_formula_units_Z   1
loop_
 _symmetry_equiv_pos_site_id
 _symmetry_equiv_pos_as_xyz
  1  'x, y, z'
loop_
 _atom_site_type_symbol
 _atom_site_label
 _atom_site_symmetry_multiplicity
 _atom_site_fract_x
 _atom_site_fract_y
 _atom_site_fract_z
 _atom_site_occupancy
  Nd  Nd0  1  0.823775  0.672757  0.500000  1
  Nd  Nd1  1  0.172757  0.323775  0.500000  1
  Nd  Nd2  1  0.677005  0.177005  0.500000  1
  Th  Th3  1  0.327547  0.827547  0.500000  1
  Tl  Tl4  1  0.996370  0.999355  0.000000  1
  Tl  Tl5  1  0.499355  0.496370  0.000000  1
  Pd  Pd6  1  0.371879  0.117596  0.000000  1
  Pd  Pd7  1  0.879701  0.379701  0.000000  1
  Pd  Pd8  1  0.134016  0.634016  0.000000  1
  Pd  Pd9  1  0.617596  0.871879  0.000000  1
