# generated using pymatgen
data_Cs12VP3S16
_symmetry_space_group_name_H-M   'P 1'
_cell_length_a   9.80899053
_cell_length_b   9.84447653
_cell_length_c   11.81459100
_cell_angle_alpha   90.00000000
_cell_angle_beta   90.00000000
_cell_angle_gamma   90.03761323
_symmetry_Int_Tables_number   1
_chemical_formula_structural   Cs12VP3S16
_chemical_formula_sum   'Cs12 V1 P3 S16'
_cell_volume   1140.86837410
_cell_formula_units_Z   1
loop_
 _symmetry_equiv_pos_site_id
 _symmetry_equiv_pos_as_xyz
  1  'x, y, z'
loop_
 _atom_site_type_symbol
 _atom_site_label
 _atom_site_symmetry_multiplicity
 _atom_site_fract_x
 _atom_site_fract_y
 _atom_site_fract_z
 _atom_site_occupancy
  Cs  Cs0  1  0.541725  0.207600  0.041711  1
  Cs  Cs1  1  0.042970  0.290452  0.458741  1
  Cs  Cs2  1  0.457921  0.792356  0.543461  1
  Cs  Cs3  1  0.958589  0.707782  0.958155  1
  Cs  Cs4  1  0.457921  0.792356  0.956539  1
  Cs  Cs5  1  0.958589  0.707782  0.541845  1
  Cs  Cs6  1  0.541725  0.207600  0.458289  1
  Cs  Cs7  1  0.042970  0.290452  0.041259  1
  Cs  Cs8  1  0.650047  0.414638  0.750000  1
  Cs  Cs9  1  0.151384  0.087120  0.750000  1
  Cs  Cs10  1  0.348903  0.589307  0.250000  1
  Cs  Cs11  1  0.850008  0.912139  0.250000  1
  V  V12  1  0.776120  0.481875  0.250000  1
  P  P13  1  0.723958  0.981836  0.750000  1
  P  P14  1  0.222481  0.517935  0.750000  1
  P  P15  1  0.276461  0.018938  0.250000  1
  S  S16  1  0.824715  0.044443  0.605615  1
  S  S17  1  0.323358  0.455518  0.894170  1
  S  S18  1  0.175864  0.956510  0.105562  1
  S  S19  1  0.670871  0.546496  0.401755  1
  S  S20  1  0.175864  0.956510  0.394438  1
  S  S21  1  0.670871  0.546496  0.098245  1
  S  S22  1  0.824715  0.044443  0.894385  1
  S  S23  1  0.323358  0.455518  0.605830  1
  S  S24  1  0.529656  0.064348  0.750000  1
  S  S25  1  0.028057  0.435584  0.750000  1
  S  S26  1  0.470886  0.936849  0.250000  1
  S  S27  1  0.980521  0.565782  0.250000  1
  S  S28  1  0.711702  0.772381  0.750000  1
  S  S29  1  0.210240  0.727687  0.750000  1
  S  S30  1  0.289035  0.228707  0.250000  1
  S  S31  1  0.788516  0.262561  0.250000  1
