# generated using pymatgen
data_LaY2(ZnPd)4
_symmetry_space_group_name_H-M   'P 1'
_cell_length_a   8.27141002
_cell_length_b   8.27141005
_cell_length_c   8.27140955
_cell_angle_alpha   151.09798329
_cell_angle_beta   126.65654721
_cell_angle_gamma   61.80561177
_symmetry_Int_Tables_number   1
_chemical_formula_structural   LaY2(ZnPd)4
_chemical_formula_sum   'La1 Y2 Zn4 Pd4'
_cell_volume   217.56831026
_cell_formula_units_Z   1
loop_
 _symmetry_equiv_pos_site_id
 _symmetry_equiv_pos_as_xyz
  1  'x, y, z'
loop_
 _atom_site_type_symbol
 _atom_site_label
 _atom_site_symmetry_multiplicity
 _atom_site_fract_x
 _atom_site_fract_y
 _atom_site_fract_z
 _atom_site_occupancy
  La  La0  1  0.500000  0.000000  0.500000  1
  Y  Y1  1  0.870686  0.870686  0.000000  1
  Y  Y2  1  0.129314  0.129314  0.000000  1
  Zn  Zn3  1  0.478200  0.674075  0.804125  1
  Zn  Zn4  1  0.869950  0.674075  0.195875  1
  Zn  Zn5  1  0.130050  0.325925  0.804125  1
  Zn  Zn6  1  0.521800  0.325925  0.195875  1
  Pd  Pd7  1  0.280103  0.780103  0.500000  1
  Pd  Pd8  1  0.719897  0.219897  0.500000  1
  Pd  Pd9  1  0.810377  0.500000  0.310377  1
  Pd  Pd10  1  0.189623  0.500000  0.689623  1
