# generated using pymatgen
data_LiDy12InFe4
_symmetry_space_group_name_H-M   'P 1'
_cell_length_a   8.36796185
_cell_length_b   8.36798281
_cell_length_c   8.36796309
_cell_angle_alpha   110.64925171
_cell_angle_beta   111.09806198
_cell_angle_gamma   106.70157896
_symmetry_Int_Tables_number   1
_chemical_formula_structural   LiDy12InFe4
_chemical_formula_sum   'Li1 Dy12 In1 Fe4'
_cell_volume   450.27181436
_cell_formula_units_Z   1
loop_
 _symmetry_equiv_pos_site_id
 _symmetry_equiv_pos_as_xyz
  1  'x, y, z'
loop_
 _atom_site_type_symbol
 _atom_site_label
 _atom_site_symmetry_multiplicity
 _atom_site_fract_x
 _atom_site_fract_y
 _atom_site_fract_z
 _atom_site_occupancy
  Li  Li0  1  0.000000  0.000000  0.000000  1
  Dy  Dy1  1  0.428289  0.223405  0.204893  1
  Dy  Dy2  1  0.571711  0.776595  0.795107  1
  Dy  Dy3  1  0.018511  0.223405  0.795116  1
  Dy  Dy4  1  0.981489  0.776595  0.204884  1
  Dy  Dy5  1  0.189020  0.291400  0.480428  1
  Dy  Dy6  1  0.810980  0.708600  0.519572  1
  Dy  Dy7  1  0.189028  0.708600  0.897620  1
  Dy  Dy8  1  0.810972  0.291400  0.102380  1
  Dy  Dy9  1  0.310910  0.609934  0.299025  1
  Dy  Dy10  1  0.689090  0.390066  0.700975  1
  Dy  Dy11  1  0.310903  0.011868  0.700965  1
  Dy  Dy12  1  0.689097  0.988132  0.299035  1
  In  In13  1  0.500000  0.500000  0.000000  1
  Fe  Fe14  1  0.382940  0.000000  0.382940  1
  Fe  Fe15  1  0.617060  0.000000  0.617060  1
  Fe  Fe16  1  0.108354  0.608354  0.500000  1
  Fe  Fe17  1  0.891646  0.391646  0.500000  1
