# generated using pymatgen
data_Na4YbTeO6
_symmetry_space_group_name_H-M   'P 1'
_cell_length_a   5.73589817
_cell_length_b   5.73589797
_cell_length_c   5.80914821
_cell_angle_alpha   100.12730153
_cell_angle_beta   100.12730032
_cell_angle_gamma   119.60039131
_symmetry_Int_Tables_number   1
_chemical_formula_structural   Na4YbTeO6
_chemical_formula_sum   'Na4 Yb1 Te1 O6'
_cell_volume   155.69690714
_cell_formula_units_Z   1
loop_
 _symmetry_equiv_pos_site_id
 _symmetry_equiv_pos_as_xyz
  1  'x, y, z'
loop_
 _atom_site_type_symbol
 _atom_site_label
 _atom_site_symmetry_multiplicity
 _atom_site_fract_x
 _atom_site_fract_y
 _atom_site_fract_z
 _atom_site_occupancy
  Na  Na0  1  0.500018  0.499981  0.000000  1
  Na  Na1  1  0.004972  0.995030  0.500000  1
  Na  Na2  1  0.660253  0.339749  0.500000  1
  Na  Na3  1  0.335636  0.664366  0.500000  1
  Yb  Yb4  1  0.833044  0.166954  0.000000  1
  Te  Te5  1  0.167087  0.832912  0.000000  1
  O  O6  1  0.959745  0.617061  0.202503  1
  O  O7  1  0.227306  0.183761  0.213484  1
  O  O8  1  0.527807  0.915054  0.214050  1
  O  O9  1  0.084946  0.472193  0.785950  1
  O  O10  1  0.816239  0.772694  0.786517  1
  O  O11  1  0.382939  0.040256  0.797498  1
