# generated using pymatgen
data_Nd4Gd5YIr4
_symmetry_space_group_name_H-M   'P 1'
_cell_length_a   6.56274280
_cell_length_b   7.25974463
_cell_length_c   8.79814400
_cell_angle_alpha   97.10107244
_cell_angle_beta   112.06307632
_cell_angle_gamma   90.06444558
_symmetry_Int_Tables_number   1
_chemical_formula_structural   Nd4Gd5YIr4
_chemical_formula_sum   'Nd4 Gd5 Y1 Ir4'
_cell_volume   384.98572179
_cell_formula_units_Z   1
loop_
 _symmetry_equiv_pos_site_id
 _symmetry_equiv_pos_as_xyz
  1  'x, y, z'
loop_
 _atom_site_type_symbol
 _atom_site_label
 _atom_site_symmetry_multiplicity
 _atom_site_fract_x
 _atom_site_fract_y
 _atom_site_fract_z
 _atom_site_occupancy
  Nd  Nd0  1  0.978282  0.921071  0.191521  1
  Nd  Nd1  1  0.786590  0.578866  0.809346  1
  Nd  Nd2  1  0.021096  0.078367  0.809411  1
  Nd  Nd3  1  0.214446  0.421586  0.191777  1
  Gd  Gd4  1  0.206309  0.685513  0.562034  1
  Gd  Gd5  1  0.358709  0.185897  0.564327  1
  Gd  Gd6  1  0.794294  0.315043  0.437536  1
  Gd  Gd7  1  0.427483  0.750889  0.999977  1
  Gd  Gd8  1  0.572165  0.250069  0.000744  1
  Y  Y9  1  0.641246  0.812711  0.435272  1
  Ir  Ir10  1  0.815017  0.573803  0.227536  1
  Ir  Ir11  1  0.587488  0.926100  0.773547  1
  Ir  Ir12  1  0.184917  0.426517  0.772543  1
  Ir  Ir13  1  0.411958  0.073567  0.224430  1
