# generated using pymatgen
data_Ce4Sn(B3Ru)2
_symmetry_space_group_name_H-M   'P 1'
_cell_length_a   5.40905607
_cell_length_b   5.40905700
_cell_length_c   8.53207551
_cell_angle_alpha   71.51939694
_cell_angle_beta   71.51939221
_cell_angle_gamma   59.99999643
_symmetry_Int_Tables_number   1
_chemical_formula_structural   Ce4Sn(B3Ru)2
_chemical_formula_sum   'Ce4 Sn1 B6 Ru2'
_cell_volume   201.18446464
_cell_formula_units_Z   1
loop_
 _symmetry_equiv_pos_site_id
 _symmetry_equiv_pos_as_xyz
  1  'x, y, z'
loop_
 _atom_site_type_symbol
 _atom_site_label
 _atom_site_symmetry_multiplicity
 _atom_site_fract_x
 _atom_site_fract_y
 _atom_site_fract_z
 _atom_site_occupancy
  Ce  Ce0  1  0.253472  0.253472  0.239583  1
  Ce  Ce1  1  0.746528  0.746528  0.760417  1
  Ce  Ce2  1  0.412528  0.412528  0.762417  1
  Ce  Ce3  1  0.587472  0.587472  0.237584  1
  Sn  Sn4  1  0.000000  0.000000  0.000000  1
  B  B5  1  0.172703  0.827297  0.500000  1
  B  B6  1  0.827297  0.500000  0.500000  1
  B  B7  1  0.500000  0.172703  0.500000  1
  B  B8  1  0.172703  0.500000  0.500000  1
  B  B9  1  0.500000  0.827297  0.500000  1
  B  B10  1  0.827297  0.172703  0.500000  1
  Ru  Ru11  1  0.113294  0.113294  0.660118  1
  Ru  Ru12  1  0.886706  0.886706  0.339882  1
