# generated using pymatgen
data_Dy3YPu4(ReB6)4
_symmetry_space_group_name_H-M   'P 1'
_cell_length_a   3.67885000
_cell_length_b   9.22154305
_cell_length_c   11.54163406
_cell_angle_alpha   90.01156170
_cell_angle_beta   90.00000000
_cell_angle_gamma   90.00000000
_symmetry_Int_Tables_number   1
_chemical_formula_structural   Dy3YPu4(ReB6)4
_chemical_formula_sum   'Dy3 Y1 Pu4 Re4 B24'
_cell_volume   391.54616072
_cell_formula_units_Z   1
loop_
 _symmetry_equiv_pos_site_id
 _symmetry_equiv_pos_as_xyz
  1  'x, y, z'
loop_
 _atom_site_type_symbol
 _atom_site_label
 _atom_site_symmetry_multiplicity
 _atom_site_fract_x
 _atom_site_fract_y
 _atom_site_fract_z
 _atom_site_occupancy
  Dy  Dy0  1  0.000000  0.445240  0.125157  1
  Dy  Dy1  1  0.000000  0.554715  0.874884  1
  Dy  Dy2  1  0.000000  0.945265  0.374653  1
  Y  Y3  1  0.000000  0.054737  0.625058  1
  Pu  Pu4  1  0.000000  0.824742  0.087023  1
  Pu  Pu5  1  0.000000  0.175125  0.912990  1
  Pu  Pu6  1  0.000000  0.324964  0.412822  1
  Pu  Pu7  1  0.000000  0.674956  0.587075  1
  Re  Re8  1  0.000000  0.138301  0.177663  1
  Re  Re9  1  0.000000  0.861657  0.822622  1
  Re  Re10  1  0.000000  0.638237  0.322330  1
  Re  Re11  1  0.000000  0.361865  0.677704  1
  B  B12  1  0.500000  0.052229  0.066656  1
  B  B13  1  0.500000  0.947877  0.933349  1
  B  B14  1  0.500000  0.552150  0.433304  1
  B  B15  1  0.500000  0.447788  0.566650  1
  B  B16  1  0.500000  0.246486  0.078779  1
  B  B17  1  0.500000  0.753519  0.921165  1
  B  B18  1  0.500000  0.746507  0.421113  1
  B  B19  1  0.500000  0.253659  0.578713  1
  B  B20  1  0.500000  0.293780  0.232767  1
  B  B21  1  0.500000  0.706168  0.767289  1
  B  B22  1  0.500000  0.793790  0.267234  1
  B  B23  1  0.500000  0.206286  0.732914  1
  B  B24  1  0.500000  0.134799  0.313554  1
  B  B25  1  0.500000  0.865097  0.686421  1
  B  B26  1  0.500000  0.634756  0.186388  1
  B  B27  1  0.500000  0.365225  0.813640  1
  B  B28  1  0.500000  0.482504  0.286770  1
  B  B29  1  0.500000  0.517470  0.713271  1
  B  B30  1  0.500000  0.982574  0.213209  1
  B  B31  1  0.500000  0.017558  0.786967  1
  B  B32  1  0.500000  0.119370  0.466504  1
  B  B33  1  0.500000  0.880694  0.533349  1
  B  B34  1  0.500000  0.619204  0.033401  1
  B  B35  1  0.500000  0.380705  0.966610  1
