# generated using pymatgen
data_Y13Th3Cd4IrPt3
_symmetry_space_group_name_H-M   'P 1'
_cell_length_a   9.80289221
_cell_length_b   9.80279870
_cell_length_c   9.80279900
_cell_angle_alpha   59.99999562
_cell_angle_beta   60.00031117
_cell_angle_gamma   60.00031713
_symmetry_Int_Tables_number   1
_chemical_formula_structural   Y13Th3Cd4IrPt3
_chemical_formula_sum   'Y13 Th3 Cd4 Ir1 Pt3'
_cell_volume   666.10310758
_cell_formula_units_Z   1
loop_
 _symmetry_equiv_pos_site_id
 _symmetry_equiv_pos_as_xyz
  1  'x, y, z'
loop_
 _atom_site_type_symbol
 _atom_site_label
 _atom_site_symmetry_multiplicity
 _atom_site_fract_x
 _atom_site_fract_y
 _atom_site_fract_z
 _atom_site_occupancy
  Y  Y0  1  0.938590  0.353804  0.353804  1
  Y  Y1  1  0.808985  0.189199  0.189199  1
  Y  Y2  1  0.189399  0.811216  0.811216  1
  Y  Y3  1  0.189399  0.811216  0.188168  1
  Y  Y4  1  0.808985  0.189199  0.812617  1
  Y  Y5  1  0.189399  0.188168  0.811216  1
  Y  Y6  1  0.808985  0.812617  0.189199  1
  Y  Y7  1  0.935831  0.565953  0.565953  1
  Y  Y8  1  0.566632  0.933680  0.933680  1
  Y  Y9  1  0.566632  0.933680  0.566007  1
  Y  Y10  1  0.935831  0.565953  0.932262  1
  Y  Y11  1  0.566632  0.566007  0.933680  1
  Y  Y12  1  0.935831  0.932262  0.565953  1
  Th  Th13  1  0.352567  0.350187  0.350187  1
  Th  Th14  1  0.352567  0.350187  0.947059  1
  Th  Th15  1  0.352567  0.947059  0.350187  1
  Cd  Cd16  1  0.585158  0.581665  0.581665  1
  Cd  Cd17  1  0.585158  0.581665  0.251513  1
  Cd  Cd18  1  0.585158  0.251513  0.581665  1
  Cd  Cd19  1  0.250634  0.583122  0.583122  1
  Ir  Ir20  1  0.565114  0.144962  0.144962  1
  Pt  Pt21  1  0.143317  0.142768  0.142768  1
  Pt  Pt22  1  0.143317  0.142768  0.571146  1
  Pt  Pt23  1  0.143317  0.571146  0.142768  1
