# generated using pymatgen
data_Tm4ZnPt11
_symmetry_space_group_name_H-M   'P 1'
_cell_length_a   4.12612800
_cell_length_b   5.76718144
_cell_length_c   11.52694829
_cell_angle_alpha   88.22985297
_cell_angle_beta   90.00000000
_cell_angle_gamma   90.00000000
_symmetry_Int_Tables_number   1
_chemical_formula_structural   Tm4ZnPt11
_chemical_formula_sum   'Tm4 Zn1 Pt11'
_cell_volume   274.16584950
_cell_formula_units_Z   1
loop_
 _symmetry_equiv_pos_site_id
 _symmetry_equiv_pos_as_xyz
  1  'x, y, z'
loop_
 _atom_site_type_symbol
 _atom_site_label
 _atom_site_symmetry_multiplicity
 _atom_site_fract_x
 _atom_site_fract_y
 _atom_site_fract_z
 _atom_site_occupancy
  Tm  Tm0  1  0.500000  0.754693  0.373643  1
  Tm  Tm1  1  0.500000  0.727210  0.868187  1
  Tm  Tm2  1  0.500000  0.272790  0.131813  1
  Tm  Tm3  1  0.500000  0.245307  0.626357  1
  Zn  Zn4  1  0.000000  0.000000  0.000000  1
  Pt  Pt5  1  0.000000  0.011795  0.245954  1
  Pt  Pt6  1  0.000000  0.988205  0.754046  1
  Pt  Pt7  1  0.000000  0.500000  0.000000  1
  Pt  Pt8  1  0.000000  0.500000  0.500000  1
  Pt  Pt9  1  0.000000  0.514087  0.248679  1
  Pt  Pt10  1  0.000000  0.485913  0.751321  1
  Pt  Pt11  1  0.500000  0.252377  0.376728  1
  Pt  Pt12  1  0.500000  0.227156  0.883253  1
  Pt  Pt13  1  0.500000  0.772844  0.116747  1
  Pt  Pt14  1  0.500000  0.747623  0.623272  1
  Pt  Pt15  1  0.000000  0.000000  0.500000  1
