# generated using pymatgen
data_TaNiTe3Pd
_symmetry_space_group_name_H-M   'P 1'
_cell_length_a   3.77779700
_cell_length_b   8.00110954
_cell_length_c   10.79974806
_cell_angle_alpha   70.65309975
_cell_angle_beta   90.00000000
_cell_angle_gamma   90.00000000
_symmetry_Int_Tables_number   1
_chemical_formula_structural   TaNiTe3Pd
_chemical_formula_sum   'Ta2 Ni2 Te6 Pd2'
_cell_volume   308.00531577
_cell_formula_units_Z   2
loop_
 _symmetry_equiv_pos_site_id
 _symmetry_equiv_pos_as_xyz
  1  'x, y, z'
loop_
 _atom_site_type_symbol
 _atom_site_label
 _atom_site_symmetry_multiplicity
 _atom_site_fract_x
 _atom_site_fract_y
 _atom_site_fract_z
 _atom_site_occupancy
  Ta  Ta0  1  0.250000  0.796893  0.695406  1
  Ta  Ta1  1  0.750000  0.203107  0.304594  1
  Ni  Ni2  1  0.750000  0.040736  0.561511  1
  Ni  Ni3  1  0.250000  0.959264  0.438489  1
  Te  Te4  1  0.750000  0.963372  0.812005  1
  Te  Te5  1  0.250000  0.036628  0.187995  1
  Te  Te6  1  0.750000  0.564520  0.176768  1
  Te  Te7  1  0.250000  0.435480  0.823232  1
  Te  Te8  1  0.250000  0.268511  0.489960  1
  Te  Te9  1  0.750000  0.731489  0.510040  1
  Pd  Pd10  1  0.250000  0.391728  0.094101  1
  Pd  Pd11  1  0.750000  0.608272  0.905899  1
