# generated using pymatgen
data_Pr2ZnNi5
_symmetry_space_group_name_H-M   'P 1'
_cell_length_a   5.15706800
_cell_length_b   5.15706672
_cell_length_c   16.40907700
_cell_angle_alpha   90.00000000
_cell_angle_beta   90.00000000
_cell_angle_gamma   119.99999536
_symmetry_Int_Tables_number   1
_chemical_formula_structural   Pr2ZnNi5
_chemical_formula_sum   'Pr6 Zn3 Ni15'
_cell_volume   377.93787193
_cell_formula_units_Z   3
loop_
 _symmetry_equiv_pos_site_id
 _symmetry_equiv_pos_as_xyz
  1  'x, y, z'
loop_
 _atom_site_type_symbol
 _atom_site_label
 _atom_site_symmetry_multiplicity
 _atom_site_fract_x
 _atom_site_fract_y
 _atom_site_fract_z
 _atom_site_occupancy
  Pr  Pr0  1  0.333333  0.666667  0.542048  1
  Pr  Pr1  1  0.666667  0.333333  0.463146  1
  Pr  Pr2  1  0.666667  0.333333  0.036854  1
  Pr  Pr3  1  0.333333  0.666667  0.957952  1
  Pr  Pr4  1  0.333333  0.666667  0.750000  1
  Pr  Pr5  1  0.666667  0.333333  0.250000  1
  Zn  Zn6  1  0.000000  0.000000  0.250000  1
  Zn  Zn7  1  0.000000  0.000000  0.750000  1
  Zn  Zn8  1  0.333333  0.666667  0.250000  1
  Ni  Ni9  1  0.666667  0.333333  0.750000  1
  Ni  Ni10  1  0.000000  0.000000  0.996267  1
  Ni  Ni11  1  0.000000  0.000000  0.503733  1
  Ni  Ni12  1  0.164419  0.328837  0.125336  1
  Ni  Ni13  1  0.832003  0.664007  0.870234  1
  Ni  Ni14  1  0.671163  0.835581  0.125336  1
  Ni  Ni15  1  0.832003  0.664007  0.629766  1
  Ni  Ni16  1  0.335993  0.167997  0.870234  1
  Ni  Ni17  1  0.164419  0.328837  0.374664  1
  Ni  Ni18  1  0.164419  0.835581  0.125336  1
  Ni  Ni19  1  0.335993  0.167997  0.629766  1
  Ni  Ni20  1  0.832003  0.167997  0.870234  1
  Ni  Ni21  1  0.671163  0.835581  0.374664  1
  Ni  Ni22  1  0.832003  0.167997  0.629766  1
  Ni  Ni23  1  0.164419  0.835581  0.374664  1
