# generated using pymatgen
data_Dy4V3TcB16
_symmetry_space_group_name_H-M   'P 1'
_cell_length_a   3.49952900
_cell_length_b   5.98420109
_cell_length_c   11.58025701
_cell_angle_alpha   89.99264437
_cell_angle_beta   90.00000000
_cell_angle_gamma   90.00000000
_symmetry_Int_Tables_number   1
_chemical_formula_structural   Dy4V3TcB16
_chemical_formula_sum   'Dy4 V3 Tc1 B16'
_cell_volume   242.51241158
_cell_formula_units_Z   1
loop_
 _symmetry_equiv_pos_site_id
 _symmetry_equiv_pos_as_xyz
  1  'x, y, z'
loop_
 _atom_site_type_symbol
 _atom_site_label
 _atom_site_symmetry_multiplicity
 _atom_site_fract_x
 _atom_site_fract_y
 _atom_site_fract_z
 _atom_site_occupancy
  Dy  Dy0  1  0.500000  0.123975  0.849704  1
  Dy  Dy1  1  0.500000  0.875426  0.151065  1
  Dy  Dy2  1  0.500000  0.626488  0.651708  1
  Dy  Dy3  1  0.500000  0.374683  0.348910  1
  V  V4  1  0.500000  0.872336  0.418178  1
  V  V5  1  0.500000  0.627211  0.916198  1
  V  V6  1  0.500000  0.373016  0.082535  1
  Tc  Tc7  1  0.500000  0.127551  0.582652  1
  B  B8  1  0.000000  0.284919  0.684791  1
  B  B9  1  0.000000  0.714800  0.314824  1
  B  B10  1  0.000000  0.786028  0.814343  1
  B  B11  1  0.000000  0.213700  0.185600  1
  B  B12  1  0.000000  0.364588  0.531918  1
  B  B13  1  0.000000  0.635269  0.467684  1
  B  B14  1  0.000000  0.864225  0.967460  1
  B  B15  1  0.000000  0.135740  0.032665  1
  B  B16  1  0.000000  0.022492  0.307721  1
  B  B17  1  0.000000  0.977147  0.692186  1
  B  B18  1  0.000000  0.523115  0.192461  1
  B  B19  1  0.000000  0.476699  0.807568  1
  B  B20  1  0.000000  0.113720  0.452639  1
  B  B21  1  0.000000  0.886409  0.547098  1
  B  B22  1  0.000000  0.614566  0.047450  1
  B  B23  1  0.000000  0.385893  0.952641  1
