# generated using pymatgen
data_Hf5BePb3
_symmetry_space_group_name_H-M   'P 1'
_cell_length_a   8.69791500
_cell_length_b   8.69791631
_cell_length_c   5.80853100
_cell_angle_alpha   90.00000000
_cell_angle_beta   90.00000000
_cell_angle_gamma   120.00000642
_symmetry_Int_Tables_number   1
_chemical_formula_structural   Hf5BePb3
_chemical_formula_sum   'Hf10 Be2 Pb6'
_cell_volume   380.56364595
_cell_formula_units_Z   2
loop_
 _symmetry_equiv_pos_site_id
 _symmetry_equiv_pos_as_xyz
  1  'x, y, z'
loop_
 _atom_site_type_symbol
 _atom_site_label
 _atom_site_symmetry_multiplicity
 _atom_site_fract_x
 _atom_site_fract_y
 _atom_site_fract_z
 _atom_site_occupancy
  Hf  Hf0  1  0.244304  0.000000  0.750000  1
  Hf  Hf1  1  0.755696  0.000000  0.250000  1
  Hf  Hf2  1  0.000000  0.244304  0.750000  1
  Hf  Hf3  1  0.000000  0.755696  0.250000  1
  Hf  Hf4  1  0.755696  0.755696  0.750000  1
  Hf  Hf5  1  0.244304  0.244304  0.250000  1
  Hf  Hf6  1  0.333333  0.666667  0.500000  1
  Hf  Hf7  1  0.666667  0.333333  0.500000  1
  Hf  Hf8  1  0.666667  0.333333  0.000000  1
  Hf  Hf9  1  0.333333  0.666667  0.000000  1
  Be  Be10  1  0.000000  0.000000  0.500000  1
  Be  Be11  1  0.000000  0.000000  0.000000  1
  Pb  Pb12  1  0.608713  0.000000  0.750000  1
  Pb  Pb13  1  0.391287  0.000000  0.250000  1
  Pb  Pb14  1  0.000000  0.608713  0.750000  1
  Pb  Pb15  1  0.000000  0.391287  0.250000  1
  Pb  Pb16  1  0.391287  0.391287  0.750000  1
  Pb  Pb17  1  0.608713  0.608713  0.250000  1
