# generated using pymatgen
data_Zr8Ta12Ga3Si13
_symmetry_space_group_name_H-M   'P 1'
_cell_length_a   6.91734278
_cell_length_b   6.90375490
_cell_length_c   12.77611927
_cell_angle_alpha   90.02422934
_cell_angle_beta   89.93602404
_cell_angle_gamma   90.18208715
_symmetry_Int_Tables_number   1
_chemical_formula_structural   Zr8Ta12Ga3Si13
_chemical_formula_sum   'Zr8 Ta12 Ga3 Si13'
_cell_volume   610.12822610
_cell_formula_units_Z   1
loop_
 _symmetry_equiv_pos_site_id
 _symmetry_equiv_pos_as_xyz
  1  'x, y, z'
loop_
 _atom_site_type_symbol
 _atom_site_label
 _atom_site_symmetry_multiplicity
 _atom_site_fract_x
 _atom_site_fract_y
 _atom_site_fract_z
 _atom_site_occupancy
  Zr  Zr0  1  0.000743  0.663839  0.030703  1
  Zr  Zr1  1  0.999936  0.339135  0.530926  1
  Zr  Zr2  1  0.657484  0.998708  0.970553  1
  Zr  Zr3  1  0.161564  0.500888  0.779896  1
  Zr  Zr4  1  0.838201  0.497859  0.278961  1
  Zr  Zr5  1  0.500256  0.159169  0.219063  1
  Zr  Zr6  1  0.498157  0.839078  0.721201  1
  Zr  Zr7  1  0.339472  0.999445  0.469182  1
  Ta  Ta8  1  0.352204  0.502465  0.375012  1
  Ta  Ta9  1  0.844664  0.998896  0.369046  1
  Ta  Ta10  1  0.005454  0.153106  0.129081  1
  Ta  Ta11  1  0.998542  0.845029  0.630439  1
  Ta  Ta12  1  0.648746  0.497092  0.875241  1
  Ta  Ta13  1  0.502254  0.352419  0.625428  1
  Ta  Ta14  1  0.495047  0.652557  0.123727  1
  Ta  Ta15  1  0.156161  0.999992  0.872245  1
  Ta  Ta16  1  0.665440  0.666049  0.500003  1
  Ta  Ta17  1  0.830852  0.169419  0.750023  1
  Ta  Ta18  1  0.171213  0.832908  0.248214  1
  Ta  Ta19  1  0.334667  0.330483  0.001290  1
  Ga  Ga20  1  0.040820  0.700877  0.435101  1
  Ga  Ga21  1  0.959023  0.300401  0.935924  1
  Ga  Ga22  1  0.700498  0.040810  0.564182  1
  Si  Si23  1  0.200600  0.456929  0.186555  1
  Si  Si24  1  0.799629  0.543230  0.686254  1
  Si  Si25  1  0.456856  0.200876  0.813719  1
  Si  Si26  1  0.543516  0.798798  0.314134  1
  Si  Si27  1  0.297162  0.957021  0.063102  1
  Si  Si28  1  0.863820  0.792631  0.823311  1
  Si  Si29  1  0.135905  0.208305  0.323439  1
  Si  Si30  1  0.792145  0.864166  0.177015  1
  Si  Si31  1  0.293084  0.637254  0.571710  1
  Si  Si32  1  0.707719  0.364757  0.072546  1
  Si  Si33  1  0.636676  0.292968  0.427738  1
  Si  Si34  1  0.363860  0.706313  0.927788  1
  Si  Si35  1  0.207631  0.136127  0.677248  1
