# generated using pymatgen
data_DyLu6CoI12
_symmetry_space_group_name_H-M   'P 1'
_cell_length_a   9.61015881
_cell_length_b   9.61015997
_cell_length_c   9.61015923
_cell_angle_alpha   106.81930265
_cell_angle_beta   106.81930405
_cell_angle_gamma   106.81931073
_symmetry_Int_Tables_number   1
_chemical_formula_structural   DyLu6CoI12
_chemical_formula_sum   'Dy1 Lu6 Co1 I12'
_cell_volume   742.77161855
_cell_formula_units_Z   1
loop_
 _symmetry_equiv_pos_site_id
 _symmetry_equiv_pos_as_xyz
  1  'x, y, z'
loop_
 _atom_site_type_symbol
 _atom_site_label
 _atom_site_symmetry_multiplicity
 _atom_site_fract_x
 _atom_site_fract_y
 _atom_site_fract_z
 _atom_site_occupancy
  Dy  Dy0  1  0.500000  0.500000  0.500000  1
  Lu  Lu1  1  0.021370  0.089816  0.282436  1
  Lu  Lu2  1  0.089816  0.282436  0.021370  1
  Lu  Lu3  1  0.282436  0.021370  0.089816  1
  Lu  Lu4  1  0.978630  0.910184  0.717564  1
  Lu  Lu5  1  0.910184  0.717564  0.978630  1
  Lu  Lu6  1  0.717564  0.978630  0.910184  1
  Co  Co7  1  0.000000  0.000000  0.000000  1
  I  I8  1  0.157835  0.463619  0.385868  1
  I  I9  1  0.463619  0.385868  0.157835  1
  I  I10  1  0.385868  0.157835  0.463619  1
  I  I11  1  0.842165  0.536381  0.614132  1
  I  I12  1  0.536381  0.614132  0.842165  1
  I  I13  1  0.614132  0.842165  0.536381  1
  I  I14  1  0.676653  0.071622  0.224657  1
  I  I15  1  0.071622  0.224657  0.676653  1
  I  I16  1  0.224657  0.676653  0.071622  1
  I  I17  1  0.323347  0.928378  0.775343  1
  I  I18  1  0.928378  0.775343  0.323347  1
  I  I19  1  0.775343  0.323347  0.928378  1
