# generated using pymatgen
data_Pr3ThCdHgPd4
_symmetry_space_group_name_H-M   'P 1'
_cell_length_a   7.89446401
_cell_length_b   7.89585035
_cell_length_c   3.90747000
_cell_angle_alpha   90.00000000
_cell_angle_beta   90.00000000
_cell_angle_gamma   91.31328190
_symmetry_Int_Tables_number   1
_chemical_formula_structural   Pr3ThCdHgPd4
_chemical_formula_sum   'Pr3 Th1 Cd1 Hg1 Pd4'
_cell_volume   243.50232738
_cell_formula_units_Z   1
loop_
 _symmetry_equiv_pos_site_id
 _symmetry_equiv_pos_as_xyz
  1  'x, y, z'
loop_
 _atom_site_type_symbol
 _atom_site_label
 _atom_site_symmetry_multiplicity
 _atom_site_fract_x
 _atom_site_fract_y
 _atom_site_fract_z
 _atom_site_occupancy
  Pr  Pr0  1  0.827339  0.676055  0.500000  1
  Pr  Pr1  1  0.171599  0.323490  0.500000  1
  Pr  Pr2  1  0.677455  0.173255  0.500000  1
  Th  Th3  1  0.326184  0.829537  0.500000  1
  Cd  Cd4  1  0.500938  0.497256  0.000000  1
  Hg  Hg5  1  0.996575  0.000817  0.000000  1
  Pd  Pd6  1  0.370208  0.118844  0.000000  1
  Pd  Pd7  1  0.876389  0.379786  0.000000  1
  Pd  Pd8  1  0.138098  0.634552  0.000000  1
  Pd  Pd9  1  0.615214  0.866405  0.000000  1
