# generated using pymatgen
data_Sm8Ho12Si15Au
_symmetry_space_group_name_H-M   'P 1'
_cell_length_a   7.46584798
_cell_length_b   7.74302352
_cell_length_c   14.73691835
_cell_angle_alpha   89.83451975
_cell_angle_beta   89.56466287
_cell_angle_gamma   90.24973049
_symmetry_Int_Tables_number   1
_chemical_formula_structural   Sm8Ho12Si15Au
_chemical_formula_sum   'Sm8 Ho12 Si15 Au1'
_cell_volume   851.87894320
_cell_formula_units_Z   1
loop_
 _symmetry_equiv_pos_site_id
 _symmetry_equiv_pos_as_xyz
  1  'x, y, z'
loop_
 _atom_site_type_symbol
 _atom_site_label
 _atom_site_symmetry_multiplicity
 _atom_site_fract_x
 _atom_site_fract_y
 _atom_site_fract_z
 _atom_site_occupancy
  Sm  Sm0  1  0.022185  0.181064  0.099149  1
  Sm  Sm1  1  0.978339  0.820069  0.901595  1
  Sm  Sm2  1  0.478097  0.680587  0.901387  1
  Sm  Sm3  1  0.980102  0.825687  0.599838  1
  Sm  Sm4  1  0.520539  0.319025  0.097480  1
  Sm  Sm5  1  0.017151  0.176826  0.400018  1
  Sm  Sm6  1  0.518531  0.318988  0.399767  1
  Sm  Sm7  1  0.483945  0.681909  0.600631  1
  Ho  Ho8  1  0.160478  0.510123  0.749499  1
  Ho  Ho9  1  0.841348  0.489522  0.251588  1
  Ho  Ho10  1  0.342143  0.007188  0.249638  1
  Ho  Ho11  1  0.659700  0.989517  0.749967  1
  Ho  Ho12  1  0.330726  0.178191  0.623210  1
  Ho  Ho13  1  0.670226  0.821347  0.376302  1
  Ho  Ho14  1  0.174181  0.672691  0.376617  1
  Ho  Ho15  1  0.676641  0.821641  0.122785  1
  Ho  Ho16  1  0.825339  0.325831  0.623010  1
  Ho  Ho17  1  0.324288  0.178864  0.877046  1
  Ho  Ho18  1  0.824748  0.319821  0.877657  1
  Ho  Ho19  1  0.174181  0.678824  0.122699  1
  Si  Si20  1  0.031978  0.113593  0.751424  1
  Si  Si21  1  0.969322  0.888613  0.250094  1
  Si  Si22  1  0.468174  0.607836  0.248068  1
  Si  Si23  1  0.533951  0.391477  0.751982  1
  Si  Si24  1  0.275276  0.878037  0.751010  1
  Si  Si25  1  0.724182  0.123291  0.248617  1
  Si  Si26  1  0.225653  0.373487  0.248322  1
  Si  Si27  1  0.777570  0.624307  0.752804  1
  Si  Si28  1  0.838605  0.532902  0.458639  1
  Si  Si29  1  0.346294  0.967311  0.460805  1
  Si  Si30  1  0.849264  0.532193  0.038153  1
  Si  Si31  1  0.652716  0.033699  0.538097  1
  Si  Si32  1  0.149356  0.467767  0.961530  1
  Si  Si33  1  0.648875  0.030092  0.960342  1
  Si  Si34  1  0.350337  0.967993  0.038770  1
  Au  Au35  1  0.155557  0.469690  0.541466  1
