# generated using pymatgen
data_K3RbAu6Se5
_symmetry_space_group_name_H-M   'P 1'
_cell_length_a   10.14061800
_cell_length_b   10.14061767
_cell_length_c   10.66972600
_cell_angle_alpha   90.00000000
_cell_angle_beta   90.00000000
_cell_angle_gamma   119.99999454
_symmetry_Int_Tables_number   1
_chemical_formula_structural   K3RbAu6Se5
_chemical_formula_sum   'K6 Rb2 Au12 Se10'
_cell_volume   950.19503011
_cell_formula_units_Z   2
loop_
 _symmetry_equiv_pos_site_id
 _symmetry_equiv_pos_as_xyz
  1  'x, y, z'
loop_
 _atom_site_type_symbol
 _atom_site_label
 _atom_site_symmetry_multiplicity
 _atom_site_fract_x
 _atom_site_fract_y
 _atom_site_fract_z
 _atom_site_occupancy
  K  K0  1  0.579674  0.943302  0.750000  1
  K  K1  1  0.056698  0.636371  0.750000  1
  K  K2  1  0.363629  0.420326  0.750000  1
  K  K3  1  0.420326  0.363629  0.250000  1
  K  K4  1  0.636371  0.056698  0.250000  1
  K  K5  1  0.943302  0.579674  0.250000  1
  Rb  Rb6  1  0.000000  0.000000  0.000000  1
  Rb  Rb7  1  0.000000  0.000000  0.500000  1
  Au  Au8  1  0.164620  0.447545  0.411982  1
  Au  Au9  1  0.282925  0.835380  0.411982  1
  Au  Au10  1  0.552455  0.717075  0.411982  1
  Au  Au11  1  0.717075  0.552455  0.588018  1
  Au  Au12  1  0.282925  0.835380  0.088018  1
  Au  Au13  1  0.164620  0.447545  0.088018  1
  Au  Au14  1  0.835380  0.282925  0.911982  1
  Au  Au15  1  0.447545  0.164620  0.911982  1
  Au  Au16  1  0.447545  0.164620  0.588018  1
  Au  Au17  1  0.835380  0.282925  0.588018  1
  Au  Au18  1  0.717075  0.552455  0.911982  1
  Au  Au19  1  0.552455  0.717075  0.088018  1
  Se  Se20  1  0.255608  0.025929  0.750000  1
  Se  Se21  1  0.333333  0.666667  0.547003  1
  Se  Se22  1  0.333333  0.666667  0.952997  1
  Se  Se23  1  0.666667  0.333333  0.047003  1
  Se  Se24  1  0.666667  0.333333  0.452997  1
  Se  Se25  1  0.025929  0.255608  0.250000  1
  Se  Se26  1  0.229679  0.974071  0.250000  1
  Se  Se27  1  0.744392  0.770321  0.250000  1
  Se  Se28  1  0.974071  0.229679  0.750000  1
  Se  Se29  1  0.770321  0.744392  0.750000  1
