# generated using pymatgen
data_Ba14Na14YbN6
_symmetry_space_group_name_H-M   'P 1'
_cell_length_a   12.54502362
_cell_length_b   12.54504428
_cell_length_c   12.54701289
_cell_angle_alpha   60.12696167
_cell_angle_beta   60.12000811
_cell_angle_gamma   60.12910823
_symmetry_Int_Tables_number   1
_chemical_formula_structural   Ba14Na14YbN6
_chemical_formula_sum   'Ba14 Na14 Yb1 N6'
_cell_volume   1400.23410460
_cell_formula_units_Z   1
loop_
 _symmetry_equiv_pos_site_id
 _symmetry_equiv_pos_as_xyz
  1  'x, y, z'
loop_
 _atom_site_type_symbol
 _atom_site_label
 _atom_site_symmetry_multiplicity
 _atom_site_fract_x
 _atom_site_fract_y
 _atom_site_fract_z
 _atom_site_occupancy
  Ba  Ba0  1  0.892611  0.892608  0.892607  1
  Ba  Ba1  1  0.677961  0.107248  0.107326  1
  Ba  Ba2  1  0.107311  0.107283  0.677937  1
  Ba  Ba3  1  0.107262  0.677966  0.107310  1
  Ba  Ba4  1  0.892689  0.892717  0.322063  1
  Ba  Ba5  1  0.892738  0.322034  0.892690  1
  Ba  Ba6  1  0.322039  0.892752  0.892674  1
  Ba  Ba7  1  0.107389  0.107392  0.107393  1
  Ba  Ba8  1  0.287793  0.712118  0.287809  1
  Ba  Ba9  1  0.712198  0.712211  0.287864  1
  Ba  Ba10  1  0.287802  0.287789  0.712136  1
  Ba  Ba11  1  0.287877  0.712215  0.712187  1
  Ba  Ba12  1  0.712123  0.287785  0.287813  1
  Ba  Ba13  1  0.712207  0.287882  0.712191  1
  Na  Na14  1  0.671077  0.671078  0.671075  1
  Na  Na15  1  0.013371  0.328803  0.328790  1
  Na  Na16  1  0.328789  0.328800  0.013372  1
  Na  Na17  1  0.328808  0.013361  0.328806  1
  Na  Na18  1  0.671211  0.671200  0.986628  1
  Na  Na19  1  0.671192  0.986639  0.671194  1
  Na  Na20  1  0.986629  0.671197  0.671210  1
  Na  Na21  1  0.328923  0.328922  0.328925  1
  Na  Na22  1  0.500000  0.000000  0.000000  1
  Na  Na23  1  0.000000  0.500000  0.500000  1
  Na  Na24  1  0.000000  0.500000  0.000000  1
  Na  Na25  1  0.500000  0.000000  0.500000  1
  Na  Na26  1  0.500000  0.500000  0.000000  1
  Na  Na27  1  0.000000  0.000000  0.500000  1
  Yb  Yb28  1  0.000000  0.000000  0.000000  1
  N  N29  1  0.144765  0.855217  0.144756  1
  N  N30  1  0.855239  0.855261  0.144732  1
  N  N31  1  0.144761  0.144739  0.855268  1
  N  N32  1  0.144764  0.855248  0.855239  1
  N  N33  1  0.855236  0.144752  0.144761  1
  N  N34  1  0.855235  0.144783  0.855244  1
