# generated using pymatgen
data_Ta9Al3GeAu
_symmetry_space_group_name_H-M   'P 1'
_cell_length_a   9.96014799
_cell_length_b   9.92752311
_cell_length_c   9.92749800
_cell_angle_alpha   93.64938468
_cell_angle_beta   93.79689917
_cell_angle_gamma   150.11893894
_symmetry_Int_Tables_number   1
_chemical_formula_structural   Ta9Al3GeAu
_chemical_formula_sum   'Ta18 Al6 Ge2 Au2'
_cell_volume   473.28134620
_cell_formula_units_Z   2
loop_
 _symmetry_equiv_pos_site_id
 _symmetry_equiv_pos_as_xyz
  1  'x, y, z'
loop_
 _atom_site_type_symbol
 _atom_site_label
 _atom_site_symmetry_multiplicity
 _atom_site_fract_x
 _atom_site_fract_y
 _atom_site_fract_z
 _atom_site_occupancy
  Ta  Ta0  1  0.559652  0.790205  0.355781  1
  Ta  Ta1  1  0.082960  0.159032  0.238845  1
  Ta  Ta2  1  0.582932  0.344089  0.923923  1
  Ta  Ta3  1  0.650688  0.574592  0.238859  1
  Ta  Ta4  1  0.349312  0.425408  0.761141  1
  Ta  Ta5  1  0.798273  0.442492  0.231016  1
  Ta  Ta6  1  0.417068  0.655911  0.076077  1
  Ta  Ta7  1  0.150708  0.911880  0.076100  1
  Ta  Ta8  1  0.701749  0.932759  0.644229  1
  Ta  Ta9  1  0.440348  0.209795  0.644219  1
  Ta  Ta10  1  0.917040  0.840968  0.761155  1
  Ta  Ta11  1  0.059664  0.703886  0.769449  1
  Ta  Ta12  1  0.201727  0.557508  0.768984  1
  Ta  Ta13  1  0.249994  0.751359  0.501378  1
  Ta  Ta14  1  0.298251  0.067241  0.355771  1
  Ta  Ta15  1  0.750006  0.248641  0.498622  1
  Ta  Ta16  1  0.849292  0.088120  0.923900  1
  Ta  Ta17  1  0.940336  0.296114  0.230551  1
  Al  Al18  1  0.372314  0.872103  0.243613  1
  Al  Al19  1  0.872316  0.628703  0.500213  1
  Al  Al20  1  0.127684  0.371297  0.499787  1
  Al  Al21  1  0.627686  0.127897  0.756387  1
  Al  Al22  1  0.000000  0.500000  0.000000  1
  Al  Al23  1  0.500000  0.500000  0.500000  1
  Ge  Ge24  1  0.750003  0.751231  0.001230  1
  Ge  Ge25  1  0.249997  0.248769  0.998770  1
  Au  Au26  1  0.500000  0.000000  0.000000  1
  Au  Au27  1  0.000000  0.000000  0.500000  1
