# generated using pymatgen
data_Sm3ThMg4(SnH)4
_symmetry_space_group_name_H-M   'P 1'
_cell_length_a   4.36878200
_cell_length_b   8.05419530
_cell_length_c   9.24753439
_cell_angle_alpha   89.99655683
_cell_angle_beta   90.00000000
_cell_angle_gamma   90.00000000
_symmetry_Int_Tables_number   1
_chemical_formula_structural   Sm3ThMg4(SnH)4
_chemical_formula_sum   'Sm3 Th1 Mg4 Sn4 H4'
_cell_volume   325.39320876
_cell_formula_units_Z   1
loop_
 _symmetry_equiv_pos_site_id
 _symmetry_equiv_pos_as_xyz
  1  'x, y, z'
loop_
 _atom_site_type_symbol
 _atom_site_label
 _atom_site_symmetry_multiplicity
 _atom_site_fract_x
 _atom_site_fract_y
 _atom_site_fract_z
 _atom_site_occupancy
  Sm  Sm0  1  0.750000  0.477643  0.841725  1
  Sm  Sm1  1  0.250000  0.523276  0.158984  1
  Sm  Sm2  1  0.250000  0.023279  0.338355  1
  Th  Th3  1  0.750000  0.976263  0.660787  1
  Mg  Mg4  1  0.750000  0.349054  0.429470  1
  Mg  Mg5  1  0.250000  0.647051  0.568247  1
  Mg  Mg6  1  0.250000  0.155999  0.932808  1
  Mg  Mg7  1  0.750000  0.844855  0.071376  1
  Sn  Sn8  1  0.750000  0.209972  0.127761  1
  Sn  Sn9  1  0.250000  0.788843  0.870103  1
  Sn  Sn10  1  0.250000  0.287013  0.630617  1
  Sn  Sn11  1  0.750000  0.711920  0.372997  1
  H  H12  1  0.250000  0.924164  0.566178  1
  H  H13  1  0.750000  0.077704  0.430433  1
  H  H14  1  0.750000  0.576392  0.067759  1
  H  H15  1  0.250000  0.426572  0.932401  1
