# generated using pymatgen
data_Nd2ScAuO7
_symmetry_space_group_name_H-M   'P 1'
_cell_length_a   7.53011289
_cell_length_b   7.53011224
_cell_length_c   7.49724000
_cell_angle_alpha   60.14430278
_cell_angle_beta   60.14430561
_cell_angle_gamma   60.32388910
_symmetry_Int_Tables_number   1
_chemical_formula_structural   Nd2ScAuO7
_chemical_formula_sum   'Nd4 Sc2 Au2 O14'
_cell_volume   301.98795398
_cell_formula_units_Z   2
loop_
 _symmetry_equiv_pos_site_id
 _symmetry_equiv_pos_as_xyz
  1  'x, y, z'
loop_
 _atom_site_type_symbol
 _atom_site_label
 _atom_site_symmetry_multiplicity
 _atom_site_fract_x
 _atom_site_fract_y
 _atom_site_fract_z
 _atom_site_occupancy
  Nd  Nd0  1  0.625000  0.125000  0.125000  1
  Nd  Nd1  1  0.125000  0.625000  0.125000  1
  Nd  Nd2  1  0.125000  0.125000  0.625000  1
  Nd  Nd3  1  0.125000  0.125000  0.125000  1
  Sc  Sc4  1  0.125000  0.625000  0.625000  1
  Sc  Sc5  1  0.625000  0.125000  0.625000  1
  Au  Au6  1  0.625000  0.625000  0.125000  1
  Au  Au7  1  0.625000  0.625000  0.625000  1
  O  O8  1  0.705710  0.705710  0.294290  1
  O  O9  1  0.285252  0.285252  0.714748  1
  O  O10  1  0.704616  0.295567  0.718812  1
  O  O11  1  0.295567  0.704616  0.281005  1
  O  O12  1  0.295567  0.704616  0.718812  1
  O  O13  1  0.704616  0.295567  0.281005  1
  O  O14  1  0.544290  0.544290  0.955710  1
  O  O15  1  0.964748  0.964748  0.535252  1
  O  O16  1  0.545384  0.954433  0.531188  1
  O  O17  1  0.954433  0.545384  0.968995  1
  O  O18  1  0.954433  0.545384  0.531188  1
  O  O19  1  0.545384  0.954433  0.968995  1
  O  O20  1  0.253107  0.253107  0.246893  1
  O  O21  1  0.996893  0.996893  0.003107  1
