# generated using pymatgen
data_DyCr4(ReTc3)2
_symmetry_space_group_name_H-M   'P 1'
_cell_length_a   4.81204456
_cell_length_b   6.78548935
_cell_length_c   6.78549077
_cell_angle_alpha   97.10802840
_cell_angle_beta   110.76791761
_cell_angle_gamma   69.23207714
_symmetry_Int_Tables_number   1
_chemical_formula_structural   DyCr4(ReTc3)2
_chemical_formula_sum   'Dy1 Cr4 Re2 Tc6'
_cell_volume   193.70320144
_cell_formula_units_Z   1
loop_
 _symmetry_equiv_pos_site_id
 _symmetry_equiv_pos_as_xyz
  1  'x, y, z'
loop_
 _atom_site_type_symbol
 _atom_site_label
 _atom_site_symmetry_multiplicity
 _atom_site_fract_x
 _atom_site_fract_y
 _atom_site_fract_z
 _atom_site_occupancy
  Dy  Dy0  1  0.000000  0.000000  0.000000  1
  Cr  Cr1  1  0.500000  0.000000  0.500000  1
  Cr  Cr2  1  0.000000  0.000000  0.500000  1
  Cr  Cr3  1  0.500000  0.500000  0.000000  1
  Cr  Cr4  1  0.000000  0.500000  0.000000  1
  Re  Re5  1  0.000000  0.356876  0.356876  1
  Re  Re6  1  0.000000  0.643124  0.643124  1
  Tc  Tc7  1  0.720192  0.779808  0.220192  1
  Tc  Tc8  1  0.279808  0.220192  0.779808  1
  Tc  Tc9  1  0.500000  0.781360  0.781360  1
  Tc  Tc10  1  0.500000  0.218640  0.218640  1
  Tc  Tc11  1  0.642505  0.357495  0.642505  1
  Tc  Tc12  1  0.357495  0.642505  0.357495  1
