# generated using pymatgen
data_Li8Tb3Dy5Sn7Bi
_symmetry_space_group_name_H-M   'P 1'
_cell_length_a   9.41921800
_cell_length_b   9.41851021
_cell_length_c   7.31048916
_cell_angle_alpha   90.10163725
_cell_angle_beta   90.00000000
_cell_angle_gamma   120.00248594
_symmetry_Int_Tables_number   1
_chemical_formula_structural   Li8Tb3Dy5Sn7Bi
_chemical_formula_sum   'Li8 Tb3 Dy5 Sn7 Bi1'
_cell_volume   561.64557246
_cell_formula_units_Z   1
loop_
 _symmetry_equiv_pos_site_id
 _symmetry_equiv_pos_as_xyz
  1  'x, y, z'
loop_
 _atom_site_type_symbol
 _atom_site_label
 _atom_site_symmetry_multiplicity
 _atom_site_fract_x
 _atom_site_fract_y
 _atom_site_fract_z
 _atom_site_occupancy
  Li  Li0  1  0.166627  0.333254  0.285716  1
  Li  Li1  1  0.167853  0.833649  0.288804  1
  Li  Li2  1  0.665798  0.833649  0.288804  1
  Li  Li3  1  0.833366  0.666732  0.788046  1
  Li  Li4  1  0.829227  0.164701  0.791301  1
  Li  Li5  1  0.335474  0.164701  0.791301  1
  Li  Li6  1  0.335284  0.670570  0.668209  1
  Li  Li7  1  0.666186  0.332373  0.169902  1
  Tb  Tb8  1  0.512654  0.025308  0.493841  1
  Tb  Tb9  1  0.517514  0.490655  0.491187  1
  Tb  Tb10  1  0.973143  0.490655  0.491187  1
  Dy  Dy11  1  0.487279  0.974559  0.994710  1
  Dy  Dy12  1  0.493022  0.514678  0.996588  1
  Dy  Dy13  1  0.021654  0.514678  0.996588  1
  Dy  Dy14  1  0.997232  0.994465  0.497436  1
  Dy  Dy15  1  0.997813  0.995624  0.002445  1
  Sn  Sn16  1  0.166267  0.832778  0.730127  1
  Sn  Sn17  1  0.666511  0.832778  0.730127  1
  Sn  Sn18  1  0.833428  0.666856  0.229930  1
  Sn  Sn19  1  0.833896  0.167197  0.229558  1
  Sn  Sn20  1  0.333301  0.167197  0.229558  1
  Sn  Sn21  1  0.332768  0.665537  0.261109  1
  Sn  Sn22  1  0.667018  0.334034  0.762776  1
  Bi  Bi23  1  0.166686  0.333372  0.732743  1
