# generated using pymatgen
data_Nd2Fe4P7(IrRu)4
_symmetry_space_group_name_H-M   'P 1'
_cell_length_a   9.38042072
_cell_length_b   9.31637890
_cell_length_c   3.87901400
_cell_angle_alpha   90.00000000
_cell_angle_beta   90.00000000
_cell_angle_gamma   119.95961843
_symmetry_Int_Tables_number   1
_chemical_formula_structural   Nd2Fe4P7(IrRu)4
_chemical_formula_sum   'Nd2 Fe4 P7 Ir4 Ru4'
_cell_volume   293.69598856
_cell_formula_units_Z   1
loop_
 _symmetry_equiv_pos_site_id
 _symmetry_equiv_pos_as_xyz
  1  'x, y, z'
loop_
 _atom_site_type_symbol
 _atom_site_label
 _atom_site_symmetry_multiplicity
 _atom_site_fract_x
 _atom_site_fract_y
 _atom_site_fract_z
 _atom_site_occupancy
  Nd  Nd0  1  0.664594  0.332677  0.000000  1
  Nd  Nd1  1  0.333804  0.661841  0.500000  1
  Fe  Fe2  1  0.366568  0.422982  0.000000  1
  Fe  Fe3  1  0.267460  0.114542  0.000000  1
  Fe  Fe4  1  0.840430  0.728673  0.000000  1
  Fe  Fe5  1  0.893111  0.160001  0.000000  1
  P  P6  1  0.301713  0.894726  0.000000  1
  P  P7  1  0.586511  0.695230  0.000000  1
  P  P8  1  0.119503  0.403676  0.000000  1
  P  P9  1  0.393063  0.286085  0.500000  1
  P  P10  1  0.881654  0.604237  0.500000  1
  P  P11  1  0.716910  0.111724  0.500000  1
  P  P12  1  0.998922  0.998696  0.000000  1
  Ir  Ir13  1  0.063726  0.635098  0.000000  1
  Ir  Ir14  1  0.435456  0.054353  0.500000  1
  Ir  Ir15  1  0.611365  0.561663  0.500000  1
  Ir  Ir16  1  0.943945  0.384692  0.500000  1
  Ru  Ru17  1  0.576739  0.940374  0.000000  1
  Ru  Ru18  1  0.087493  0.875135  0.500000  1
  Ru  Ru19  1  0.791763  0.912999  0.500000  1
  Ru  Ru20  1  0.125271  0.220595  0.500000  1
