# generated using pymatgen
data_LiHf2(NiP)3
_symmetry_space_group_name_H-M   'P 1'
_cell_length_a   6.16662676
_cell_length_b   6.19451036
_cell_length_c   3.66545000
_cell_angle_alpha   90.00000000
_cell_angle_beta   90.00000000
_cell_angle_gamma   120.14968989
_symmetry_Int_Tables_number   1
_chemical_formula_structural   LiHf2(NiP)3
_chemical_formula_sum   'Li1 Hf2 Ni3 P3'
_cell_volume   121.07529104
_cell_formula_units_Z   1
loop_
 _symmetry_equiv_pos_site_id
 _symmetry_equiv_pos_as_xyz
  1  'x, y, z'
loop_
 _atom_site_type_symbol
 _atom_site_label
 _atom_site_symmetry_multiplicity
 _atom_site_fract_x
 _atom_site_fract_y
 _atom_site_fract_z
 _atom_site_occupancy
  Li  Li0  1  0.000000  0.411987  0.500000  1
  Hf  Hf1  1  0.587343  0.584853  0.500000  1
  Hf  Hf2  1  0.412657  0.997511  0.500000  1
  Ni  Ni3  1  0.000000  0.744459  0.000000  1
  Ni  Ni4  1  0.244972  0.250670  0.000000  1
  Ni  Ni5  1  0.755028  0.005698  0.000000  1
  P  P6  1  0.324881  0.660538  0.000000  1
  P  P7  1  0.675119  0.335655  0.000000  1
  P  P8  1  0.000000  0.008626  0.500000  1
