# generated using pymatgen
data_Dy3Lu2P12Ru16Pt3
_symmetry_space_group_name_H-M   'P 1'
_cell_length_a   12.60894500
_cell_length_b   12.60894416
_cell_length_c   3.96498000
_cell_angle_alpha   90.00000000
_cell_angle_beta   90.00000000
_cell_angle_gamma   119.99999959
_symmetry_Int_Tables_number   1
_chemical_formula_structural   Dy3Lu2P12Ru16Pt3
_chemical_formula_sum   'Dy3 Lu2 P12 Ru16 Pt3'
_cell_volume   545.92012696
_cell_formula_units_Z   1
loop_
 _symmetry_equiv_pos_site_id
 _symmetry_equiv_pos_as_xyz
  1  'x, y, z'
loop_
 _atom_site_type_symbol
 _atom_site_label
 _atom_site_symmetry_multiplicity
 _atom_site_fract_x
 _atom_site_fract_y
 _atom_site_fract_z
 _atom_site_occupancy
  Dy  Dy0  1  0.816294  0.999245  0.500000  1
  Dy  Dy1  1  0.182951  0.183706  0.500000  1
  Dy  Dy2  1  0.000755  0.817049  0.500000  1
  Lu  Lu3  1  0.666667  0.333333  0.000000  1
  Lu  Lu4  1  0.333333  0.666667  0.000000  1
  P  P5  1  0.627960  0.987141  0.000000  1
  P  P6  1  0.359180  0.372040  0.000000  1
  P  P7  1  0.012859  0.640820  0.000000  1
  P  P8  1  0.695788  0.528259  0.500000  1
  P  P9  1  0.832473  0.304212  0.500000  1
  P  P10  1  0.308654  0.828870  0.500000  1
  P  P11  1  0.520215  0.691346  0.500000  1
  P  P12  1  0.183397  0.001003  0.000000  1
  P  P13  1  0.817607  0.816603  0.000000  1
  P  P14  1  0.998997  0.182393  0.000000  1
  P  P15  1  0.471741  0.167527  0.500000  1
  P  P16  1  0.171130  0.479785  0.500000  1
  Ru  Ru17  1  0.620137  0.799184  0.000000  1
  Ru  Ru18  1  0.179047  0.379863  0.000000  1
  Ru  Ru19  1  0.379137  0.188359  0.000000  1
  Ru  Ru20  1  0.200816  0.820953  0.000000  1
  Ru  Ru21  1  0.809222  0.620863  0.000000  1
  Ru  Ru22  1  0.127586  0.636196  0.500000  1
  Ru  Ru23  1  0.363804  0.491391  0.500000  1
  Ru  Ru24  1  0.508609  0.872414  0.500000  1
  Ru  Ru25  1  0.000000  0.000000  0.000000  1
  Ru  Ru26  1  0.717102  0.715643  0.500000  1
  Ru  Ru27  1  0.998541  0.282898  0.500000  1
  Ru  Ru28  1  0.453524  0.005898  0.000000  1
  Ru  Ru29  1  0.552375  0.546476  0.000000  1
  Ru  Ru30  1  0.994102  0.447625  0.000000  1
  Ru  Ru31  1  0.811641  0.190778  0.000000  1
  Ru  Ru32  1  0.284357  0.001459  0.500000  1
  Pt  Pt33  1  0.866802  0.500729  0.500000  1
  Pt  Pt34  1  0.499271  0.366073  0.500000  1
  Pt  Pt35  1  0.633927  0.133198  0.500000  1
