# generated using pymatgen
data_Th5SiBiPb2
_symmetry_space_group_name_H-M   'P 1'
_cell_length_a   9.64987566
_cell_length_b   9.66397371
_cell_length_c   6.65250300
_cell_angle_alpha   90.00000000
_cell_angle_beta   90.00000000
_cell_angle_gamma   120.04834849
_symmetry_Int_Tables_number   1
_chemical_formula_structural   Th5SiBiPb2
_chemical_formula_sum   'Th10 Si2 Bi2 Pb4'
_cell_volume   537.00876866
_cell_formula_units_Z   2
loop_
 _symmetry_equiv_pos_site_id
 _symmetry_equiv_pos_as_xyz
  1  'x, y, z'
loop_
 _atom_site_type_symbol
 _atom_site_label
 _atom_site_symmetry_multiplicity
 _atom_site_fract_x
 _atom_site_fract_y
 _atom_site_fract_z
 _atom_site_occupancy
  Th  Th0  1  0.666647  0.333601  0.501108  1
  Th  Th1  1  0.333353  0.666955  0.501108  1
  Th  Th2  1  0.333353  0.666955  0.998892  1
  Th  Th3  1  0.666647  0.333601  0.998892  1
  Th  Th4  1  0.745863  0.744406  0.250000  1
  Th  Th5  1  0.254137  0.998544  0.250000  1
  Th  Th6  1  0.000000  0.254464  0.250000  1
  Th  Th7  1  0.253647  0.253607  0.750000  1
  Th  Th8  1  0.746353  0.999960  0.750000  1
  Th  Th9  1  0.000000  0.746379  0.750000  1
  Si  Si10  1  0.000000  0.000429  0.498334  1
  Si  Si11  1  0.000000  0.000429  0.001666  1
  Bi  Bi12  1  0.391118  0.390858  0.250000  1
  Bi  Bi13  1  0.608882  0.999740  0.250000  1
  Pb  Pb14  1  0.000000  0.608926  0.250000  1
  Pb  Pb15  1  0.610252  0.609755  0.750000  1
  Pb  Pb16  1  0.389748  0.999503  0.750000  1
  Pb  Pb17  1  0.000000  0.391882  0.750000  1
