# generated using pymatgen
data_NaSr2NdMnO6
_symmetry_space_group_name_H-M   'P 1'
_cell_length_a   6.70624362
_cell_length_b   6.70528630
_cell_length_c   6.65106500
_cell_angle_alpha   90.69189469
_cell_angle_beta   90.71940254
_cell_angle_gamma   89.95417998
_symmetry_Int_Tables_number   1
_chemical_formula_structural   NaSr2NdMnO6
_chemical_formula_sum   'Na2 Sr4 Nd2 Mn2 O12'
_cell_volume   299.03488276
_cell_formula_units_Z   2
loop_
 _symmetry_equiv_pos_site_id
 _symmetry_equiv_pos_as_xyz
  1  'x, y, z'
loop_
 _atom_site_type_symbol
 _atom_site_label
 _atom_site_symmetry_multiplicity
 _atom_site_fract_x
 _atom_site_fract_y
 _atom_site_fract_z
 _atom_site_occupancy
  Na  Na0  1  0.748981  0.750937  0.750064  1
  Na  Na1  1  0.253285  0.246804  0.249910  1
  Sr  Sr2  1  0.611188  0.888816  0.250030  1
  Sr  Sr3  1  0.749245  0.390871  0.110661  1
  Sr  Sr4  1  0.391634  0.108379  0.749977  1
  Sr  Sr5  1  0.109132  0.750762  0.389344  1
  Nd  Nd6  1  0.888894  0.248634  0.607765  1
  Nd  Nd7  1  0.251307  0.611163  0.892192  1
  Mn  Mn8  1  0.002301  0.003178  0.998430  1
  Mn  Mn9  1  0.496769  0.497744  0.501607  1
  O  O10  1  0.211874  0.423811  0.563488  1
  O  O11  1  0.416874  0.553531  0.214653  1
  O  O12  1  0.561974  0.220189  0.431656  1
  O  O13  1  0.935198  0.724395  0.048801  1
  O  O14  1  0.731953  0.063691  0.913561  1
  O  O15  1  0.054944  0.929613  0.720223  1
  O  O16  1  0.775546  0.564864  0.451335  1
  O  O17  1  0.570202  0.445077  0.779878  1
  O  O18  1  0.436233  0.768079  0.586403  1
  O  O19  1  0.076109  0.288185  0.936346  1
  O  O20  1  0.279823  0.938106  0.068392  1
  O  O21  1  0.946535  0.083172  0.285282  1
