# generated using pymatgen
data_Ta2Zn2Ir3Rh
_symmetry_space_group_name_H-M   'P 1'
_cell_length_a   4.10351300
_cell_length_b   7.17711705
_cell_length_c   12.30215908
_cell_angle_alpha   90.01309843
_cell_angle_beta   89.99933881
_cell_angle_gamma   90.00114729
_symmetry_Int_Tables_number   1
_chemical_formula_structural   Ta2Zn2Ir3Rh
_chemical_formula_sum   'Ta6 Zn6 Ir9 Rh3'
_cell_volume   362.31571359
_cell_formula_units_Z   3
loop_
 _symmetry_equiv_pos_site_id
 _symmetry_equiv_pos_as_xyz
  1  'x, y, z'
loop_
 _atom_site_type_symbol
 _atom_site_label
 _atom_site_symmetry_multiplicity
 _atom_site_fract_x
 _atom_site_fract_y
 _atom_site_fract_z
 _atom_site_occupancy
  Ta  Ta0  1  0.000003  0.500602  0.000120  1
  Ta  Ta1  1  0.500000  0.000202  0.166740  1
  Ta  Ta2  1  0.000006  0.500483  0.333393  1
  Ta  Ta3  1  0.500002  0.999980  0.499954  1
  Ta  Ta4  1  0.999990  0.498394  0.666312  1
  Ta  Ta5  1  0.500000  0.000432  0.833552  1
  Zn  Zn6  1  0.000001  0.999922  0.998859  1
  Zn  Zn7  1  0.500000  0.500032  0.166925  1
  Zn  Zn8  1  0.000005  0.999987  0.333233  1
  Zn  Zn9  1  0.500000  0.501119  0.500371  1
  Zn  Zn10  1  0.999996  0.998100  0.667817  1
  Zn  Zn11  1  0.499998  0.500818  0.832812  1
  Ir  Ir12  1  0.500031  0.249254  0.999488  1
  Ir  Ir13  1  0.499970  0.749323  0.999415  1
  Ir  Ir14  1  0.999985  0.250677  0.166365  1
  Ir  Ir15  1  0.000025  0.749098  0.166351  1
  Ir  Ir16  1  0.500017  0.249027  0.333520  1
  Ir  Ir17  1  0.499981  0.750020  0.333446  1
  Ir  Ir18  1  0.999974  0.250389  0.500033  1
  Ir  Ir19  1  0.000027  0.749810  0.500948  1
  Ir  Ir20  1  0.500031  0.251366  0.667050  1
  Rh  Rh21  1  0.499974  0.750932  0.666785  1
  Rh  Rh22  1  0.999968  0.249280  0.833617  1
  Rh  Rh23  1  0.000021  0.750753  0.832892  1
