# generated using pymatgen
data_Dy2Ho10Tc3Rh
_symmetry_space_group_name_H-M   'P 1'
_cell_length_a   6.27222407
_cell_length_b   7.37945668
_cell_length_c   9.13638100
_cell_angle_alpha   90.00000000
_cell_angle_beta   90.00000000
_cell_angle_gamma   89.91429892
_symmetry_Int_Tables_number   1
_chemical_formula_structural   Dy2Ho10Tc3Rh
_chemical_formula_sum   'Dy2 Ho10 Tc3 Rh1'
_cell_volume   422.88245669
_cell_formula_units_Z   1
loop_
 _symmetry_equiv_pos_site_id
 _symmetry_equiv_pos_as_xyz
  1  'x, y, z'
loop_
 _atom_site_type_symbol
 _atom_site_label
 _atom_site_symmetry_multiplicity
 _atom_site_fract_x
 _atom_site_fract_y
 _atom_site_fract_z
 _atom_site_occupancy
  Dy  Dy0  1  0.131807  0.457253  0.750000  1
  Dy  Dy1  1  0.371223  0.958853  0.750000  1
  Ho  Ho2  1  0.332268  0.676573  0.065933  1
  Ho  Ho3  1  0.162962  0.176118  0.436430  1
  Ho  Ho4  1  0.663703  0.321431  0.561370  1
  Ho  Ho5  1  0.837258  0.826152  0.938603  1
  Ho  Ho6  1  0.663703  0.321431  0.938630  1
  Ho  Ho7  1  0.837258  0.826152  0.561397  1
  Ho  Ho8  1  0.332268  0.676573  0.434067  1
  Ho  Ho9  1  0.162962  0.176118  0.063570  1
  Ho  Ho10  1  0.872524  0.541337  0.250000  1
  Ho  Ho11  1  0.625259  0.039020  0.250000  1
  Tc  Tc12  1  0.040254  0.884387  0.250000  1
  Tc  Tc13  1  0.461572  0.386827  0.250000  1
  Tc  Tc14  1  0.959621  0.116330  0.750000  1
  Rh  Rh15  1  0.545360  0.615442  0.750000  1
