# generated using pymatgen
data_Tb6YbLu(B6Os)4
_symmetry_space_group_name_H-M   'P 1'
_cell_length_a   3.65931500
_cell_length_b   9.16374485
_cell_length_c   11.55394602
_cell_angle_alpha   89.95109479
_cell_angle_beta   90.00000000
_cell_angle_gamma   90.00000000
_symmetry_Int_Tables_number   1
_chemical_formula_structural   Tb6YbLu(B6Os)4
_chemical_formula_sum   'Tb6 Yb1 Lu1 B24 Os4'
_cell_volume   387.43866559
_cell_formula_units_Z   1
loop_
 _symmetry_equiv_pos_site_id
 _symmetry_equiv_pos_as_xyz
  1  'x, y, z'
loop_
 _atom_site_type_symbol
 _atom_site_label
 _atom_site_symmetry_multiplicity
 _atom_site_fract_x
 _atom_site_fract_y
 _atom_site_fract_z
 _atom_site_occupancy
  Tb  Tb0  1  0.000000  0.675940  0.585602  1
  Tb  Tb1  1  0.000000  0.821849  0.086037  1
  Tb  Tb2  1  0.000000  0.178622  0.914031  1
  Tb  Tb3  1  0.000000  0.944140  0.371603  1
  Tb  Tb4  1  0.000000  0.058255  0.628079  1
  Tb  Tb5  1  0.000000  0.443230  0.128146  1
  Yb  Yb6  1  0.000000  0.323574  0.413796  1
  Lu  Lu7  1  0.000000  0.556218  0.872144  1
  B  B8  1  0.500000  0.553226  0.432541  1
  B  B9  1  0.500000  0.446569  0.567920  1
  B  B10  1  0.500000  0.053022  0.066451  1
  B  B11  1  0.500000  0.944655  0.932367  1
  B  B12  1  0.500000  0.747060  0.418816  1
  B  B13  1  0.500000  0.254035  0.581365  1
  B  B14  1  0.500000  0.247365  0.080565  1
  B  B15  1  0.500000  0.749789  0.919102  1
  B  B16  1  0.500000  0.790329  0.266257  1
  B  B17  1  0.500000  0.211674  0.734221  1
  B  B18  1  0.500000  0.289581  0.233537  1
  B  B19  1  0.500000  0.707976  0.766992  1
  B  B20  1  0.500000  0.631393  0.186213  1
  B  B21  1  0.500000  0.370617  0.815382  1
  B  B22  1  0.500000  0.132080  0.313479  1
  B  B23  1  0.500000  0.867565  0.686198  1
  B  B24  1  0.500000  0.984028  0.211769  1
  B  B25  1  0.500000  0.015406  0.787604  1
  B  B26  1  0.500000  0.483366  0.288005  1
  B  B27  1  0.500000  0.517441  0.713922  1
  B  B28  1  0.500000  0.605914  0.027875  1
  B  B29  1  0.500000  0.395745  0.969467  1
  B  B30  1  0.500000  0.106828  0.470523  1
  B  B31  1  0.500000  0.892935  0.529920  1
  Os  Os32  1  0.000000  0.638387  0.320843  1
  Os  Os33  1  0.000000  0.364232  0.680779  1
  Os  Os34  1  0.000000  0.136441  0.176871  1
  Os  Os35  1  0.000000  0.860515  0.821579  1
