# generated using pymatgen
data_K7Sn(SO4)6
_symmetry_space_group_name_H-M   'P 1'
_cell_length_a   9.43637709
_cell_length_b   9.43637706
_cell_length_c   9.43637824
_cell_angle_alpha   109.52255947
_cell_angle_beta   109.52255289
_cell_angle_gamma   109.52256547
_symmetry_Int_Tables_number   1
_chemical_formula_structural   K7Sn(SO4)6
_chemical_formula_sum   'K7 Sn1 S6 O24'
_cell_volume   645.60335442
_cell_formula_units_Z   1
loop_
 _symmetry_equiv_pos_site_id
 _symmetry_equiv_pos_as_xyz
  1  'x, y, z'
loop_
 _atom_site_type_symbol
 _atom_site_label
 _atom_site_symmetry_multiplicity
 _atom_site_fract_x
 _atom_site_fract_y
 _atom_site_fract_z
 _atom_site_occupancy
  K  K0  1  0.500000  0.500000  0.500000  1
  K  K1  1  0.839570  0.338486  0.682733  1
  K  K2  1  0.338486  0.682733  0.839570  1
  K  K3  1  0.682733  0.839570  0.338486  1
  K  K4  1  0.160430  0.661514  0.317267  1
  K  K5  1  0.661514  0.317267  0.160430  1
  K  K6  1  0.317267  0.160430  0.661514  1
  Sn  Sn7  1  0.000000  0.000000  0.000000  1
  S  S8  1  0.968030  0.749543  0.620412  1
  S  S9  1  0.749543  0.620412  0.968030  1
  S  S10  1  0.620412  0.968030  0.749543  1
  S  S11  1  0.031970  0.250457  0.379588  1
  S  S12  1  0.250457  0.379588  0.031970  1
  S  S13  1  0.379588  0.031970  0.250457  1
  O  O14  1  0.433955  0.911165  0.173355  1
  O  O15  1  0.911165  0.173355  0.433955  1
  O  O16  1  0.173355  0.433955  0.911165  1
  O  O17  1  0.566045  0.088835  0.826645  1
  O  O18  1  0.088835  0.826645  0.566045  1
  O  O19  1  0.826645  0.566045  0.088835  1
  O  O20  1  0.301377  0.981828  0.349329  1
  O  O21  1  0.981828  0.349329  0.301377  1
  O  O22  1  0.349329  0.301377  0.981828  1
  O  O23  1  0.698623  0.018172  0.650671  1
  O  O24  1  0.018172  0.650671  0.698623  1
  O  O25  1  0.650671  0.698623  0.018172  1
  O  O26  1  0.753862  0.973054  0.903540  1
  O  O27  1  0.973054  0.903540  0.753862  1
  O  O28  1  0.640664  0.471811  0.786942  1
  O  O29  1  0.786942  0.640664  0.471811  1
  O  O30  1  0.471811  0.786942  0.640664  1
  O  O31  1  0.359336  0.528189  0.213058  1
  O  O32  1  0.213058  0.359336  0.528189  1
  O  O33  1  0.528189  0.213058  0.359336  1
  O  O34  1  0.096460  0.246138  0.026946  1
  O  O35  1  0.026946  0.096460  0.246138  1
  O  O36  1  0.246138  0.026946  0.096460  1
  O  O37  1  0.903540  0.753862  0.973054  1
