# generated using pymatgen
data_Rb8Zr6CrCl20
_symmetry_space_group_name_H-M   'P 1'
_cell_length_a   11.64002495
_cell_length_b   11.64002563
_cell_length_c   11.64002500
_cell_angle_alpha   59.99999894
_cell_angle_beta   59.99999701
_cell_angle_gamma   59.99999830
_symmetry_Int_Tables_number   1
_chemical_formula_structural   Rb8Zr6CrCl20
_chemical_formula_sum   'Rb8 Zr6 Cr1 Cl20'
_cell_volume   1115.18454979
_cell_formula_units_Z   1
loop_
 _symmetry_equiv_pos_site_id
 _symmetry_equiv_pos_as_xyz
  1  'x, y, z'
loop_
 _atom_site_type_symbol
 _atom_site_label
 _atom_site_symmetry_multiplicity
 _atom_site_fract_x
 _atom_site_fract_y
 _atom_site_fract_z
 _atom_site_occupancy
  Rb  Rb0  1  0.360111  0.360111  0.360111  1
  Rb  Rb1  1  0.639889  0.639889  0.639889  1
  Rb  Rb2  1  0.360111  0.360111  0.919669  1
  Rb  Rb3  1  0.360111  0.919669  0.360111  1
  Rb  Rb4  1  0.639889  0.639889  0.080331  1
  Rb  Rb5  1  0.639889  0.080331  0.639889  1
  Rb  Rb6  1  0.919669  0.360111  0.360111  1
  Rb  Rb7  1  0.080331  0.639889  0.639889  1
  Zr  Zr8  1  0.851588  0.148412  0.148412  1
  Zr  Zr9  1  0.148412  0.851588  0.851588  1
  Zr  Zr10  1  0.148412  0.851588  0.148412  1
  Zr  Zr11  1  0.851588  0.148412  0.851588  1
  Zr  Zr12  1  0.148412  0.148412  0.851588  1
  Zr  Zr13  1  0.851588  0.851588  0.148412  1
  Cr  Cr14  1  0.000000  0.000000  0.000000  1
  Cl  Cl15  1  0.320670  0.000000  0.000000  1
  Cl  Cl16  1  0.679330  0.000000  0.000000  1
  Cl  Cl17  1  0.000000  0.320670  0.679330  1
  Cl  Cl18  1  0.000000  0.679330  0.320670  1
  Cl  Cl19  1  0.000000  0.320670  0.000000  1
  Cl  Cl20  1  0.679330  0.000000  0.320670  1
  Cl  Cl21  1  0.000000  0.679330  0.000000  1
  Cl  Cl22  1  0.320670  0.000000  0.679330  1
  Cl  Cl23  1  0.000000  0.000000  0.320670  1
  Cl  Cl24  1  0.000000  0.000000  0.679330  1
  Cl  Cl25  1  0.679330  0.320670  0.000000  1
  Cl  Cl26  1  0.320670  0.679330  0.000000  1
  Cl  Cl27  1  0.684522  0.315478  0.315478  1
  Cl  Cl28  1  0.315478  0.684522  0.684522  1
  Cl  Cl29  1  0.315478  0.684522  0.315478  1
  Cl  Cl30  1  0.684522  0.315478  0.684522  1
  Cl  Cl31  1  0.315478  0.315478  0.684522  1
  Cl  Cl32  1  0.684522  0.684522  0.315478  1
  Cl  Cl33  1  0.250000  0.250000  0.250000  1
  Cl  Cl34  1  0.750000  0.750000  0.750000  1
