# generated using pymatgen
data_Er5Tm3Re(B8Ru)3
_symmetry_space_group_name_H-M   'P 1'
_cell_length_a   3.63522700
_cell_length_b   9.08462565
_cell_length_c   11.46497200
_cell_angle_alpha   90.12381119
_cell_angle_beta   90.00000000
_cell_angle_gamma   90.00000000
_symmetry_Int_Tables_number   1
_chemical_formula_structural   Er5Tm3Re(B8Ru)3
_chemical_formula_sum   'Er5 Tm3 Re1 B24 Ru3'
_cell_volume   378.62610676
_cell_formula_units_Z   1
loop_
 _symmetry_equiv_pos_site_id
 _symmetry_equiv_pos_as_xyz
  1  'x, y, z'
loop_
 _atom_site_type_symbol
 _atom_site_label
 _atom_site_symmetry_multiplicity
 _atom_site_fract_x
 _atom_site_fract_y
 _atom_site_fract_z
 _atom_site_occupancy
  Er  Er0  1  0.000000  0.322447  0.415196  1
  Er  Er1  1  0.000000  0.680492  0.588061  1
  Er  Er2  1  0.000000  0.822243  0.083379  1
  Er  Er3  1  0.000000  0.176569  0.913423  1
  Er  Er4  1  0.000000  0.943215  0.371289  1
  Tm  Tm5  1  0.000000  0.056353  0.627747  1
  Tm  Tm6  1  0.000000  0.442744  0.128446  1
  Tm  Tm7  1  0.000000  0.555910  0.872503  1
  Re  Re8  1  0.000000  0.862238  0.821057  1
  B  B9  1  0.500000  0.553968  0.433530  1
  B  B10  1  0.500000  0.446247  0.566775  1
  B  B11  1  0.500000  0.053791  0.067210  1
  B  B12  1  0.500000  0.947175  0.933544  1
  B  B13  1  0.500000  0.748763  0.419637  1
  B  B14  1  0.500000  0.251283  0.580147  1
  B  B15  1  0.500000  0.248777  0.080584  1
  B  B16  1  0.500000  0.750549  0.919576  1
  B  B17  1  0.500000  0.790678  0.265396  1
  B  B18  1  0.500000  0.208769  0.733520  1
  B  B19  1  0.500000  0.291431  0.234556  1
  B  B20  1  0.500000  0.707723  0.765555  1
  B  B21  1  0.500000  0.630597  0.184768  1
  B  B22  1  0.500000  0.368687  0.814850  1
  B  B23  1  0.500000  0.131627  0.315259  1
  B  B24  1  0.500000  0.869125  0.684892  1
  B  B25  1  0.500000  0.982936  0.212411  1
  B  B26  1  0.500000  0.018591  0.787197  1
  B  B27  1  0.500000  0.482599  0.287877  1
  B  B28  1  0.500000  0.517268  0.712679  1
  B  B29  1  0.500000  0.604157  0.029602  1
  B  B30  1  0.500000  0.393764  0.971217  1
  B  B31  1  0.500000  0.106437  0.470409  1
  B  B32  1  0.500000  0.894618  0.528660  1
  Ru  Ru33  1  0.000000  0.637573  0.320868  1
  Ru  Ru34  1  0.000000  0.362292  0.678680  1
  Ru  Ru35  1  0.000000  0.138365  0.179501  1
