# generated using pymatgen
data_Sc12In(FeBr8)2
_symmetry_space_group_name_H-M   'P 1'
_cell_length_a   9.04964328
_cell_length_b   11.12985356
_cell_length_c   11.74751044
_cell_angle_alpha   117.03083592
_cell_angle_beta   101.87660897
_cell_angle_gamma   101.45566094
_symmetry_Int_Tables_number   1
_chemical_formula_structural   Sc12In(FeBr8)2
_chemical_formula_sum   'Sc12 In1 Fe2 Br16'
_cell_volume   971.75928046
_cell_formula_units_Z   1
loop_
 _symmetry_equiv_pos_site_id
 _symmetry_equiv_pos_as_xyz
  1  'x, y, z'
loop_
 _atom_site_type_symbol
 _atom_site_label
 _atom_site_symmetry_multiplicity
 _atom_site_fract_x
 _atom_site_fract_y
 _atom_site_fract_z
 _atom_site_occupancy
  Sc  Sc0  1  0.099929  0.247716  0.344526  1
  Sc  Sc1  1  0.900071  0.752284  0.655474  1
  Sc  Sc2  1  0.755620  0.539077  0.313230  1
  Sc  Sc3  1  0.244380  0.460923  0.686770  1
  Sc  Sc4  1  0.307256  0.753297  0.655398  1
  Sc  Sc5  1  0.692744  0.246703  0.344602  1
  Sc  Sc6  1  0.162206  0.537981  0.314001  1
  Sc  Sc7  1  0.837794  0.462019  0.685999  1
  Sc  Sc8  1  0.406631  0.359378  0.275494  1
  Sc  Sc9  1  0.593369  0.640622  0.724506  1
  Sc  Sc10  1  0.458474  0.309763  0.520313  1
  Sc  Sc11  1  0.541526  0.690237  0.479687  1
  In  In12  1  0.000000  0.500000  0.500000  1
  Fe  Fe13  1  0.339354  0.499955  0.499300  1
  Fe  Fe14  1  0.660647  0.500045  0.500700  1
  Br  Br15  1  0.401588  0.743949  0.888513  1
  Br  Br16  1  0.598412  0.256051  0.111487  1
  Br  Br17  1  0.188269  0.961573  0.781839  1
  Br  Br18  1  0.811731  0.038427  0.218161  1
  Br  Br19  1  0.337289  0.089860  0.247735  1
  Br  Br20  1  0.662711  0.910140  0.752265  1
  Br  Br21  1  0.555669  0.437482  0.802621  1
  Br  Br22  1  0.444331  0.562518  0.197379  1
  Br  Br23  1  0.313573  0.829700  0.461794  1
  Br  Br24  1  0.686427  0.170300  0.538206  1
  Br  Br25  1  0.169266  0.167923  0.533042  1
  Br  Br26  1  0.830734  0.832077  0.466958  1
  Br  Br27  1  0.926966  0.574229  0.162861  1
  Br  Br28  1  0.073034  0.425771  0.837139  1
  Br  Br29  1  0.921683  0.743036  0.889130  1
  Br  Br30  1  0.078317  0.256964  0.110870  1
