# generated using pymatgen
data_Ce2Pa2AlOs7
_symmetry_space_group_name_H-M   'P 1'
_cell_length_a   5.50927800
_cell_length_b   5.50927826
_cell_length_c   8.28315400
_cell_angle_alpha   90.00000000
_cell_angle_beta   90.00000000
_cell_angle_gamma   119.99999846
_symmetry_Int_Tables_number   1
_chemical_formula_structural   Ce2Pa2AlOs7
_chemical_formula_sum   'Ce2 Pa2 Al1 Os7'
_cell_volume   217.72874513
_cell_formula_units_Z   1
loop_
 _symmetry_equiv_pos_site_id
 _symmetry_equiv_pos_as_xyz
  1  'x, y, z'
loop_
 _atom_site_type_symbol
 _atom_site_label
 _atom_site_symmetry_multiplicity
 _atom_site_fract_x
 _atom_site_fract_y
 _atom_site_fract_z
 _atom_site_occupancy
  Ce  Ce0  1  0.666667  0.333333  0.931435  1
  Ce  Ce1  1  0.333333  0.666667  0.068565  1
  Pa  Pa2  1  0.333333  0.666667  0.421896  1
  Pa  Pa3  1  0.666667  0.333333  0.578104  1
  Al  Al4  1  0.000000  0.000000  0.500000  1
  Os  Os5  1  0.000000  0.000000  0.000000  1
  Os  Os6  1  0.830021  0.169979  0.255511  1
  Os  Os7  1  0.830021  0.660042  0.255511  1
  Os  Os8  1  0.339958  0.169979  0.255511  1
  Os  Os9  1  0.169979  0.830021  0.744489  1
  Os  Os10  1  0.169979  0.339958  0.744489  1
  Os  Os11  1  0.660042  0.830021  0.744489  1
