# generated using pymatgen
data_Yb2Dy2TaOs7
_symmetry_space_group_name_H-M   'P 1'
_cell_length_a   5.43100600
_cell_length_b   5.43100449
_cell_length_c   8.60154800
_cell_angle_alpha   90.00000000
_cell_angle_beta   90.00000000
_cell_angle_gamma   119.99999700
_symmetry_Int_Tables_number   1
_chemical_formula_structural   Yb2Dy2TaOs7
_chemical_formula_sum   'Yb2 Dy2 Ta1 Os7'
_cell_volume   219.71904697
_cell_formula_units_Z   1
loop_
 _symmetry_equiv_pos_site_id
 _symmetry_equiv_pos_as_xyz
  1  'x, y, z'
loop_
 _atom_site_type_symbol
 _atom_site_label
 _atom_site_symmetry_multiplicity
 _atom_site_fract_x
 _atom_site_fract_y
 _atom_site_fract_z
 _atom_site_occupancy
  Yb  Yb0  1  0.666667  0.333333  0.941351  1
  Yb  Yb1  1  0.333333  0.666667  0.058649  1
  Dy  Dy2  1  0.333333  0.666667  0.421209  1
  Dy  Dy3  1  0.666667  0.333333  0.578791  1
  Ta  Ta4  1  0.000000  0.000000  0.500000  1
  Os  Os5  1  0.000000  0.000000  0.000000  1
  Os  Os6  1  0.826916  0.173084  0.250046  1
  Os  Os7  1  0.826916  0.653833  0.250046  1
  Os  Os8  1  0.346167  0.173084  0.250046  1
  Os  Os9  1  0.173084  0.826916  0.749954  1
  Os  Os10  1  0.173084  0.346167  0.749954  1
  Os  Os11  1  0.653833  0.826916  0.749954  1
