# generated using pymatgen
data_CaHo(CoB)8
_symmetry_space_group_name_H-M   'P 1'
_cell_length_a   6.95249700
_cell_length_b   6.95249700
_cell_length_c   3.82086000
_cell_angle_alpha   90.00000000
_cell_angle_beta   90.00000000
_cell_angle_gamma   90.00000000
_symmetry_Int_Tables_number   1
_chemical_formula_structural   CaHo(CoB)8
_chemical_formula_sum   'Ca1 Ho1 Co8 B8'
_cell_volume   184.68972953
_cell_formula_units_Z   1
loop_
 _symmetry_equiv_pos_site_id
 _symmetry_equiv_pos_as_xyz
  1  'x, y, z'
loop_
 _atom_site_type_symbol
 _atom_site_label
 _atom_site_symmetry_multiplicity
 _atom_site_fract_x
 _atom_site_fract_y
 _atom_site_fract_z
 _atom_site_occupancy
  Ca  Ca0  1  0.500000  0.500000  0.500000  1
  Ho  Ho1  1  0.000000  0.000000  0.000000  1
  Co  Co2  1  0.379480  0.136530  0.889741  1
  Co  Co3  1  0.620520  0.863470  0.889741  1
  Co  Co4  1  0.359091  0.881843  0.389946  1
  Co  Co5  1  0.640909  0.118157  0.389946  1
  Co  Co6  1  0.118157  0.359091  0.610054  1
  Co  Co7  1  0.881843  0.640909  0.610054  1
  Co  Co8  1  0.136530  0.620520  0.110259  1
  Co  Co9  1  0.863470  0.379480  0.110259  1
  B  B10  1  0.804279  0.664258  0.106391  1
  B  B11  1  0.195721  0.335742  0.106391  1
  B  B12  1  0.836737  0.299037  0.606582  1
  B  B13  1  0.163263  0.700963  0.606582  1
  B  B14  1  0.700963  0.836737  0.393418  1
  B  B15  1  0.299037  0.163263  0.393418  1
  B  B16  1  0.664258  0.195721  0.893609  1
  B  B17  1  0.335742  0.804279  0.893609  1
