# generated using pymatgen
data_CaSc2Al7Cu2
_symmetry_space_group_name_H-M   'P 1'
_cell_length_a   8.96360421
_cell_length_b   8.96360513
_cell_length_c   8.96360500
_cell_angle_alpha   35.01569314
_cell_angle_beta   35.01568478
_cell_angle_gamma   35.01569648
_symmetry_Int_Tables_number   1
_chemical_formula_structural   CaSc2Al7Cu2
_chemical_formula_sum   'Ca1 Sc2 Al7 Cu2'
_cell_volume   211.72658875
_cell_formula_units_Z   1
loop_
 _symmetry_equiv_pos_site_id
 _symmetry_equiv_pos_as_xyz
  1  'x, y, z'
loop_
 _atom_site_type_symbol
 _atom_site_label
 _atom_site_symmetry_multiplicity
 _atom_site_fract_x
 _atom_site_fract_y
 _atom_site_fract_z
 _atom_site_occupancy
  Ca  Ca0  1  0.000000  0.000000  0.000000  1
  Sc  Sc1  1  0.856818  0.856818  0.856818  1
  Sc  Sc2  1  0.143182  0.143182  0.143182  1
  Al  Al3  1  0.415737  0.415737  0.925345  1
  Al  Al4  1  0.925345  0.415737  0.415737  1
  Al  Al5  1  0.415737  0.925345  0.415737  1
  Al  Al6  1  0.500000  0.500000  0.500000  1
  Al  Al7  1  0.584263  0.074655  0.584263  1
  Al  Al8  1  0.074655  0.584263  0.584263  1
  Al  Al9  1  0.584263  0.584263  0.074655  1
  Cu  Cu10  1  0.665247  0.665247  0.665247  1
  Cu  Cu11  1  0.334753  0.334753  0.334753  1
