# generated using pymatgen
data_Dy9Y(IrOs)2
_symmetry_space_group_name_H-M   'P 1'
_cell_length_a   6.44268664
_cell_length_b   7.30937668
_cell_length_c   8.48149996
_cell_angle_alpha   96.65934915
_cell_angle_beta   112.32034312
_cell_angle_gamma   90.17445002
_symmetry_Int_Tables_number   1
_chemical_formula_structural   Dy9Y(IrOs)2
_chemical_formula_sum   'Dy9 Y1 Ir2 Os2'
_cell_volume   366.51003692
_cell_formula_units_Z   1
loop_
 _symmetry_equiv_pos_site_id
 _symmetry_equiv_pos_as_xyz
  1  'x, y, z'
loop_
 _atom_site_type_symbol
 _atom_site_label
 _atom_site_symmetry_multiplicity
 _atom_site_fract_x
 _atom_site_fract_y
 _atom_site_fract_z
 _atom_site_occupancy
  Dy  Dy0  1  0.973517  0.415591  0.181752  1
  Dy  Dy1  1  0.208230  0.917548  0.185122  1
  Dy  Dy2  1  0.023073  0.582486  0.814808  1
  Dy  Dy3  1  0.210777  0.184725  0.561288  1
  Dy  Dy4  1  0.649654  0.315652  0.438529  1
  Dy  Dy5  1  0.789591  0.817332  0.436593  1
  Dy  Dy6  1  0.352481  0.682020  0.563238  1
  Dy  Dy7  1  0.426442  0.250090  0.000062  1
  Dy  Dy8  1  0.575376  0.749885  0.000185  1
  Y  Y9  1  0.791458  0.084073  0.818449  1
  Ir  Ir10  1  0.394963  0.576221  0.221233  1
  Ir  Ir11  1  0.174790  0.923498  0.778300  1
  Os  Os12  1  0.605337  0.426919  0.781616  1
  Os  Os13  1  0.824312  0.073959  0.218824  1
