# generated using pymatgen
data_Tm2AlIrRu
_symmetry_space_group_name_H-M   'P 1'
_cell_length_a   5.49098867
_cell_length_b   5.49098734
_cell_length_c   5.49098782
_cell_angle_alpha   137.13513003
_cell_angle_beta   115.66912842
_cell_angle_gamma   80.43689964
_symmetry_Int_Tables_number   1
_chemical_formula_structural   Tm2AlIrRu
_chemical_formula_sum   'Tm2 Al1 Ir1 Ru1'
_cell_volume   98.36798198
_cell_formula_units_Z   1
loop_
 _symmetry_equiv_pos_site_id
 _symmetry_equiv_pos_as_xyz
  1  'x, y, z'
loop_
 _atom_site_type_symbol
 _atom_site_label
 _atom_site_symmetry_multiplicity
 _atom_site_fract_x
 _atom_site_fract_y
 _atom_site_fract_z
 _atom_site_occupancy
  Tm  Tm0  1  0.699221  0.202096  0.497126  1
  Tm  Tm1  1  0.295030  0.797904  0.497126  1
  Al  Al2  1  0.003797  0.000000  0.003797  1
  Ir  Ir3  1  0.736611  0.500000  0.236611  1
  Ru  Ru4  1  0.265342  0.500000  0.765342  1
