# generated using pymatgen
data_KLuFeH6
_symmetry_space_group_name_H-M   'P 1'
_cell_length_a   6.81943600
_cell_length_b   6.81943600
_cell_length_c   6.81943600
_cell_angle_alpha   90.00000000
_cell_angle_beta   90.00000000
_cell_angle_gamma   90.00000000
_symmetry_Int_Tables_number   1
_chemical_formula_structural   KLuFeH6
_chemical_formula_sum   'K4 Lu4 Fe4 H24'
_cell_volume   317.13587553
_cell_formula_units_Z   4
loop_
 _symmetry_equiv_pos_site_id
 _symmetry_equiv_pos_as_xyz
  1  'x, y, z'
loop_
 _atom_site_type_symbol
 _atom_site_label
 _atom_site_symmetry_multiplicity
 _atom_site_fract_x
 _atom_site_fract_y
 _atom_site_fract_z
 _atom_site_occupancy
  K  K0  1  0.000000  0.000000  0.500000  1
  K  K1  1  0.000000  0.500000  0.000000  1
  K  K2  1  0.500000  0.000000  0.000000  1
  K  K3  1  0.000000  0.000000  0.000000  1
  Lu  Lu4  1  0.500000  0.500000  0.500000  1
  Lu  Lu5  1  0.000000  0.500000  0.500000  1
  Lu  Lu6  1  0.500000  0.000000  0.500000  1
  Lu  Lu7  1  0.500000  0.500000  0.000000  1
  Fe  Fe8  1  0.276397  0.723603  0.723603  1
  Fe  Fe9  1  0.723603  0.276397  0.723603  1
  Fe  Fe10  1  0.723603  0.723603  0.276397  1
  Fe  Fe11  1  0.276397  0.276397  0.276397  1
  H  H12  1  0.734863  0.734863  0.507792  1
  H  H13  1  0.265137  0.265137  0.507792  1
  H  H14  1  0.044701  0.726738  0.726738  1
  H  H15  1  0.273262  0.955299  0.726738  1
  H  H16  1  0.726738  0.044701  0.726738  1
  H  H17  1  0.955299  0.273262  0.726738  1
  H  H18  1  0.734863  0.507792  0.734863  1
  H  H19  1  0.507792  0.734863  0.734863  1
  H  H20  1  0.492208  0.265137  0.734863  1
  H  H21  1  0.265137  0.492208  0.734863  1
  H  H22  1  0.273262  0.726738  0.955299  1
  H  H23  1  0.726738  0.273262  0.955299  1
  H  H24  1  0.726738  0.726738  0.044701  1
  H  H25  1  0.273262  0.273262  0.044701  1
  H  H26  1  0.265137  0.507792  0.265137  1
  H  H27  1  0.492208  0.734863  0.265137  1
  H  H28  1  0.507792  0.265137  0.265137  1
  H  H29  1  0.734863  0.492208  0.265137  1
  H  H30  1  0.955299  0.726738  0.273262  1
  H  H31  1  0.726738  0.955299  0.273262  1
  H  H32  1  0.273262  0.044701  0.273262  1
  H  H33  1  0.044701  0.273262  0.273262  1
  H  H34  1  0.265137  0.734863  0.492208  1
  H  H35  1  0.734863  0.265137  0.492208  1
