# generated using pymatgen
data_Be3Pt4
_symmetry_space_group_name_H-M   'P 1'
_cell_length_a   3.96564754
_cell_length_b   8.38934178
_cell_length_c   5.61455889
_cell_angle_alpha   109.40476433
_cell_angle_beta   44.96793037
_cell_angle_gamma   134.90982450
_symmetry_Int_Tables_number   1
_chemical_formula_structural   Be3Pt4
_chemical_formula_sum   'Be3 Pt4'
_cell_volume   88.11599207
_cell_formula_units_Z   1
loop_
 _symmetry_equiv_pos_site_id
 _symmetry_equiv_pos_as_xyz
  1  'x, y, z'
loop_
 _atom_site_type_symbol
 _atom_site_label
 _atom_site_symmetry_multiplicity
 _atom_site_fract_x
 _atom_site_fract_y
 _atom_site_fract_z
 _atom_site_occupancy
  Be  Be0  1  0.765584  0.951295  0.682162  1
  Be  Be1  1  0.739894  0.437603  0.939109  1
  Be  Be2  1  0.788654  0.464854  0.426274  1
  Pt  Pt3  1  0.768497  0.705156  0.305862  1
  Pt  Pt4  1  0.759239  0.197584  0.559213  1
  Pt  Pt5  1  0.760589  0.197536  0.059033  1
  Pt  Pt6  1  0.769753  0.705096  0.806021  1
