# generated using pymatgen
data_ZrBe9NbTc
_symmetry_space_group_name_H-M   'P 1'
_cell_length_a   7.55843519
_cell_length_b   7.55843507
_cell_length_c   7.55843517
_cell_angle_alpha   34.72758175
_cell_angle_beta   34.72758616
_cell_angle_gamma   34.72758108
_symmetry_Int_Tables_number   1
_chemical_formula_structural   ZrBe9NbTc
_chemical_formula_sum   'Zr1 Be9 Nb1 Tc1'
_cell_volume   125.06689543
_cell_formula_units_Z   1
loop_
 _symmetry_equiv_pos_site_id
 _symmetry_equiv_pos_as_xyz
  1  'x, y, z'
loop_
 _atom_site_type_symbol
 _atom_site_label
 _atom_site_symmetry_multiplicity
 _atom_site_fract_x
 _atom_site_fract_y
 _atom_site_fract_z
 _atom_site_occupancy
  Zr  Zr0  1  0.001581  0.001581  0.001581  1
  Be  Be1  1  0.499712  0.499712  0.499712  1
  Be  Be2  1  0.333275  0.333275  0.333276  1
  Be  Be3  1  0.665451  0.665451  0.665450  1
  Be  Be4  1  0.081733  0.584588  0.584588  1
  Be  Be5  1  0.584588  0.584588  0.081733  1
  Be  Be6  1  0.584588  0.081733  0.584588  1
  Be  Be7  1  0.413812  0.922089  0.413812  1
  Be  Be8  1  0.922089  0.413812  0.413812  1
  Be  Be9  1  0.413812  0.413812  0.922089  1
  Nb  Nb10  1  0.855486  0.855486  0.855486  1
  Tc  Tc11  1  0.143873  0.143873  0.143873  1
