# generated using pymatgen
data_NdSmHo4Ta2O14
_symmetry_space_group_name_H-M   'P 1'
_cell_length_a   6.47794924
_cell_length_b   6.47794759
_cell_length_c   7.57501907
_cell_angle_alpha   89.98717661
_cell_angle_beta   90.01282072
_cell_angle_gamma   109.33106041
_symmetry_Int_Tables_number   1
_chemical_formula_structural   NdSmHo4Ta2O14
_chemical_formula_sum   'Nd1 Sm1 Ho4 Ta2 O14'
_cell_volume   299.95532485
_cell_formula_units_Z   1
loop_
 _symmetry_equiv_pos_site_id
 _symmetry_equiv_pos_as_xyz
  1  'x, y, z'
loop_
 _atom_site_type_symbol
 _atom_site_label
 _atom_site_symmetry_multiplicity
 _atom_site_fract_x
 _atom_site_fract_y
 _atom_site_fract_z
 _atom_site_occupancy
  Nd  Nd0  1  0.500000  0.500000  0.500000  1
  Sm  Sm1  1  0.500000  0.500000  0.000000  1
  Ho  Ho2  1  0.533473  0.000949  0.750881  1
  Ho  Ho3  1  0.000949  0.533473  0.249119  1
  Ho  Ho4  1  0.466527  0.999051  0.249119  1
  Ho  Ho5  1  0.999051  0.466527  0.750881  1
  Ta  Ta6  1  0.000000  0.000000  0.500000  1
  Ta  Ta7  1  0.000000  0.000000  0.000000  1
  O  O8  1  0.678546  0.930840  0.467458  1
  O  O9  1  0.930840  0.678546  0.532542  1
  O  O10  1  0.678592  0.929839  0.032386  1
  O  O11  1  0.929839  0.678592  0.967614  1
  O  O12  1  0.321454  0.069160  0.532542  1
  O  O13  1  0.069160  0.321454  0.467458  1
  O  O14  1  0.321408  0.070161  0.967614  1
  O  O15  1  0.070161  0.321408  0.032386  1
  O  O16  1  0.934823  0.065177  0.749937  1
  O  O17  1  0.065177  0.934823  0.250063  1
  O  O18  1  0.364414  0.635585  0.752992  1
  O  O19  1  0.635585  0.364414  0.247008  1
  O  O20  1  0.642252  0.357748  0.752538  1
  O  O21  1  0.357748  0.642252  0.247462  1
