# generated using pymatgen
data_DyLuB6W
_symmetry_space_group_name_H-M   'P 1'
_cell_length_a   3.56567900
_cell_length_b   9.26771600
_cell_length_c   11.66675100
_cell_angle_alpha   90.00000000
_cell_angle_beta   90.00000000
_cell_angle_gamma   90.00000000
_symmetry_Int_Tables_number   1
_chemical_formula_structural   DyLuB6W
_chemical_formula_sum   'Dy4 Lu4 B24 W4'
_cell_volume   385.53595724
_cell_formula_units_Z   4
loop_
 _symmetry_equiv_pos_site_id
 _symmetry_equiv_pos_as_xyz
  1  'x, y, z'
loop_
 _atom_site_type_symbol
 _atom_site_label
 _atom_site_symmetry_multiplicity
 _atom_site_fract_x
 _atom_site_fract_y
 _atom_site_fract_z
 _atom_site_occupancy
  Dy  Dy0  1  0.500000  0.321373  0.413991  1
  Dy  Dy1  1  0.500000  0.678627  0.586009  1
  Dy  Dy2  1  0.500000  0.178627  0.913991  1
  Dy  Dy3  1  0.500000  0.821373  0.086009  1
  Lu  Lu4  1  0.500000  0.444852  0.127649  1
  Lu  Lu5  1  0.500000  0.555148  0.872351  1
  Lu  Lu6  1  0.500000  0.055148  0.627649  1
  Lu  Lu7  1  0.500000  0.944852  0.372351  1
  B  B8  1  0.000000  0.099480  0.472578  1
  B  B9  1  0.000000  0.900520  0.527422  1
  B  B10  1  0.000000  0.400520  0.972578  1
  B  B11  1  0.000000  0.599480  0.027422  1
  B  B12  1  0.000000  0.131591  0.317708  1
  B  B13  1  0.000000  0.868409  0.682292  1
  B  B14  1  0.000000  0.368409  0.817708  1
  B  B15  1  0.000000  0.631591  0.182292  1
  B  B16  1  0.000000  0.052285  0.065687  1
  B  B17  1  0.000000  0.947715  0.934313  1
  B  B18  1  0.000000  0.447715  0.565687  1
  B  B19  1  0.000000  0.552285  0.434313  1
  B  B20  1  0.000000  0.479600  0.286104  1
  B  B21  1  0.000000  0.520400  0.713896  1
  B  B22  1  0.000000  0.020400  0.786104  1
  B  B23  1  0.000000  0.979600  0.213896  1
  B  B24  1  0.000000  0.253445  0.078928  1
  B  B25  1  0.000000  0.746555  0.921072  1
  B  B26  1  0.000000  0.246555  0.578928  1
  B  B27  1  0.000000  0.753445  0.421072  1
  B  B28  1  0.000000  0.296396  0.235817  1
  B  B29  1  0.000000  0.703604  0.764183  1
  B  B30  1  0.000000  0.203604  0.735817  1
  B  B31  1  0.000000  0.796396  0.264183  1
  W  W32  1  0.500000  0.140566  0.180297  1
  W  W33  1  0.500000  0.859434  0.819703  1
  W  W34  1  0.500000  0.359434  0.680297  1
  W  W35  1  0.500000  0.640566  0.319703  1
