# generated using pymatgen
data_YbHo7(HfIr3)2
_symmetry_space_group_name_H-M   'P 1'
_cell_length_a   10.81895513
_cell_length_b   10.78479500
_cell_length_c   6.24948371
_cell_angle_alpha   90.00000000
_cell_angle_beta   90.25676255
_cell_angle_gamma   90.00000000
_symmetry_Int_Tables_number   1
_chemical_formula_structural   YbHo7(HfIr3)2
_chemical_formula_sum   'Yb2 Ho14 Hf4 Ir12'
_cell_volume   729.18376904
_cell_formula_units_Z   2
loop_
 _symmetry_equiv_pos_site_id
 _symmetry_equiv_pos_as_xyz
  1  'x, y, z'
loop_
 _atom_site_type_symbol
 _atom_site_label
 _atom_site_symmetry_multiplicity
 _atom_site_fract_x
 _atom_site_fract_y
 _atom_site_fract_z
 _atom_site_occupancy
  Yb  Yb0  1  0.287698  0.086345  0.371509  1
  Yb  Yb1  1  0.287698  0.913655  0.871509  1
  Ho  Ho2  1  0.710343  0.084362  0.875489  1
  Ho  Ho3  1  0.710343  0.915638  0.375489  1
  Ho  Ho4  1  0.584382  0.790744  0.873926  1
  Ho  Ho5  1  0.584382  0.209256  0.373926  1
  Ho  Ho6  1  0.414611  0.791007  0.373496  1
  Ho  Ho7  1  0.414611  0.208993  0.873496  1
  Ho  Ho8  1  0.210995  0.415125  0.627516  1
  Ho  Ho9  1  0.210995  0.584875  0.127516  1
  Ho  Ho10  1  0.789232  0.414205  0.125365  1
  Ho  Ho11  1  0.789232  0.585795  0.625365  1
  Ho  Ho12  1  0.914780  0.711325  0.126131  1
  Ho  Ho13  1  0.914780  0.288675  0.626131  1
  Ho  Ho14  1  0.085826  0.710821  0.625434  1
  Ho  Ho15  1  0.085826  0.289179  0.125434  1
  Hf  Hf16  1  0.000532  0.999704  0.498845  1
  Hf  Hf17  1  0.000532  0.000296  0.998845  1
  Hf  Hf18  1  0.500019  0.500059  0.999979  1
  Hf  Hf19  1  0.500019  0.499941  0.499979  1
  Ir  Ir20  1  0.857896  0.143522  0.249899  1
  Ir  Ir21  1  0.857896  0.856478  0.749899  1
  Ir  Ir22  1  0.139250  0.147574  0.752566  1
  Ir  Ir23  1  0.139250  0.852426  0.252566  1
  Ir  Ir24  1  0.642382  0.356590  0.750382  1
  Ir  Ir25  1  0.642382  0.643410  0.250382  1
  Ir  Ir26  1  0.357436  0.359339  0.247542  1
  Ir  Ir27  1  0.357436  0.640661  0.747542  1
  Ir  Ir28  1  0.504457  0.000169  0.122793  1
  Ir  Ir29  1  0.504457  0.999831  0.622793  1
  Ir  Ir30  1  0.000161  0.500189  0.879129  1
  Ir  Ir31  1  0.000161  0.499811  0.379129  1
