# generated using pymatgen
data_Nd2MnGa(SiIr2)2
_symmetry_space_group_name_H-M   'P 1'
_cell_length_a   4.12433400
_cell_length_b   4.12433400
_cell_length_c   10.58589200
_cell_angle_alpha   90.00000000
_cell_angle_beta   90.00000000
_cell_angle_gamma   90.00000000
_symmetry_Int_Tables_number   1
_chemical_formula_structural   Nd2MnGa(SiIr2)2
_chemical_formula_sum   'Nd2 Mn1 Ga1 Si2 Ir4'
_cell_volume   180.06740907
_cell_formula_units_Z   1
loop_
 _symmetry_equiv_pos_site_id
 _symmetry_equiv_pos_as_xyz
  1  'x, y, z'
loop_
 _atom_site_type_symbol
 _atom_site_label
 _atom_site_symmetry_multiplicity
 _atom_site_fract_x
 _atom_site_fract_y
 _atom_site_fract_z
 _atom_site_occupancy
  Nd  Nd0  1  0.000000  0.500000  0.245674  1
  Nd  Nd1  1  0.500000  0.000000  0.754326  1
  Mn  Mn2  1  0.500000  0.500000  0.500000  1
  Ga  Ga3  1  0.000000  0.000000  0.500000  1
  Si  Si4  1  0.000000  0.500000  0.878176  1
  Si  Si5  1  0.500000  0.000000  0.121824  1
  Ir  Ir6  1  0.000000  0.000000  0.000000  1
  Ir  Ir7  1  0.500000  0.500000  0.000000  1
  Ir  Ir8  1  0.000000  0.500000  0.650339  1
  Ir  Ir9  1  0.500000  0.000000  0.349661  1
