# generated using pymatgen
data_BaLiLaWO6
_symmetry_space_group_name_H-M   'P 1'
_cell_length_a   5.71404799
_cell_length_b   5.75119900
_cell_length_c   8.46209850
_cell_angle_alpha   90.00019813
_cell_angle_beta   90.38373418
_cell_angle_gamma   89.99989741
_symmetry_Int_Tables_number   1
_chemical_formula_structural   BaLiLaWO6
_chemical_formula_sum   'Ba2 Li2 La2 W2 O12'
_cell_volume   278.08055057
_cell_formula_units_Z   2
loop_
 _symmetry_equiv_pos_site_id
 _symmetry_equiv_pos_as_xyz
  1  'x, y, z'
loop_
 _atom_site_type_symbol
 _atom_site_label
 _atom_site_symmetry_multiplicity
 _atom_site_fract_x
 _atom_site_fract_y
 _atom_site_fract_z
 _atom_site_occupancy
  Ba  Ba0  1  0.240384  0.750845  0.001874  1
  Ba  Ba1  1  0.759617  0.250846  0.998128  1
  Li  Li2  1  0.230564  0.278737  0.719182  1
  Li  Li3  1  0.769440  0.778738  0.280817  1
  La  La4  1  0.258252  0.810630  0.502349  1
  La  La5  1  0.741750  0.310630  0.497649  1
  W  W6  1  0.759181  0.768422  0.737875  1
  W  W7  1  0.240817  0.268423  0.262125  1
  O  O8  1  0.550740  0.031906  0.686381  1
  O  O9  1  0.449267  0.531901  0.313621  1
  O  O10  1  0.512777  0.063147  0.312284  1
  O  O11  1  0.487213  0.563153  0.687717  1
  O  O12  1  0.974706  0.471289  0.240143  1
  O  O13  1  0.025300  0.971278  0.759858  1
  O  O14  1  0.951513  0.491607  0.762082  1
  O  O15  1  0.048476  0.991614  0.237915  1
  O  O16  1  0.837912  0.743033  0.508105  1
  O  O17  1  0.162089  0.243030  0.491896  1
  O  O18  1  0.699023  0.773780  0.960755  1
  O  O19  1  0.300977  0.273776  0.039246  1
