# generated using pymatgen
data_CeThRh2Au
_symmetry_space_group_name_H-M   'P 1'
_cell_length_a   7.64730586
_cell_length_b   7.64730586
_cell_length_c   3.70674100
_cell_angle_alpha   90.00000000
_cell_angle_beta   90.00000000
_cell_angle_gamma   89.21189553
_symmetry_Int_Tables_number   1
_chemical_formula_structural   CeThRh2Au
_chemical_formula_sum   'Ce2 Th2 Rh4 Au2'
_cell_volume   216.75447722
_cell_formula_units_Z   2
loop_
 _symmetry_equiv_pos_site_id
 _symmetry_equiv_pos_as_xyz
  1  'x, y, z'
loop_
 _atom_site_type_symbol
 _atom_site_label
 _atom_site_symmetry_multiplicity
 _atom_site_fract_x
 _atom_site_fract_y
 _atom_site_fract_z
 _atom_site_occupancy
  Ce  Ce0  1  0.171800  0.328200  0.500000  1
  Ce  Ce1  1  0.828200  0.671800  0.500000  1
  Th  Th2  1  0.673809  0.173809  0.500000  1
  Th  Th3  1  0.326191  0.826191  0.500000  1
  Rh  Rh4  1  0.132565  0.632565  0.000000  1
  Rh  Rh5  1  0.867435  0.367435  0.000000  1
  Rh  Rh6  1  0.636218  0.863782  0.000000  1
  Rh  Rh7  1  0.363782  0.136218  0.000000  1
  Au  Au8  1  0.000000  0.000000  0.000000  1
  Au  Au9  1  0.500000  0.500000  0.000000  1
