# generated using pymatgen
data_Ho4Lu2Al24Os5Rh3
_symmetry_space_group_name_H-M   'P 1'
_cell_length_a   8.82720759
_cell_length_b   8.77938683
_cell_length_c   9.55828322
_cell_angle_alpha   89.99448986
_cell_angle_beta   89.80914909
_cell_angle_gamma   120.14261849
_symmetry_Int_Tables_number   1
_chemical_formula_structural   Ho4Lu2Al24Os5Rh3
_chemical_formula_sum   'Ho4 Lu2 Al24 Os5 Rh3'
_cell_volume   640.57325996
_cell_formula_units_Z   1
loop_
 _symmetry_equiv_pos_site_id
 _symmetry_equiv_pos_as_xyz
  1  'x, y, z'
loop_
 _atom_site_type_symbol
 _atom_site_label
 _atom_site_symmetry_multiplicity
 _atom_site_fract_x
 _atom_site_fract_y
 _atom_site_fract_z
 _atom_site_occupancy
  Ho  Ho0  1  0.612987  0.798722  0.250962  1
  Ho  Ho1  1  0.387013  0.201278  0.749038  1
  Ho  Ho2  1  0.187711  0.802856  0.251677  1
  Ho  Ho3  1  0.812289  0.197144  0.748323  1
  Lu  Lu4  1  0.199407  0.393355  0.252162  1
  Lu  Lu5  1  0.800593  0.606645  0.747838  1
  Al  Al6  1  0.333934  0.666880  0.025636  1
  Al  Al7  1  0.666066  0.333120  0.974364  1
  Al  Al8  1  0.667609  0.334220  0.523417  1
  Al  Al9  1  0.332391  0.665780  0.476583  1
  Al  Al10  1  0.163983  0.328847  0.575535  1
  Al  Al11  1  0.836017  0.671153  0.424465  1
  Al  Al12  1  0.673504  0.836702  0.577394  1
  Al  Al13  1  0.834206  0.671624  0.075708  1
  Al  Al14  1  0.326496  0.163298  0.422606  1
  Al  Al15  1  0.165794  0.328376  0.924292  1
  Al  Al16  1  0.162010  0.836312  0.577831  1
  Al  Al17  1  0.326619  0.163612  0.077166  1
  Al  Al18  1  0.837990  0.163688  0.422169  1
  Al  Al19  1  0.673381  0.836388  0.922834  1
  Al  Al20  1  0.835903  0.161452  0.078036  1
  Al  Al21  1  0.164097  0.838548  0.921964  1
  Al  Al22  1  0.560618  0.120840  0.249419  1
  Al  Al23  1  0.439382  0.879160  0.750581  1
  Al  Al24  1  0.875898  0.436168  0.250084  1
  Al  Al25  1  0.124102  0.563832  0.749916  1
  Al  Al26  1  0.561445  0.435054  0.249555  1
  Al  Al27  1  0.438555  0.564946  0.750445  1
  Al  Al28  1  0.999832  0.000487  0.250062  1
  Al  Al29  1  0.000168  0.999513  0.749938  1
  Os  Os30  1  0.500000  0.500000  0.000000  1
  Os  Os31  1  0.000000  0.500000  0.500000  1
  Os  Os32  1  0.500000  0.500000  0.500000  1
  Os  Os33  1  0.000000  0.000000  0.000000  1
  Os  Os34  1  0.000000  0.000000  0.500000  1
  Rh  Rh35  1  0.500000  0.000000  0.000000  1
  Rh  Rh36  1  0.000000  0.500000  0.000000  1
  Rh  Rh37  1  0.500000  0.000000  0.500000  1
