# generated using pymatgen
data_Dy2SnAs2(PRh3)4
_symmetry_space_group_name_H-M   'P 1'
_cell_length_a   9.80155758
_cell_length_b   9.93395015
_cell_length_c   3.90960047
_cell_angle_alpha   89.96553439
_cell_angle_beta   90.53011502
_cell_angle_gamma   119.89255533
_symmetry_Int_Tables_number   1
_chemical_formula_structural   Dy2SnAs2(PRh3)4
_chemical_formula_sum   'Dy2 Sn1 As2 P4 Rh12'
_cell_volume   330.00919017
_cell_formula_units_Z   1
loop_
 _symmetry_equiv_pos_site_id
 _symmetry_equiv_pos_as_xyz
  1  'x, y, z'
loop_
 _atom_site_type_symbol
 _atom_site_label
 _atom_site_symmetry_multiplicity
 _atom_site_fract_x
 _atom_site_fract_y
 _atom_site_fract_z
 _atom_site_occupancy
  Dy  Dy0  1  0.329111  0.664305  0.756138  1
  Dy  Dy1  1  0.666421  0.331646  0.246227  1
  Sn  Sn2  1  0.003986  0.998029  0.568003  1
  As  As3  1  0.596528  0.716524  0.258680  1
  As  As4  1  0.285556  0.885050  0.257700  1
  P  P5  1  0.875625  0.583244  0.749289  1
  P  P6  1  0.408004  0.293064  0.742999  1
  P  P7  1  0.710932  0.119090  0.750759  1
  P  P8  1  0.117958  0.402761  0.250881  1
  Rh  Rh9  1  0.617046  0.545356  0.750860  1
  Rh  Rh10  1  0.452661  0.076959  0.748528  1
  Rh  Rh11  1  0.927510  0.378089  0.749173  1
  Rh  Rh12  1  0.382598  0.450842  0.253199  1
  Rh  Rh13  1  0.557645  0.951460  0.257573  1
  Rh  Rh14  1  0.061258  0.599976  0.256304  1
  Rh  Rh15  1  0.110958  0.818151  0.760373  1
  Rh  Rh16  1  0.162453  0.290542  0.755711  1
  Rh  Rh17  1  0.715587  0.885446  0.766975  1
  Rh  Rh18  1  0.883442  0.160065  0.245108  1
  Rh  Rh19  1  0.849888  0.712645  0.245859  1
  Rh  Rh20  1  0.284831  0.136754  0.233941  1
