# generated using pymatgen
data_NdDy3(Si3Rh)2
_symmetry_space_group_name_H-M   'P 1'
_cell_length_a   8.20278800
_cell_length_b   8.20278855
_cell_length_c   8.02775200
_cell_angle_alpha   90.00000000
_cell_angle_beta   90.00000000
_cell_angle_gamma   119.99998972
_symmetry_Int_Tables_number   1
_chemical_formula_structural   NdDy3(Si3Rh)2
_chemical_formula_sum   'Nd2 Dy6 Si12 Rh4'
_cell_volume   467.78643939
_cell_formula_units_Z   2
loop_
 _symmetry_equiv_pos_site_id
 _symmetry_equiv_pos_as_xyz
  1  'x, y, z'
loop_
 _atom_site_type_symbol
 _atom_site_label
 _atom_site_symmetry_multiplicity
 _atom_site_fract_x
 _atom_site_fract_y
 _atom_site_fract_z
 _atom_site_occupancy
  Nd  Nd0  1  0.000000  0.000000  0.250000  1
  Nd  Nd1  1  0.000000  0.000000  0.750000  1
  Dy  Dy2  1  0.508708  0.491292  0.250000  1
  Dy  Dy3  1  0.508708  0.017417  0.250000  1
  Dy  Dy4  1  0.982583  0.491292  0.250000  1
  Dy  Dy5  1  0.491292  0.508708  0.750000  1
  Dy  Dy6  1  0.491292  0.982583  0.750000  1
  Dy  Dy7  1  0.017417  0.508708  0.750000  1
  Si  Si8  1  0.168175  0.831825  0.500157  1
  Si  Si9  1  0.168175  0.336351  0.500157  1
  Si  Si10  1  0.663649  0.831825  0.500157  1
  Si  Si11  1  0.831825  0.168175  0.499843  1
  Si  Si12  1  0.831825  0.663649  0.499843  1
  Si  Si13  1  0.336351  0.168175  0.499843  1
  Si  Si14  1  0.831825  0.168175  0.000157  1
  Si  Si15  1  0.831825  0.663649  0.000157  1
  Si  Si16  1  0.336351  0.168175  0.000157  1
  Si  Si17  1  0.168175  0.831825  0.999843  1
  Si  Si18  1  0.168175  0.336351  0.999843  1
  Si  Si19  1  0.663649  0.831825  0.999843  1
  Rh  Rh20  1  0.333333  0.666667  0.466661  1
  Rh  Rh21  1  0.666667  0.333333  0.533339  1
  Rh  Rh22  1  0.666667  0.333333  0.966661  1
  Rh  Rh23  1  0.333333  0.666667  0.033339  1
