# generated using pymatgen
data_Th3B6(IrRu)4
_symmetry_space_group_name_H-M   'P 1'
_cell_length_a   10.14063676
_cell_length_b   9.33821052
_cell_length_c   5.61316780
_cell_angle_alpha   81.33295560
_cell_angle_beta   65.54033523
_cell_angle_gamma   32.93911955
_symmetry_Int_Tables_number   1
_chemical_formula_structural   Th3B6(IrRu)4
_chemical_formula_sum   'Th3 B6 Ir4 Ru4'
_cell_volume   241.39391151
_cell_formula_units_Z   1
loop_
 _symmetry_equiv_pos_site_id
 _symmetry_equiv_pos_as_xyz
  1  'x, y, z'
loop_
 _atom_site_type_symbol
 _atom_site_label
 _atom_site_symmetry_multiplicity
 _atom_site_fract_x
 _atom_site_fract_y
 _atom_site_fract_z
 _atom_site_occupancy
  Th  Th0  1  0.000800  0.000954  0.999123  1
  Th  Th1  1  0.821287  0.821286  0.179203  1
  Th  Th2  1  0.178234  0.178745  0.821330  1
  B  B3  1  0.668443  0.332475  0.673263  1
  B  B4  1  0.332419  0.668481  0.325711  1
  B  B5  1  0.168201  0.488412  0.510904  1
  B  B6  1  0.488235  0.168522  0.832564  1
  B  B7  1  0.829239  0.512653  0.493650  1
  B  B8  1  0.512855  0.829011  0.164151  1
  Ir  Ir9  1  0.914667  0.914558  0.585399  1
  Ir  Ir10  1  0.412714  0.412587  0.587305  1
  Ir  Ir11  1  0.586969  0.586147  0.413187  1
  Ir  Ir12  1  0.250056  0.249703  0.250137  1
  Ru  Ru13  1  0.750340  0.750353  0.749378  1
  Ru  Ru14  1  0.085775  0.085817  0.414739  1
  Ru  Ru15  1  0.585653  0.586171  0.914034  1
  Ru  Ru16  1  0.414114  0.414125  0.085921  1
