# generated using pymatgen
data_Tb3Lu5(InRh)2
_symmetry_space_group_name_H-M   'P 1'
_cell_length_a   9.54551363
_cell_length_b   9.55718351
_cell_length_c   9.56337009
_cell_angle_alpha   59.94437311
_cell_angle_beta   60.06372545
_cell_angle_gamma   60.16516134
_symmetry_Int_Tables_number   1
_chemical_formula_structural   Tb3Lu5(InRh)2
_chemical_formula_sum   'Tb6 Lu10 In4 Rh4'
_cell_volume   617.71771801
_cell_formula_units_Z   2
loop_
 _symmetry_equiv_pos_site_id
 _symmetry_equiv_pos_as_xyz
  1  'x, y, z'
loop_
 _atom_site_type_symbol
 _atom_site_label
 _atom_site_symmetry_multiplicity
 _atom_site_fract_x
 _atom_site_fract_y
 _atom_site_fract_z
 _atom_site_occupancy
  Tb  Tb0  1  0.437476  0.063826  0.062348  1
  Tb  Tb1  1  0.435595  0.063379  0.436370  1
  Tb  Tb2  1  0.064258  0.434755  0.063529  1
  Tb  Tb3  1  0.652060  0.650877  0.048626  1
  Tb  Tb4  1  0.188240  0.812475  0.188355  1
  Tb  Tb5  1  0.064090  0.433296  0.436893  1
  Lu  Lu6  1  0.811628  0.813173  0.190023  1
  Lu  Lu7  1  0.810694  0.190530  0.810233  1
  Lu  Lu8  1  0.188139  0.188781  0.811623  1
  Lu  Lu9  1  0.645677  0.049896  0.650715  1
  Lu  Lu10  1  0.053935  0.054929  0.445376  1
  Lu  Lu11  1  0.443882  0.440390  0.056153  1
  Lu  Lu12  1  0.654329  0.652842  0.649114  1
  Lu  Lu13  1  0.810497  0.189207  0.189428  1
  Lu  Lu14  1  0.191158  0.810409  0.808406  1
  Lu  Lu15  1  0.047088  0.645906  0.652542  1
  In  In16  1  0.416100  0.416822  0.418241  1
  In  In17  1  0.418152  0.417515  0.749101  1
  In  In18  1  0.416398  0.747564  0.418830  1
  In  In19  1  0.747653  0.416931  0.419046  1
  Rh  Rh20  1  0.856633  0.424035  0.859564  1
  Rh  Rh21  1  0.862172  0.862744  0.851498  1
  Rh  Rh22  1  0.857534  0.862344  0.429023  1
  Rh  Rh23  1  0.426610  0.857373  0.854963  1
