# generated using pymatgen
data_HoGa2CuNi2
_symmetry_space_group_name_H-M   'P 1'
_cell_length_a   4.08196700
_cell_length_b   8.83849027
_cell_length_c   8.79912029
_cell_angle_alpha   120.14811794
_cell_angle_beta   90.00000000
_cell_angle_gamma   90.00000000
_symmetry_Int_Tables_number   1
_chemical_formula_structural   HoGa2CuNi2
_chemical_formula_sum   'Ho3 Ga6 Cu3 Ni6'
_cell_volume   274.51578863
_cell_formula_units_Z   3
loop_
 _symmetry_equiv_pos_site_id
 _symmetry_equiv_pos_as_xyz
  1  'x, y, z'
loop_
 _atom_site_type_symbol
 _atom_site_label
 _atom_site_symmetry_multiplicity
 _atom_site_fract_x
 _atom_site_fract_y
 _atom_site_fract_z
 _atom_site_occupancy
  Ho  Ho0  1  0.500000  0.333397  0.666784  1
  Ho  Ho1  1  0.500000  0.666614  0.333216  1
  Ho  Ho2  1  0.000000  0.000036  0.000000  1
  Ga  Ga3  1  0.000000  0.517572  0.000000  1
  Ga  Ga4  1  0.000000  0.482523  0.482586  1
  Ga  Ga5  1  0.000000  0.999937  0.517414  1
  Ga  Ga6  1  0.500000  0.278343  0.000000  1
  Ga  Ga7  1  0.500000  0.721465  0.721522  1
  Ga  Ga8  1  0.500000  0.999942  0.278478  1
  Cu  Cu9  1  0.500000  0.706120  0.000000  1
  Cu  Cu10  1  0.500000  0.293655  0.294019  1
  Cu  Cu11  1  0.500000  0.999635  0.705981  1
  Ni  Ni12  1  0.000000  0.174048  0.373119  1
  Ni  Ni13  1  0.000000  0.199107  0.826167  1
  Ni  Ni14  1  0.000000  0.627439  0.801244  1
  Ni  Ni15  1  0.000000  0.800931  0.626881  1
  Ni  Ni16  1  0.000000  0.372940  0.173833  1
  Ni  Ni17  1  0.000000  0.826196  0.198756  1
