# generated using pymatgen
data_Fe3Sb12Os
_symmetry_space_group_name_H-M   'P 1'
_cell_length_a   8.03970956
_cell_length_b   8.03970998
_cell_length_c   8.03970990
_cell_angle_alpha   109.60461859
_cell_angle_beta   109.60461723
_cell_angle_gamma   109.60462053
_symmetry_Int_Tables_number   1
_chemical_formula_structural   Fe3Sb12Os
_chemical_formula_sum   'Fe3 Sb12 Os1'
_cell_volume   398.04813151
_cell_formula_units_Z   1
loop_
 _symmetry_equiv_pos_site_id
 _symmetry_equiv_pos_as_xyz
  1  'x, y, z'
loop_
 _atom_site_type_symbol
 _atom_site_label
 _atom_site_symmetry_multiplicity
 _atom_site_fract_x
 _atom_site_fract_y
 _atom_site_fract_z
 _atom_site_occupancy
  Fe  Fe0  1  0.500000  0.000000  0.000000  1
  Fe  Fe1  1  0.000000  0.000000  0.500000  1
  Fe  Fe2  1  0.000000  0.500000  0.000000  1
  Sb  Sb3  1  0.671567  0.848180  0.509779  1
  Sb  Sb4  1  0.848180  0.509779  0.671567  1
  Sb  Sb5  1  0.509779  0.671567  0.848180  1
  Sb  Sb6  1  0.668265  0.158973  0.827720  1
  Sb  Sb7  1  0.841027  0.172280  0.331735  1
  Sb  Sb8  1  0.158973  0.827720  0.668265  1
  Sb  Sb9  1  0.172280  0.331735  0.841027  1
  Sb  Sb10  1  0.151820  0.490221  0.328433  1
  Sb  Sb11  1  0.328433  0.151820  0.490221  1
  Sb  Sb12  1  0.490221  0.328433  0.151820  1
  Sb  Sb13  1  0.331735  0.841027  0.172280  1
  Sb  Sb14  1  0.827720  0.668265  0.158973  1
  Os  Os15  1  0.500000  0.500000  0.500000  1
