# generated using pymatgen
data_Tb15Th(NiHg)4
_symmetry_space_group_name_H-M   'P 1'
_cell_length_a   9.56404405
_cell_length_b   9.56406117
_cell_length_c   9.56403566
_cell_angle_alpha   60.13836459
_cell_angle_beta   60.13844532
_cell_angle_gamma   60.13866573
_symmetry_Int_Tables_number   1
_chemical_formula_structural   Tb15Th(NiHg)4
_chemical_formula_sum   'Tb15 Th1 Ni4 Hg4'
_cell_volume   620.54094036
_cell_formula_units_Z   1
loop_
 _symmetry_equiv_pos_site_id
 _symmetry_equiv_pos_as_xyz
  1  'x, y, z'
loop_
 _atom_site_type_symbol
 _atom_site_label
 _atom_site_symmetry_multiplicity
 _atom_site_fract_x
 _atom_site_fract_y
 _atom_site_fract_z
 _atom_site_occupancy
  Tb  Tb0  1  0.349866  0.349866  0.947587  1
  Tb  Tb1  1  0.349865  0.947587  0.349866  1
  Tb  Tb2  1  0.947586  0.349865  0.349866  1
  Tb  Tb3  1  0.812438  0.188515  0.188515  1
  Tb  Tb4  1  0.190584  0.810861  0.810859  1
  Tb  Tb5  1  0.188515  0.812438  0.188515  1
  Tb  Tb6  1  0.810862  0.190584  0.810860  1
  Tb  Tb7  1  0.188514  0.188515  0.812438  1
  Tb  Tb8  1  0.810860  0.810861  0.190584  1
  Tb  Tb9  1  0.936527  0.563947  0.563946  1
  Tb  Tb10  1  0.564728  0.935893  0.935893  1
  Tb  Tb11  1  0.563948  0.936526  0.563947  1
  Tb  Tb12  1  0.935894  0.564728  0.935893  1
  Tb  Tb13  1  0.563947  0.563947  0.936526  1
  Tb  Tb14  1  0.935894  0.935893  0.564727  1
  Th  Th15  1  0.346558  0.346558  0.346562  1
  Ni  Ni16  1  0.142723  0.142724  0.142725  1
  Ni  Ni17  1  0.144041  0.144042  0.571310  1
  Ni  Ni18  1  0.144042  0.571310  0.144044  1
  Ni  Ni19  1  0.571310  0.144042  0.144043  1
  Hg  Hg20  1  0.585952  0.585953  0.585952  1
  Hg  Hg21  1  0.585801  0.585801  0.243741  1
  Hg  Hg22  1  0.585801  0.243741  0.585801  1
  Hg  Hg23  1  0.243741  0.585802  0.585800  1
