# generated using pymatgen
data_Tb8GeBI12
_symmetry_space_group_name_H-M   'P 1'
_cell_length_a   4.20190500
_cell_length_b   13.94891432
_cell_length_c   14.69147123
_cell_angle_alpha   90.35402537
_cell_angle_beta   90.00000000
_cell_angle_gamma   90.00000000
_symmetry_Int_Tables_number   1
_chemical_formula_structural   Tb8GeBI12
_chemical_formula_sum   'Tb8 Ge1 B1 I12'
_cell_volume   861.08026208
_cell_formula_units_Z   1
loop_
 _symmetry_equiv_pos_site_id
 _symmetry_equiv_pos_as_xyz
  1  'x, y, z'
loop_
 _atom_site_type_symbol
 _atom_site_label
 _atom_site_symmetry_multiplicity
 _atom_site_fract_x
 _atom_site_fract_y
 _atom_site_fract_z
 _atom_site_occupancy
  Tb  Tb0  1  0.500000  0.105890  0.358184  1
  Tb  Tb1  1  0.500000  0.894110  0.641816  1
  Tb  Tb2  1  0.500000  0.617401  0.157104  1
  Tb  Tb3  1  0.500000  0.382599  0.842896  1
  Tb  Tb4  1  0.000000  0.100673  0.568164  1
  Tb  Tb5  1  0.000000  0.899327  0.431836  1
  Tb  Tb6  1  0.000000  0.613604  0.923243  1
  Tb  Tb7  1  0.000000  0.386396  0.076757  1
  Ge  Ge8  1  0.500000  0.500000  0.000000  1
  B  B9  1  0.500000  0.000000  0.500000  1
  I  I10  1  0.500000  0.245580  0.165559  1
  I  I11  1  0.500000  0.754420  0.834441  1
  I  I12  1  0.500000  0.751511  0.336867  1
  I  I13  1  0.500000  0.248489  0.663133  1
  I  I14  1  0.000000  0.257886  0.417093  1
  I  I15  1  0.000000  0.742114  0.582907  1
  I  I16  1  0.000000  0.761233  0.084836  1
  I  I17  1  0.000000  0.238767  0.915164  1
  I  I18  1  0.000000  0.998102  0.240604  1
  I  I19  1  0.000000  0.001898  0.759396  1
  I  I20  1  0.000000  0.499006  0.263308  1
  I  I21  1  0.000000  0.500994  0.736692  1
