# generated using pymatgen
data_Ho6TcNiSn
_symmetry_space_group_name_H-M   'P 1'
_cell_length_a   8.42793323
_cell_length_b   8.42793369
_cell_length_c   8.42793356
_cell_angle_alpha   113.50515212
_cell_angle_beta   110.58730357
_cell_angle_gamma   104.44995583
_symmetry_Int_Tables_number   1
_chemical_formula_structural   Ho6TcNiSn
_chemical_formula_sum   'Ho12 Tc2 Ni2 Sn2'
_cell_volume   457.88020127
_cell_formula_units_Z   2
loop_
 _symmetry_equiv_pos_site_id
 _symmetry_equiv_pos_as_xyz
  1  'x, y, z'
loop_
 _atom_site_type_symbol
 _atom_site_label
 _atom_site_symmetry_multiplicity
 _atom_site_fract_x
 _atom_site_fract_y
 _atom_site_fract_z
 _atom_site_occupancy
  Ho  Ho0  1  0.441397  0.240800  0.200596  1
  Ho  Ho1  1  0.558603  0.759200  0.799404  1
  Ho  Ho2  1  0.040203  0.240800  0.799404  1
  Ho  Ho3  1  0.959797  0.759200  0.200596  1
  Ho  Ho4  1  0.183328  0.284955  0.468284  1
  Ho  Ho5  1  0.816672  0.715045  0.531716  1
  Ho  Ho6  1  0.183328  0.715045  0.898374  1
  Ho  Ho7  1  0.816672  0.284955  0.101626  1
  Ho  Ho8  1  0.331214  0.646736  0.315522  1
  Ho  Ho9  1  0.668786  0.353264  0.684478  1
  Ho  Ho10  1  0.331214  0.015692  0.684478  1
  Ho  Ho11  1  0.668786  0.984308  0.315522  1
  Tc  Tc12  1  0.325543  0.000000  0.325543  1
  Tc  Tc13  1  0.674457  0.000000  0.674457  1
  Ni  Ni14  1  0.117446  0.617446  0.500000  1
  Ni  Ni15  1  0.882554  0.382554  0.500000  1
  Sn  Sn16  1  0.500000  0.500000  0.000000  1
  Sn  Sn17  1  0.000000  0.000000  0.000000  1
