# generated using pymatgen
data_Na2Pd3Au
_symmetry_space_group_name_H-M   'P 1'
_cell_length_a   5.49334333
_cell_length_b   5.43043260
_cell_length_c   5.43043300
_cell_angle_alpha   60.00000368
_cell_angle_beta   60.37812088
_cell_angle_gamma   60.37809872
_symmetry_Int_Tables_number   1
_chemical_formula_structural   Na2Pd3Au
_chemical_formula_sum   'Na2 Pd3 Au1'
_cell_volume   115.19912865
_cell_formula_units_Z   1
loop_
 _symmetry_equiv_pos_site_id
 _symmetry_equiv_pos_as_xyz
  1  'x, y, z'
loop_
 _atom_site_type_symbol
 _atom_site_label
 _atom_site_symmetry_multiplicity
 _atom_site_fract_x
 _atom_site_fract_y
 _atom_site_fract_z
 _atom_site_occupancy
  Na  Na0  1  0.496886  0.501038  0.501038  1
  Na  Na1  1  0.753114  0.748962  0.748962  1
  Pd  Pd2  1  0.125000  0.625000  0.125000  1
  Pd  Pd3  1  0.125000  0.125000  0.625000  1
  Pd  Pd4  1  0.125000  0.125000  0.125000  1
  Au  Au5  1  0.625000  0.125000  0.125000  1
