# generated using pymatgen
data_Er3FeCo6(P3Ir)2
_symmetry_space_group_name_H-M   'P 1'
_cell_length_a   3.72747400
_cell_length_b   10.68575700
_cell_length_c   12.30614000
_cell_angle_alpha   90.00000000
_cell_angle_beta   90.00000000
_cell_angle_gamma   90.00000000
_symmetry_Int_Tables_number   1
_chemical_formula_structural   Er3FeCo6(P3Ir)2
_chemical_formula_sum   'Er6 Fe2 Co12 P12 Ir4'
_cell_volume   490.16440268
_cell_formula_units_Z   2
loop_
 _symmetry_equiv_pos_site_id
 _symmetry_equiv_pos_as_xyz
  1  'x, y, z'
loop_
 _atom_site_type_symbol
 _atom_site_label
 _atom_site_symmetry_multiplicity
 _atom_site_fract_x
 _atom_site_fract_y
 _atom_site_fract_z
 _atom_site_occupancy
  Er  Er0  1  0.750000  0.250000  0.479948  1
  Er  Er1  1  0.250000  0.750000  0.520052  1
  Er  Er2  1  0.250000  0.934676  0.795645  1
  Er  Er3  1  0.250000  0.565324  0.795645  1
  Er  Er4  1  0.750000  0.065324  0.204355  1
  Er  Er5  1  0.750000  0.434676  0.204355  1
  Fe  Fe6  1  0.750000  0.250000  0.009747  1
  Fe  Fe7  1  0.250000  0.750000  0.990253  1
  Co  Co8  1  0.250000  0.418572  0.005863  1
  Co  Co9  1  0.250000  0.081428  0.005863  1
  Co  Co10  1  0.750000  0.581428  0.994137  1
  Co  Co11  1  0.750000  0.918572  0.994137  1
  Co  Co12  1  0.250000  0.450300  0.571182  1
  Co  Co13  1  0.250000  0.049700  0.571182  1
  Co  Co14  1  0.750000  0.549700  0.428818  1
  Co  Co15  1  0.750000  0.950300  0.428818  1
  Co  Co16  1  0.250000  0.870064  0.288646  1
  Co  Co17  1  0.250000  0.629936  0.288646  1
  Co  Co18  1  0.750000  0.129936  0.711354  1
  Co  Co19  1  0.750000  0.370064  0.711354  1
  P  P20  1  0.250000  0.250000  0.109750  1
  P  P21  1  0.750000  0.750000  0.890250  1
  P  P22  1  0.250000  0.250000  0.649084  1
  P  P23  1  0.750000  0.750000  0.350916  1
  P  P24  1  0.250000  0.447542  0.385974  1
  P  P25  1  0.250000  0.052458  0.385974  1
  P  P26  1  0.750000  0.552458  0.614026  1
  P  P27  1  0.750000  0.947542  0.614026  1
  P  P28  1  0.250000  0.905878  0.104727  1
  P  P29  1  0.250000  0.594122  0.104727  1
  P  P30  1  0.750000  0.094122  0.895273  1
  P  P31  1  0.750000  0.405878  0.895273  1
  Ir  Ir32  1  0.250000  0.250000  0.840150  1
  Ir  Ir33  1  0.750000  0.750000  0.159850  1
  Ir  Ir34  1  0.250000  0.250000  0.298545  1
  Ir  Ir35  1  0.750000  0.750000  0.701455  1
