# generated using pymatgen
data_GaSb7Au4
_symmetry_space_group_name_H-M   'P 1'
_cell_length_a   6.72925200
_cell_length_b   6.72925200
_cell_length_c   6.72925200
_cell_angle_alpha   91.39181483
_cell_angle_beta   88.60818517
_cell_angle_gamma   91.39181483
_symmetry_Int_Tables_number   1
_chemical_formula_structural   GaSb7Au4
_chemical_formula_sum   'Ga1 Sb7 Au4'
_cell_volume   304.45417749
_cell_formula_units_Z   1
loop_
 _symmetry_equiv_pos_site_id
 _symmetry_equiv_pos_as_xyz
  1  'x, y, z'
loop_
 _atom_site_type_symbol
 _atom_site_label
 _atom_site_symmetry_multiplicity
 _atom_site_fract_x
 _atom_site_fract_y
 _atom_site_fract_z
 _atom_site_occupancy
  Ga  Ga0  1  0.383728  0.116272  0.883728  1
  Sb  Sb1  1  0.123611  0.879921  0.370043  1
  Sb  Sb2  1  0.870043  0.376389  0.120079  1
  Sb  Sb3  1  0.620079  0.629957  0.623611  1
  Sb  Sb4  1  0.376636  0.369088  0.377647  1
  Sb  Sb5  1  0.130912  0.622353  0.876636  1
  Sb  Sb6  1  0.877647  0.123364  0.630912  1
  Sb  Sb7  1  0.615037  0.884963  0.115037  1
  Au  Au8  1  0.999261  0.500739  0.499261  1
  Au  Au9  1  0.496674  0.490324  0.996697  1
  Au  Au10  1  0.496697  0.003326  0.509676  1
  Au  Au11  1  0.009676  0.003303  0.996674  1
