# generated using pymatgen
data_NdNp9O20
_symmetry_space_group_name_H-M   'P 1'
_cell_length_a   6.62752406
_cell_length_b   7.65239412
_cell_length_c   8.55383638
_cell_angle_alpha   102.97049363
_cell_angle_beta   97.43359739
_cell_angle_gamma   106.75387060
_symmetry_Int_Tables_number   1
_chemical_formula_structural   NdNp9O20
_chemical_formula_sum   'Nd1 Np9 O20'
_cell_volume   395.95395467
_cell_formula_units_Z   1
loop_
 _symmetry_equiv_pos_site_id
 _symmetry_equiv_pos_as_xyz
  1  'x, y, z'
loop_
 _atom_site_type_symbol
 _atom_site_label
 _atom_site_symmetry_multiplicity
 _atom_site_fract_x
 _atom_site_fract_y
 _atom_site_fract_z
 _atom_site_occupancy
  Nd  Nd0  1  0.000000  0.500000  0.000000  1
  Np  Np1  1  0.798404  0.599830  0.599608  1
  Np  Np2  1  0.601718  0.200095  0.200315  1
  Np  Np3  1  0.799580  0.099699  0.599658  1
  Np  Np4  1  0.398282  0.799905  0.799685  1
  Np  Np5  1  0.600330  0.700437  0.199554  1
  Np  Np6  1  0.201596  0.400170  0.400392  1
  Np  Np7  1  0.399670  0.299563  0.800446  1
  Np  Np8  1  0.000000  0.000000  0.000000  1
  Np  Np9  1  0.200420  0.900301  0.400342  1
  O  O10  1  0.647591  0.925625  0.048892  1
  O  O11  1  0.445914  0.524809  0.647070  1
  O  O12  1  0.638274  0.421574  0.053653  1
  O  O13  1  0.738356  0.369439  0.740833  1
  O  O14  1  0.257346  0.126501  0.250991  1
  O  O15  1  0.445559  0.022249  0.648954  1
  O  O16  1  0.554441  0.977751  0.351046  1
  O  O17  1  0.048730  0.733880  0.844273  1
  O  O18  1  0.742654  0.873499  0.749009  1
  O  O19  1  0.361726  0.578426  0.946347  1
  O  O20  1  0.852736  0.325879  0.451018  1
  O  O21  1  0.261644  0.630561  0.259167  1
  O  O22  1  0.554086  0.475191  0.352930  1
  O  O23  1  0.150639  0.174543  0.547355  1
  O  O24  1  0.051518  0.213277  0.843418  1
  O  O25  1  0.948482  0.786723  0.156582  1
  O  O26  1  0.849361  0.825457  0.452645  1
  O  O27  1  0.352409  0.074375  0.951108  1
  O  O28  1  0.147264  0.674121  0.548982  1
  O  O29  1  0.951270  0.266120  0.155727  1
