# generated using pymatgen
data_Y2Tm2MgP12Ru19
_symmetry_space_group_name_H-M   'P 1'
_cell_length_a   12.46466708
_cell_length_b   12.48570419
_cell_length_c   3.98620500
_cell_angle_alpha   90.00000000
_cell_angle_beta   90.00000000
_cell_angle_gamma   120.05584240
_symmetry_Int_Tables_number   1
_chemical_formula_structural   Y2Tm2MgP12Ru19
_chemical_formula_sum   'Y2 Tm2 Mg1 P12 Ru19'
_cell_volume   536.95678095
_cell_formula_units_Z   1
loop_
 _symmetry_equiv_pos_site_id
 _symmetry_equiv_pos_as_xyz
  1  'x, y, z'
loop_
 _atom_site_type_symbol
 _atom_site_label
 _atom_site_symmetry_multiplicity
 _atom_site_fract_x
 _atom_site_fract_y
 _atom_site_fract_z
 _atom_site_occupancy
  Y  Y0  1  0.672937  0.332952  0.000000  1
  Y  Y1  1  0.327063  0.660016  0.000000  1
  Tm  Tm2  1  0.816896  0.816068  0.500000  1
  Tm  Tm3  1  0.183104  0.999172  0.500000  1
  Mg  Mg4  1  0.000000  0.189293  0.500000  1
  P  P5  1  0.000000  0.827965  0.000000  1
  P  P6  1  0.193587  0.179766  0.000000  1
  P  P7  1  0.806413  0.986179  0.000000  1
  P  P8  1  0.698438  0.169063  0.500000  1
  P  P9  1  0.831225  0.525556  0.500000  1
  P  P10  1  0.480986  0.306969  0.500000  1
  P  P11  1  0.168775  0.694331  0.500000  1
  P  P12  1  0.519014  0.825982  0.500000  1
  P  P13  1  0.301562  0.470625  0.500000  1
  P  P14  1  0.000000  0.380877  0.000000  1
  P  P15  1  0.625787  0.626576  0.000000  1
  P  P16  1  0.374213  0.000789  0.000000  1
  Ru  Ru17  1  0.000000  0.560868  0.000000  1
  Ru  Ru18  1  0.439929  0.445776  0.000000  1
  Ru  Ru19  1  0.560071  0.005847  0.000000  1
  Ru  Ru20  1  0.000000  0.723147  0.500000  1
  Ru  Ru21  1  0.282800  0.278474  0.500000  1
  Ru  Ru22  1  0.717200  0.995675  0.500000  1
  Ru  Ru23  1  0.825093  0.182222  0.000000  1
  Ru  Ru24  1  0.815618  0.629230  0.000000  1
  Ru  Ru25  1  0.383578  0.193709  0.000000  1
  Ru  Ru26  1  0.184382  0.813612  0.000000  1
  Ru  Ru27  1  0.616422  0.810130  0.000000  1
  Ru  Ru28  1  0.174907  0.357128  0.000000  1
  Ru  Ru29  1  0.874351  0.364768  0.500000  1
  Ru  Ru30  1  0.634029  0.509300  0.500000  1
  Ru  Ru31  1  0.496573  0.127040  0.500000  1
  Ru  Ru32  1  0.365971  0.875271  0.500000  1
  Ru  Ru33  1  0.503427  0.630467  0.500000  1
  Ru  Ru34  1  0.125649  0.490418  0.500000  1
  Ru  Ru35  1  0.000000  0.014735  0.000000  1
