# generated using pymatgen
data_DyHoAl16Pt9
_symmetry_space_group_name_H-M   'P 1'
_cell_length_a   11.14759115
_cell_length_b   11.14759260
_cell_length_c   11.14759214
_cell_angle_alpha   158.63698509
_cell_angle_beta   115.10436647
_cell_angle_gamma   69.17225346
_symmetry_Int_Tables_number   1
_chemical_formula_structural   DyHoAl16Pt9
_chemical_formula_sum   'Dy1 Ho1 Al16 Pt9'
_cell_volume   453.66351115
_cell_formula_units_Z   1
loop_
 _symmetry_equiv_pos_site_id
 _symmetry_equiv_pos_as_xyz
  1  'x, y, z'
loop_
 _atom_site_type_symbol
 _atom_site_label
 _atom_site_symmetry_multiplicity
 _atom_site_fract_x
 _atom_site_fract_y
 _atom_site_fract_z
 _atom_site_occupancy
  Dy  Dy0  1  0.228287  0.228287  0.000000  1
  Ho  Ho1  1  0.771743  0.771743  0.000000  1
  Al  Al2  1  0.271410  0.391230  0.880180  1
  Al  Al3  1  0.091819  0.920226  0.171593  1
  Al  Al4  1  0.513039  0.204326  0.308713  1
  Al  Al5  1  0.251392  0.079770  0.171622  1
  Al  Al6  1  0.912788  0.412788  0.500000  1
  Al  Al7  1  0.728612  0.608799  0.119812  1
  Al  Al8  1  0.895613  0.204326  0.691287  1
  Al  Al9  1  0.487004  0.795673  0.691331  1
  Al  Al10  1  0.386074  0.999994  0.386080  1
  Al  Al11  1  0.613914  0.999994  0.613920  1
  Al  Al12  1  0.488987  0.608799  0.880188  1
  Al  Al13  1  0.104342  0.795673  0.308669  1
  Al  Al14  1  0.908148  0.079770  0.828378  1
  Al  Al15  1  0.748633  0.920226  0.828407  1
  Al  Al16  1  0.511050  0.391230  0.119820  1
  Al  Al17  1  0.087178  0.587178  0.500000  1
  Pt  Pt18  1  0.748049  0.499994  0.248055  1
  Pt  Pt19  1  0.022249  0.339054  0.683194  1
  Pt  Pt20  1  0.626894  0.126894  0.500000  1
  Pt  Pt21  1  0.251939  0.499994  0.751945  1
  Pt  Pt22  1  0.373203  0.873203  0.500000  1
  Pt  Pt23  1  0.000015  0.000015  0.000000  1
  Pt  Pt24  1  0.655861  0.339054  0.316806  1
  Pt  Pt25  1  0.344231  0.660879  0.683353  1
  Pt  Pt26  1  0.977526  0.660879  0.316647  1
