# generated using pymatgen
data_Zr3SiMo2As2Ru
_symmetry_space_group_name_H-M   'P 1'
_cell_length_a   7.05900685
_cell_length_b   7.05900734
_cell_length_c   3.55525700
_cell_angle_alpha   90.00000000
_cell_angle_beta   90.00000000
_cell_angle_gamma   120.54161899
_symmetry_Int_Tables_number   1
_chemical_formula_structural   Zr3SiMo2As2Ru
_chemical_formula_sum   'Zr3 Si1 Mo2 As2 Ru1'
_cell_volume   152.57825617
_cell_formula_units_Z   1
loop_
 _symmetry_equiv_pos_site_id
 _symmetry_equiv_pos_as_xyz
  1  'x, y, z'
loop_
 _atom_site_type_symbol
 _atom_site_label
 _atom_site_symmetry_multiplicity
 _atom_site_fract_x
 _atom_site_fract_y
 _atom_site_fract_z
 _atom_site_occupancy
  Zr  Zr0  1  0.396801  0.396801  0.500000  1
  Zr  Zr1  1  0.599575  0.006901  0.500000  1
  Zr  Zr2  1  0.006901  0.599575  0.500000  1
  Si  Si3  1  0.991117  0.991117  0.500000  1
  Mo  Mo4  1  0.999561  0.247786  0.000000  1
  Mo  Mo5  1  0.247786  0.999561  0.000000  1
  As  As6  1  0.668666  0.338770  0.000000  1
  As  As7  1  0.338770  0.668666  0.000000  1
  Ru  Ru8  1  0.750823  0.750823  0.000000  1
