# generated using pymatgen
data_Nb4SiAs3Rh4
_symmetry_space_group_name_H-M   'P 1'
_cell_length_a   3.87601700
_cell_length_b   6.48687880
_cell_length_c   7.43887258
_cell_angle_alpha   90.22728127
_cell_angle_beta   90.00000000
_cell_angle_gamma   90.00000000
_symmetry_Int_Tables_number   1
_chemical_formula_structural   Nb4SiAs3Rh4
_chemical_formula_sum   'Nb4 Si1 As3 Rh4'
_cell_volume   187.03598020
_cell_formula_units_Z   1
loop_
 _symmetry_equiv_pos_site_id
 _symmetry_equiv_pos_as_xyz
  1  'x, y, z'
loop_
 _atom_site_type_symbol
 _atom_site_label
 _atom_site_symmetry_multiplicity
 _atom_site_fract_x
 _atom_site_fract_y
 _atom_site_fract_z
 _atom_site_occupancy
  Nb  Nb0  1  0.750000  0.467346  0.331653  1
  Nb  Nb1  1  0.250000  0.031610  0.829227  1
  Nb  Nb2  1  0.750000  0.974166  0.170118  1
  Nb  Nb3  1  0.250000  0.525006  0.667833  1
  Si  Si4  1  0.750000  0.233510  0.624174  1
  As  As5  1  0.250000  0.263606  0.128647  1
  As  As6  1  0.250000  0.763687  0.375032  1
  As  As7  1  0.750000  0.736942  0.872937  1
  Rh  Rh8  1  0.250000  0.646923  0.060997  1
  Rh  Rh9  1  0.250000  0.148326  0.448088  1
  Rh  Rh10  1  0.750000  0.859472  0.562414  1
  Rh  Rh11  1  0.750000  0.349406  0.928880  1
