# generated using pymatgen
data_CaLu2Al7Cu2
_symmetry_space_group_name_H-M   'P 1'
_cell_length_a   9.00591289
_cell_length_b   9.00591330
_cell_length_c   9.00591300
_cell_angle_alpha   35.48557730
_cell_angle_beta   35.48557363
_cell_angle_gamma   35.48558028
_symmetry_Int_Tables_number   1
_chemical_formula_structural   CaLu2Al7Cu2
_chemical_formula_sum   'Ca1 Lu2 Al7 Cu2'
_cell_volume   219.95847662
_cell_formula_units_Z   1
loop_
 _symmetry_equiv_pos_site_id
 _symmetry_equiv_pos_as_xyz
  1  'x, y, z'
loop_
 _atom_site_type_symbol
 _atom_site_label
 _atom_site_symmetry_multiplicity
 _atom_site_fract_x
 _atom_site_fract_y
 _atom_site_fract_z
 _atom_site_occupancy
  Ca  Ca0  1  0.000000  0.000000  0.000000  1
  Lu  Lu1  1  0.857455  0.857455  0.857455  1
  Lu  Lu2  1  0.142545  0.142545  0.142545  1
  Al  Al3  1  0.417189  0.417189  0.926558  1
  Al  Al4  1  0.926558  0.417189  0.417189  1
  Al  Al5  1  0.417189  0.926558  0.417189  1
  Al  Al6  1  0.500000  0.500000  0.500000  1
  Al  Al7  1  0.582811  0.073442  0.582811  1
  Al  Al8  1  0.073442  0.582811  0.582811  1
  Al  Al9  1  0.582811  0.582811  0.073442  1
  Cu  Cu10  1  0.664942  0.664942  0.664942  1
  Cu  Cu11  1  0.335058  0.335058  0.335058  1
