# generated using pymatgen
data_Ho5Cr3(Co4P3)4
_symmetry_space_group_name_H-M   'P 1'
_cell_length_a   11.98867600
_cell_length_b   11.98867652
_cell_length_c   3.66831200
_cell_angle_alpha   90.00000000
_cell_angle_beta   90.00000000
_cell_angle_gamma   120.00000408
_symmetry_Int_Tables_number   1
_chemical_formula_structural   Ho5Cr3(Co4P3)4
_chemical_formula_sum   'Ho5 Cr3 Co16 P12'
_cell_volume   456.60361544
_cell_formula_units_Z   1
loop_
 _symmetry_equiv_pos_site_id
 _symmetry_equiv_pos_as_xyz
  1  'x, y, z'
loop_
 _atom_site_type_symbol
 _atom_site_label
 _atom_site_symmetry_multiplicity
 _atom_site_fract_x
 _atom_site_fract_y
 _atom_site_fract_z
 _atom_site_occupancy
  Ho  Ho0  1  0.666667  0.333333  0.000000  1
  Ho  Ho1  1  0.333333  0.666667  0.000000  1
  Ho  Ho2  1  0.812641  0.812641  0.500000  1
  Ho  Ho3  1  0.187359  0.000000  0.500000  1
  Ho  Ho4  1  0.000000  0.187359  0.500000  1
  Cr  Cr5  1  0.445307  0.445307  0.000000  1
  Cr  Cr6  1  0.554693  0.000000  0.000000  1
  Cr  Cr7  1  0.000000  0.554693  0.000000  1
  Co  Co8  1  0.873946  0.356431  0.500000  1
  Co  Co9  1  0.643569  0.517515  0.500000  1
  Co  Co10  1  0.482485  0.126054  0.500000  1
  Co  Co11  1  0.356431  0.873946  0.500000  1
  Co  Co12  1  0.517515  0.643569  0.500000  1
  Co  Co13  1  0.126054  0.482485  0.500000  1
  Co  Co14  1  0.799992  0.177169  0.000000  1
  Co  Co15  1  0.822831  0.622822  0.000000  1
  Co  Co16  1  0.377178  0.200008  0.000000  1
  Co  Co17  1  0.177169  0.799992  0.000000  1
  Co  Co18  1  0.622822  0.822831  0.000000  1
  Co  Co19  1  0.200008  0.377178  0.000000  1
  Co  Co20  1  0.282590  0.282590  0.500000  1
  Co  Co21  1  0.717410  0.000000  0.500000  1
  Co  Co22  1  0.000000  0.717410  0.500000  1
  Co  Co23  1  0.000000  0.000000  0.000000  1
  P  P24  1  0.683025  0.163004  0.500000  1
  P  P25  1  0.836996  0.520021  0.500000  1
  P  P26  1  0.479979  0.316975  0.500000  1
  P  P27  1  0.163004  0.683025  0.500000  1
  P  P28  1  0.520021  0.836996  0.500000  1
  P  P29  1  0.316975  0.479979  0.500000  1
  P  P30  1  0.179223  0.179223  0.000000  1
  P  P31  1  0.820777  0.000000  0.000000  1
  P  P32  1  0.000000  0.820777  0.000000  1
  P  P33  1  0.632920  0.632920  0.000000  1
  P  P34  1  0.367080  0.000000  0.000000  1
  P  P35  1  0.000000  0.367080  0.000000  1
