# generated using pymatgen
data_Tm15Lu5Ir11Au
_symmetry_space_group_name_H-M   'P 1'
_cell_length_a   10.79175947
_cell_length_b   10.79423687
_cell_length_c   6.28538670
_cell_angle_alpha   89.93323699
_cell_angle_beta   89.91524054
_cell_angle_gamma   89.40971002
_symmetry_Int_Tables_number   1
_chemical_formula_structural   Tm15Lu5Ir11Au
_chemical_formula_sum   'Tm15 Lu5 Ir11 Au1'
_cell_volume   732.13706261
_cell_formula_units_Z   1
loop_
 _symmetry_equiv_pos_site_id
 _symmetry_equiv_pos_as_xyz
  1  'x, y, z'
loop_
 _atom_site_type_symbol
 _atom_site_label
 _atom_site_symmetry_multiplicity
 _atom_site_fract_x
 _atom_site_fract_y
 _atom_site_fract_z
 _atom_site_occupancy
  Tm  Tm0  1  0.292328  0.912848  0.875377  1
  Tm  Tm1  1  0.703845  0.083305  0.865750  1
  Tm  Tm2  1  0.705372  0.906082  0.379658  1
  Tm  Tm3  1  0.586973  0.791330  0.878519  1
  Tm  Tm4  1  0.578672  0.209728  0.377613  1
  Tm  Tm5  1  0.411331  0.791484  0.376522  1
  Tm  Tm6  1  0.411143  0.207982  0.877818  1
  Tm  Tm7  1  0.208749  0.412900  0.621508  1
  Tm  Tm8  1  0.208755  0.588555  0.123553  1
  Tm  Tm9  1  0.790271  0.420856  0.122381  1
  Tm  Tm10  1  0.791911  0.588617  0.622332  1
  Tm  Tm11  1  0.913612  0.710033  0.124202  1
  Tm  Tm12  1  0.916648  0.295977  0.634446  1
  Tm  Tm13  1  0.087417  0.707557  0.624482  1
  Tm  Tm14  1  0.094470  0.294175  0.120588  1
  Lu  Lu15  1  0.290675  0.086298  0.376622  1
  Lu  Lu16  1  0.004182  0.995820  0.502117  1
  Lu  Lu17  1  0.004475  0.996380  0.997223  1
  Lu  Lu18  1  0.499218  0.499702  0.999331  1
  Lu  Lu19  1  0.500105  0.500729  0.500508  1
  Ir  Ir20  1  0.847257  0.848187  0.749790  1
  Ir  Ir21  1  0.152220  0.152576  0.749076  1
  Ir  Ir22  1  0.153866  0.846878  0.250222  1
  Ir  Ir23  1  0.654132  0.345810  0.749966  1
  Ir  Ir24  1  0.652906  0.652510  0.249585  1
  Ir  Ir25  1  0.347356  0.346472  0.250769  1
  Ir  Ir26  1  0.346963  0.652977  0.750012  1
  Ir  Ir27  1  0.500043  0.000376  0.124449  1
  Ir  Ir28  1  0.499733  0.000277  0.621048  1
  Ir  Ir29  1  0.999971  0.499804  0.878676  1
  Ir  Ir30  1  0.999845  0.499414  0.375849  1
  Au  Au31  1  0.845557  0.154362  0.250007  1
