# generated using pymatgen
data_Tb4Al7Ga17Pt9
_symmetry_space_group_name_H-M   'P 1'
_cell_length_a   7.48490660
_cell_length_b   7.53759985
_cell_length_c   13.35783212
_cell_angle_alpha   84.71298567
_cell_angle_beta   79.52004324
_cell_angle_gamma   60.42055940
_symmetry_Int_Tables_number   1
_chemical_formula_structural   Tb4Al7Ga17Pt9
_chemical_formula_sum   'Tb4 Al7 Ga17 Pt9'
_cell_volume   644.47131423
_cell_formula_units_Z   1
loop_
 _symmetry_equiv_pos_site_id
 _symmetry_equiv_pos_as_xyz
  1  'x, y, z'
loop_
 _atom_site_type_symbol
 _atom_site_label
 _atom_site_symmetry_multiplicity
 _atom_site_fract_x
 _atom_site_fract_y
 _atom_site_fract_z
 _atom_site_occupancy
  Tb  Tb0  1  0.393101  0.170450  0.808486  1
  Tb  Tb1  1  0.608814  0.828021  0.191052  1
  Tb  Tb2  1  0.733041  0.495347  0.809136  1
  Tb  Tb3  1  0.267165  0.506465  0.190028  1
  Al  Al4  1  0.687565  0.833208  0.945688  1
  Al  Al5  1  0.313135  0.166605  0.054850  1
  Al  Al6  1  0.144626  0.833817  0.560077  1
  Al  Al7  1  0.854390  0.166247  0.439478  1
  Al  Al8  1  0.479328  0.166212  0.556700  1
  Al  Al9  1  0.520197  0.834843  0.441962  1
  Al  Al10  1  0.219575  0.165466  0.328742  1
  Ga  Ga11  1  0.776589  0.834835  0.675340  1
  Ga  Ga12  1  0.440166  0.502182  0.673512  1
  Ga  Ga13  1  0.559516  0.497890  0.327532  1
  Ga  Ga14  1  0.106744  0.164530  0.672930  1
  Ga  Ga15  1  0.893054  0.835234  0.327906  1
  Ga  Ga16  1  0.355851  0.498898  0.939834  1
  Ga  Ga17  1  0.644956  0.500609  0.060122  1
  Ga  Ga18  1  0.018947  0.167286  0.943573  1
  Ga  Ga19  1  0.981580  0.833550  0.056529  1
  Ga  Ga20  1  0.188860  0.496589  0.442466  1
  Ga  Ga21  1  0.810945  0.502384  0.556447  1
  Ga  Ga22  1  0.730713  0.167410  0.183764  1
  Ga  Ga23  1  0.268890  0.832480  0.816071  1
  Ga  Ga24  1  0.055798  0.635032  0.816662  1
  Ga  Ga25  1  0.946604  0.362934  0.183462  1
  Ga  Ga26  1  0.856530  0.038626  0.816102  1
  Ga  Ga27  1  0.144160  0.962926  0.184250  1
  Pt  Pt28  1  0.120346  0.496834  0.637408  1
  Pt  Pt29  1  0.882989  0.499799  0.361754  1
  Pt  Pt30  1  0.655314  0.167203  0.000072  1
  Pt  Pt31  1  0.344835  0.832817  0.999798  1
  Pt  Pt32  1  0.540142  0.163134  0.363521  1
  Pt  Pt33  1  0.455797  0.837069  0.634843  1
  Pt  Pt34  1  0.782894  0.168289  0.632884  1
  Pt  Pt35  1  0.216722  0.834796  0.366831  1
  Pt  Pt36  1  0.000120  0.499983  0.000189  1
