# generated using pymatgen
data_CaAc4Ir3
_symmetry_space_group_name_H-M   'P 1'
_cell_length_a   6.92530400
_cell_length_b   11.65165200
_cell_length_c   11.65165200
_cell_angle_alpha   90.00000000
_cell_angle_beta   90.00000000
_cell_angle_gamma   90.00000000
_symmetry_Int_Tables_number   1
_chemical_formula_structural   CaAc4Ir3
_chemical_formula_sum   'Ca4 Ac16 Ir12'
_cell_volume   940.18615707
_cell_formula_units_Z   4
loop_
 _symmetry_equiv_pos_site_id
 _symmetry_equiv_pos_as_xyz
  1  'x, y, z'
loop_
 _atom_site_type_symbol
 _atom_site_label
 _atom_site_symmetry_multiplicity
 _atom_site_fract_x
 _atom_site_fract_y
 _atom_site_fract_z
 _atom_site_occupancy
  Ca  Ca0  1  0.500000  0.750000  0.250000  1
  Ca  Ca1  1  0.000000  0.750000  0.250000  1
  Ca  Ca2  1  0.000000  0.250000  0.750000  1
  Ca  Ca3  1  0.500000  0.250000  0.750000  1
  Ac  Ac4  1  0.394571  0.838289  0.538780  1
  Ac  Ac5  1  0.894571  0.661711  0.538780  1
  Ac  Ac6  1  0.894571  0.838289  0.961220  1
  Ac  Ac7  1  0.394571  0.661711  0.961220  1
  Ac  Ac8  1  0.894571  0.538780  0.838289  1
  Ac  Ac9  1  0.394571  0.961220  0.838289  1
  Ac  Ac10  1  0.394571  0.538780  0.661711  1
  Ac  Ac11  1  0.894571  0.961220  0.661711  1
  Ac  Ac12  1  0.605429  0.161711  0.461221  1
  Ac  Ac13  1  0.105429  0.338289  0.461221  1
  Ac  Ac14  1  0.105429  0.161711  0.038780  1
  Ac  Ac15  1  0.605429  0.338289  0.038780  1
  Ac  Ac16  1  0.105429  0.461221  0.161711  1
  Ac  Ac17  1  0.605429  0.038780  0.161711  1
  Ac  Ac18  1  0.605429  0.461221  0.338289  1
  Ac  Ac19  1  0.105429  0.038780  0.338289  1
  Ir  Ir20  1  0.250000  0.904186  0.095814  1
  Ir  Ir21  1  0.750000  0.595814  0.095814  1
  Ir  Ir22  1  0.750000  0.904186  0.404186  1
  Ir  Ir23  1  0.250000  0.595814  0.404186  1
  Ir  Ir24  1  0.750000  0.095814  0.904186  1
  Ir  Ir25  1  0.250000  0.404186  0.904186  1
  Ir  Ir26  1  0.250000  0.095814  0.595814  1
  Ir  Ir27  1  0.750000  0.404186  0.595814  1
  Ir  Ir28  1  0.127560  0.750000  0.750000  1
  Ir  Ir29  1  0.627560  0.750000  0.750000  1
  Ir  Ir30  1  0.872440  0.250000  0.250000  1
  Ir  Ir31  1  0.372440  0.250000  0.250000  1
