# generated using pymatgen
data_Er5Tl2(InNi)2
_symmetry_space_group_name_H-M   'P 1'
_cell_length_a   3.59504800
_cell_length_b   8.10584600
_cell_length_c   18.04835900
_cell_angle_alpha   90.00000000
_cell_angle_beta   90.00000000
_cell_angle_gamma   90.00000000
_symmetry_Int_Tables_number   1
_chemical_formula_structural   Er5Tl2(InNi)2
_chemical_formula_sum   'Er10 Tl4 In4 Ni4'
_cell_volume   525.94552316
_cell_formula_units_Z   2
loop_
 _symmetry_equiv_pos_site_id
 _symmetry_equiv_pos_as_xyz
  1  'x, y, z'
loop_
 _atom_site_type_symbol
 _atom_site_label
 _atom_site_symmetry_multiplicity
 _atom_site_fract_x
 _atom_site_fract_y
 _atom_site_fract_z
 _atom_site_occupancy
  Er  Er0  1  0.000000  0.500000  0.500000  1
  Er  Er1  1  0.000000  0.000000  0.000000  1
  Er  Er2  1  0.000000  0.743972  0.280097  1
  Er  Er3  1  0.000000  0.256028  0.719903  1
  Er  Er4  1  0.000000  0.756028  0.780097  1
  Er  Er5  1  0.000000  0.243972  0.219903  1
  Er  Er6  1  0.000000  0.614093  0.091036  1
  Er  Er7  1  0.000000  0.385907  0.908964  1
  Er  Er8  1  0.000000  0.885907  0.591036  1
  Er  Er9  1  0.000000  0.114093  0.408964  1
  Tl  Tl10  1  0.500000  0.705553  0.933750  1
  Tl  Tl11  1  0.500000  0.294447  0.066250  1
  Tl  Tl12  1  0.500000  0.794447  0.433750  1
  Tl  Tl13  1  0.500000  0.205553  0.566250  1
  In  In14  1  0.500000  0.579412  0.652873  1
  In  In15  1  0.500000  0.420588  0.347127  1
  In  In16  1  0.500000  0.920588  0.152873  1
  In  In17  1  0.500000  0.079412  0.847127  1
  Ni  Ni18  1  0.500000  0.530489  0.198556  1
  Ni  Ni19  1  0.500000  0.469511  0.801444  1
  Ni  Ni20  1  0.500000  0.969511  0.698556  1
  Ni  Ni21  1  0.500000  0.030489  0.301444  1
