# generated using pymatgen
data_NdY3(Tm4Bi3)4
_symmetry_space_group_name_H-M   'P 1'
_cell_length_a   8.21309289
_cell_length_b   9.44132600
_cell_length_c   11.94828000
_cell_angle_alpha   90.00000000
_cell_angle_beta   89.96117771
_cell_angle_gamma   90.00000000
_symmetry_Int_Tables_number   1
_chemical_formula_structural   NdY3(Tm4Bi3)4
_chemical_formula_sum   'Nd1 Y3 Tm16 Bi12'
_cell_volume   926.49913866
_cell_formula_units_Z   1
loop_
 _symmetry_equiv_pos_site_id
 _symmetry_equiv_pos_as_xyz
  1  'x, y, z'
loop_
 _atom_site_type_symbol
 _atom_site_label
 _atom_site_symmetry_multiplicity
 _atom_site_fract_x
 _atom_site_fract_y
 _atom_site_fract_z
 _atom_site_occupancy
  Nd  Nd0  1  0.315036  0.250000  0.219498  1
  Y  Y1  1  0.813402  0.250000  0.281886  1
  Y  Y2  1  0.686524  0.750000  0.781931  1
  Y  Y3  1  0.186938  0.750000  0.718101  1
  Tm  Tm4  1  0.352719  0.750000  0.217766  1
  Tm  Tm5  1  0.852171  0.750000  0.282864  1
  Tm  Tm6  1  0.647451  0.250000  0.781498  1
  Tm  Tm7  1  0.147038  0.250000  0.718006  1
  Tm  Tm8  1  0.691007  0.565955  0.060258  1
  Tm  Tm9  1  0.192047  0.934264  0.440033  1
  Tm  Tm10  1  0.308828  0.065930  0.939449  1
  Tm  Tm11  1  0.807553  0.434401  0.560504  1
  Tm  Tm12  1  0.308828  0.434070  0.939449  1
  Tm  Tm13  1  0.807553  0.065599  0.560504  1
  Tm  Tm14  1  0.691007  0.934045  0.060258  1
  Tm  Tm15  1  0.192047  0.565736  0.440033  1
  Tm  Tm16  1  0.476481  0.250000  0.488976  1
  Tm  Tm17  1  0.977583  0.250000  0.009976  1
  Tm  Tm18  1  0.523473  0.750000  0.511234  1
  Tm  Tm19  1  0.022539  0.750000  0.988620  1
  Bi  Bi20  1  0.403761  0.750000  0.959038  1
  Bi  Bi21  1  0.904588  0.750000  0.541119  1
  Bi  Bi22  1  0.599402  0.250000  0.038392  1
  Bi  Bi23  1  0.093540  0.250000  0.460763  1
  Bi  Bi24  1  0.568369  0.992727  0.327630  1
  Bi  Bi25  1  0.062598  0.507523  0.172825  1
  Bi  Bi26  1  0.433920  0.494614  0.673229  1
  Bi  Bi27  1  0.934355  0.005097  0.826238  1
  Bi  Bi28  1  0.433920  0.005386  0.673229  1
  Bi  Bi29  1  0.934355  0.494903  0.826238  1
  Bi  Bi30  1  0.568369  0.507273  0.327630  1
  Bi  Bi31  1  0.062598  0.992477  0.172825  1
