# generated using pymatgen
data_CsRb3Mg2(BSe)18
_symmetry_space_group_name_H-M   'P 1'
_cell_length_a   10.08921744
_cell_length_b   10.90002662
_cell_length_c   11.02967599
_cell_angle_alpha   100.55440672
_cell_angle_beta   92.08670016
_cell_angle_gamma   115.12616563
_symmetry_Int_Tables_number   1
_chemical_formula_structural   CsRb3Mg2(BSe)18
_chemical_formula_sum   'Cs1 Rb3 Mg2 B18 Se18'
_cell_volume   1070.68572285
_cell_formula_units_Z   1
loop_
 _symmetry_equiv_pos_site_id
 _symmetry_equiv_pos_as_xyz
  1  'x, y, z'
loop_
 _atom_site_type_symbol
 _atom_site_label
 _atom_site_symmetry_multiplicity
 _atom_site_fract_x
 _atom_site_fract_y
 _atom_site_fract_z
 _atom_site_occupancy
  Cs  Cs0  1  0.176993  0.348106  0.516865  1
  Rb  Rb1  1  0.207034  0.828566  0.991520  1
  Rb  Rb2  1  0.792242  0.169544  0.009966  1
  Rb  Rb3  1  0.814917  0.649120  0.482777  1
  Mg  Mg4  1  0.682151  0.686746  0.910816  1
  Mg  Mg5  1  0.320148  0.314620  0.086851  1
  B  B6  1  0.487549  0.839666  0.448939  1
  B  B7  1  0.512384  0.160525  0.551629  1
  B  B8  1  0.340754  0.880313  0.409925  1
  B  B9  1  0.659429  0.120092  0.590921  1
  B  B10  1  0.511846  0.954706  0.348245  1
  B  B11  1  0.488594  0.045718  0.652487  1
  B  B12  1  0.658943  0.990986  0.463368  1
  B  B13  1  0.341236  0.008912  0.537398  1
  B  B14  1  0.579303  0.940786  0.599231  1
  B  B15  1  0.421113  0.059530  0.401368  1
  B  B16  1  0.384693  0.873660  0.565831  1
  B  B17  1  0.615924  0.126745  0.435027  1
  B  B18  1  0.255828  0.587814  0.283869  1
  B  B19  1  0.744581  0.414181  0.713721  1
  B  B20  1  0.437554  0.722156  0.744776  1
  B  B21  1  0.563583  0.278400  0.255888  1
  B  B22  1  0.742728  0.908926  0.215922  1
  B  B23  1  0.256641  0.088557  0.784894  1
  Se  Se24  1  0.450341  0.643267  0.374902  1
  Se  Se25  1  0.549200  0.357173  0.624071  1
  Se  Se26  1  0.166741  0.719995  0.299710  1
  Se  Se27  1  0.832247  0.281212  0.701825  1
  Se  Se28  1  0.547419  0.899253  0.172764  1
  Se  Se29  1  0.453414  0.101369  0.827961  1
  Se  Se30  1  0.830999  0.968872  0.392422  1
  Se  Se31  1  0.167200  0.026187  0.608759  1
  Se  Se32  1  0.640258  0.849461  0.720220  1
  Se  Se33  1  0.360870  0.150116  0.279087  1
  Se  Se34  1  0.266770  0.724800  0.655221  1
  Se  Se35  1  0.734381  0.276762  0.346653  1
  Se  Se36  1  0.141232  0.401614  0.183847  1
  Se  Se37  1  0.861076  0.603275  0.807848  1
  Se  Se38  1  0.860211  0.873763  0.091426  1
  Se  Se39  1  0.139578  0.123442  0.909979  1
  Se  Se40  1  0.404670  0.597080  0.856867  1
  Se  Se41  1  0.597228  0.403981  0.144204  1
