# generated using pymatgen
data_Tb3Dy5Y2CdIn7Pt4
_symmetry_space_group_name_H-M   'P 1'
_cell_length_a   3.63498500
_cell_length_b   8.19487100
_cell_length_c   18.31234100
_cell_angle_alpha   89.99855273
_cell_angle_beta   90.00000000
_cell_angle_gamma   90.00000000
_symmetry_Int_Tables_number   1
_chemical_formula_structural   Tb3Dy5Y2CdIn7Pt4
_chemical_formula_sum   'Tb3 Dy5 Y2 Cd1 In7 Pt4'
_cell_volume   545.49228345
_cell_formula_units_Z   1
loop_
 _symmetry_equiv_pos_site_id
 _symmetry_equiv_pos_as_xyz
  1  'x, y, z'
loop_
 _atom_site_type_symbol
 _atom_site_label
 _atom_site_symmetry_multiplicity
 _atom_site_fract_x
 _atom_site_fract_y
 _atom_site_fract_z
 _atom_site_occupancy
  Tb  Tb0  1  0.000000  0.117174  0.414727  1
  Tb  Tb1  1  0.000000  0.883463  0.585191  1
  Tb  Tb2  1  0.000000  0.382936  0.915061  1
  Dy  Dy3  1  0.000000  0.616502  0.085668  1
  Dy  Dy4  1  0.000000  0.244223  0.220767  1
  Dy  Dy5  1  0.000000  0.756590  0.779502  1
  Dy  Dy6  1  0.000000  0.256131  0.720700  1
  Dy  Dy7  1  0.000000  0.742994  0.279513  1
  Y  Y8  1  0.000000  0.999975  0.000005  1
  Y  Y9  1  0.000000  0.500129  0.499859  1
  Cd  Cd10  1  0.500000  0.424990  0.351587  1
  In  In11  1  0.500000  0.575288  0.648715  1
  In  In12  1  0.500000  0.075508  0.851378  1
  In  In13  1  0.500000  0.924335  0.148469  1
  In  In14  1  0.500000  0.292051  0.067160  1
  In  In15  1  0.500000  0.707888  0.932879  1
  In  In16  1  0.500000  0.208303  0.567134  1
  In  In17  1  0.500000  0.790758  0.432428  1
  Pt  Pt18  1  0.500000  0.024760  0.302893  1
  Pt  Pt19  1  0.500000  0.975329  0.697051  1
  Pt  Pt20  1  0.500000  0.475557  0.802972  1
  Pt  Pt21  1  0.500000  0.525115  0.196337  1
