# generated using pymatgen
data_DyY2ReB7
_symmetry_space_group_name_H-M   'P 1'
_cell_length_a   8.10105110
_cell_length_b   8.10105099
_cell_length_c   9.37385912
_cell_angle_alpha   90.01775772
_cell_angle_beta   89.98224169
_cell_angle_gamma   154.75150051
_symmetry_Int_Tables_number   1
_chemical_formula_structural   DyY2ReB7
_chemical_formula_sum   'Dy2 Y4 Re2 B14'
_cell_volume   262.40133909
_cell_formula_units_Z   2
loop_
 _symmetry_equiv_pos_site_id
 _symmetry_equiv_pos_as_xyz
  1  'x, y, z'
loop_
 _atom_site_type_symbol
 _atom_site_label
 _atom_site_symmetry_multiplicity
 _atom_site_fract_x
 _atom_site_fract_y
 _atom_site_fract_z
 _atom_site_occupancy
  Dy  Dy0  1  0.894732  0.105268  0.060072  1
  Dy  Dy1  1  0.105268  0.894732  0.939928  1
  Y  Y2  1  0.894660  0.105340  0.439656  1
  Y  Y3  1  0.105340  0.894660  0.560344  1
  Y  Y4  1  0.242483  0.757517  0.249946  1
  Y  Y5  1  0.757517  0.242483  0.750054  1
  Re  Re6  1  0.052637  0.947363  0.249827  1
  Re  Re7  1  0.947363  0.052637  0.750173  1
  B  B8  1  0.727034  0.272966  0.466624  1
  B  B9  1  0.272966  0.727034  0.533376  1
  B  B10  1  0.727026  0.272974  0.033340  1
  B  B11  1  0.272974  0.727026  0.966660  1
  B  B12  1  0.631848  0.368152  0.150577  1
  B  B13  1  0.368152  0.631848  0.849423  1
  B  B14  1  0.631860  0.368140  0.349271  1
  B  B15  1  0.368140  0.631860  0.650729  1
  B  B16  1  0.520695  0.479305  0.095398  1
  B  B17  1  0.479305  0.520695  0.904602  1
  B  B18  1  0.520704  0.479296  0.404522  1
  B  B19  1  0.479296  0.520704  0.595478  1
  B  B20  1  0.457346  0.542654  0.249873  1
  B  B21  1  0.542654  0.457346  0.750127  1
