# generated using pymatgen
data_K3MnP6Os5
_symmetry_space_group_name_H-M   'P 1'
_cell_length_a   9.09239385
_cell_length_b   9.09253342
_cell_length_c   9.09253496
_cell_angle_alpha   154.73140700
_cell_angle_beta   86.66179514
_cell_angle_gamma   98.85385647
_symmetry_Int_Tables_number   1
_chemical_formula_structural   K3MnP6Os5
_chemical_formula_sum   'K3 Mn1 P6 Os5'
_cell_volume   311.15609628
_cell_formula_units_Z   1
loop_
 _symmetry_equiv_pos_site_id
 _symmetry_equiv_pos_as_xyz
  1  'x, y, z'
loop_
 _atom_site_type_symbol
 _atom_site_label
 _atom_site_symmetry_multiplicity
 _atom_site_fract_x
 _atom_site_fract_y
 _atom_site_fract_z
 _atom_site_occupancy
  K  K0  1  0.334588  0.333991  0.000597  1
  K  K1  1  0.664707  0.667223  0.997484  1
  K  K2  1  0.999530  0.998843  0.000687  1
  Mn  Mn3  1  0.926390  0.166613  0.759777  1
  P  P4  1  0.320429  0.666457  0.653973  1
  P  P5  1  0.678688  0.335490  0.343198  1
  P  P6  1  0.985747  0.329785  0.655962  1
  P  P7  1  0.341895  0.998106  0.343789  1
  P  P8  1  0.013088  0.666365  0.346722  1
  P  P9  1  0.658905  0.003701  0.655204  1
  Os  Os10  1  0.584157  0.835739  0.748417  1
  Os  Os11  1  0.246802  0.497673  0.749128  1
  Os  Os12  1  0.752891  0.505020  0.247871  1
  Os  Os13  1  0.077019  0.828326  0.248693  1
  Os  Os14  1  0.415165  0.166668  0.248499  1
