# generated using pymatgen
data_Th3In2(Ag2Sn)2
_symmetry_space_group_name_H-M   'P 1'
_cell_length_a   4.73736304
_cell_length_b   7.36300446
_cell_length_c   8.93846834
_cell_angle_alpha   114.20744232
_cell_angle_beta   105.23967547
_cell_angle_gamma   90.00242933
_symmetry_Int_Tables_number   1
_chemical_formula_structural   Th3In2(Ag2Sn)2
_chemical_formula_sum   'Th3 In2 Ag4 Sn2'
_cell_volume   272.30122689
_cell_formula_units_Z   1
loop_
 _symmetry_equiv_pos_site_id
 _symmetry_equiv_pos_as_xyz
  1  'x, y, z'
loop_
 _atom_site_type_symbol
 _atom_site_label
 _atom_site_symmetry_multiplicity
 _atom_site_fract_x
 _atom_site_fract_y
 _atom_site_fract_z
 _atom_site_occupancy
  Th  Th0  1  0.871451  0.372037  0.744019  1
  Th  Th1  1  0.128550  0.627962  0.255981  1
  Th  Th2  1  0.000005  0.000000  0.000000  1
  In  In3  1  0.214624  0.214326  0.428240  1
  In  In4  1  0.785374  0.785674  0.571760  1
  Ag  Ag5  1  0.328700  0.023814  0.658033  1
  Ag  Ag6  1  0.671299  0.976186  0.341967  1
  Ag  Ag7  1  0.328176  0.633834  0.657645  1
  Ag  Ag8  1  0.671823  0.366167  0.342354  1
  Sn  Sn9  1  0.499495  0.302549  0.000155  1
  Sn  Sn10  1  0.500503  0.697452  0.999846  1
