# generated using pymatgen
data_Zr16Ni3Ir5N4
_symmetry_space_group_name_H-M   'P 1'
_cell_length_a   8.72482527
_cell_length_b   8.77630896
_cell_length_c   8.77630800
_cell_angle_alpha   59.99999608
_cell_angle_beta   59.80460549
_cell_angle_gamma   59.80460869
_symmetry_Int_Tables_number   1
_chemical_formula_structural   Zr16Ni3Ir5N4
_chemical_formula_sum   'Zr16 Ni3 Ir5 N4'
_cell_volume   473.77978286
_cell_formula_units_Z   1
loop_
 _symmetry_equiv_pos_site_id
 _symmetry_equiv_pos_as_xyz
  1  'x, y, z'
loop_
 _atom_site_type_symbol
 _atom_site_label
 _atom_site_symmetry_multiplicity
 _atom_site_fract_x
 _atom_site_fract_y
 _atom_site_fract_z
 _atom_site_occupancy
  Zr  Zr0  1  0.083286  0.638905  0.638905  1
  Zr  Zr1  1  0.639108  0.098441  0.631226  1
  Zr  Zr2  1  0.639108  0.631226  0.098441  1
  Zr  Zr3  1  0.639108  0.631226  0.631226  1
  Zr  Zr4  1  0.814519  0.814220  0.185631  1
  Zr  Zr5  1  0.186196  0.188638  0.812583  1
  Zr  Zr6  1  0.814519  0.185631  0.814220  1
  Zr  Zr7  1  0.186196  0.812583  0.188638  1
  Zr  Zr8  1  0.186196  0.812583  0.812583  1
  Zr  Zr9  1  0.814519  0.185631  0.185631  1
  Zr  Zr10  1  0.434613  0.433366  0.066010  1
  Zr  Zr11  1  0.068985  0.066364  0.432325  1
  Zr  Zr12  1  0.434613  0.066010  0.433366  1
  Zr  Zr13  1  0.068985  0.432325  0.066364  1
  Zr  Zr14  1  0.068985  0.432325  0.432325  1
  Zr  Zr15  1  0.434613  0.066010  0.066010  1
  Ni  Ni16  1  0.845410  0.448887  0.852852  1
  Ni  Ni17  1  0.845410  0.852852  0.448887  1
  Ni  Ni18  1  0.845410  0.852852  0.852852  1
  Ir  Ir19  1  0.754510  0.415163  0.415163  1
  Ir  Ir20  1  0.412706  0.751256  0.418018  1
  Ir  Ir21  1  0.412706  0.418018  0.751256  1
  Ir  Ir22  1  0.412706  0.418018  0.418018  1
  Ir  Ir23  1  0.458782  0.847073  0.847073  1
  N  N24  1  0.623510  0.125497  0.125497  1
  N  N25  1  0.125099  0.624674  0.125113  1
  N  N26  1  0.125099  0.125113  0.624674  1
  N  N27  1  0.125099  0.125113  0.125113  1
