# generated using pymatgen
data_La4CrOs3F28
_symmetry_space_group_name_H-M   'P 1'
_cell_length_a   5.79648914
_cell_length_b   9.32913410
_cell_length_c   12.45689576
_cell_angle_alpha   62.58838022
_cell_angle_beta   90.20149121
_cell_angle_gamma   89.86578299
_symmetry_Int_Tables_number   1
_chemical_formula_structural   La4CrOs3F28
_chemical_formula_sum   'La4 Cr1 Os3 F28'
_cell_volume   597.97934577
_cell_formula_units_Z   1
loop_
 _symmetry_equiv_pos_site_id
 _symmetry_equiv_pos_as_xyz
  1  'x, y, z'
loop_
 _atom_site_type_symbol
 _atom_site_label
 _atom_site_symmetry_multiplicity
 _atom_site_fract_x
 _atom_site_fract_y
 _atom_site_fract_z
 _atom_site_occupancy
  La  La0  1  0.760187  0.810543  0.256542  1
  La  La1  1  0.261505  0.202395  0.227316  1
  La  La2  1  0.242896  0.173099  0.744990  1
  La  La3  1  0.744024  0.802869  0.782114  1
  Cr  Cr4  1  0.255898  0.724141  0.045033  1
  Os  Os5  1  0.244563  0.724208  0.545430  1
  Os  Os6  1  0.745451  0.275752  0.953591  1
  Os  Os7  1  0.757185  0.271523  0.459850  1
  F  F8  1  0.969055  0.713921  0.456872  1
  F  F9  1  0.462722  0.286761  0.036997  1
  F  F10  1  0.036720  0.283297  0.545507  1
  F  F11  1  0.526567  0.712241  0.955846  1
  F  F12  1  0.051099  0.711940  0.924064  1
  F  F13  1  0.559073  0.291245  0.579182  1
  F  F14  1  0.938520  0.295075  0.076125  1
  F  F15  1  0.443805  0.706111  0.426384  1
  F  F16  1  0.738060  0.506409  0.859551  1
  F  F17  1  0.238435  0.492480  0.638217  1
  F  F18  1  0.263879  0.487863  0.138816  1
  F  F19  1  0.761901  0.503159  0.367064  1
  F  F20  1  0.743694  0.045109  0.041049  1
  F  F21  1  0.242425  0.955082  0.455520  1
  F  F22  1  0.261863  0.959944  0.945478  1
  F  F23  1  0.762232  0.040977  0.548410  1
  F  F24  1  0.044456  0.741802  0.665982  1
  F  F25  1  0.553008  0.262025  0.827817  1
  F  F26  1  0.951171  0.253878  0.337096  1
  F  F27  1  0.457281  0.746019  0.163388  1
  F  F28  1  0.024115  0.272649  0.864934  1
  F  F29  1  0.516945  0.730171  0.636712  1
  F  F30  1  0.991510  0.735486  0.137450  1
  F  F31  1  0.481393  0.264067  0.370826  1
  F  F32  1  0.077106  0.980268  0.231179  1
  F  F33  1  0.580076  0.030963  0.263815  1
  F  F34  1  0.897767  0.038075  0.767457  1
  F  F35  1  0.413414  0.968453  0.723393  1
