# generated using pymatgen
data_Pr8Y11LuSi16
_symmetry_space_group_name_H-M   'P 1'
_cell_length_a   7.52119432
_cell_length_b   7.81258434
_cell_length_c   14.88089300
_cell_angle_alpha   90.00000000
_cell_angle_beta   90.00000000
_cell_angle_gamma   90.03359156
_symmetry_Int_Tables_number   1
_chemical_formula_structural   Pr8Y11LuSi16
_chemical_formula_sum   'Pr8 Y11 Lu1 Si16'
_cell_volume   874.40060090
_cell_formula_units_Z   1
loop_
 _symmetry_equiv_pos_site_id
 _symmetry_equiv_pos_as_xyz
  1  'x, y, z'
loop_
 _atom_site_type_symbol
 _atom_site_label
 _atom_site_symmetry_multiplicity
 _atom_site_fract_x
 _atom_site_fract_y
 _atom_site_fract_z
 _atom_site_occupancy
  Pr  Pr0  1  0.023047  0.179302  0.402187  1
  Pr  Pr1  1  0.523058  0.320751  0.402234  1
  Pr  Pr2  1  0.477276  0.679428  0.901949  1
  Pr  Pr3  1  0.477276  0.679428  0.598051  1
  Pr  Pr4  1  0.976408  0.821167  0.598126  1
  Pr  Pr5  1  0.976408  0.821167  0.901874  1
  Pr  Pr6  1  0.523058  0.320751  0.097766  1
  Pr  Pr7  1  0.023047  0.179302  0.097813  1
  Y  Y8  1  0.321995  0.178968  0.622997  1
  Y  Y9  1  0.678537  0.820720  0.377176  1
  Y  Y10  1  0.178638  0.679281  0.377139  1
  Y  Y11  1  0.820866  0.320206  0.877007  1
  Y  Y12  1  0.820866  0.320206  0.622993  1
  Y  Y13  1  0.847582  0.488046  0.250000  1
  Y  Y14  1  0.347630  0.011829  0.250000  1
  Y  Y15  1  0.321995  0.178968  0.877003  1
  Y  Y16  1  0.178638  0.679281  0.122861  1
  Y  Y17  1  0.678537  0.820720  0.122824  1
  Y  Y18  1  0.152346  0.511529  0.750000  1
  Lu  Lu19  1  0.652974  0.987817  0.750000  1
  Si  Si20  1  0.271919  0.880665  0.750000  1
  Si  Si21  1  0.472291  0.610955  0.250000  1
  Si  Si22  1  0.025759  0.110722  0.750000  1
  Si  Si23  1  0.527612  0.388648  0.750000  1
  Si  Si24  1  0.144801  0.469688  0.539622  1
  Si  Si25  1  0.972305  0.888873  0.250000  1
  Si  Si26  1  0.729936  0.119493  0.250000  1
  Si  Si27  1  0.855227  0.530368  0.039545  1
  Si  Si28  1  0.355105  0.969609  0.039437  1
  Si  Si29  1  0.144801  0.469688  0.960378  1
  Si  Si30  1  0.644930  0.030178  0.540173  1
  Si  Si31  1  0.355105  0.969609  0.460563  1
  Si  Si32  1  0.855227  0.530368  0.460455  1
  Si  Si33  1  0.769727  0.621625  0.750000  1
  Si  Si34  1  0.230141  0.380468  0.250000  1
  Si  Si35  1  0.644930  0.030178  0.959827  1
