# generated using pymatgen
data_Pr5MnWO12
_symmetry_space_group_name_H-M   'P 1'
_cell_length_a   7.10944265
_cell_length_b   7.10944344
_cell_length_c   7.69966822
_cell_angle_alpha   74.37114434
_cell_angle_beta   74.37114111
_cell_angle_gamma   51.30554596
_symmetry_Int_Tables_number   1
_chemical_formula_structural   Pr5MnWO12
_chemical_formula_sum   'Pr5 Mn1 W1 O12'
_cell_volume   289.86395358
_cell_formula_units_Z   1
loop_
 _symmetry_equiv_pos_site_id
 _symmetry_equiv_pos_as_xyz
  1  'x, y, z'
loop_
 _atom_site_type_symbol
 _atom_site_label
 _atom_site_symmetry_multiplicity
 _atom_site_fract_x
 _atom_site_fract_y
 _atom_site_fract_z
 _atom_site_occupancy
  Pr  Pr0  1  0.312871  0.298289  0.358701  1
  Pr  Pr1  1  0.701711  0.687129  0.641299  1
  Pr  Pr2  1  0.693856  0.694132  0.166447  1
  Pr  Pr3  1  0.305868  0.306144  0.833553  1
  Pr  Pr4  1  0.005531  0.994469  0.500000  1
  Mn  Mn5  1  0.746436  0.253564  0.000000  1
  W  W6  1  0.232169  0.767831  0.000000  1
  O  O7  1  0.098089  0.593120  0.577249  1
  O  O8  1  0.018676  0.979392  0.180443  1
  O  O9  1  0.406880  0.901911  0.422751  1
  O  O10  1  0.477436  0.524405  0.175482  1
  O  O11  1  0.102074  0.581240  0.078589  1
  O  O12  1  0.908000  0.401694  0.421042  1
  O  O13  1  0.020608  0.981324  0.819557  1
  O  O14  1  0.598306  0.091999  0.578958  1
  O  O15  1  0.475595  0.522564  0.824518  1
  O  O16  1  0.581937  0.104803  0.076967  1
  O  O17  1  0.418760  0.897926  0.921411  1
  O  O18  1  0.895197  0.418063  0.923033  1
