# generated using pymatgen
data_ZnSb2Rh(SeO3)8
_symmetry_space_group_name_H-M   'P 1'
_cell_length_a   8.23402481
_cell_length_b   8.17176772
_cell_length_c   8.25161397
_cell_angle_alpha   89.34522860
_cell_angle_beta   90.16749867
_cell_angle_gamma   89.78988190
_symmetry_Int_Tables_number   1
_chemical_formula_structural   ZnSb2Rh(SeO3)8
_chemical_formula_sum   'Zn1 Sb2 Rh1 Se8 O24'
_cell_volume   555.18010883
_cell_formula_units_Z   1
loop_
 _symmetry_equiv_pos_site_id
 _symmetry_equiv_pos_as_xyz
  1  'x, y, z'
loop_
 _atom_site_type_symbol
 _atom_site_label
 _atom_site_symmetry_multiplicity
 _atom_site_fract_x
 _atom_site_fract_y
 _atom_site_fract_z
 _atom_site_occupancy
  Zn  Zn0  1  0.000000  0.500000  0.000000  1
  Sb  Sb1  1  0.000000  0.000000  0.500000  1
  Sb  Sb2  1  0.500000  0.000000  0.000000  1
  Rh  Rh3  1  0.500000  0.500000  0.500000  1
  Se  Se4  1  0.329902  0.656268  0.169671  1
  Se  Se5  1  0.827564  0.344099  0.330140  1
  Se  Se6  1  0.665810  0.818962  0.666189  1
  Se  Se7  1  0.162707  0.176234  0.836553  1
  Se  Se8  1  0.670098  0.343732  0.830329  1
  Se  Se9  1  0.172436  0.655901  0.669860  1
  Se  Se10  1  0.334190  0.181038  0.333811  1
  Se  Se11  1  0.837293  0.823766  0.163447  1
  O  O12  1  0.250856  0.529395  0.033018  1
  O  O13  1  0.739726  0.475236  0.475684  1
  O  O14  1  0.757781  0.965857  0.537713  1
  O  O15  1  0.260430  0.024455  0.962785  1
  O  O16  1  0.532917  0.959178  0.758450  1
  O  O17  1  0.472260  0.519773  0.258973  1
  O  O18  1  0.961221  0.476437  0.251163  1
  O  O19  1  0.033501  0.031484  0.738694  1
  O  O20  1  0.964021  0.240624  0.470564  1
  O  O21  1  0.529733  0.746743  0.524852  1
  O  O22  1  0.475041  0.759735  0.039995  1
  O  O23  1  0.031305  0.247405  0.971646  1
  O  O24  1  0.749144  0.470605  0.966982  1
  O  O25  1  0.260274  0.524764  0.524316  1
  O  O26  1  0.242219  0.034143  0.462287  1
  O  O27  1  0.739570  0.975545  0.037215  1
  O  O28  1  0.467083  0.040822  0.241550  1
  O  O29  1  0.527740  0.480227  0.741027  1
  O  O30  1  0.038779  0.523563  0.748837  1
  O  O31  1  0.966499  0.968516  0.261306  1
  O  O32  1  0.035979  0.759376  0.529436  1
  O  O33  1  0.470267  0.253257  0.475148  1
  O  O34  1  0.524959  0.240265  0.960005  1
  O  O35  1  0.968695  0.752595  0.028354  1
