# generated using pymatgen
data_Tm2FeCo8P7W3
_symmetry_space_group_name_H-M   'P 1'
_cell_length_a   9.06356300
_cell_length_b   9.08550522
_cell_length_c   3.71771000
_cell_angle_alpha   90.00000000
_cell_angle_beta   90.00000000
_cell_angle_gamma   119.94594104
_symmetry_Int_Tables_number   1
_chemical_formula_structural   Tm2FeCo8P7W3
_chemical_formula_sum   'Tm2 Fe1 Co8 P7 W3'
_cell_volume   265.27144239
_cell_formula_units_Z   1
loop_
 _symmetry_equiv_pos_site_id
 _symmetry_equiv_pos_as_xyz
  1  'x, y, z'
loop_
 _atom_site_type_symbol
 _atom_site_label
 _atom_site_symmetry_multiplicity
 _atom_site_fract_x
 _atom_site_fract_y
 _atom_site_fract_z
 _atom_site_occupancy
  Tm  Tm0  1  0.334345  0.665679  0.000000  1
  Tm  Tm1  1  0.999445  0.999521  0.500000  1
  Fe  Fe2  1  0.547433  0.493540  0.000000  1
  Co  Co3  1  0.729994  0.964705  0.000000  1
  Co  Co4  1  0.233757  0.268743  0.000000  1
  Co  Co5  1  0.035888  0.765351  0.000000  1
  Co  Co6  1  0.946727  0.452889  0.000000  1
  Co  Co7  1  0.506227  0.053329  0.000000  1
  Co  Co8  1  0.104830  0.384741  0.500000  1
  Co  Co9  1  0.280171  0.895351  0.500000  1
  Co  Co10  1  0.615476  0.721784  0.500000  1
  P  P11  1  0.969584  0.220165  0.000000  1
  P  P12  1  0.250124  0.029788  0.000000  1
  P  P13  1  0.778078  0.748206  0.000000  1
  P  P14  1  0.080071  0.623845  0.500000  1
  P  P15  1  0.544748  0.921398  0.500000  1
  P  P16  1  0.378896  0.457288  0.500000  1
  P  P17  1  0.665686  0.334147  0.000000  1
  W  W18  1  0.762970  0.209092  0.500000  1
  W  W19  1  0.444704  0.235446  0.500000  1
  W  W20  1  0.790848  0.554985  0.500000  1
