# generated using pymatgen
data_LaHo(NiAs)2
_symmetry_space_group_name_H-M   'P 1'
_cell_length_a   4.11309200
_cell_length_b   4.11309186
_cell_length_c   16.00321700
_cell_angle_alpha   90.00000000
_cell_angle_beta   90.00000000
_cell_angle_gamma   120.00000112
_symmetry_Int_Tables_number   1
_chemical_formula_structural   LaHo(NiAs)2
_chemical_formula_sum   'La2 Ho2 Ni4 As4'
_cell_volume   234.46323555
_cell_formula_units_Z   2
loop_
 _symmetry_equiv_pos_site_id
 _symmetry_equiv_pos_as_xyz
  1  'x, y, z'
loop_
 _atom_site_type_symbol
 _atom_site_label
 _atom_site_symmetry_multiplicity
 _atom_site_fract_x
 _atom_site_fract_y
 _atom_site_fract_z
 _atom_site_occupancy
  La  La0  1  0.000000  0.000000  0.001424  1
  La  La1  1  0.000000  0.000000  0.498576  1
  Ho  Ho2  1  0.000000  0.000000  0.250000  1
  Ho  Ho3  1  0.000000  0.000000  0.750000  1
  Ni  Ni4  1  0.333333  0.666667  0.143006  1
  Ni  Ni5  1  0.666667  0.333333  0.861282  1
  Ni  Ni6  1  0.666667  0.333333  0.638718  1
  Ni  Ni7  1  0.333333  0.666667  0.356994  1
  As  As8  1  0.333333  0.666667  0.627199  1
  As  As9  1  0.666667  0.333333  0.371773  1
  As  As10  1  0.666667  0.333333  0.128227  1
  As  As11  1  0.333333  0.666667  0.872801  1
