# generated using pymatgen
data_Lu12ZnCo4Bi
_symmetry_space_group_name_H-M   'P 1'
_cell_length_a   8.19359068
_cell_length_b   8.19394465
_cell_length_c   8.19358984
_cell_angle_alpha   110.11024643
_cell_angle_beta   111.29130441
_cell_angle_gamma   107.03974788
_symmetry_Int_Tables_number   1
_chemical_formula_structural   Lu12ZnCo4Bi
_chemical_formula_sum   'Lu12 Zn1 Co4 Bi1'
_cell_volume   422.86008453
_cell_formula_units_Z   1
loop_
 _symmetry_equiv_pos_site_id
 _symmetry_equiv_pos_as_xyz
  1  'x, y, z'
loop_
 _atom_site_type_symbol
 _atom_site_label
 _atom_site_symmetry_multiplicity
 _atom_site_fract_x
 _atom_site_fract_y
 _atom_site_fract_z
 _atom_site_occupancy
  Lu  Lu0  1  0.284942  0.182458  0.467373  1
  Lu  Lu1  1  0.715058  0.817542  0.532627  1
  Lu  Lu2  1  0.284916  0.817542  0.102486  1
  Lu  Lu3  1  0.715084  0.182458  0.897514  1
  Lu  Lu4  1  0.618898  0.312479  0.306389  1
  Lu  Lu5  1  0.381102  0.687521  0.693611  1
  Lu  Lu6  1  0.006090  0.312479  0.693581  1
  Lu  Lu7  1  0.993910  0.687521  0.306419  1
  Lu  Lu8  1  0.219730  0.427530  0.207801  1
  Lu  Lu9  1  0.780270  0.572470  0.792199  1
  Lu  Lu10  1  0.219731  0.011945  0.792213  1
  Lu  Lu11  1  0.780269  0.988055  0.207787  1
  Zn  Zn12  1  0.000000  0.000000  0.000000  1
  Co  Co13  1  0.999995  0.377243  0.377247  1
  Co  Co14  1  0.000005  0.622757  0.622753  1
  Co  Co15  1  0.386291  0.886252  0.499962  1
  Co  Co16  1  0.613709  0.113748  0.500038  1
  Bi  Bi17  1  0.500000  0.500000  0.000000  1
