# generated using pymatgen
data_Sr2YHo(Ge4N7)2
_symmetry_space_group_name_H-M   'P 1'
_cell_length_a   6.30659700
_cell_length_b   6.30659707
_cell_length_c   10.32687800
_cell_angle_alpha   90.00000000
_cell_angle_beta   90.00000000
_cell_angle_gamma   120.00000490
_symmetry_Int_Tables_number   1
_chemical_formula_structural   Sr2YHo(Ge4N7)2
_chemical_formula_sum   'Sr2 Y1 Ho1 Ge8 N14'
_cell_volume   355.70487790
_cell_formula_units_Z   1
loop_
 _symmetry_equiv_pos_site_id
 _symmetry_equiv_pos_as_xyz
  1  'x, y, z'
loop_
 _atom_site_type_symbol
 _atom_site_label
 _atom_site_symmetry_multiplicity
 _atom_site_fract_x
 _atom_site_fract_y
 _atom_site_fract_z
 _atom_site_occupancy
  Sr  Sr0  1  0.666667  0.333333  0.585852  1
  Sr  Sr1  1  0.333333  0.666667  0.085122  1
  Y  Y2  1  0.333333  0.666667  0.450918  1
  Ho  Ho3  1  0.666667  0.333333  0.950966  1
  Ge  Ge4  1  0.173450  0.346897  0.760835  1
  Ge  Ge5  1  0.826497  0.173503  0.259947  1
  Ge  Ge6  1  0.347004  0.173503  0.259947  1
  Ge  Ge7  1  0.653103  0.826550  0.760835  1
  Ge  Ge8  1  0.173450  0.826550  0.760835  1
  Ge  Ge9  1  0.826497  0.652996  0.259947  1
  Ge  Ge10  1  0.000000  0.000000  0.025139  1
  Ge  Ge11  1  0.000000  0.000000  0.525500  1
  N  N12  1  0.000000  0.000000  0.833776  1
  N  N13  1  0.000000  0.000000  0.333492  1
  N  N14  1  0.840899  0.681797  0.081734  1
  N  N15  1  0.158767  0.841233  0.582754  1
  N  N16  1  0.682466  0.841233  0.582754  1
  N  N17  1  0.318203  0.159101  0.081734  1
  N  N18  1  0.840899  0.159101  0.081734  1
  N  N19  1  0.158767  0.317534  0.582754  1
  N  N20  1  0.495270  0.504730  0.817047  1
  N  N21  1  0.989929  0.494965  0.315975  1
  N  N22  1  0.505035  0.010071  0.315975  1
  N  N23  1  0.495270  0.990539  0.817047  1
  N  N24  1  0.505035  0.494965  0.315975  1
  N  N25  1  0.009461  0.504730  0.817047  1
