# generated using pymatgen
data_TbTm7(CdPt)2
_symmetry_space_group_name_H-M   'P 1'
_cell_length_a   9.58834584
_cell_length_b   9.58834547
_cell_length_c   9.57549800
_cell_angle_alpha   60.04431380
_cell_angle_beta   60.04431507
_cell_angle_gamma   59.91136762
_symmetry_Int_Tables_number   1
_chemical_formula_structural   TbTm7(CdPt)2
_chemical_formula_sum   'Tb2 Tm14 Cd4 Pt4'
_cell_volume   622.48969510
_cell_formula_units_Z   2
loop_
 _symmetry_equiv_pos_site_id
 _symmetry_equiv_pos_as_xyz
  1  'x, y, z'
loop_
 _atom_site_type_symbol
 _atom_site_label
 _atom_site_symmetry_multiplicity
 _atom_site_fract_x
 _atom_site_fract_y
 _atom_site_fract_z
 _atom_site_occupancy
  Tb  Tb0  1  0.565634  0.565634  0.934366  1
  Tb  Tb1  1  0.934366  0.934366  0.565634  1
  Tm  Tm2  1  0.351997  0.351997  0.352918  1
  Tm  Tm3  1  0.351997  0.351997  0.943088  1
  Tm  Tm4  1  0.352918  0.943088  0.351997  1
  Tm  Tm5  1  0.943088  0.352918  0.351997  1
  Tm  Tm6  1  0.810124  0.189876  0.189876  1
  Tm  Tm7  1  0.189876  0.810124  0.810124  1
  Tm  Tm8  1  0.189876  0.810124  0.189876  1
  Tm  Tm9  1  0.810124  0.189876  0.810124  1
  Tm  Tm10  1  0.189869  0.189869  0.810131  1
  Tm  Tm11  1  0.810131  0.810131  0.189869  1
  Tm  Tm12  1  0.936168  0.563832  0.563832  1
  Tm  Tm13  1  0.563832  0.936168  0.936168  1
  Tm  Tm14  1  0.563832  0.936168  0.563832  1
  Tm  Tm15  1  0.936168  0.563832  0.936168  1
  Cd  Cd16  1  0.582227  0.582227  0.580954  1
  Cd  Cd17  1  0.582227  0.582227  0.254592  1
  Cd  Cd18  1  0.580954  0.254592  0.582227  1
  Cd  Cd19  1  0.254592  0.580954  0.582227  1
  Pt  Pt20  1  0.143566  0.143566  0.142323  1
  Pt  Pt21  1  0.143566  0.143566  0.570546  1
  Pt  Pt22  1  0.142323  0.570546  0.143566  1
  Pt  Pt23  1  0.570546  0.142323  0.143566  1
