# generated using pymatgen
data_HoEr7Re3B24Os
_symmetry_space_group_name_H-M   'P 1'
_cell_length_a   3.65345800
_cell_length_b   9.12761991
_cell_length_c   11.50365600
_cell_angle_alpha   90.07420883
_cell_angle_beta   90.00000000
_cell_angle_gamma   90.00000000
_symmetry_Int_Tables_number   1
_chemical_formula_structural   HoEr7Re3B24Os
_chemical_formula_sum   'Ho1 Er7 Re3 B24 Os1'
_cell_volume   383.61641997
_cell_formula_units_Z   1
loop_
 _symmetry_equiv_pos_site_id
 _symmetry_equiv_pos_as_xyz
  1  'x, y, z'
loop_
 _atom_site_type_symbol
 _atom_site_label
 _atom_site_symmetry_multiplicity
 _atom_site_fract_x
 _atom_site_fract_y
 _atom_site_fract_z
 _atom_site_occupancy
  Ho  Ho0  1  0.000000  0.321982  0.414153  1
  Er  Er1  1  0.000000  0.677384  0.587553  1
  Er  Er2  1  0.000000  0.824383  0.084482  1
  Er  Er3  1  0.000000  0.176580  0.913592  1
  Er  Er4  1  0.000000  0.942890  0.370170  1
  Er  Er5  1  0.000000  0.056284  0.629334  1
  Er  Er6  1  0.000000  0.442965  0.129612  1
  Er  Er7  1  0.000000  0.556731  0.870931  1
  Re  Re8  1  0.000000  0.362032  0.678265  1
  Re  Re9  1  0.000000  0.138459  0.179550  1
  Re  Re10  1  0.000000  0.861509  0.820879  1
  B  B11  1  0.500000  0.553900  0.433053  1
  B  B12  1  0.500000  0.447105  0.566616  1
  B  B13  1  0.500000  0.053059  0.066598  1
  B  B14  1  0.500000  0.946940  0.933296  1
  B  B15  1  0.500000  0.749131  0.418873  1
  B  B16  1  0.500000  0.250121  0.580942  1
  B  B17  1  0.500000  0.249646  0.080836  1
  B  B18  1  0.500000  0.750703  0.919218  1
  B  B19  1  0.500000  0.791566  0.265430  1
  B  B20  1  0.500000  0.207487  0.734504  1
  B  B21  1  0.500000  0.292362  0.234830  1
  B  B22  1  0.500000  0.707378  0.765624  1
  B  B23  1  0.500000  0.631399  0.185511  1
  B  B24  1  0.500000  0.369242  0.814423  1
  B  B25  1  0.500000  0.131114  0.315086  1
  B  B26  1  0.500000  0.868741  0.685282  1
  B  B27  1  0.500000  0.982063  0.211991  1
  B  B28  1  0.500000  0.017986  0.787773  1
  B  B29  1  0.500000  0.483134  0.287974  1
  B  B30  1  0.500000  0.518393  0.712062  1
  B  B31  1  0.500000  0.601570  0.028735  1
  B  B32  1  0.500000  0.398673  0.971984  1
  B  B33  1  0.500000  0.100556  0.471657  1
  B  B34  1  0.500000  0.898012  0.528089  1
  Os  Os35  1  0.000000  0.638522  0.321091  1
