# generated using pymatgen
data_TbY2Tm2Sn3
_symmetry_space_group_name_H-M   'P 1'
_cell_length_a   6.49525400
_cell_length_b   8.94957001
_cell_length_c   8.94630039
_cell_angle_alpha   120.01208875
_cell_angle_beta   89.99997516
_cell_angle_gamma   90.00003759
_symmetry_Int_Tables_number   1
_chemical_formula_structural   TbY2Tm2Sn3
_chemical_formula_sum   'Tb2 Y4 Tm4 Sn6'
_cell_volume   450.31820072
_cell_formula_units_Z   2
loop_
 _symmetry_equiv_pos_site_id
 _symmetry_equiv_pos_as_xyz
  1  'x, y, z'
loop_
 _atom_site_type_symbol
 _atom_site_label
 _atom_site_symmetry_multiplicity
 _atom_site_fract_x
 _atom_site_fract_y
 _atom_site_fract_z
 _atom_site_occupancy
  Tb  Tb0  1  0.250000  0.239739  0.239709  1
  Tb  Tb1  1  0.250000  0.000030  0.760291  1
  Y  Y2  1  0.750004  0.239675  0.000000  1
  Y  Y3  1  0.749999  0.760116  0.760025  1
  Y  Y4  1  0.749999  0.000091  0.239975  1
  Y  Y5  1  0.250007  0.760439  0.000000  1
  Tm  Tm6  1  0.499973  0.333349  0.666718  1
  Tm  Tm7  1  0.499973  0.666632  0.333282  1
  Tm  Tm8  1  0.000027  0.666643  0.333282  1
  Tm  Tm9  1  0.000027  0.333361  0.666718  1
  Sn  Sn10  1  0.749995  0.604171  0.000000  1
  Sn  Sn11  1  0.749999  0.395745  0.395743  1
  Sn  Sn12  1  0.749999  0.000002  0.604257  1
  Sn  Sn13  1  0.249997  0.395608  0.000000  1
  Sn  Sn14  1  0.250000  0.604258  0.604118  1
  Sn  Sn15  1  0.250000  0.000141  0.395882  1
