# generated using pymatgen
data_U3Al(ZnRu2)4
_symmetry_space_group_name_H-M   'P 1'
_cell_length_a   5.97266701
_cell_length_b   7.09616100
_cell_length_c   5.97257100
_cell_angle_alpha   90.00030682
_cell_angle_beta   89.99702617
_cell_angle_gamma   89.99921682
_symmetry_Int_Tables_number   1
_chemical_formula_structural   U3Al(ZnRu2)4
_chemical_formula_sum   'U3 Al1 Zn4 Ru8'
_cell_volume   253.13551630
_cell_formula_units_Z   1
loop_
 _symmetry_equiv_pos_site_id
 _symmetry_equiv_pos_as_xyz
  1  'x, y, z'
loop_
 _atom_site_type_symbol
 _atom_site_label
 _atom_site_symmetry_multiplicity
 _atom_site_fract_x
 _atom_site_fract_y
 _atom_site_fract_z
 _atom_site_occupancy
  U  U0  1  0.999986  0.250019  0.999985  1
  U  U1  1  0.000030  0.749976  0.999984  1
  U  U2  1  0.499943  0.749983  0.500013  1
  Al  Al3  1  0.500109  0.249988  0.499994  1
  Zn  Zn4  1  0.499983  0.249997  0.999998  1
  Zn  Zn5  1  0.500007  0.750000  0.999997  1
  Zn  Zn6  1  0.999961  0.750000  0.499997  1
  Zn  Zn7  1  0.999976  0.249997  0.499997  1
  Ru  Ru8  1  0.750641  0.006196  0.249342  1
  Ru  Ru9  1  0.750627  0.493790  0.249365  1
  Ru  Ru10  1  0.249672  0.006161  0.249676  1
  Ru  Ru11  1  0.249678  0.493829  0.249687  1
  Ru  Ru12  1  0.750333  0.006146  0.750335  1
  Ru  Ru13  1  0.750338  0.493888  0.750353  1
  Ru  Ru14  1  0.249353  0.006214  0.750635  1
  Ru  Ru15  1  0.249359  0.493814  0.750638  1
