# generated using pymatgen
data_LaPr14Th(CdIr)4
_symmetry_space_group_name_H-M   'P 1'
_cell_length_a   10.03961999
_cell_length_b   10.03961929
_cell_length_c   10.05678526
_cell_angle_alpha   60.16915588
_cell_angle_beta   60.16915893
_cell_angle_gamma   60.15042596
_symmetry_Int_Tables_number   1
_chemical_formula_structural   LaPr14Th(CdIr)4
_chemical_formula_sum   'La1 Pr14 Th1 Cd4 Ir4'
_cell_volume   719.41286219
_cell_formula_units_Z   1
loop_
 _symmetry_equiv_pos_site_id
 _symmetry_equiv_pos_as_xyz
  1  'x, y, z'
loop_
 _atom_site_type_symbol
 _atom_site_label
 _atom_site_symmetry_multiplicity
 _atom_site_fract_x
 _atom_site_fract_y
 _atom_site_fract_z
 _atom_site_occupancy
  La  La0  1  0.347237  0.347237  0.957758  1
  Pr  Pr1  1  0.348800  0.953057  0.349360  1
  Pr  Pr2  1  0.953057  0.348800  0.349360  1
  Pr  Pr3  1  0.810175  0.190113  0.190022  1
  Pr  Pr4  1  0.189779  0.809584  0.808820  1
  Pr  Pr5  1  0.190113  0.810175  0.190022  1
  Pr  Pr6  1  0.809584  0.189779  0.808820  1
  Pr  Pr7  1  0.189993  0.189993  0.809873  1
  Pr  Pr8  1  0.809175  0.809175  0.189830  1
  Pr  Pr9  1  0.940698  0.561812  0.561793  1
  Pr  Pr10  1  0.560154  0.938761  0.938905  1
  Pr  Pr11  1  0.561812  0.940698  0.561793  1
  Pr  Pr12  1  0.938761  0.560154  0.938905  1
  Pr  Pr13  1  0.562140  0.562140  0.940415  1
  Pr  Pr14  1  0.939083  0.939083  0.560134  1
  Th  Th15  1  0.343941  0.343941  0.344707  1
  Cd  Cd16  1  0.579868  0.579868  0.578841  1
  Cd  Cd17  1  0.578948  0.578948  0.259899  1
  Cd  Cd18  1  0.579348  0.259731  0.578339  1
  Cd  Cd19  1  0.259731  0.579348  0.578339  1
  Ir  Ir20  1  0.142732  0.142732  0.141018  1
  Ir  Ir21  1  0.146966  0.146966  0.570546  1
  Ir  Ir22  1  0.147650  0.570251  0.146248  1
  Ir  Ir23  1  0.570251  0.147650  0.146248  1
