# generated using pymatgen
data_SrPrDy5CoBr12
_symmetry_space_group_name_H-M   'P 1'
_cell_length_a   9.19433567
_cell_length_b   9.29006697
_cell_length_c   9.28038400
_cell_angle_alpha   106.25427668
_cell_angle_beta   106.44385815
_cell_angle_gamma   106.14104130
_symmetry_Int_Tables_number   1
_chemical_formula_structural   SrPrDy5CoBr12
_chemical_formula_sum   'Sr1 Pr1 Dy5 Co1 Br12'
_cell_volume   672.70852751
_cell_formula_units_Z   1
loop_
 _symmetry_equiv_pos_site_id
 _symmetry_equiv_pos_as_xyz
  1  'x, y, z'
loop_
 _atom_site_type_symbol
 _atom_site_label
 _atom_site_symmetry_multiplicity
 _atom_site_fract_x
 _atom_site_fract_y
 _atom_site_fract_z
 _atom_site_occupancy
  Sr  Sr0  1  0.500845  0.498563  0.499644  1
  Pr  Pr1  1  0.698388  0.981699  0.903703  1
  Dy  Dy2  1  0.979008  0.900911  0.693266  1
  Dy  Dy3  1  0.019639  0.099182  0.307010  1
  Dy  Dy4  1  0.101205  0.306254  0.020666  1
  Dy  Dy5  1  0.290069  0.019130  0.094061  1
  Dy  Dy6  1  0.903596  0.695567  0.980626  1
  Co  Co7  1  0.998540  0.001287  0.000018  1
  Br  Br8  1  0.554044  0.624158  0.858778  1
  Br  Br9  1  0.445803  0.362531  0.139123  1
  Br  Br10  1  0.314136  0.926375  0.779537  1
  Br  Br11  1  0.364452  0.138850  0.443518  1
  Br  Br12  1  0.928840  0.781431  0.322121  1
  Br  Br13  1  0.681107  0.076418  0.233133  1
  Br  Br14  1  0.073087  0.219109  0.678039  1
  Br  Br15  1  0.787566  0.333124  0.929822  1
  Br  Br16  1  0.222397  0.681235  0.073799  1
  Br  Br17  1  0.863659  0.555818  0.635940  1
  Br  Br18  1  0.138628  0.444922  0.364322  1
  Br  Br19  1  0.634989  0.853437  0.542873  1
