# generated using pymatgen
data_Er5Zr5Pb6
_symmetry_space_group_name_H-M   'P 1'
_cell_length_a   8.87120300
_cell_length_b   8.87120393
_cell_length_c   6.09503500
_cell_angle_alpha   90.00000000
_cell_angle_beta   90.00000000
_cell_angle_gamma   119.80798463
_symmetry_Int_Tables_number   1
_chemical_formula_structural   Er5Zr5Pb6
_chemical_formula_sum   'Er5 Zr5 Pb6'
_cell_volume   416.20661025
_cell_formula_units_Z   1
loop_
 _symmetry_equiv_pos_site_id
 _symmetry_equiv_pos_as_xyz
  1  'x, y, z'
loop_
 _atom_site_type_symbol
 _atom_site_label
 _atom_site_symmetry_multiplicity
 _atom_site_fract_x
 _atom_site_fract_y
 _atom_site_fract_z
 _atom_site_occupancy
  Er  Er0  1  0.757176  0.757176  0.250000  1
  Er  Er1  1  0.001126  0.238659  0.250000  1
  Er  Er2  1  0.764233  0.002110  0.750000  1
  Er  Er3  1  0.238659  0.001126  0.250000  1
  Er  Er4  1  0.002110  0.764233  0.750000  1
  Zr  Zr5  1  0.332928  0.664003  0.500192  1
  Zr  Zr6  1  0.664003  0.332928  0.500192  1
  Zr  Zr7  1  0.332928  0.664003  0.999808  1
  Zr  Zr8  1  0.244420  0.244420  0.750000  1
  Zr  Zr9  1  0.664003  0.332928  0.999808  1
  Pb  Pb10  1  0.601794  0.601794  0.750000  1
  Pb  Pb11  1  0.395570  0.001689  0.750000  1
  Pb  Pb12  1  0.602847  0.000530  0.250000  1
  Pb  Pb13  1  0.001689  0.395570  0.750000  1
  Pb  Pb14  1  0.395988  0.395988  0.250000  1
  Pb  Pb15  1  0.000530  0.602847  0.250000  1
