# generated using pymatgen
data_Ac2Al16NiPd8
_symmetry_space_group_name_H-M   'P 1'
_cell_length_a   11.11377314
_cell_length_b   11.11377227
_cell_length_c   11.11377200
_cell_angle_alpha   158.34275024
_cell_angle_beta   115.44229233
_cell_angle_gamma   68.96058982
_symmetry_Int_Tables_number   1
_chemical_formula_structural   Ac2Al16NiPd8
_chemical_formula_sum   'Ac2 Al16 Ni1 Pd8'
_cell_volume   454.12671555
_cell_formula_units_Z   1
loop_
 _symmetry_equiv_pos_site_id
 _symmetry_equiv_pos_as_xyz
  1  'x, y, z'
loop_
 _atom_site_type_symbol
 _atom_site_label
 _atom_site_symmetry_multiplicity
 _atom_site_fract_x
 _atom_site_fract_y
 _atom_site_fract_z
 _atom_site_occupancy
  Ac  Ac0  1  0.227557  0.227557  0.000000  1
  Ac  Ac1  1  0.772443  0.772443  0.000000  1
  Al  Al2  1  0.276148  0.395200  0.880948  1
  Al  Al3  1  0.089876  0.922976  0.166900  1
  Al  Al4  1  0.505297  0.202236  0.303061  1
  Al  Al5  1  0.243924  0.077024  0.166900  1
  Al  Al6  1  0.922793  0.422793  0.500000  1
  Al  Al7  1  0.723852  0.604800  0.119052  1
  Al  Al8  1  0.899176  0.202236  0.696939  1
  Al  Al9  1  0.494703  0.797764  0.696939  1
  Al  Al10  1  0.383354  0.000000  0.383354  1
  Al  Al11  1  0.616646  0.000000  0.616646  1
  Al  Al12  1  0.485748  0.604800  0.880948  1
  Al  Al13  1  0.100824  0.797764  0.303061  1
  Al  Al14  1  0.910124  0.077024  0.833100  1
  Al  Al15  1  0.756076  0.922976  0.833100  1
  Al  Al16  1  0.514252  0.395200  0.119052  1
  Al  Al17  1  0.077207  0.577207  0.500000  1
  Ni  Ni18  1  0.000000  0.000000  0.000000  1
  Pd  Pd19  1  0.759084  0.500000  0.259084  1
  Pd  Pd20  1  0.029067  0.341859  0.687209  1
  Pd  Pd21  1  0.622866  0.122866  0.500000  1
  Pd  Pd22  1  0.240916  0.500000  0.740916  1
  Pd  Pd23  1  0.377134  0.877134  0.500000  1
  Pd  Pd24  1  0.654649  0.341859  0.312791  1
  Pd  Pd25  1  0.345351  0.658141  0.687209  1
  Pd  Pd26  1  0.970933  0.658141  0.312791  1
