# generated using pymatgen
data_Y6Fe2Co15P12Ru
_symmetry_space_group_name_H-M   'P 1'
_cell_length_a   3.71905800
_cell_length_b   10.60015400
_cell_length_c   12.23354300
_cell_angle_alpha   90.00000000
_cell_angle_beta   90.00000000
_cell_angle_gamma   90.00000000
_symmetry_Int_Tables_number   1
_chemical_formula_structural   Y6Fe2Co15P12Ru
_chemical_formula_sum   'Y6 Fe2 Co15 P12 Ru1'
_cell_volume   482.27791978
_cell_formula_units_Z   1
loop_
 _symmetry_equiv_pos_site_id
 _symmetry_equiv_pos_as_xyz
  1  'x, y, z'
loop_
 _atom_site_type_symbol
 _atom_site_label
 _atom_site_symmetry_multiplicity
 _atom_site_fract_x
 _atom_site_fract_y
 _atom_site_fract_z
 _atom_site_occupancy
  Y  Y0  1  0.000000  0.500000  0.524653  1
  Y  Y1  1  0.500000  0.000000  0.478115  1
  Y  Y2  1  0.500000  0.817355  0.205787  1
  Y  Y3  1  0.500000  0.182645  0.205787  1
  Y  Y4  1  0.000000  0.682000  0.795046  1
  Y  Y5  1  0.000000  0.318000  0.795046  1
  Fe  Fe6  1  0.000000  0.000000  0.840763  1
  Fe  Fe7  1  0.000000  0.500000  0.988170  1
  Co  Co8  1  0.500000  0.500000  0.702574  1
  Co  Co9  1  0.000000  0.000000  0.296454  1
  Co  Co10  1  0.500000  0.000000  0.013035  1
  Co  Co11  1  0.500000  0.330359  0.991110  1
  Co  Co12  1  0.500000  0.669641  0.991110  1
  Co  Co13  1  0.000000  0.165153  0.005559  1
  Co  Co14  1  0.000000  0.834847  0.005559  1
  Co  Co15  1  0.500000  0.296782  0.430740  1
  Co  Co16  1  0.500000  0.703218  0.430740  1
  Co  Co17  1  0.000000  0.203125  0.569708  1
  Co  Co18  1  0.000000  0.796875  0.569708  1
  Co  Co19  1  0.500000  0.879965  0.709711  1
  Co  Co20  1  0.500000  0.120035  0.709711  1
  Co  Co21  1  0.000000  0.620838  0.291676  1
  Co  Co22  1  0.000000  0.379162  0.291676  1
  P  P23  1  0.500000  0.500000  0.883856  1
  P  P24  1  0.000000  0.000000  0.116742  1
  P  P25  1  0.500000  0.500000  0.348555  1
  P  P26  1  0.000000  0.000000  0.657582  1
  P  P27  1  0.500000  0.310463  0.616658  1
  P  P28  1  0.500000  0.689537  0.616658  1
  P  P29  1  0.000000  0.188722  0.383937  1
  P  P30  1  0.000000  0.811278  0.383937  1
  P  P31  1  0.500000  0.850142  0.892031  1
  P  P32  1  0.500000  0.149858  0.892031  1
  P  P33  1  0.000000  0.654491  0.104125  1
  P  P34  1  0.000000  0.345509  0.104125  1
  Ru  Ru35  1  0.500000  0.500000  0.157326  1
