# generated using pymatgen
data_Lu12Mn2InBiOs
_symmetry_space_group_name_H-M   'P 1'
_cell_length_a   8.26726757
_cell_length_b   8.26729526
_cell_length_c   8.26726789
_cell_angle_alpha   108.87204203
_cell_angle_beta   108.31026965
_cell_angle_gamma   111.24638427
_symmetry_Int_Tables_number   1
_chemical_formula_structural   Lu12Mn2InBiOs
_chemical_formula_sum   'Lu12 Mn2 In1 Bi1 Os1'
_cell_volume   434.65268366
_cell_formula_units_Z   1
loop_
 _symmetry_equiv_pos_site_id
 _symmetry_equiv_pos_as_xyz
  1  'x, y, z'
loop_
 _atom_site_type_symbol
 _atom_site_label
 _atom_site_symmetry_multiplicity
 _atom_site_fract_x
 _atom_site_fract_y
 _atom_site_fract_z
 _atom_site_occupancy
  Lu  Lu0  1  0.314807  0.305077  0.619905  1
  Lu  Lu1  1  0.685193  0.694923  0.380095  1
  Lu  Lu2  1  0.685172  0.305077  0.990271  1
  Lu  Lu3  1  0.314828  0.694923  0.009729  1
  Lu  Lu4  1  0.193552  0.426011  0.232458  1
  Lu  Lu5  1  0.806448  0.573989  0.767542  1
  Lu  Lu6  1  0.193543  0.961070  0.767528  1
  Lu  Lu7  1  0.953923  0.190165  0.763756  1
  Lu  Lu8  1  0.806457  0.038930  0.232472  1
  Lu  Lu9  1  0.046077  0.809835  0.236244  1
  Lu  Lu10  1  0.426409  0.190165  0.236240  1
  Lu  Lu11  1  0.573591  0.809835  0.763760  1
  Mn  Mn12  1  0.384671  0.384715  0.000044  1
  Mn  Mn13  1  0.615329  0.615285  0.999956  1
  In  In14  1  0.500000  0.000000  0.500000  1
  Bi  Bi15  1  0.000000  0.500000  0.500000  1
  Os  Os16  1  0.000000  0.000000  0.000000  1
