# generated using pymatgen
data_Cs6TlTe4
_symmetry_space_group_name_H-M   'P 1'
_cell_length_a   12.15702800
_cell_length_b   12.15702879
_cell_length_c   9.36313000
_cell_angle_alpha   90.00000000
_cell_angle_beta   90.00000000
_cell_angle_gamma   119.99999784
_symmetry_Int_Tables_number   1
_chemical_formula_structural   Cs6TlTe4
_chemical_formula_sum   'Cs12 Tl2 Te8'
_cell_volume   1198.41312494
_cell_formula_units_Z   2
loop_
 _symmetry_equiv_pos_site_id
 _symmetry_equiv_pos_as_xyz
  1  'x, y, z'
loop_
 _atom_site_type_symbol
 _atom_site_label
 _atom_site_symmetry_multiplicity
 _atom_site_fract_x
 _atom_site_fract_y
 _atom_site_fract_z
 _atom_site_occupancy
  Cs  Cs0  1  0.148383  0.851617  0.543576  1
  Cs  Cs1  1  0.296766  0.148383  0.043576  1
  Cs  Cs2  1  0.851617  0.703234  0.043576  1
  Cs  Cs3  1  0.148383  0.296766  0.543576  1
  Cs  Cs4  1  0.703234  0.851617  0.543576  1
  Cs  Cs5  1  0.851617  0.148383  0.043576  1
  Cs  Cs6  1  0.526409  0.473591  0.365152  1
  Cs  Cs7  1  0.052817  0.526409  0.865152  1
  Cs  Cs8  1  0.473591  0.947183  0.865152  1
  Cs  Cs9  1  0.526409  0.052817  0.365152  1
  Cs  Cs10  1  0.947183  0.473591  0.365152  1
  Cs  Cs11  1  0.473591  0.526409  0.865152  1
  Tl  Tl12  1  0.333333  0.666667  0.248082  1
  Tl  Tl13  1  0.666667  0.333333  0.748082  1
  Te  Te14  1  0.333333  0.666667  0.586715  1
  Te  Te15  1  0.666667  0.333333  0.086715  1
  Te  Te16  1  0.190113  0.809887  0.146839  1
  Te  Te17  1  0.380224  0.190113  0.646839  1
  Te  Te18  1  0.809887  0.619776  0.646839  1
  Te  Te19  1  0.190113  0.380224  0.146839  1
  Te  Te20  1  0.619776  0.809887  0.146839  1
  Te  Te21  1  0.809887  0.190113  0.646839  1
