# generated using pymatgen
data_V2Cd(OF4)2
_symmetry_space_group_name_H-M   'P 1'
_cell_length_a   5.10496894
_cell_length_b   5.32473839
_cell_length_c   7.53861200
_cell_angle_alpha   73.87209972
_cell_angle_beta   73.78257221
_cell_angle_gamma   87.74853714
_symmetry_Int_Tables_number   1
_chemical_formula_structural   V2Cd(OF4)2
_chemical_formula_sum   'V2 Cd1 O2 F8'
_cell_volume   188.85841276
_cell_formula_units_Z   1
loop_
 _symmetry_equiv_pos_site_id
 _symmetry_equiv_pos_as_xyz
  1  'x, y, z'
loop_
 _atom_site_type_symbol
 _atom_site_label
 _atom_site_symmetry_multiplicity
 _atom_site_fract_x
 _atom_site_fract_y
 _atom_site_fract_z
 _atom_site_occupancy
  V  V0  1  0.651556  0.652350  0.761457  1
  V  V1  1  0.348444  0.347650  0.238543  1
  Cd  Cd2  1  0.000000  0.000000  0.000000  1
  O  O3  1  0.649040  0.700343  0.544111  1
  O  O4  1  0.350960  0.299657  0.455889  1
  F  F5  1  0.430363  0.918243  0.830990  1
  F  F6  1  0.569637  0.081757  0.169010  1
  F  F7  1  0.944148  0.859460  0.747261  1
  F  F8  1  0.055852  0.140540  0.252739  1
  F  F9  1  0.871384  0.366161  0.793222  1
  F  F10  1  0.128616  0.633839  0.206778  1
  F  F11  1  0.351874  0.422365  0.904358  1
  F  F12  1  0.648126  0.577635  0.095642  1
