# generated using pymatgen
data_Sc2NiOs2Ru
_symmetry_space_group_name_H-M   'P 1'
_cell_length_a   5.08250674
_cell_length_b   5.10059247
_cell_length_c   8.53850600
_cell_angle_alpha   90.00000000
_cell_angle_beta   90.00000000
_cell_angle_gamma   120.11779616
_symmetry_Int_Tables_number   1
_chemical_formula_structural   Sc2NiOs2Ru
_chemical_formula_sum   'Sc4 Ni2 Os4 Ru2'
_cell_volume   191.46719686
_cell_formula_units_Z   2
loop_
 _symmetry_equiv_pos_site_id
 _symmetry_equiv_pos_as_xyz
  1  'x, y, z'
loop_
 _atom_site_type_symbol
 _atom_site_label
 _atom_site_symmetry_multiplicity
 _atom_site_fract_x
 _atom_site_fract_y
 _atom_site_fract_z
 _atom_site_occupancy
  Sc  Sc0  1  0.334858  0.664536  0.065465  1
  Sc  Sc1  1  0.665142  0.329677  0.565465  1
  Sc  Sc2  1  0.334858  0.664536  0.434535  1
  Sc  Sc3  1  0.665142  0.329677  0.934535  1
  Ni  Ni4  1  0.834425  0.174809  0.250000  1
  Ni  Ni5  1  0.165575  0.340384  0.750000  1
  Os  Os6  1  0.833061  0.665974  0.250000  1
  Os  Os7  1  0.166939  0.832916  0.750000  1
  Os  Os8  1  0.649815  0.830347  0.750000  1
  Os  Os9  1  0.350185  0.180531  0.250000  1
  Ru  Ru10  1  0.000000  0.993308  0.500000  1
  Ru  Ru11  1  0.000000  0.993308  0.000000  1
