# generated using pymatgen
data_LiYb2Si3
_symmetry_space_group_name_H-M   'P 1'
_cell_length_a   4.34131500
_cell_length_b   10.49037600
_cell_length_c   11.18627700
_cell_angle_alpha   90.00000000
_cell_angle_beta   90.00000000
_cell_angle_gamma   90.00000000
_symmetry_Int_Tables_number   1
_chemical_formula_structural   LiYb2Si3
_chemical_formula_sum   'Li4 Yb8 Si12'
_cell_volume   509.44572563
_cell_formula_units_Z   4
loop_
 _symmetry_equiv_pos_site_id
 _symmetry_equiv_pos_as_xyz
  1  'x, y, z'
loop_
 _atom_site_type_symbol
 _atom_site_label
 _atom_site_symmetry_multiplicity
 _atom_site_fract_x
 _atom_site_fract_y
 _atom_site_fract_z
 _atom_site_occupancy
  Li  Li0  1  0.500000  0.861448  0.281839  1
  Li  Li1  1  0.500000  0.138552  0.718161  1
  Li  Li2  1  0.000000  0.361448  0.218161  1
  Li  Li3  1  0.000000  0.638552  0.781839  1
  Yb  Yb4  1  0.500000  0.550439  0.349494  1
  Yb  Yb5  1  0.500000  0.449561  0.650506  1
  Yb  Yb6  1  0.000000  0.050439  0.150506  1
  Yb  Yb7  1  0.000000  0.949561  0.849494  1
  Yb  Yb8  1  0.500000  0.821722  0.574137  1
  Yb  Yb9  1  0.500000  0.178278  0.425863  1
  Yb  Yb10  1  0.000000  0.321722  0.925863  1
  Yb  Yb11  1  0.000000  0.678278  0.074137  1
  Si  Si12  1  0.500000  0.891324  0.040094  1
  Si  Si13  1  0.500000  0.108676  0.959906  1
  Si  Si14  1  0.000000  0.391324  0.459906  1
  Si  Si15  1  0.000000  0.608676  0.540094  1
  Si  Si16  1  0.000000  0.965869  0.400799  1
  Si  Si17  1  0.000000  0.034131  0.599201  1
  Si  Si18  1  0.500000  0.465869  0.099201  1
  Si  Si19  1  0.500000  0.534131  0.900799  1
  Si  Si20  1  0.000000  0.255011  0.633655  1
  Si  Si21  1  0.000000  0.744989  0.366345  1
  Si  Si22  1  0.500000  0.755011  0.866345  1
  Si  Si23  1  0.500000  0.244989  0.133655  1
