# generated using pymatgen
data_Sc12Zn2AuI16
_symmetry_space_group_name_H-M   'P 1'
_cell_length_a   9.33714220
_cell_length_b   12.08344056
_cell_length_c   12.71628500
_cell_angle_alpha   117.24790797
_cell_angle_beta   101.36151283
_cell_angle_gamma   100.79944850
_symmetry_Int_Tables_number   1
_chemical_formula_structural   Sc12Zn2AuI16
_chemical_formula_sum   'Sc12 Zn2 Au1 I16'
_cell_volume   1185.40995468
_cell_formula_units_Z   1
loop_
 _symmetry_equiv_pos_site_id
 _symmetry_equiv_pos_as_xyz
  1  'x, y, z'
loop_
 _atom_site_type_symbol
 _atom_site_label
 _atom_site_symmetry_multiplicity
 _atom_site_fract_x
 _atom_site_fract_y
 _atom_site_fract_z
 _atom_site_occupancy
  Sc  Sc0  1  0.087142  0.273860  0.360864  1
  Sc  Sc1  1  0.911205  0.734537  0.644404  1
  Sc  Sc2  1  0.777009  0.535854  0.326111  1
  Sc  Sc3  1  0.217045  0.465382  0.668312  1
  Sc  Sc4  1  0.272006  0.726599  0.638844  1
  Sc  Sc5  1  0.719665  0.265035  0.356066  1
  Sc  Sc6  1  0.141990  0.534640  0.332089  1
  Sc  Sc7  1  0.853976  0.464286  0.674071  1
  Sc  Sc8  1  0.403350  0.359465  0.275402  1
  Sc  Sc9  1  0.590895  0.640643  0.724410  1
  Sc  Sc10  1  0.455936  0.309262  0.520358  1
  Sc  Sc11  1  0.538187  0.690365  0.478855  1
  Zn  Zn12  1  0.996521  0.499990  0.500300  1
  Zn  Zn13  1  0.341465  0.500104  0.499814  1
  Au  Au14  1  0.661461  0.499938  0.500440  1
  I  I15  1  0.393904  0.737567  0.879265  1
  I  I16  1  0.604454  0.261206  0.118604  1
  I  I17  1  0.187079  0.959389  0.780927  1
  I  I18  1  0.813670  0.040597  0.219122  1
  I  I19  1  0.347984  0.099710  0.253895  1
  I  I20  1  0.669296  0.900080  0.745787  1
  I  I21  1  0.566552  0.439060  0.796531  1
  I  I22  1  0.449705  0.560902  0.203054  1
  I  I23  1  0.305369  0.821644  0.462555  1
  I  I24  1  0.693395  0.176512  0.537595  1
  I  I25  1  0.167063  0.177123  0.534484  1
  I  I26  1  0.832639  0.824596  0.465294  1
  I  I27  1  0.926056  0.572421  0.161483  1
  I  I28  1  0.074795  0.427689  0.838709  1
  I  I29  1  0.922538  0.737669  0.881824  1
  I  I30  1  0.077650  0.263875  0.120534  1
