# generated using pymatgen
data_Zr3Pa(Fe4P3)2
_symmetry_space_group_name_H-M   'P 1'
_cell_length_a   12.18206800
_cell_length_b   12.19349382
_cell_length_c   3.74013700
_cell_angle_alpha   90.00000000
_cell_angle_beta   90.00000000
_cell_angle_gamma   120.03103008
_symmetry_Int_Tables_number   1
_chemical_formula_structural   Zr3Pa(Fe4P3)2
_chemical_formula_sum   'Zr6 Pa2 Fe16 P12'
_cell_volume   480.98490186
_cell_formula_units_Z   2
loop_
 _symmetry_equiv_pos_site_id
 _symmetry_equiv_pos_as_xyz
  1  'x, y, z'
loop_
 _atom_site_type_symbol
 _atom_site_label
 _atom_site_symmetry_multiplicity
 _atom_site_fract_x
 _atom_site_fract_y
 _atom_site_fract_z
 _atom_site_occupancy
  Zr  Zr0  1  0.439736  0.438769  0.000000  1
  Zr  Zr1  1  0.560264  0.999034  0.000000  1
  Zr  Zr2  1  0.000000  0.557732  0.000000  1
  Zr  Zr3  1  0.665286  0.332091  0.000000  1
  Zr  Zr4  1  0.334714  0.666805  0.000000  1
  Zr  Zr5  1  0.000000  0.183087  0.500000  1
  Pa  Pa6  1  0.825392  0.827736  0.500000  1
  Pa  Pa7  1  0.174608  0.002344  0.500000  1
  Fe  Fe8  1  0.194016  0.378555  0.000000  1
  Fe  Fe9  1  0.184843  0.805750  0.000000  1
  Fe  Fe10  1  0.815157  0.620908  0.000000  1
  Fe  Fe11  1  0.805984  0.184538  0.000000  1
  Fe  Fe12  1  0.374752  0.193092  0.000000  1
  Fe  Fe13  1  0.120348  0.474970  0.500000  1
  Fe  Fe14  1  0.357211  0.879072  0.500000  1
  Fe  Fe15  1  0.523680  0.643599  0.500000  1
  Fe  Fe16  1  0.642789  0.521860  0.500000  1
  Fe  Fe17  1  0.879652  0.354622  0.500000  1
  Fe  Fe18  1  0.476320  0.119919  0.500000  1
  Fe  Fe19  1  0.000000  0.996210  0.000000  1
  Fe  Fe20  1  0.725364  0.003428  0.500000  1
  Fe  Fe21  1  0.000000  0.719323  0.500000  1
  Fe  Fe22  1  0.625248  0.818340  0.000000  1
  Fe  Fe23  1  0.274636  0.278065  0.500000  1
  P  P24  1  0.649587  0.650306  0.000000  1
  P  P25  1  0.350413  0.000720  0.000000  1
  P  P26  1  0.000000  0.346286  0.000000  1
  P  P27  1  0.477395  0.304268  0.500000  1
  P  P28  1  0.691578  0.173809  0.500000  1
  P  P29  1  0.825392  0.517928  0.500000  1
  P  P30  1  0.522605  0.826873  0.500000  1
  P  P31  1  0.174608  0.692535  0.500000  1
  P  P32  1  0.820834  0.007132  0.000000  1
  P  P33  1  0.000000  0.811761  0.000000  1
  P  P34  1  0.308422  0.482232  0.500000  1
  P  P35  1  0.179166  0.186298  0.000000  1
