# generated using pymatgen
data_Hf6Al24Fe7Co
_symmetry_space_group_name_H-M   'P 1'
_cell_length_a   8.47963274
_cell_length_b   8.49126867
_cell_length_c   9.05819479
_cell_angle_alpha   90.00000138
_cell_angle_beta   89.88773779
_cell_angle_gamma   120.04540895
_symmetry_Int_Tables_number   1
_chemical_formula_structural   Hf6Al24Fe7Co
_chemical_formula_sum   'Hf6 Al24 Fe7 Co1'
_cell_volume   564.57533166
_cell_formula_units_Z   1
loop_
 _symmetry_equiv_pos_site_id
 _symmetry_equiv_pos_as_xyz
  1  'x, y, z'
loop_
 _atom_site_type_symbol
 _atom_site_label
 _atom_site_symmetry_multiplicity
 _atom_site_fract_x
 _atom_site_fract_y
 _atom_site_fract_z
 _atom_site_occupancy
  Hf  Hf0  1  0.801706  0.196656  0.749620  1
  Hf  Hf1  1  0.198294  0.803344  0.250380  1
  Hf  Hf2  1  0.395926  0.197963  0.749869  1
  Hf  Hf3  1  0.604074  0.802037  0.250131  1
  Hf  Hf4  1  0.801706  0.605049  0.749620  1
  Hf  Hf5  1  0.198294  0.394951  0.250380  1
  Al  Al6  1  0.665862  0.332930  0.976357  1
  Al  Al7  1  0.334138  0.667070  0.023643  1
  Al  Al8  1  0.333257  0.666629  0.476528  1
  Al  Al9  1  0.666743  0.333371  0.523472  1
  Al  Al10  1  0.838700  0.161896  0.425153  1
  Al  Al11  1  0.161300  0.838104  0.574847  1
  Al  Al12  1  0.323179  0.161589  0.425247  1
  Al  Al13  1  0.162115  0.839277  0.924764  1
  Al  Al14  1  0.676821  0.838411  0.574753  1
  Al  Al15  1  0.837885  0.160723  0.075236  1
  Al  Al16  1  0.838700  0.676802  0.425153  1
  Al  Al17  1  0.676777  0.838389  0.925032  1
  Al  Al18  1  0.161300  0.323198  0.574847  1
  Al  Al19  1  0.323223  0.161611  0.074968  1
  Al  Al20  1  0.162115  0.322839  0.924764  1
  Al  Al21  1  0.837885  0.677161  0.075236  1
  Al  Al22  1  0.443851  0.556080  0.750109  1
  Al  Al23  1  0.556149  0.443920  0.249891  1
  Al  Al24  1  0.112069  0.556034  0.749810  1
  Al  Al25  1  0.887931  0.443966  0.250190  1
  Al  Al26  1  0.443851  0.887769  0.750109  1
  Al  Al27  1  0.556149  0.112231  0.249891  1
  Al  Al28  1  0.999888  0.999944  0.749878  1
  Al  Al29  1  0.000112  0.000056  0.250122  1
  Fe  Fe30  1  0.500000  0.500000  0.000000  1
  Fe  Fe31  1  0.500000  0.500000  0.500000  1
  Fe  Fe32  1  0.500000  0.000000  0.000000  1
  Fe  Fe33  1  0.000000  0.500000  0.500000  1
  Fe  Fe34  1  0.500000  0.000000  0.500000  1
  Fe  Fe35  1  0.000000  0.000000  0.000000  1
  Fe  Fe36  1  0.000000  0.000000  0.500000  1
  Co  Co37  1  0.000000  0.500000  0.000000  1
