# generated using pymatgen
data_Rb4TiSi3O10
_symmetry_space_group_name_H-M   'P 1'
_cell_length_a   6.73926452
_cell_length_b   6.73926435
_cell_length_c   14.89811600
_cell_angle_alpha   89.72697263
_cell_angle_beta   89.72697264
_cell_angle_gamma   78.70989918
_symmetry_Int_Tables_number   1
_chemical_formula_structural   Rb4TiSi3O10
_chemical_formula_sum   'Rb8 Ti2 Si6 O20'
_cell_volume   663.53138036
_cell_formula_units_Z   2
loop_
 _symmetry_equiv_pos_site_id
 _symmetry_equiv_pos_as_xyz
  1  'x, y, z'
loop_
 _atom_site_type_symbol
 _atom_site_label
 _atom_site_symmetry_multiplicity
 _atom_site_fract_x
 _atom_site_fract_y
 _atom_site_fract_z
 _atom_site_occupancy
  Rb  Rb0  1  0.058375  0.280321  0.421927  1
  Rb  Rb1  1  0.723317  0.942769  0.093830  1
  Rb  Rb2  1  0.932441  0.731260  0.580886  1
  Rb  Rb3  1  0.271190  0.058601  0.917066  1
  Rb  Rb4  1  0.286413  0.539914  0.092673  1
  Rb  Rb5  1  0.452273  0.700239  0.403847  1
  Rb  Rb6  1  0.707733  0.472982  0.898232  1
  Rb  Rb7  1  0.544413  0.294552  0.592367  1
  Ti  Ti8  1  0.804690  0.432106  0.191591  1
  Ti  Ti9  1  0.802049  0.947047  0.802258  1
  Si  Si10  1  0.069851  0.219264  0.691931  1
  Si  Si11  1  0.214702  0.036107  0.198167  1
  Si  Si12  1  0.932360  0.808259  0.312915  1
  Si  Si13  1  0.425132  0.823205  0.679500  1
  Si  Si14  1  0.214198  0.553133  0.807795  1
  Si  Si15  1  0.548533  0.175631  0.316166  1
  O  O16  1  0.988882  0.703117  0.796727  1
  O  O17  1  0.485827  0.707434  0.588173  1
  O  O18  1  0.270504  0.482332  0.908215  1
  O  O19  1  0.473141  0.289339  0.406510  1
  O  O20  1  0.761840  0.506729  0.081498  1
  O  O21  1  0.698803  0.981953  0.908132  1
  O  O22  1  0.954137  0.315730  0.604908  1
  O  O23  1  0.304917  0.983917  0.100309  1
  O  O24  1  0.090274  0.858970  0.232949  1
  O  O25  1  0.921300  0.169718  0.776062  1
  O  O26  1  0.801592  0.659413  0.261035  1
  O  O27  1  0.386585  0.038198  0.277969  1
  O  O28  1  0.219285  0.360019  0.737867  1
  O  O29  1  0.606461  0.937997  0.715862  1
  O  O30  1  0.585045  0.320316  0.228864  1
  O  O31  1  0.384470  0.678510  0.766503  1
  O  O32  1  0.053758  0.256310  0.204630  1
  O  O33  1  0.769165  0.021223  0.332311  1
  O  O34  1  0.218309  0.999570  0.668048  1
  O  O35  1  0.038034  0.713814  0.402277  1
