# generated using pymatgen
data_Ho20Cd3Ir2Pd3
_symmetry_space_group_name_H-M   'P 1'
_cell_length_a   9.52593700
_cell_length_b   9.52593687
_cell_length_c   9.48043600
_cell_angle_alpha   90.00000000
_cell_angle_beta   90.00000000
_cell_angle_gamma   120.00000392
_symmetry_Int_Tables_number   1
_chemical_formula_structural   Ho20Cd3Ir2Pd3
_chemical_formula_sum   'Ho20 Cd3 Ir2 Pd3'
_cell_volume   745.03097548
_cell_formula_units_Z   1
loop_
 _symmetry_equiv_pos_site_id
 _symmetry_equiv_pos_as_xyz
  1  'x, y, z'
loop_
 _atom_site_type_symbol
 _atom_site_label
 _atom_site_symmetry_multiplicity
 _atom_site_fract_x
 _atom_site_fract_y
 _atom_site_fract_z
 _atom_site_occupancy
  Ho  Ho0  1  0.000000  0.000000  0.445534  1
  Ho  Ho1  1  0.000000  0.000000  0.054466  1
  Ho  Ho2  1  0.208629  0.791371  0.441847  1
  Ho  Ho3  1  0.208629  0.417258  0.441847  1
  Ho  Ho4  1  0.582742  0.791371  0.441847  1
  Ho  Ho5  1  0.792941  0.207059  0.555730  1
  Ho  Ho6  1  0.792941  0.585881  0.555730  1
  Ho  Ho7  1  0.414119  0.207059  0.555730  1
  Ho  Ho8  1  0.792941  0.207059  0.944270  1
  Ho  Ho9  1  0.792941  0.585881  0.944270  1
  Ho  Ho10  1  0.414119  0.207059  0.944270  1
  Ho  Ho11  1  0.208629  0.791371  0.058153  1
  Ho  Ho12  1  0.208629  0.417258  0.058153  1
  Ho  Ho13  1  0.582742  0.791371  0.058153  1
  Ho  Ho14  1  0.540846  0.459154  0.250000  1
  Ho  Ho15  1  0.540846  0.081689  0.250000  1
  Ho  Ho16  1  0.918311  0.459154  0.250000  1
  Ho  Ho17  1  0.458564  0.541436  0.750000  1
  Ho  Ho18  1  0.458564  0.917129  0.750000  1
  Ho  Ho19  1  0.082871  0.541436  0.750000  1
  Cd  Cd20  1  0.108191  0.891809  0.750000  1
  Cd  Cd21  1  0.108191  0.216380  0.750000  1
  Cd  Cd22  1  0.783620  0.891809  0.750000  1
  Ir  Ir23  1  0.333333  0.666667  0.250000  1
  Ir  Ir24  1  0.666667  0.333333  0.750000  1
  Pd  Pd25  1  0.866776  0.133224  0.250000  1
  Pd  Pd26  1  0.866776  0.733554  0.250000  1
  Pd  Pd27  1  0.266446  0.133224  0.250000  1
