# generated using pymatgen
data_DySc4Bi2Te
_symmetry_space_group_name_H-M   'P 1'
_cell_length_a   7.79403900
_cell_length_b   8.99121900
_cell_length_c   11.43845900
_cell_angle_alpha   90.00000000
_cell_angle_beta   90.00000000
_cell_angle_gamma   90.00000000
_symmetry_Int_Tables_number   1
_chemical_formula_structural   DySc4Bi2Te
_chemical_formula_sum   'Dy4 Sc16 Bi8 Te4'
_cell_volume   801.58331800
_cell_formula_units_Z   4
loop_
 _symmetry_equiv_pos_site_id
 _symmetry_equiv_pos_as_xyz
  1  'x, y, z'
loop_
 _atom_site_type_symbol
 _atom_site_label
 _atom_site_symmetry_multiplicity
 _atom_site_fract_x
 _atom_site_fract_y
 _atom_site_fract_z
 _atom_site_occupancy
  Dy  Dy0  1  0.321970  0.250000  0.217432  1
  Dy  Dy1  1  0.821970  0.250000  0.282568  1
  Dy  Dy2  1  0.678030  0.750000  0.782568  1
  Dy  Dy3  1  0.178030  0.750000  0.717432  1
  Sc  Sc4  1  0.348968  0.750000  0.218294  1
  Sc  Sc5  1  0.848968  0.750000  0.281706  1
  Sc  Sc6  1  0.651032  0.250000  0.781706  1
  Sc  Sc7  1  0.151032  0.250000  0.718294  1
  Sc  Sc8  1  0.688505  0.564477  0.060194  1
  Sc  Sc9  1  0.188505  0.935523  0.439806  1
  Sc  Sc10  1  0.311495  0.064477  0.939806  1
  Sc  Sc11  1  0.811495  0.435523  0.560194  1
  Sc  Sc12  1  0.311495  0.435523  0.939806  1
  Sc  Sc13  1  0.811495  0.064477  0.560194  1
  Sc  Sc14  1  0.688505  0.935523  0.060194  1
  Sc  Sc15  1  0.188505  0.564477  0.439806  1
  Sc  Sc16  1  0.482586  0.250000  0.488612  1
  Sc  Sc17  1  0.982586  0.250000  0.011388  1
  Sc  Sc18  1  0.517414  0.750000  0.511388  1
  Sc  Sc19  1  0.017414  0.750000  0.988612  1
  Bi  Bi20  1  0.566638  0.989432  0.328144  1
  Bi  Bi21  1  0.066638  0.510568  0.171856  1
  Bi  Bi22  1  0.433362  0.489432  0.671856  1
  Bi  Bi23  1  0.933362  0.010568  0.828144  1
  Bi  Bi24  1  0.433362  0.010568  0.671856  1
  Bi  Bi25  1  0.933362  0.489432  0.828144  1
  Bi  Bi26  1  0.566638  0.510568  0.328144  1
  Bi  Bi27  1  0.066638  0.989432  0.171856  1
  Te  Te28  1  0.400846  0.750000  0.966727  1
  Te  Te29  1  0.900846  0.750000  0.533273  1
  Te  Te30  1  0.599154  0.250000  0.033273  1
  Te  Te31  1  0.099154  0.250000  0.466727  1
