# generated using pymatgen
data_TmTh2(AlNi)3
_symmetry_space_group_name_H-M   'P 1'
_cell_length_a   6.95637300
_cell_length_b   7.05198858
_cell_length_c   3.99986800
_cell_angle_alpha   90.00000000
_cell_angle_beta   90.00000000
_cell_angle_gamma   119.55248264
_symmetry_Int_Tables_number   1
_chemical_formula_structural   TmTh2(AlNi)3
_chemical_formula_sum   'Tm1 Th2 Al3 Ni3'
_cell_volume   170.69137807
_cell_formula_units_Z   1
loop_
 _symmetry_equiv_pos_site_id
 _symmetry_equiv_pos_as_xyz
  1  'x, y, z'
loop_
 _atom_site_type_symbol
 _atom_site_label
 _atom_site_symmetry_multiplicity
 _atom_site_fract_x
 _atom_site_fract_y
 _atom_site_fract_z
 _atom_site_occupancy
  Tm  Tm0  1  0.416344  0.000000  0.500000  1
  Th  Th1  1  0.998014  0.419389  0.500000  1
  Th  Th2  1  0.578625  0.580611  0.500000  1
  Al  Al3  1  0.008568  0.775646  0.000000  1
  Al  Al4  1  0.232923  0.224354  0.000000  1
  Al  Al5  1  0.762316  0.000000  0.000000  1
  Ni  Ni6  1  0.334116  0.664386  0.000000  1
  Ni  Ni7  1  0.669731  0.335614  0.000000  1
  Ni  Ni8  1  0.999364  0.000000  0.500000  1
