# generated using pymatgen
data_CsRb5(TmI6)2
_symmetry_space_group_name_H-M   'P 1'
_cell_length_a   10.44770049
_cell_length_b   10.43998049
_cell_length_c   8.58493000
_cell_angle_alpha   90.00000000
_cell_angle_beta   90.00000000
_cell_angle_gamma   90.07913129
_symmetry_Int_Tables_number   1
_chemical_formula_structural   CsRb5(TmI6)2
_chemical_formula_sum   'Cs1 Rb5 Tm2 I12'
_cell_volume   936.38995278
_cell_formula_units_Z   1
loop_
 _symmetry_equiv_pos_site_id
 _symmetry_equiv_pos_as_xyz
  1  'x, y, z'
loop_
 _atom_site_type_symbol
 _atom_site_label
 _atom_site_symmetry_multiplicity
 _atom_site_fract_x
 _atom_site_fract_y
 _atom_site_fract_z
 _atom_site_occupancy
  Cs  Cs0  1  0.586792  0.766522  0.000000  1
  Rb  Rb1  1  0.999865  0.000326  0.500000  1
  Rb  Rb2  1  0.999979  0.000454  0.000000  1
  Rb  Rb3  1  0.233620  0.584546  0.500000  1
  Rb  Rb4  1  0.766178  0.414314  0.500000  1
  Rb  Rb5  1  0.414561  0.233884  0.000000  1
  Tm  Tm6  1  0.499873  0.001183  0.500000  1
  Tm  Tm7  1  0.999115  0.498484  0.000000  1
  I  I8  1  0.699156  0.059117  0.744274  1
  I  I9  1  0.301161  0.945605  0.746258  1
  I  I10  1  0.944432  0.697467  0.246787  1
  I  I11  1  0.055746  0.301593  0.247820  1
  I  I12  1  0.301161  0.945605  0.253742  1
  I  I13  1  0.699156  0.059117  0.255726  1
  I  I14  1  0.055746  0.301593  0.752180  1
  I  I15  1  0.944432  0.697467  0.753213  1
  I  I16  1  0.566836  0.720038  0.500000  1
  I  I17  1  0.432352  0.281729  0.500000  1
  I  I18  1  0.278898  0.565171  0.000000  1
  I  I19  1  0.720941  0.425785  0.000000  1
