# generated using pymatgen
data_HoTm4Fe3(Co4P3)4
_symmetry_space_group_name_H-M   'P 1'
_cell_length_a   11.95119500
_cell_length_b   11.95119707
_cell_length_c   3.65258200
_cell_angle_alpha   90.00000000
_cell_angle_beta   90.00000000
_cell_angle_gamma   120.00000257
_symmetry_Int_Tables_number   1
_chemical_formula_structural   HoTm4Fe3(Co4P3)4
_chemical_formula_sum   'Ho1 Tm4 Fe3 Co16 P12'
_cell_volume   451.80739537
_cell_formula_units_Z   1
loop_
 _symmetry_equiv_pos_site_id
 _symmetry_equiv_pos_as_xyz
  1  'x, y, z'
loop_
 _atom_site_type_symbol
 _atom_site_label
 _atom_site_symmetry_multiplicity
 _atom_site_fract_x
 _atom_site_fract_y
 _atom_site_fract_z
 _atom_site_occupancy
  Ho  Ho0  1  0.333333  0.666667  0.000000  1
  Tm  Tm1  1  0.666667  0.333333  0.000000  1
  Tm  Tm2  1  0.812578  0.812532  0.500000  1
  Tm  Tm3  1  0.187468  0.000046  0.500000  1
  Tm  Tm4  1  0.999954  0.187422  0.500000  1
  Fe  Fe5  1  0.446694  0.446679  0.000000  1
  Fe  Fe6  1  0.553321  0.000015  0.000000  1
  Fe  Fe7  1  0.999985  0.553306  0.000000  1
  Co  Co8  1  0.873513  0.356979  0.500000  1
  Co  Co9  1  0.643021  0.516534  0.500000  1
  Co  Co10  1  0.483466  0.126487  0.500000  1
  Co  Co11  1  0.357037  0.874003  0.500000  1
  Co  Co12  1  0.516966  0.642963  0.500000  1
  Co  Co13  1  0.125997  0.483034  0.500000  1
  Co  Co14  1  0.800432  0.177910  0.000000  1
  Co  Co15  1  0.822090  0.622522  0.000000  1
  Co  Co16  1  0.377478  0.199568  0.000000  1
  Co  Co17  1  0.177778  0.800598  0.000000  1
  Co  Co18  1  0.622819  0.822222  0.000000  1
  Co  Co19  1  0.199402  0.377181  0.000000  1
  Co  Co20  1  0.283262  0.283127  0.500000  1
  Co  Co21  1  0.716873  0.000135  0.500000  1
  Co  Co22  1  0.999865  0.716738  0.500000  1
  Co  Co23  1  0.000000  0.000000  0.000000  1
  P  P24  1  0.684349  0.165241  0.500000  1
  P  P25  1  0.834759  0.519109  0.500000  1
  P  P26  1  0.480891  0.315651  0.500000  1
  P  P27  1  0.164710  0.684387  0.500000  1
  P  P28  1  0.519677  0.835290  0.500000  1
  P  P29  1  0.315613  0.480323  0.500000  1
  P  P30  1  0.180067  0.180029  0.000000  1
  P  P31  1  0.819971  0.000038  0.000000  1
  P  P32  1  0.999962  0.819933  0.000000  1
  P  P33  1  0.632388  0.632442  0.000000  1
  P  P34  1  0.367558  0.999946  0.000000  1
  P  P35  1  0.000054  0.367612  0.000000  1
