# generated using pymatgen
data_Ho5RuPb2
_symmetry_space_group_name_H-M   'P 1'
_cell_length_a   7.86471100
_cell_length_b   9.06259900
_cell_length_c   12.23966800
_cell_angle_alpha   90.00000000
_cell_angle_beta   90.00000000
_cell_angle_gamma   90.00000000
_symmetry_Int_Tables_number   1
_chemical_formula_structural   Ho5RuPb2
_chemical_formula_sum   'Ho20 Ru4 Pb8'
_cell_volume   872.37893461
_cell_formula_units_Z   4
loop_
 _symmetry_equiv_pos_site_id
 _symmetry_equiv_pos_as_xyz
  1  'x, y, z'
loop_
 _atom_site_type_symbol
 _atom_site_label
 _atom_site_symmetry_multiplicity
 _atom_site_fract_x
 _atom_site_fract_y
 _atom_site_fract_z
 _atom_site_occupancy
  Ho  Ho0  1  0.845219  0.750000  0.788484  1
  Ho  Ho1  1  0.154781  0.250000  0.211516  1
  Ho  Ho2  1  0.345219  0.250000  0.711516  1
  Ho  Ho3  1  0.654781  0.750000  0.288484  1
  Ho  Ho4  1  0.377900  0.750000  0.694137  1
  Ho  Ho5  1  0.622100  0.250000  0.305863  1
  Ho  Ho6  1  0.877900  0.250000  0.805863  1
  Ho  Ho7  1  0.122100  0.750000  0.194137  1
  Ho  Ho8  1  0.954294  0.750000  0.503304  1
  Ho  Ho9  1  0.045706  0.250000  0.496696  1
  Ho  Ho10  1  0.454294  0.250000  0.996696  1
  Ho  Ho11  1  0.545706  0.750000  0.003304  1
  Ho  Ho12  1  0.675977  0.037603  0.568940  1
  Ho  Ho13  1  0.324023  0.962397  0.431060  1
  Ho  Ho14  1  0.175977  0.962397  0.931060  1
  Ho  Ho15  1  0.324023  0.537603  0.431060  1
  Ho  Ho16  1  0.824023  0.037603  0.068940  1
  Ho  Ho17  1  0.675977  0.462397  0.568940  1
  Ho  Ho18  1  0.824023  0.462397  0.068940  1
  Ho  Ho19  1  0.175977  0.537603  0.931060  1
  Ru  Ru20  1  0.574968  0.750000  0.508613  1
  Ru  Ru21  1  0.425032  0.250000  0.491387  1
  Ru  Ru22  1  0.074968  0.250000  0.991387  1
  Ru  Ru23  1  0.925032  0.750000  0.008613  1
  Pb  Pb24  1  0.571573  0.494645  0.828950  1
  Pb  Pb25  1  0.428427  0.505355  0.171050  1
  Pb  Pb26  1  0.071573  0.505355  0.671050  1
  Pb  Pb27  1  0.428427  0.994645  0.171050  1
  Pb  Pb28  1  0.928427  0.494645  0.328950  1
  Pb  Pb29  1  0.571573  0.005355  0.828950  1
  Pb  Pb30  1  0.928427  0.005355  0.328950  1
  Pb  Pb31  1  0.071573  0.994645  0.671050  1
