# generated using pymatgen
data_Th2HgPdRh
_symmetry_space_group_name_H-M   'P 1'
_cell_length_a   7.88503100
_cell_length_b   7.88453800
_cell_length_c   3.80859700
_cell_angle_alpha   90.00000000
_cell_angle_beta   90.00000000
_cell_angle_gamma   90.00000000
_symmetry_Int_Tables_number   1
_chemical_formula_structural   Th2HgPdRh
_chemical_formula_sum   'Th4 Hg2 Pd2 Rh2'
_cell_volume   236.77981489
_cell_formula_units_Z   2
loop_
 _symmetry_equiv_pos_site_id
 _symmetry_equiv_pos_as_xyz
  1  'x, y, z'
loop_
 _atom_site_type_symbol
 _atom_site_label
 _atom_site_symmetry_multiplicity
 _atom_site_fract_x
 _atom_site_fract_y
 _atom_site_fract_z
 _atom_site_occupancy
  Th  Th0  1  0.327194  0.160681  0.500001  1
  Th  Th1  1  0.827194  0.339320  0.500001  1
  Th  Th2  1  0.172036  0.682695  0.500001  1
  Th  Th3  1  0.672036  0.817306  0.500001  1
  Hg  Hg4  1  0.997730  0.002170  0.000000  1
  Hg  Hg5  1  0.497730  0.497830  0.000000  1
  Pd  Pd6  1  0.631766  0.129192  0.000000  1
  Pd  Pd7  1  0.131768  0.370809  0.000000  1
  Rh  Rh8  1  0.871274  0.629186  0.000000  1
  Rh  Rh9  1  0.371274  0.870813  0.000000  1
