# generated using pymatgen
data_Hf9Nb3(Ga2Sn)4
_symmetry_space_group_name_H-M   'P 1'
_cell_length_a   5.64002121
_cell_length_b   8.72425332
_cell_length_c   9.33943800
_cell_angle_alpha   90.00000000
_cell_angle_beta   90.00000000
_cell_angle_gamma   90.03121166
_symmetry_Int_Tables_number   1
_chemical_formula_structural   Hf9Nb3(Ga2Sn)4
_chemical_formula_sum   'Hf9 Nb3 Ga8 Sn4'
_cell_volume   459.54673372
_cell_formula_units_Z   1
loop_
 _symmetry_equiv_pos_site_id
 _symmetry_equiv_pos_as_xyz
  1  'x, y, z'
loop_
 _atom_site_type_symbol
 _atom_site_label
 _atom_site_symmetry_multiplicity
 _atom_site_fract_x
 _atom_site_fract_y
 _atom_site_fract_z
 _atom_site_occupancy
  Hf  Hf0  1  0.500000  0.750000  0.120884  1
  Hf  Hf1  1  0.752088  0.467798  0.611923  1
  Hf  Hf2  1  0.250059  0.530723  0.388654  1
  Hf  Hf3  1  0.749941  0.969277  0.388654  1
  Hf  Hf4  1  0.247912  0.032202  0.611923  1
  Hf  Hf5  1  0.749345  0.374037  0.196148  1
  Hf  Hf6  1  0.250937  0.625180  0.802868  1
  Hf  Hf7  1  0.749063  0.874820  0.802868  1
  Hf  Hf8  1  0.250655  0.125963  0.196148  1
  Nb  Nb9  1  0.000000  0.750000  0.119683  1
  Nb  Nb10  1  0.500000  0.250000  0.880743  1
  Nb  Nb11  1  0.000000  0.250000  0.879437  1
  Ga  Ga12  1  0.000000  0.750000  0.572313  1
  Ga  Ga13  1  0.500000  0.250000  0.428940  1
  Ga  Ga14  1  0.000000  0.250000  0.427953  1
  Ga  Ga15  1  0.500000  0.750000  0.570088  1
  Ga  Ga16  1  0.748870  0.138822  0.648234  1
  Ga  Ga17  1  0.245473  0.862424  0.353629  1
  Ga  Ga18  1  0.754527  0.637576  0.353629  1
  Ga  Ga19  1  0.251130  0.361178  0.648234  1
  Sn  Sn20  1  0.752740  0.051657  0.082237  1
  Sn  Sn21  1  0.247651  0.950995  0.916286  1
  Sn  Sn22  1  0.752349  0.549005  0.916286  1
  Sn  Sn23  1  0.247260  0.448343  0.082237  1
