# generated using pymatgen
data_Y4TmIr2Rh
_symmetry_space_group_name_H-M   'P 1'
_cell_length_a   10.88531400
_cell_length_b   10.88531400
_cell_length_c   6.38263100
_cell_angle_alpha   90.00000000
_cell_angle_beta   90.00000000
_cell_angle_gamma   90.00000000
_symmetry_Int_Tables_number   1
_chemical_formula_structural   Y4TmIr2Rh
_chemical_formula_sum   'Y16 Tm4 Ir8 Rh4'
_cell_volume   756.27833576
_cell_formula_units_Z   4
loop_
 _symmetry_equiv_pos_site_id
 _symmetry_equiv_pos_as_xyz
  1  'x, y, z'
loop_
 _atom_site_type_symbol
 _atom_site_label
 _atom_site_symmetry_multiplicity
 _atom_site_fract_x
 _atom_site_fract_y
 _atom_site_fract_z
 _atom_site_occupancy
  Y  Y0  1  0.289301  0.088590  0.378979  1
  Y  Y1  1  0.289301  0.911410  0.878979  1
  Y  Y2  1  0.710699  0.088590  0.878979  1
  Y  Y3  1  0.710699  0.911410  0.378979  1
  Y  Y4  1  0.588590  0.789301  0.878979  1
  Y  Y5  1  0.588590  0.210699  0.378979  1
  Y  Y6  1  0.411410  0.789301  0.378979  1
  Y  Y7  1  0.411410  0.210699  0.878979  1
  Y  Y8  1  0.210699  0.411410  0.621021  1
  Y  Y9  1  0.210699  0.588590  0.121021  1
  Y  Y10  1  0.789301  0.411410  0.121021  1
  Y  Y11  1  0.789301  0.588590  0.621021  1
  Y  Y12  1  0.911410  0.710699  0.121021  1
  Y  Y13  1  0.911410  0.289301  0.621021  1
  Y  Y14  1  0.088590  0.710699  0.621021  1
  Y  Y15  1  0.088590  0.289301  0.121021  1
  Tm  Tm16  1  0.000000  0.000000  0.500000  1
  Tm  Tm17  1  0.000000  0.000000  0.000000  1
  Tm  Tm18  1  0.500000  0.500000  0.000000  1
  Tm  Tm19  1  0.500000  0.500000  0.500000  1
  Ir  Ir20  1  0.848265  0.151735  0.250000  1
  Ir  Ir21  1  0.848265  0.848265  0.750000  1
  Ir  Ir22  1  0.151735  0.151735  0.750000  1
  Ir  Ir23  1  0.151735  0.848265  0.250000  1
  Ir  Ir24  1  0.651735  0.348265  0.750000  1
  Ir  Ir25  1  0.651735  0.651735  0.250000  1
  Ir  Ir26  1  0.348265  0.348265  0.250000  1
  Ir  Ir27  1  0.348265  0.651735  0.750000  1
  Rh  Rh28  1  0.500000  0.000000  0.124184  1
  Rh  Rh29  1  0.500000  0.000000  0.624184  1
  Rh  Rh30  1  0.000000  0.500000  0.875816  1
  Rh  Rh31  1  0.000000  0.500000  0.375816  1
