# generated using pymatgen
data_Th10AlSn2Bi5
_symmetry_space_group_name_H-M   'P 1'
_cell_length_a   9.75694870
_cell_length_b   9.76033671
_cell_length_c   6.57925436
_cell_angle_alpha   89.92638205
_cell_angle_beta   90.03682007
_cell_angle_gamma   120.01148311
_symmetry_Int_Tables_number   1
_chemical_formula_structural   Th10AlSn2Bi5
_chemical_formula_sum   'Th10 Al1 Sn2 Bi5'
_cell_volume   542.54467753
_cell_formula_units_Z   1
loop_
 _symmetry_equiv_pos_site_id
 _symmetry_equiv_pos_as_xyz
  1  'x, y, z'
loop_
 _atom_site_type_symbol
 _atom_site_label
 _atom_site_symmetry_multiplicity
 _atom_site_fract_x
 _atom_site_fract_y
 _atom_site_fract_z
 _atom_site_occupancy
  Th  Th0  1  0.000000  0.725808  0.757673  1
  Th  Th1  1  0.272945  0.272780  0.757629  1
  Th  Th2  1  0.330743  0.666439  0.498451  1
  Th  Th3  1  0.669257  0.335696  0.498451  1
  Th  Th4  1  0.729177  0.725382  0.242524  1
  Th  Th5  1  0.727055  0.999835  0.757629  1
  Th  Th6  1  0.000000  0.275565  0.242459  1
  Th  Th7  1  0.270823  0.996205  0.242524  1
  Th  Th8  1  0.331060  0.666314  0.001464  1
  Th  Th9  1  0.668940  0.335253  0.001464  1
  Al  Al10  1  0.000000  0.000220  0.000098  1
  Sn  Sn11  1  0.000000  0.617596  0.251283  1
  Sn  Sn12  1  0.000000  0.000453  0.500139  1
  Bi  Bi13  1  0.616400  0.616453  0.748293  1
  Bi  Bi14  1  0.000000  0.383655  0.747967  1
  Bi  Bi15  1  0.383600  0.000052  0.748293  1
  Bi  Bi16  1  0.617053  0.999674  0.251829  1
  Bi  Bi17  1  0.382947  0.382621  0.251829  1
