# generated using pymatgen
data_Gd6ReO12
_symmetry_space_group_name_H-M   'P 1'
_cell_length_a   6.57246210
_cell_length_b   6.57246287
_cell_length_c   6.57246251
_cell_angle_alpha   98.67580761
_cell_angle_beta   98.67581802
_cell_angle_gamma   98.67581319
_symmetry_Int_Tables_number   1
_chemical_formula_structural   Gd6ReO12
_chemical_formula_sum   'Gd6 Re1 O12'
_cell_volume   273.03962358
_cell_formula_units_Z   1
loop_
 _symmetry_equiv_pos_site_id
 _symmetry_equiv_pos_as_xyz
  1  'x, y, z'
loop_
 _atom_site_type_symbol
 _atom_site_label
 _atom_site_symmetry_multiplicity
 _atom_site_fract_x
 _atom_site_fract_y
 _atom_site_fract_z
 _atom_site_occupancy
  Gd  Gd0  1  0.143137  0.310727  0.609102  1
  Gd  Gd1  1  0.390898  0.856863  0.689273  1
  Gd  Gd2  1  0.689273  0.390898  0.856863  1
  Gd  Gd3  1  0.310727  0.609102  0.143137  1
  Gd  Gd4  1  0.609102  0.143137  0.310727  1
  Gd  Gd5  1  0.856863  0.689273  0.390898  1
  Re  Re6  1  0.000000  0.000000  0.000000  1
  O  O7  1  0.071530  0.292127  0.965079  1
  O  O8  1  0.034921  0.928470  0.707873  1
  O  O9  1  0.408082  0.564662  0.822888  1
  O  O10  1  0.177112  0.591918  0.435338  1
  O  O11  1  0.707873  0.034921  0.928470  1
  O  O12  1  0.435338  0.177112  0.591918  1
  O  O13  1  0.564662  0.822888  0.408082  1
  O  O14  1  0.292127  0.965079  0.071530  1
  O  O15  1  0.822888  0.408082  0.564662  1
  O  O16  1  0.591918  0.435338  0.177112  1
  O  O17  1  0.965079  0.071530  0.292127  1
  O  O18  1  0.928470  0.707873  0.034921  1
