# generated using pymatgen
data_YTmFe12P7
_symmetry_space_group_name_H-M   'P 1'
_cell_length_a   8.91327200
_cell_length_b   8.91327201
_cell_length_c   3.63237300
_cell_angle_alpha   90.00000000
_cell_angle_beta   90.00000000
_cell_angle_gamma   119.99999994
_symmetry_Int_Tables_number   1
_chemical_formula_structural   YTmFe12P7
_chemical_formula_sum   'Y1 Tm1 Fe12 P7'
_cell_volume   249.91676527
_cell_formula_units_Z   1
loop_
 _symmetry_equiv_pos_site_id
 _symmetry_equiv_pos_as_xyz
  1  'x, y, z'
loop_
 _atom_site_type_symbol
 _atom_site_label
 _atom_site_symmetry_multiplicity
 _atom_site_fract_x
 _atom_site_fract_y
 _atom_site_fract_z
 _atom_site_occupancy
  Y  Y0  1  0.000000  0.000000  0.500000  1
  Tm  Tm1  1  0.333333  0.666667  0.000000  1
  Fe  Fe2  1  0.721949  0.963543  0.000000  1
  Fe  Fe3  1  0.241595  0.278051  0.000000  1
  Fe  Fe4  1  0.036457  0.758405  0.000000  1
  Fe  Fe5  1  0.940045  0.453070  0.000000  1
  Fe  Fe6  1  0.513027  0.059955  0.000000  1
  Fe  Fe7  1  0.546930  0.486973  0.000000  1
  Fe  Fe8  1  0.099930  0.383400  0.500000  1
  Fe  Fe9  1  0.283472  0.900070  0.500000  1
  Fe  Fe10  1  0.616600  0.716528  0.500000  1
  Fe  Fe11  1  0.761698  0.216690  0.500000  1
  Fe  Fe12  1  0.454991  0.238302  0.500000  1
  Fe  Fe13  1  0.783310  0.545009  0.500000  1
  P  P14  1  0.964724  0.221595  0.000000  1
  P  P15  1  0.256871  0.035276  0.000000  1
  P  P16  1  0.778405  0.743129  0.000000  1
  P  P17  1  0.068126  0.622922  0.500000  1
  P  P18  1  0.554796  0.931874  0.500000  1
  P  P19  1  0.377078  0.445204  0.500000  1
  P  P20  1  0.666667  0.333333  0.000000  1
