# generated using pymatgen
data_Y7Ho13Sn15Sb
_symmetry_space_group_name_H-M   'P 1'
_cell_length_a   8.05552069
_cell_length_b   8.15764235
_cell_length_c   15.40664660
_cell_angle_alpha   90.10025779
_cell_angle_beta   90.62514295
_cell_angle_gamma   89.94273147
_symmetry_Int_Tables_number   1
_chemical_formula_structural   Y7Ho13Sn15Sb
_chemical_formula_sum   'Y7 Ho13 Sn15 Sb1'
_cell_volume   1012.37094918
_cell_formula_units_Z   1
loop_
 _symmetry_equiv_pos_site_id
 _symmetry_equiv_pos_as_xyz
  1  'x, y, z'
loop_
 _atom_site_type_symbol
 _atom_site_label
 _atom_site_symmetry_multiplicity
 _atom_site_fract_x
 _atom_site_fract_y
 _atom_site_fract_z
 _atom_site_occupancy
  Y  Y0  1  0.020702  0.178344  0.597323  1
  Y  Y1  1  0.479280  0.677710  0.402789  1
  Y  Y2  1  0.971303  0.821248  0.099683  1
  Y  Y3  1  0.475359  0.675454  0.098459  1
  Y  Y4  1  0.979158  0.821663  0.402724  1
  Y  Y5  1  0.520722  0.321509  0.597326  1
  Y  Y6  1  0.024193  0.179345  0.900974  1
  Ho  Ho7  1  0.371565  0.838623  0.879086  1
  Ho  Ho8  1  0.867393  0.662969  0.623149  1
  Ho  Ho9  1  0.632767  0.162603  0.376739  1
  Ho  Ho10  1  0.129023  0.339206  0.121778  1
  Ho  Ho11  1  0.629521  0.161575  0.120780  1
  Ho  Ho12  1  0.133343  0.337397  0.376748  1
  Ho  Ho13  1  0.366996  0.837734  0.623089  1
  Ho  Ho14  1  0.869967  0.661836  0.878027  1
  Ho  Ho15  1  0.528019  0.325960  0.899837  1
  Ho  Ho16  1  0.199544  0.502900  0.749827  1
  Ho  Ho17  1  0.699254  0.997249  0.750501  1
  Ho  Ho18  1  0.800564  0.496826  0.250331  1
  Ho  Ho19  1  0.300448  0.002397  0.251450  1
  Sn  Sn20  1  0.794488  0.461582  0.458374  1
  Sn  Sn21  1  0.705751  0.962025  0.541533  1
  Sn  Sn22  1  0.211853  0.534764  0.957516  1
  Sn  Sn23  1  0.713751  0.965867  0.957225  1
  Sn  Sn24  1  0.205597  0.538066  0.541533  1
  Sn  Sn25  1  0.294796  0.038123  0.458489  1
  Sn  Sn26  1  0.789867  0.463284  0.041807  1
  Sn  Sn27  1  0.565859  0.621064  0.750479  1
  Sn  Sn28  1  0.066692  0.880046  0.751619  1
  Sn  Sn29  1  0.434220  0.379037  0.248423  1
  Sn  Sn30  1  0.933951  0.120213  0.248460  1
  Sn  Sn31  1  0.333236  0.148076  0.750277  1
  Sn  Sn32  1  0.832112  0.352563  0.749396  1
  Sn  Sn33  1  0.666172  0.852126  0.250185  1
  Sn  Sn34  1  0.167452  0.647715  0.250311  1
  Sb  Sb35  1  0.285082  0.032904  0.043755  1
