# generated using pymatgen
data_BaAg9Sn4
_symmetry_space_group_name_H-M   'P 1'
_cell_length_a   9.68939505
_cell_length_b   9.68939424
_cell_length_c   9.68939460
_cell_angle_alpha   121.08877183
_cell_angle_beta   121.08877375
_cell_angle_gamma   88.12431679
_symmetry_Int_Tables_number   1
_chemical_formula_structural   BaAg9Sn4
_chemical_formula_sum   'Ba2 Ag18 Sn8'
_cell_volume   632.28922711
_cell_formula_units_Z   2
loop_
 _symmetry_equiv_pos_site_id
 _symmetry_equiv_pos_as_xyz
  1  'x, y, z'
loop_
 _atom_site_type_symbol
 _atom_site_label
 _atom_site_symmetry_multiplicity
 _atom_site_fract_x
 _atom_site_fract_y
 _atom_site_fract_z
 _atom_site_occupancy
  Ba  Ba0  1  0.250000  0.250000  0.000000  1
  Ba  Ba1  1  0.750000  0.750000  0.000000  1
  Ag  Ag2  1  0.060996  0.560996  0.266744  1
  Ag  Ag3  1  0.705748  0.205748  0.266744  1
  Ag  Ag4  1  0.939004  0.439004  0.733256  1
  Ag  Ag5  1  0.439004  0.705748  0.500000  1
  Ag  Ag6  1  0.205748  0.939004  0.500000  1
  Ag  Ag7  1  0.560996  0.294252  0.500000  1
  Ag  Ag8  1  0.794252  0.060996  0.500000  1
  Ag  Ag9  1  0.294252  0.794252  0.733256  1
  Ag  Ag10  1  0.439495  0.297668  0.737163  1
  Ag  Ag11  1  0.797668  0.939495  0.737163  1
  Ag  Ag12  1  0.000000  0.500000  0.500000  1
  Ag  Ag13  1  0.500000  0.000000  0.500000  1
  Ag  Ag14  1  0.560505  0.702332  0.262837  1
  Ag  Ag15  1  0.702332  0.439495  0.141827  1
  Ag  Ag16  1  0.297668  0.560505  0.858173  1
  Ag  Ag17  1  0.939495  0.202332  0.141827  1
  Ag  Ag18  1  0.060505  0.797668  0.858173  1
  Ag  Ag19  1  0.202332  0.060505  0.262837  1
  Sn  Sn20  1  0.802944  0.302944  0.860603  1
  Sn  Sn21  1  0.557659  0.057659  0.860603  1
  Sn  Sn22  1  0.197056  0.697056  0.139397  1
  Sn  Sn23  1  0.697056  0.557659  0.500000  1
  Sn  Sn24  1  0.057659  0.197056  0.500000  1
  Sn  Sn25  1  0.302944  0.442341  0.500000  1
  Sn  Sn26  1  0.942341  0.802944  0.500000  1
  Sn  Sn27  1  0.442341  0.942341  0.139397  1
