# generated using pymatgen
data_Ho5P12Ru18Pt
_symmetry_space_group_name_H-M   'P 1'
_cell_length_a   12.56263052
_cell_length_b   12.47903000
_cell_length_c   3.97894600
_cell_angle_alpha   90.00000000
_cell_angle_beta   90.00000000
_cell_angle_gamma   119.78010452
_symmetry_Int_Tables_number   1
_chemical_formula_structural   Ho5P12Ru18Pt
_chemical_formula_sum   'Ho5 P12 Ru18 Pt1'
_cell_volume   541.39987307
_cell_formula_units_Z   1
loop_
 _symmetry_equiv_pos_site_id
 _symmetry_equiv_pos_as_xyz
  1  'x, y, z'
loop_
 _atom_site_type_symbol
 _atom_site_label
 _atom_site_symmetry_multiplicity
 _atom_site_fract_x
 _atom_site_fract_y
 _atom_site_fract_z
 _atom_site_occupancy
  Ho  Ho0  1  0.000000  0.182710  0.500000  1
  Ho  Ho1  1  0.816275  0.816619  0.500000  1
  Ho  Ho2  1  0.183725  0.000344  0.500000  1
  Ho  Ho3  1  0.663116  0.330587  0.000000  1
  Ho  Ho4  1  0.336884  0.667472  0.000000  1
  P  P5  1  0.000000  0.814777  0.000000  1
  P  P6  1  0.184055  0.184254  0.000000  1
  P  P7  1  0.815945  0.000199  0.000000  1
  P  P8  1  0.693106  0.172713  0.500000  1
  P  P9  1  0.819951  0.520140  0.500000  1
  P  P10  1  0.476063  0.305795  0.500000  1
  P  P11  1  0.180049  0.700189  0.500000  1
  P  P12  1  0.523937  0.829732  0.500000  1
  P  P13  1  0.306894  0.479607  0.500000  1
  P  P14  1  0.000000  0.364300  0.000000  1
  P  P15  1  0.627519  0.627560  0.000000  1
  P  P16  1  0.372481  0.000041  0.000000  1
  Ru  Ru17  1  0.445506  0.446027  0.000000  1
  Ru  Ru18  1  0.554494  0.000521  0.000000  1
  Ru  Ru19  1  0.000000  0.712776  0.500000  1
  Ru  Ru20  1  0.282163  0.283312  0.500000  1
  Ru  Ru21  1  0.717837  0.001149  0.500000  1
  Ru  Ru22  1  0.807078  0.185586  0.000000  1
  Ru  Ru23  1  0.815220  0.622235  0.000000  1
  Ru  Ru24  1  0.375508  0.191164  0.000000  1
  Ru  Ru25  1  0.184780  0.807015  0.000000  1
  Ru  Ru26  1  0.624492  0.815656  0.000000  1
  Ru  Ru27  1  0.192922  0.378508  0.000000  1
  Ru  Ru28  1  0.872705  0.367065  0.500000  1
  Ru  Ru29  1  0.631312  0.507975  0.500000  1
  Ru  Ru30  1  0.492414  0.127254  0.500000  1
  Ru  Ru31  1  0.368688  0.876663  0.500000  1
  Ru  Ru32  1  0.507586  0.634840  0.500000  1
  Ru  Ru33  1  0.127295  0.494360  0.500000  1
  Ru  Ru34  1  0.000000  0.999965  0.000000  1
  Pt  Pt35  1  0.000000  0.550889  0.000000  1
