# generated using pymatgen
data_BaUCuP3
_symmetry_space_group_name_H-M   'P 1'
_cell_length_a   4.08119000
_cell_length_b   7.09505872
_cell_length_c   10.13640200
_cell_angle_alpha   90.00000000
_cell_angle_beta   90.00000000
_cell_angle_gamma   73.28520093
_symmetry_Int_Tables_number   1
_chemical_formula_structural   BaUCuP3
_chemical_formula_sum   'Ba2 U2 Cu2 P6'
_cell_volume   281.11110114
_cell_formula_units_Z   2
loop_
 _symmetry_equiv_pos_site_id
 _symmetry_equiv_pos_as_xyz
  1  'x, y, z'
loop_
 _atom_site_type_symbol
 _atom_site_label
 _atom_site_symmetry_multiplicity
 _atom_site_fract_x
 _atom_site_fract_y
 _atom_site_fract_z
 _atom_site_occupancy
  Ba  Ba0  1  0.741521  0.516960  0.250000  1
  Ba  Ba1  1  0.258481  0.483040  0.750000  1
  U  U2  1  0.000000  0.000000  0.000000  1
  U  U3  1  0.000000  0.000000  0.500000  1
  Cu  Cu4  1  0.468420  0.063161  0.250000  1
  Cu  Cu5  1  0.531582  0.936839  0.750000  1
  P  P6  1  0.379368  0.241264  0.053879  1
  P  P7  1  0.059134  0.881734  0.250000  1
  P  P8  1  0.379368  0.241264  0.446121  1
  P  P9  1  0.620634  0.758736  0.553879  1
  P  P10  1  0.940868  0.118266  0.750000  1
  P  P11  1  0.620634  0.758736  0.946121  1
