# generated using pymatgen
data_Pr2As5PPd21
_symmetry_space_group_name_H-M   'P 1'
_cell_length_a   8.88702455
_cell_length_b   8.85547541
_cell_length_c   8.85547500
_cell_angle_alpha   60.23584740
_cell_angle_beta   59.88208546
_cell_angle_gamma   59.88207326
_symmetry_Int_Tables_number   1
_chemical_formula_structural   Pr2As5PPd21
_chemical_formula_sum   'Pr2 As5 P1 Pd21'
_cell_volume   492.78114329
_cell_formula_units_Z   1
loop_
 _symmetry_equiv_pos_site_id
 _symmetry_equiv_pos_as_xyz
  1  'x, y, z'
loop_
 _atom_site_type_symbol
 _atom_site_label
 _atom_site_symmetry_multiplicity
 _atom_site_fract_x
 _atom_site_fract_y
 _atom_site_fract_z
 _atom_site_occupancy
  Pr  Pr0  1  0.750811  0.749189  0.749189  1
  Pr  Pr1  1  0.250811  0.249189  0.249189  1
  As  As2  1  0.740694  0.739042  0.259306  1
  As  As3  1  0.260958  0.739042  0.259306  1
  As  As4  1  0.739765  0.260235  0.260235  1
  As  As5  1  0.260958  0.259306  0.739042  1
  As  As6  1  0.740694  0.259306  0.739042  1
  P  P7  1  0.261457  0.738543  0.738543  1
  Pd  Pd8  1  0.999623  0.000377  0.000377  1
  Pd  Pd9  1  0.614266  0.615823  0.155645  1
  Pd  Pd10  1  0.614266  0.155645  0.615823  1
  Pd  Pd11  1  0.157494  0.617847  0.617847  1
  Pd  Pd12  1  0.606813  0.617847  0.617847  1
  Pd  Pd13  1  0.382153  0.393187  0.842506  1
  Pd  Pd14  1  0.382153  0.842506  0.393187  1
  Pd  Pd15  1  0.844355  0.385734  0.385734  1
  Pd  Pd16  1  0.384177  0.385734  0.385734  1
  Pd  Pd17  1  0.999489  0.000511  0.350360  1
  Pd  Pd18  1  0.649640  0.000511  0.350360  1
  Pd  Pd19  1  0.000857  0.650405  0.347882  1
  Pd  Pd20  1  0.649640  0.350360  0.000511  1
  Pd  Pd21  1  0.999489  0.350360  0.000511  1
  Pd  Pd22  1  0.000857  0.347882  0.650405  1
  Pd  Pd23  1  0.344688  0.655312  0.991256  1
  Pd  Pd24  1  0.344688  0.991256  0.655312  1
  Pd  Pd25  1  0.349595  0.999143  0.999143  1
  Pd  Pd26  1  0.008744  0.991257  0.655312  1
  Pd  Pd27  1  0.008744  0.655312  0.991257  1
  Pd  Pd28  1  0.652118  0.999144  0.999144  1
