# generated using pymatgen
data_Zr16Ni4Mo2PtRh
_symmetry_space_group_name_H-M   'P 1'
_cell_length_a   8.77898588
_cell_length_b   8.77898500
_cell_length_c   8.73242380
_cell_angle_alpha   60.09407163
_cell_angle_beta   60.09408238
_cell_angle_gamma   60.25370955
_symmetry_Int_Tables_number   1
_chemical_formula_structural   Zr16Ni4Mo2PtRh
_chemical_formula_sum   'Zr16 Ni4 Mo2 Pt1 Rh1'
_cell_volume   477.47730696
_cell_formula_units_Z   1
loop_
 _symmetry_equiv_pos_site_id
 _symmetry_equiv_pos_as_xyz
  1  'x, y, z'
loop_
 _atom_site_type_symbol
 _atom_site_label
 _atom_site_symmetry_multiplicity
 _atom_site_fract_x
 _atom_site_fract_y
 _atom_site_fract_z
 _atom_site_occupancy
  Zr  Zr0  1  0.686217  0.104984  0.104978  1
  Zr  Zr1  1  0.104984  0.686217  0.104978  1
  Zr  Zr2  1  0.100880  0.100880  0.696615  1
  Zr  Zr3  1  0.102234  0.102234  0.101403  1
  Zr  Zr4  1  0.316654  0.316654  0.677473  1
  Zr  Zr5  1  0.686996  0.686996  0.312213  1
  Zr  Zr6  1  0.316903  0.691392  0.313949  1
  Zr  Zr7  1  0.690934  0.316964  0.676687  1
  Zr  Zr8  1  0.691392  0.316903  0.313949  1
  Zr  Zr9  1  0.316964  0.690934  0.676687  1
  Zr  Zr10  1  0.953577  0.953577  0.546511  1
  Zr  Zr11  1  0.547154  0.547154  0.953888  1
  Zr  Zr12  1  0.947952  0.550868  0.949475  1
  Zr  Zr13  1  0.550633  0.946750  0.552275  1
  Zr  Zr14  1  0.550868  0.947952  0.949475  1
  Zr  Zr15  1  0.946750  0.550633  0.552275  1
  Ni  Ni16  1  0.326397  0.886037  0.894330  1
  Ni  Ni17  1  0.886037  0.326397  0.894330  1
  Ni  Ni18  1  0.890894  0.890894  0.323030  1
  Ni  Ni19  1  0.890130  0.890130  0.895950  1
  Mo  Mo20  1  0.001537  0.331443  0.334529  1
  Mo  Mo21  1  0.331443  0.001537  0.334529  1
  Pt  Pt22  1  0.331450  0.331450  0.001263  1
  Rh  Rh23  1  0.331016  0.331016  0.339202  1
