# generated using pymatgen
data_Zn8Ni4Ir3Rh
_symmetry_space_group_name_H-M   'P 1'
_cell_length_a   5.84784000
_cell_length_b   5.85676300
_cell_length_c   6.15879600
_cell_angle_alpha   89.99994226
_cell_angle_beta   89.99996229
_cell_angle_gamma   89.99998042
_symmetry_Int_Tables_number   1
_chemical_formula_structural   Zn8Ni4Ir3Rh
_chemical_formula_sum   'Zn8 Ni4 Ir3 Rh1'
_cell_volume   210.93514743
_cell_formula_units_Z   1
loop_
 _symmetry_equiv_pos_site_id
 _symmetry_equiv_pos_as_xyz
  1  'x, y, z'
loop_
 _atom_site_type_symbol
 _atom_site_label
 _atom_site_symmetry_multiplicity
 _atom_site_fract_x
 _atom_site_fract_y
 _atom_site_fract_z
 _atom_site_occupancy
  Zn  Zn0  1  0.500490  0.500502  0.249026  1
  Zn  Zn1  1  0.500500  0.999503  0.249026  1
  Zn  Zn2  1  0.999508  0.500492  0.251773  1
  Zn  Zn3  1  0.999510  0.999505  0.251773  1
  Zn  Zn4  1  0.999507  0.500489  0.748228  1
  Zn  Zn5  1  0.999505  0.999512  0.748228  1
  Zn  Zn6  1  0.500498  0.500489  0.750974  1
  Zn  Zn7  1  0.500489  0.999504  0.750974  1
  Ni  Ni8  1  0.751295  0.250000  0.000000  1
  Ni  Ni9  1  0.248696  0.750000  0.000000  1
  Ni  Ni10  1  0.748699  0.249999  0.499978  1
  Ni  Ni11  1  0.251230  0.749999  0.500024  1
  Ir  Ir12  1  0.248583  0.249999  0.000002  1
  Ir  Ir13  1  0.751424  0.750000  0.999999  1
  Ir  Ir14  1  0.251436  0.250000  0.499997  1
  Rh  Rh15  1  0.748627  0.750002  0.500002  1
