# generated using pymatgen
data_MnV3Fe2B3
_symmetry_space_group_name_H-M   'P 1'
_cell_length_a   5.82255800
_cell_length_b   5.80149727
_cell_length_c   2.92852200
_cell_angle_alpha   90.00000000
_cell_angle_beta   90.00000000
_cell_angle_gamma   120.12017104
_symmetry_Int_Tables_number   1
_chemical_formula_structural   MnV3Fe2B3
_chemical_formula_sum   'Mn1 V3 Fe2 B3'
_cell_volume   85.56691347
_cell_formula_units_Z   1
loop_
 _symmetry_equiv_pos_site_id
 _symmetry_equiv_pos_as_xyz
  1  'x, y, z'
loop_
 _atom_site_type_symbol
 _atom_site_label
 _atom_site_symmetry_multiplicity
 _atom_site_fract_x
 _atom_site_fract_y
 _atom_site_fract_z
 _atom_site_occupancy
  Mn  Mn0  1  0.750461  0.000000  0.000000  1
  V  V1  1  0.412818  0.000000  0.500000  1
  V  V2  1  0.997083  0.408509  0.500000  1
  V  V3  1  0.588574  0.591491  0.500000  1
  Fe  Fe4  1  0.000024  0.750247  0.000000  1
  Fe  Fe5  1  0.249776  0.249753  0.000000  1
  B  B6  1  0.331074  0.664990  0.000000  1
  B  B7  1  0.666086  0.335010  0.000000  1
  B  B8  1  0.004105  0.000000  0.500000  1
