# generated using pymatgen
data_Pr17Sm3Si15As
_symmetry_space_group_name_H-M   'P 1'
_cell_length_a   7.90175828
_cell_length_b   7.88942817
_cell_length_c   15.41531725
_cell_angle_alpha   89.98028375
_cell_angle_beta   89.74890767
_cell_angle_gamma   89.92490179
_symmetry_Int_Tables_number   1
_chemical_formula_structural   Pr17Sm3Si15As
_chemical_formula_sum   'Pr17 Sm3 Si15 As1'
_cell_volume   960.98623064
_cell_formula_units_Z   1
loop_
 _symmetry_equiv_pos_site_id
 _symmetry_equiv_pos_as_xyz
  1  'x, y, z'
loop_
 _atom_site_type_symbol
 _atom_site_label
 _atom_site_symmetry_multiplicity
 _atom_site_fract_x
 _atom_site_fract_y
 _atom_site_fract_z
 _atom_site_occupancy
  Pr  Pr0  1  0.688906  0.690714  0.498136  1
  Pr  Pr1  1  0.380767  0.009758  0.444208  1
  Pr  Pr2  1  0.488959  0.879355  0.697024  1
  Pr  Pr3  1  0.511409  0.120282  0.195200  1
  Pr  Pr4  1  0.879221  0.486850  0.302625  1
  Pr  Pr5  1  0.122076  0.511625  0.805134  1
  Pr  Pr6  1  0.623820  0.986995  0.946965  1
  Pr  Pr7  1  0.006365  0.380029  0.552521  1
  Pr  Pr8  1  0.988907  0.619522  0.054208  1
  Pr  Pr9  1  0.130376  0.982017  0.876441  1
  Pr  Pr10  1  0.521499  0.626274  0.126396  1
  Pr  Pr11  1  0.477445  0.373706  0.629405  1
  Pr  Pr12  1  0.628620  0.522130  0.873882  1
  Pr  Pr13  1  0.372982  0.477485  0.372541  1
  Pr  Pr14  1  0.873331  0.021489  0.377225  1
  Pr  Pr15  1  0.979728  0.126644  0.122973  1
  Pr  Pr16  1  0.019462  0.872859  0.622401  1
  Sm  Sm17  1  0.311494  0.309564  0.999798  1
  Sm  Sm18  1  0.190074  0.809250  0.249382  1
  Sm  Sm19  1  0.804013  0.190521  0.751959  1
  Si  Si20  1  0.329558  0.692530  0.955100  1
  Si  Si21  1  0.666893  0.305796  0.456224  1
  Si  Si22  1  0.695006  0.330374  0.045242  1
  Si  Si23  1  0.305112  0.668897  0.545368  1
  Si  Si24  1  0.807787  0.829881  0.204955  1
  Si  Si25  1  0.169992  0.191853  0.293841  1
  Si  Si26  1  0.834005  0.807734  0.794910  1
  Si  Si27  1  0.286639  0.921011  0.060847  1
  Si  Si28  1  0.577072  0.787835  0.308825  1
  Si  Si29  1  0.432361  0.212455  0.816718  1
  Si  Si30  1  0.788393  0.578373  0.689641  1
  Si  Si31  1  0.212801  0.421839  0.188599  1
  Si  Si32  1  0.708453  0.078968  0.562676  1
  Si  Si33  1  0.924835  0.287435  0.939127  1
  Si  Si34  1  0.080302  0.713225  0.438076  1
  As  As35  1  0.181339  0.174722  0.701428  1
