# generated using pymatgen
data_RbSnSb11Ir4
_symmetry_space_group_name_H-M   'P 1'
_cell_length_a   8.16954100
_cell_length_b   8.16954192
_cell_length_c   8.17185900
_cell_angle_alpha   109.56067695
_cell_angle_beta   109.61767952
_cell_angle_gamma   109.22403744
_symmetry_Int_Tables_number   1
_chemical_formula_structural   RbSnSb11Ir4
_chemical_formula_sum   'Rb1 Sn1 Sb11 Ir4'
_cell_volume   419.90421007
_cell_formula_units_Z   1
loop_
 _symmetry_equiv_pos_site_id
 _symmetry_equiv_pos_as_xyz
  1  'x, y, z'
loop_
 _atom_site_type_symbol
 _atom_site_label
 _atom_site_symmetry_multiplicity
 _atom_site_fract_x
 _atom_site_fract_y
 _atom_site_fract_z
 _atom_site_occupancy
  Rb  Rb0  1  0.000044  0.000338  0.000380  1
  Sn  Sn1  1  0.842742  0.657345  0.500087  1
  Sb  Sb2  1  0.154554  0.344248  0.498802  1
  Sb  Sb3  1  0.153164  0.656870  0.810035  1
  Sb  Sb4  1  0.843947  0.345419  0.189364  1
  Sb  Sb5  1  0.658026  0.500756  0.843531  1
  Sb  Sb6  1  0.344730  0.499245  0.157214  1
  Sb  Sb7  1  0.657970  0.812485  0.157214  1
  Sb  Sb8  1  0.342776  0.185504  0.843531  1
  Sb  Sb9  1  0.501545  0.843303  0.657261  1
  Sb  Sb10  1  0.499830  0.157342  0.343020  1
  Sb  Sb11  1  0.185677  0.843189  0.343020  1
  Sb  Sb12  1  0.813959  0.155716  0.657261  1
  Ir  Ir13  1  0.496778  0.498295  0.499646  1
  Ir  Ir14  1  0.501127  0.998213  0.999991  1
  Ir  Ir15  1  0.001778  0.498864  0.999991  1
  Ir  Ir16  1  0.001351  0.002868  0.499646  1
