# generated using pymatgen
data_DyHo3(B4Ir)4
_symmetry_space_group_name_H-M   'P 1'
_cell_length_a   3.57106200
_cell_length_b   5.96471107
_cell_length_c   11.56984103
_cell_angle_alpha   90.01246978
_cell_angle_beta   90.00000000
_cell_angle_gamma   90.00000000
_symmetry_Int_Tables_number   1
_chemical_formula_structural   DyHo3(B4Ir)4
_chemical_formula_sum   'Dy1 Ho3 B16 Ir4'
_cell_volume   246.44169256
_cell_formula_units_Z   1
loop_
 _symmetry_equiv_pos_site_id
 _symmetry_equiv_pos_as_xyz
  1  'x, y, z'
loop_
 _atom_site_type_symbol
 _atom_site_label
 _atom_site_symmetry_multiplicity
 _atom_site_fract_x
 _atom_site_fract_y
 _atom_site_fract_z
 _atom_site_occupancy
  Dy  Dy0  1  0.500000  0.868589  0.351424  1
  Ho  Ho1  1  0.500000  0.368832  0.148436  1
  Ho  Ho2  1  0.500000  0.631308  0.851485  1
  Ho  Ho3  1  0.500000  0.131221  0.648633  1
  B  B4  1  0.000000  0.112323  0.046547  1
  B  B5  1  0.000000  0.887784  0.953260  1
  B  B6  1  0.000000  0.387676  0.546897  1
  B  B7  1  0.000000  0.611748  0.453543  1
  B  B8  1  0.000000  0.136466  0.470246  1
  B  B9  1  0.000000  0.863524  0.530236  1
  B  B10  1  0.000000  0.363773  0.969901  1
  B  B11  1  0.000000  0.636194  0.029946  1
  B  B12  1  0.000000  0.024513  0.192458  1
  B  B13  1  0.000000  0.975662  0.807274  1
  B  B14  1  0.000000  0.475743  0.692938  1
  B  B15  1  0.000000  0.523906  0.307138  1
  B  B16  1  0.000000  0.209389  0.311966  1
  B  B17  1  0.000000  0.791226  0.687978  1
  B  B18  1  0.000000  0.291305  0.812152  1
  B  B19  1  0.000000  0.708687  0.187597  1
  Ir  Ir20  1  0.500000  0.356250  0.403343  1
  Ir  Ir21  1  0.500000  0.643623  0.597048  1
  Ir  Ir22  1  0.500000  0.144071  0.903141  1
  Ir  Ir23  1  0.500000  0.856186  0.096412  1
