# generated using pymatgen
data_Sc4Co5NiRu2
_symmetry_space_group_name_H-M   'P 1'
_cell_length_a   4.87521200
_cell_length_b   4.87258643
_cell_length_c   8.22155100
_cell_angle_alpha   90.00000000
_cell_angle_beta   90.00000000
_cell_angle_gamma   120.01781287
_symmetry_Int_Tables_number   1
_chemical_formula_structural   Sc4Co5NiRu2
_chemical_formula_sum   'Sc4 Co5 Ni1 Ru2'
_cell_volume   169.10617360
_cell_formula_units_Z   1
loop_
 _symmetry_equiv_pos_site_id
 _symmetry_equiv_pos_as_xyz
  1  'x, y, z'
loop_
 _atom_site_type_symbol
 _atom_site_label
 _atom_site_symmetry_multiplicity
 _atom_site_fract_x
 _atom_site_fract_y
 _atom_site_fract_z
 _atom_site_occupancy
  Sc  Sc0  1  0.665465  0.330932  0.066661  1
  Sc  Sc1  1  0.665465  0.330932  0.433339  1
  Sc  Sc2  1  0.332612  0.665225  0.568363  1
  Sc  Sc3  1  0.332612  0.665225  0.931637  1
  Co  Co4  1  0.174310  0.836975  0.250000  1
  Co  Co5  1  0.662664  0.836975  0.250000  1
  Co  Co6  1  0.342430  0.170918  0.750001  1
  Co  Co7  1  0.828489  0.170918  0.750001  1
  Co  Co8  1  0.828892  0.657784  0.750001  1
  Ni  Ni9  1  0.173289  0.346579  0.250000  1
  Ru  Ru10  1  0.996885  0.993769  0.998677  1
  Ru  Ru11  1  0.996885  0.993769  0.501323  1
