# generated using pymatgen
data_CeNdSi4IrRh5
_symmetry_space_group_name_H-M   'P 1'
_cell_length_a   6.68611120
_cell_length_b   6.66514482
_cell_length_c   6.68686032
_cell_angle_alpha   130.17439413
_cell_angle_beta   115.06128275
_cell_angle_gamma   86.19064348
_symmetry_Int_Tables_number   1
_chemical_formula_structural   CeNdSi4IrRh5
_chemical_formula_sum   'Ce1 Nd1 Si4 Ir1 Rh5'
_cell_volume   196.83178112
_cell_formula_units_Z   1
loop_
 _symmetry_equiv_pos_site_id
 _symmetry_equiv_pos_as_xyz
  1  'x, y, z'
loop_
 _atom_site_type_symbol
 _atom_site_label
 _atom_site_symmetry_multiplicity
 _atom_site_fract_x
 _atom_site_fract_y
 _atom_site_fract_z
 _atom_site_occupancy
  Ce  Ce0  1  0.749098  0.037760  0.286463  1
  Nd  Nd1  1  0.248535  0.965878  0.714360  1
  Si  Si2  1  0.579252  0.382224  0.805543  1
  Si  Si3  1  0.422197  0.618056  0.198233  1
  Si  Si4  1  0.079638  0.276596  0.196698  1
  Si  Si5  1  0.921243  0.725816  0.804291  1
  Ir  Ir6  1  0.215310  0.498293  0.715530  1
  Rh  Rh7  1  0.716823  0.999710  0.714933  1
  Rh  Rh8  1  0.783973  0.497992  0.283787  1
  Rh  Rh9  1  0.285403  0.999487  0.283608  1
  Rh  Rh10  1  0.500678  0.499337  0.499433  1
  Rh  Rh11  1  0.997851  0.498854  0.997123  1
