# generated using pymatgen
data_Hg3Pd4PbO14
_symmetry_space_group_name_H-M   'P 1'
_cell_length_a   7.34268678
_cell_length_b   7.23815937
_cell_length_c   7.23815900
_cell_angle_alpha   59.99999714
_cell_angle_beta   60.46979962
_cell_angle_gamma   60.46979436
_symmetry_Int_Tables_number   1
_chemical_formula_structural   Hg3Pd4PbO14
_chemical_formula_sum   'Hg3 Pd4 Pb1 O14'
_cell_volume   273.93274329
_cell_formula_units_Z   1
loop_
 _symmetry_equiv_pos_site_id
 _symmetry_equiv_pos_as_xyz
  1  'x, y, z'
loop_
 _atom_site_type_symbol
 _atom_site_label
 _atom_site_symmetry_multiplicity
 _atom_site_fract_x
 _atom_site_fract_y
 _atom_site_fract_z
 _atom_site_occupancy
  Hg  Hg0  1  0.125000  0.125000  0.125000  1
  Hg  Hg1  1  0.125000  0.625000  0.125000  1
  Hg  Hg2  1  0.125000  0.125000  0.625000  1
  Pd  Pd3  1  0.625000  0.625000  0.125000  1
  Pd  Pd4  1  0.625000  0.625000  0.625000  1
  Pd  Pd5  1  0.625000  0.125000  0.625000  1
  Pd  Pd6  1  0.125000  0.625000  0.625000  1
  Pb  Pb7  1  0.625000  0.125000  0.125000  1
  O  O8  1  0.701736  0.291028  0.291028  1
  O  O9  1  0.701736  0.291028  0.716208  1
  O  O10  1  0.997992  0.000670  0.000670  1
  O  O11  1  0.296275  0.705405  0.292915  1
  O  O12  1  0.701736  0.716208  0.291028  1
  O  O13  1  0.953725  0.544595  0.544595  1
  O  O14  1  0.296275  0.705405  0.705405  1
  O  O15  1  0.252008  0.249330  0.249330  1
  O  O16  1  0.953725  0.544595  0.957085  1
  O  O17  1  0.548264  0.958972  0.533792  1
  O  O18  1  0.548264  0.533792  0.958972  1
  O  O19  1  0.953725  0.957085  0.544595  1
  O  O20  1  0.548264  0.958972  0.958972  1
  O  O21  1  0.296275  0.292915  0.705405  1
