# generated using pymatgen
data_Yb2Y2TmRu2
_symmetry_space_group_name_H-M   'P 1'
_cell_length_a   6.42679634
_cell_length_b   7.24050183
_cell_length_c   8.52763040
_cell_angle_alpha   97.07177330
_cell_angle_beta   112.13698107
_cell_angle_gamma   89.99999920
_symmetry_Int_Tables_number   1
_chemical_formula_structural   Yb2Y2TmRu2
_chemical_formula_sum   'Yb4 Y4 Tm2 Ru4'
_cell_volume   364.30596885
_cell_formula_units_Z   2
loop_
 _symmetry_equiv_pos_site_id
 _symmetry_equiv_pos_as_xyz
  1  'x, y, z'
loop_
 _atom_site_type_symbol
 _atom_site_label
 _atom_site_symmetry_multiplicity
 _atom_site_fract_x
 _atom_site_fract_y
 _atom_site_fract_z
 _atom_site_occupancy
  Yb  Yb0  1  0.796645  0.080461  0.817795  1
  Yb  Yb1  1  0.978850  0.419539  0.182205  1
  Yb  Yb2  1  0.203355  0.919539  0.182205  1
  Yb  Yb3  1  0.021150  0.580461  0.817795  1
  Y  Y4  1  0.199748  0.184893  0.567973  1
  Y  Y5  1  0.631776  0.315107  0.432027  1
  Y  Y6  1  0.800252  0.815107  0.432027  1
  Y  Y7  1  0.368224  0.684893  0.567973  1
  Tm  Tm8  1  0.433691  0.250000  0.000000  1
  Tm  Tm9  1  0.566309  0.750000  0.000000  1
  Ru  Ru10  1  0.587304  0.426119  0.774463  1
  Ru  Ru11  1  0.812841  0.073881  0.225537  1
  Ru  Ru12  1  0.412696  0.573881  0.225537  1
  Ru  Ru13  1  0.187159  0.926119  0.774463  1
