# generated using pymatgen
data_Y6Ho10Cd4Ir3Pt
_symmetry_space_group_name_H-M   'P 1'
_cell_length_a   9.63273364
_cell_length_b   9.63273321
_cell_length_c   9.63273315
_cell_angle_alpha   60.11399822
_cell_angle_beta   60.11400319
_cell_angle_gamma   60.11399961
_symmetry_Int_Tables_number   1
_chemical_formula_structural   Y6Ho10Cd4Ir3Pt
_chemical_formula_sum   'Y6 Ho10 Cd4 Ir3 Pt1'
_cell_volume   633.65646347
_cell_formula_units_Z   1
loop_
 _symmetry_equiv_pos_site_id
 _symmetry_equiv_pos_as_xyz
  1  'x, y, z'
loop_
 _atom_site_type_symbol
 _atom_site_label
 _atom_site_symmetry_multiplicity
 _atom_site_fract_x
 _atom_site_fract_y
 _atom_site_fract_z
 _atom_site_occupancy
  Y  Y0  1  0.939075  0.562005  0.562005  1
  Y  Y1  1  0.563433  0.937804  0.937804  1
  Y  Y2  1  0.562005  0.939075  0.562005  1
  Y  Y3  1  0.937804  0.563433  0.937804  1
  Y  Y4  1  0.562005  0.562005  0.939075  1
  Y  Y5  1  0.937804  0.937804  0.563433  1
  Ho  Ho6  1  0.347849  0.347849  0.347849  1
  Ho  Ho7  1  0.351454  0.351454  0.950723  1
  Ho  Ho8  1  0.351454  0.950723  0.351454  1
  Ho  Ho9  1  0.950723  0.351454  0.351454  1
  Ho  Ho10  1  0.806050  0.190303  0.190303  1
  Ho  Ho11  1  0.187809  0.810689  0.810689  1
  Ho  Ho12  1  0.190303  0.806050  0.190303  1
  Ho  Ho13  1  0.810689  0.187809  0.810689  1
  Ho  Ho14  1  0.190303  0.190303  0.806050  1
  Ho  Ho15  1  0.810689  0.810689  0.187809  1
  Cd  Cd16  1  0.580511  0.580511  0.580511  1
  Cd  Cd17  1  0.580812  0.580812  0.257255  1
  Cd  Cd18  1  0.580812  0.257255  0.580812  1
  Cd  Cd19  1  0.257255  0.580812  0.580812  1
  Ir  Ir20  1  0.142174  0.142174  0.574284  1
  Ir  Ir21  1  0.142174  0.574284  0.142174  1
  Ir  Ir22  1  0.574284  0.142174  0.142174  1
  Pt  Pt23  1  0.142528  0.142528  0.142528  1
