# generated using pymatgen
data_TbNd2(SiPd)3
_symmetry_space_group_name_H-M   'P 1'
_cell_length_a   4.42160500
_cell_length_b   7.52703600
_cell_length_c   21.57710800
_cell_angle_alpha   90.00000000
_cell_angle_beta   90.00000000
_cell_angle_gamma   90.00000000
_symmetry_Int_Tables_number   1
_chemical_formula_structural   TbNd2(SiPd)3
_chemical_formula_sum   'Tb4 Nd8 Si12 Pd12'
_cell_volume   718.12024635
_cell_formula_units_Z   4
loop_
 _symmetry_equiv_pos_site_id
 _symmetry_equiv_pos_as_xyz
  1  'x, y, z'
loop_
 _atom_site_type_symbol
 _atom_site_label
 _atom_site_symmetry_multiplicity
 _atom_site_fract_x
 _atom_site_fract_y
 _atom_site_fract_z
 _atom_site_occupancy
  Tb  Tb0  1  0.250000  0.709924  0.001432  1
  Tb  Tb1  1  0.750000  0.290076  0.998568  1
  Tb  Tb2  1  0.750000  0.209924  0.498568  1
  Tb  Tb3  1  0.250000  0.790076  0.501432  1
  Nd  Nd4  1  0.250000  0.705751  0.333745  1
  Nd  Nd5  1  0.750000  0.294249  0.666255  1
  Nd  Nd6  1  0.750000  0.205751  0.166255  1
  Nd  Nd7  1  0.250000  0.794249  0.833745  1
  Nd  Nd8  1  0.250000  0.794795  0.165105  1
  Nd  Nd9  1  0.750000  0.205205  0.834895  1
  Nd  Nd10  1  0.750000  0.294795  0.334895  1
  Nd  Nd11  1  0.250000  0.705205  0.665105  1
  Si  Si12  1  0.250000  0.089021  0.067992  1
  Si  Si13  1  0.750000  0.910979  0.932008  1
  Si  Si14  1  0.750000  0.589021  0.432008  1
  Si  Si15  1  0.250000  0.410979  0.567992  1
  Si  Si16  1  0.250000  0.084060  0.273200  1
  Si  Si17  1  0.750000  0.915940  0.726800  1
  Si  Si18  1  0.750000  0.584060  0.226800  1
  Si  Si19  1  0.250000  0.415940  0.773200  1
  Si  Si20  1  0.250000  0.085522  0.397486  1
  Si  Si21  1  0.750000  0.914478  0.602514  1
  Si  Si22  1  0.750000  0.585522  0.102514  1
  Si  Si23  1  0.250000  0.414478  0.897486  1
  Pd  Pd24  1  0.250000  0.416781  0.236376  1
  Pd  Pd25  1  0.750000  0.583219  0.763624  1
  Pd  Pd26  1  0.750000  0.916781  0.263624  1
  Pd  Pd27  1  0.250000  0.083219  0.736376  1
  Pd  Pd28  1  0.250000  0.415845  0.440346  1
  Pd  Pd29  1  0.750000  0.584155  0.559654  1
  Pd  Pd30  1  0.750000  0.915845  0.059654  1
  Pd  Pd31  1  0.250000  0.084155  0.940346  1
  Pd  Pd32  1  0.250000  0.420182  0.090547  1
  Pd  Pd33  1  0.750000  0.579818  0.909453  1
  Pd  Pd34  1  0.750000  0.920182  0.409453  1
  Pd  Pd35  1  0.250000  0.079818  0.590547  1
