# generated using pymatgen
data_Sc8Ti8Nb3Si16W
_symmetry_space_group_name_H-M   'P 1'
_cell_length_a   6.69549151
_cell_length_b   6.83413894
_cell_length_c   13.02331900
_cell_angle_alpha   90.00000000
_cell_angle_beta   90.00000000
_cell_angle_gamma   90.03072436
_symmetry_Int_Tables_number   1
_chemical_formula_structural   Sc8Ti8Nb3Si16W
_chemical_formula_sum   'Sc8 Ti8 Nb3 Si16 W1'
_cell_volume   595.91989372
_cell_formula_units_Z   1
loop_
 _symmetry_equiv_pos_site_id
 _symmetry_equiv_pos_as_xyz
  1  'x, y, z'
loop_
 _atom_site_type_symbol
 _atom_site_label
 _atom_site_symmetry_multiplicity
 _atom_site_fract_x
 _atom_site_fract_y
 _atom_site_fract_z
 _atom_site_occupancy
  Sc  Sc0  1  0.502623  0.675064  0.595138  1
  Sc  Sc1  1  0.002692  0.825683  0.904696  1
  Sc  Sc2  1  0.498206  0.324904  0.096852  1
  Sc  Sc3  1  0.997534  0.173906  0.403261  1
  Sc  Sc4  1  0.498206  0.324904  0.403148  1
  Sc  Sc5  1  0.997534  0.173906  0.096739  1
  Sc  Sc6  1  0.502623  0.675064  0.904862  1
  Sc  Sc7  1  0.002692  0.825683  0.595304  1
  Ti  Ti8  1  0.664693  0.174852  0.625627  1
  Ti  Ti9  1  0.164145  0.325311  0.874098  1
  Ti  Ti10  1  0.335876  0.826376  0.126791  1
  Ti  Ti11  1  0.834466  0.674924  0.373519  1
  Ti  Ti12  1  0.335876  0.826376  0.373209  1
  Ti  Ti13  1  0.834466  0.674924  0.126481  1
  Ti  Ti14  1  0.664693  0.174852  0.874373  1
  Ti  Ti15  1  0.164145  0.325311  0.625902  1
  Nb  Nb16  1  0.837488  0.492593  0.750000  1
  Nb  Nb17  1  0.337877  0.006881  0.750000  1
  Nb  Nb18  1  0.162442  0.507298  0.250000  1
  Si  Si19  1  0.664725  0.966041  0.458400  1
  Si  Si20  1  0.165097  0.534102  0.039843  1
  Si  Si21  1  0.334710  0.035058  0.961052  1
  Si  Si22  1  0.835320  0.465521  0.539171  1
  Si  Si23  1  0.334710  0.035058  0.538948  1
  Si  Si24  1  0.835320  0.465521  0.960829  1
  Si  Si25  1  0.664725  0.966041  0.041600  1
  Si  Si26  1  0.165097  0.534102  0.460157  1
  Si  Si27  1  0.460812  0.384764  0.750000  1
  Si  Si28  1  0.960993  0.114745  0.750000  1
  Si  Si29  1  0.539738  0.616944  0.250000  1
  Si  Si30  1  0.035982  0.886348  0.250000  1
  Si  Si31  1  0.706439  0.864867  0.750000  1
  Si  Si32  1  0.206608  0.634869  0.750000  1
  Si  Si33  1  0.296990  0.134161  0.250000  1
  Si  Si34  1  0.792793  0.361715  0.250000  1
  W  W35  1  0.661659  0.991330  0.250000  1
