# generated using pymatgen
data_Eu4Sb4Pd3Pt
_symmetry_space_group_name_H-M   'P 1'
_cell_length_a   4.72713900
_cell_length_b   7.64975358
_cell_length_c   8.03178178
_cell_angle_alpha   90.21411528
_cell_angle_beta   90.00000000
_cell_angle_gamma   90.00000000
_symmetry_Int_Tables_number   1
_chemical_formula_structural   Eu4Sb4Pd3Pt
_chemical_formula_sum   'Eu4 Sb4 Pd3 Pt1'
_cell_volume   290.43883526
_cell_formula_units_Z   1
loop_
 _symmetry_equiv_pos_site_id
 _symmetry_equiv_pos_as_xyz
  1  'x, y, z'
loop_
 _atom_site_type_symbol
 _atom_site_label
 _atom_site_symmetry_multiplicity
 _atom_site_fract_x
 _atom_site_fract_y
 _atom_site_fract_z
 _atom_site_occupancy
  Eu  Eu0  1  0.250000  0.007469  0.299494  1
  Eu  Eu1  1  0.250000  0.508488  0.202792  1
  Eu  Eu2  1  0.750000  0.994843  0.700378  1
  Eu  Eu3  1  0.750000  0.491655  0.797486  1
  Sb  Sb4  1  0.250000  0.691634  0.592244  1
  Sb  Sb5  1  0.250000  0.195877  0.907675  1
  Sb  Sb6  1  0.750000  0.309019  0.408270  1
  Sb  Sb7  1  0.750000  0.804254  0.091770  1
  Pd  Pd8  1  0.250000  0.813860  0.917356  1
  Pd  Pd9  1  0.750000  0.691639  0.419725  1
  Pd  Pd10  1  0.750000  0.185846  0.082940  1
  Pt  Pt11  1  0.250000  0.305416  0.579871  1
