# generated using pymatgen
data_Ce2NdHo5(CdIr)2
_symmetry_space_group_name_H-M   'P 1'
_cell_length_a   9.68899515
_cell_length_b   9.68899593
_cell_length_c   9.67588500
_cell_angle_alpha   60.04474925
_cell_angle_beta   60.04474660
_cell_angle_gamma   59.91050353
_symmetry_Int_Tables_number   1
_chemical_formula_structural   Ce2NdHo5(CdIr)2
_chemical_formula_sum   'Ce4 Nd2 Ho10 Cd4 Ir4'
_cell_volume   642.29068329
_cell_formula_units_Z   2
loop_
 _symmetry_equiv_pos_site_id
 _symmetry_equiv_pos_as_xyz
  1  'x, y, z'
loop_
 _atom_site_type_symbol
 _atom_site_label
 _atom_site_symmetry_multiplicity
 _atom_site_fract_x
 _atom_site_fract_y
 _atom_site_fract_z
 _atom_site_occupancy
  Ce  Ce0  1  0.350108  0.350108  0.347856  1
  Ce  Ce1  1  0.350108  0.350108  0.951927  1
  Ce  Ce2  1  0.347856  0.951927  0.350108  1
  Ce  Ce3  1  0.951927  0.347856  0.350108  1
  Nd  Nd4  1  0.565236  0.565236  0.934764  1
  Nd  Nd5  1  0.934764  0.934764  0.565236  1
  Ho  Ho6  1  0.812926  0.187074  0.187074  1
  Ho  Ho7  1  0.187074  0.812926  0.812926  1
  Ho  Ho8  1  0.187074  0.812926  0.187074  1
  Ho  Ho9  1  0.812926  0.187074  0.812926  1
  Ho  Ho10  1  0.188184  0.188184  0.811816  1
  Ho  Ho11  1  0.811816  0.811816  0.188184  1
  Ho  Ho12  1  0.940171  0.559829  0.559829  1
  Ho  Ho13  1  0.559829  0.940171  0.940171  1
  Ho  Ho14  1  0.559829  0.940171  0.559829  1
  Ho  Ho15  1  0.940171  0.559829  0.940171  1
  Cd  Cd16  1  0.582266  0.582266  0.578512  1
  Cd  Cd17  1  0.582266  0.582266  0.256956  1
  Cd  Cd18  1  0.578512  0.256956  0.582266  1
  Cd  Cd19  1  0.256956  0.578512  0.582266  1
  Ir  Ir20  1  0.144884  0.144884  0.139565  1
  Ir  Ir21  1  0.144884  0.144884  0.570665  1
  Ir  Ir22  1  0.139565  0.570665  0.144884  1
  Ir  Ir23  1  0.570665  0.139565  0.144884  1
