# generated using pymatgen
data_K(FeN)2
_symmetry_space_group_name_H-M   'P 1'
_cell_length_a   3.36795410
_cell_length_b   3.38508503
_cell_length_c   7.79692773
_cell_angle_alpha   102.12196818
_cell_angle_beta   129.53445174
_cell_angle_gamma   89.99402319
_symmetry_Int_Tables_number   1
_chemical_formula_structural   K(FeN)2
_chemical_formula_sum   'K1 Fe2 N2'
_cell_volume   65.96817372
_cell_formula_units_Z   1
loop_
 _symmetry_equiv_pos_site_id
 _symmetry_equiv_pos_as_xyz
  1  'x, y, z'
loop_
 _atom_site_type_symbol
 _atom_site_label
 _atom_site_symmetry_multiplicity
 _atom_site_fract_x
 _atom_site_fract_y
 _atom_site_fract_z
 _atom_site_occupancy
  K  K0  1  0.255723  0.749001  0.452976  1
  Fe  Fe1  1  0.993886  0.495326  0.953746  1
  Fe  Fe2  1  0.489962  0.994391  0.951261  1
  N  N3  1  0.217007  0.068585  0.105522  1
  N  N4  1  0.266990  0.421014  0.799317  1
