# generated using pymatgen
data_Dy12InCo4Ir
_symmetry_space_group_name_H-M   'P 1'
_cell_length_a   8.28690671
_cell_length_b   8.28690743
_cell_length_c   8.28690765
_cell_angle_alpha   111.24435371
_cell_angle_beta   110.62319333
_cell_angle_gamma   106.58474754
_symmetry_Int_Tables_number   1
_chemical_formula_structural   Dy12InCo4Ir
_chemical_formula_sum   'Dy12 In1 Co4 Ir1'
_cell_volume   437.24001865
_cell_formula_units_Z   1
loop_
 _symmetry_equiv_pos_site_id
 _symmetry_equiv_pos_as_xyz
  1  'x, y, z'
loop_
 _atom_site_type_symbol
 _atom_site_label
 _atom_site_symmetry_multiplicity
 _atom_site_fract_x
 _atom_site_fract_y
 _atom_site_fract_z
 _atom_site_occupancy
  Dy  Dy0  1  0.411239  0.217700  0.193540  1
  Dy  Dy1  1  0.588761  0.782300  0.806460  1
  Dy  Dy2  1  0.024159  0.217700  0.806460  1
  Dy  Dy3  1  0.975841  0.782300  0.193540  1
  Dy  Dy4  1  0.182466  0.285444  0.467910  1
  Dy  Dy5  1  0.817534  0.714556  0.532090  1
  Dy  Dy6  1  0.182466  0.714556  0.897022  1
  Dy  Dy7  1  0.817534  0.285444  0.102978  1
  Dy  Dy8  1  0.316686  0.623363  0.306678  1
  Dy  Dy9  1  0.683314  0.376637  0.693322  1
  Dy  Dy10  1  0.316686  0.010008  0.693322  1
  Dy  Dy11  1  0.683314  0.989992  0.306678  1
  In  In12  1  0.500000  0.500000  0.000000  1
  Co  Co13  1  0.375714  0.000000  0.375714  1
  Co  Co14  1  0.624286  0.000000  0.624286  1
  Co  Co15  1  0.111786  0.611786  0.500000  1
  Co  Co16  1  0.888214  0.388214  0.500000  1
  Ir  Ir17  1  0.000000  0.000000  0.000000  1
