# generated using pymatgen
data_Ni3Sn4Pt9
_symmetry_space_group_name_H-M   'P 1'
_cell_length_a   4.00026400
_cell_length_b   4.00026400
_cell_length_c   15.91837800
_cell_angle_alpha   90.00000000
_cell_angle_beta   90.00000000
_cell_angle_gamma   90.00000000
_symmetry_Int_Tables_number   1
_chemical_formula_structural   Ni3Sn4Pt9
_chemical_formula_sum   'Ni3 Sn4 Pt9'
_cell_volume   254.72766872
_cell_formula_units_Z   1
loop_
 _symmetry_equiv_pos_site_id
 _symmetry_equiv_pos_as_xyz
  1  'x, y, z'
loop_
 _atom_site_type_symbol
 _atom_site_label
 _atom_site_symmetry_multiplicity
 _atom_site_fract_x
 _atom_site_fract_y
 _atom_site_fract_z
 _atom_site_occupancy
  Ni  Ni0  1  0.500000  0.500000  0.254065  1
  Ni  Ni1  1  0.500000  0.500000  0.500000  1
  Ni  Ni2  1  0.500000  0.500000  0.745935  1
  Sn  Sn3  1  0.000000  0.000000  0.254224  1
  Sn  Sn4  1  0.000000  0.000000  0.500000  1
  Sn  Sn5  1  0.000000  0.000000  0.745776  1
  Sn  Sn6  1  0.000000  0.000000  0.000000  1
  Pt  Pt7  1  0.500000  0.500000  0.000000  1
  Pt  Pt8  1  0.500000  0.000000  0.132764  1
  Pt  Pt9  1  0.500000  0.000000  0.377229  1
  Pt  Pt10  1  0.500000  0.000000  0.622771  1
  Pt  Pt11  1  0.500000  0.000000  0.867236  1
  Pt  Pt12  1  0.000000  0.500000  0.132764  1
  Pt  Pt13  1  0.000000  0.500000  0.377229  1
  Pt  Pt14  1  0.000000  0.500000  0.622771  1
  Pt  Pt15  1  0.000000  0.500000  0.867236  1
