# generated using pymatgen
data_Pr12TlNi6
_symmetry_space_group_name_H-M   'P 1'
_cell_length_a   8.79764654
_cell_length_b   8.79764630
_cell_length_c   8.79764600
_cell_angle_alpha   109.47121533
_cell_angle_beta   109.47121479
_cell_angle_gamma   109.47123028
_symmetry_Int_Tables_number   1
_chemical_formula_structural   Pr12TlNi6
_chemical_formula_sum   'Pr12 Tl1 Ni6'
_cell_volume   524.17657318
_cell_formula_units_Z   1
loop_
 _symmetry_equiv_pos_site_id
 _symmetry_equiv_pos_as_xyz
  1  'x, y, z'
loop_
 _atom_site_type_symbol
 _atom_site_label
 _atom_site_symmetry_multiplicity
 _atom_site_fract_x
 _atom_site_fract_y
 _atom_site_fract_z
 _atom_site_occupancy
  Pr  Pr0  1  0.814927  0.691697  0.506624  1
  Pr  Pr1  1  0.185073  0.308303  0.493376  1
  Pr  Pr2  1  0.185073  0.691697  0.876771  1
  Pr  Pr3  1  0.814927  0.308303  0.123229  1
  Pr  Pr4  1  0.691697  0.506624  0.814927  1
  Pr  Pr5  1  0.308303  0.493376  0.185073  1
  Pr  Pr6  1  0.691697  0.876771  0.185073  1
  Pr  Pr7  1  0.308303  0.123229  0.814927  1
  Pr  Pr8  1  0.506624  0.814927  0.691697  1
  Pr  Pr9  1  0.493376  0.185073  0.308303  1
  Pr  Pr10  1  0.123229  0.814927  0.308303  1
  Pr  Pr11  1  0.876771  0.185073  0.691697  1
  Tl  Tl12  1  0.000000  0.000000  0.000000  1
  Ni  Ni13  1  0.879410  0.379410  0.500000  1
  Ni  Ni14  1  0.120590  0.620590  0.500000  1
  Ni  Ni15  1  0.379410  0.500000  0.879410  1
  Ni  Ni16  1  0.620590  0.500000  0.120590  1
  Ni  Ni17  1  0.500000  0.879410  0.379410  1
  Ni  Ni18  1  0.500000  0.120590  0.620590  1
