# generated using pymatgen
data_TbPaInPd2
_symmetry_space_group_name_H-M   'P 1'
_cell_length_a   7.90059300
_cell_length_b   7.78458800
_cell_length_c   3.67279200
_cell_angle_alpha   90.00000000
_cell_angle_beta   90.00000000
_cell_angle_gamma   90.00000000
_symmetry_Int_Tables_number   1
_chemical_formula_structural   TbPaInPd2
_chemical_formula_sum   'Tb2 Pa2 In2 Pd4'
_cell_volume   225.88721755
_cell_formula_units_Z   2
loop_
 _symmetry_equiv_pos_site_id
 _symmetry_equiv_pos_as_xyz
  1  'x, y, z'
loop_
 _atom_site_type_symbol
 _atom_site_label
 _atom_site_symmetry_multiplicity
 _atom_site_fract_x
 _atom_site_fract_y
 _atom_site_fract_z
 _atom_site_occupancy
  Tb  Tb0  1  0.174046  0.325451  0.500000  1
  Tb  Tb1  1  0.674046  0.174549  0.500000  1
  Pa  Pa2  1  0.328535  0.831542  0.500000  1
  Pa  Pa3  1  0.828535  0.668458  0.500000  1
  In  In4  1  0.997004  0.005567  0.000000  1
  In  In5  1  0.497004  0.494433  0.000000  1
  Pd  Pd6  1  0.371741  0.111324  0.000000  1
  Pd  Pd7  1  0.871741  0.388676  0.000000  1
  Pd  Pd8  1  0.128674  0.644551  0.000000  1
  Pd  Pd9  1  0.628674  0.855449  0.000000  1
