# generated using pymatgen
data_LaEr2Co8TcP6
_symmetry_space_group_name_H-M   'P 1'
_cell_length_a   3.73159300
_cell_length_b   10.59174000
_cell_length_c   12.28193400
_cell_angle_alpha   90.00000000
_cell_angle_beta   90.00000000
_cell_angle_gamma   90.00000000
_symmetry_Int_Tables_number   1
_chemical_formula_structural   LaEr2Co8TcP6
_chemical_formula_sum   'La2 Er4 Co16 Tc2 P12'
_cell_volume   485.43193124
_cell_formula_units_Z   2
loop_
 _symmetry_equiv_pos_site_id
 _symmetry_equiv_pos_as_xyz
  1  'x, y, z'
loop_
 _atom_site_type_symbol
 _atom_site_label
 _atom_site_symmetry_multiplicity
 _atom_site_fract_x
 _atom_site_fract_y
 _atom_site_fract_z
 _atom_site_occupancy
  La  La0  1  0.750000  0.250000  0.473693  1
  La  La1  1  0.250000  0.750000  0.526307  1
  Er  Er2  1  0.250000  0.933208  0.796443  1
  Er  Er3  1  0.250000  0.566792  0.796443  1
  Er  Er4  1  0.750000  0.066792  0.203557  1
  Er  Er5  1  0.750000  0.433208  0.203557  1
  Co  Co6  1  0.250000  0.250000  0.293920  1
  Co  Co7  1  0.750000  0.750000  0.706080  1
  Co  Co8  1  0.750000  0.250000  0.013561  1
  Co  Co9  1  0.250000  0.750000  0.986439  1
  Co  Co10  1  0.250000  0.417962  0.010189  1
  Co  Co11  1  0.250000  0.082038  0.010189  1
  Co  Co12  1  0.750000  0.582038  0.989811  1
  Co  Co13  1  0.750000  0.917962  0.989811  1
  Co  Co14  1  0.250000  0.453343  0.571619  1
  Co  Co15  1  0.250000  0.046657  0.571619  1
  Co  Co16  1  0.750000  0.546657  0.428381  1
  Co  Co17  1  0.750000  0.953343  0.428381  1
  Co  Co18  1  0.250000  0.870229  0.287583  1
  Co  Co19  1  0.250000  0.629771  0.287583  1
  Co  Co20  1  0.750000  0.129771  0.712417  1
  Co  Co21  1  0.750000  0.370229  0.712417  1
  Tc  Tc22  1  0.250000  0.250000  0.846835  1
  Tc  Tc23  1  0.750000  0.750000  0.153165  1
  P  P24  1  0.250000  0.250000  0.117941  1
  P  P25  1  0.750000  0.750000  0.882059  1
  P  P26  1  0.250000  0.250000  0.657185  1
  P  P27  1  0.750000  0.750000  0.342815  1
  P  P28  1  0.250000  0.444143  0.380804  1
  P  P29  1  0.250000  0.055857  0.380804  1
  P  P30  1  0.750000  0.555857  0.619196  1
  P  P31  1  0.750000  0.944143  0.619196  1
  P  P32  1  0.250000  0.904107  0.105677  1
  P  P33  1  0.250000  0.595893  0.105677  1
  P  P34  1  0.750000  0.095893  0.894323  1
  P  P35  1  0.750000  0.404107  0.894323  1
