# generated using pymatgen
data_Pr3Sn2Rh
_symmetry_space_group_name_H-M   'P 1'
_cell_length_a   4.51951000
_cell_length_b   12.09150800
_cell_length_c   12.86437700
_cell_angle_alpha   90.00000000
_cell_angle_beta   90.00000000
_cell_angle_gamma   90.00000000
_symmetry_Int_Tables_number   1
_chemical_formula_structural   Pr3Sn2Rh
_chemical_formula_sum   'Pr12 Sn8 Rh4'
_cell_volume   703.00850333
_cell_formula_units_Z   4
loop_
 _symmetry_equiv_pos_site_id
 _symmetry_equiv_pos_as_xyz
  1  'x, y, z'
loop_
 _atom_site_type_symbol
 _atom_site_label
 _atom_site_symmetry_multiplicity
 _atom_site_fract_x
 _atom_site_fract_y
 _atom_site_fract_z
 _atom_site_occupancy
  Pr  Pr0  1  0.250000  0.049375  0.880786  1
  Pr  Pr1  1  0.250000  0.450625  0.380786  1
  Pr  Pr2  1  0.750000  0.950625  0.119214  1
  Pr  Pr3  1  0.750000  0.549375  0.619214  1
  Pr  Pr4  1  0.250000  0.129709  0.553677  1
  Pr  Pr5  1  0.250000  0.370291  0.053677  1
  Pr  Pr6  1  0.750000  0.870291  0.446323  1
  Pr  Pr7  1  0.750000  0.629709  0.946323  1
  Pr  Pr8  1  0.250000  0.794168  0.735632  1
  Pr  Pr9  1  0.250000  0.705832  0.235632  1
  Pr  Pr10  1  0.750000  0.205832  0.264368  1
  Pr  Pr11  1  0.750000  0.294168  0.764368  1
  Sn  Sn12  1  0.250000  0.809279  0.993610  1
  Sn  Sn13  1  0.250000  0.690721  0.493610  1
  Sn  Sn14  1  0.750000  0.190721  0.006390  1
  Sn  Sn15  1  0.750000  0.309279  0.506390  1
  Sn  Sn16  1  0.250000  0.498650  0.809829  1
  Sn  Sn17  1  0.250000  0.001350  0.309829  1
  Sn  Sn18  1  0.750000  0.501350  0.190171  1
  Sn  Sn19  1  0.750000  0.998650  0.690171  1
  Rh  Rh20  1  0.250000  0.367221  0.629277  1
  Rh  Rh21  1  0.250000  0.132779  0.129277  1
  Rh  Rh22  1  0.750000  0.632779  0.370723  1
  Rh  Rh23  1  0.750000  0.867221  0.870723  1
