# generated using pymatgen
data_Tb5(SiTe)2
_symmetry_space_group_name_H-M   'P 1'
_cell_length_a   8.57222503
_cell_length_b   8.57222581
_cell_length_c   7.83367900
_cell_angle_alpha   90.00000000
_cell_angle_beta   90.00000000
_cell_angle_gamma   125.91596416
_symmetry_Int_Tables_number   1
_chemical_formula_structural   Tb5(SiTe)2
_chemical_formula_sum   'Tb10 Si4 Te4'
_cell_volume   466.20042200
_cell_formula_units_Z   2
loop_
 _symmetry_equiv_pos_site_id
 _symmetry_equiv_pos_as_xyz
  1  'x, y, z'
loop_
 _atom_site_type_symbol
 _atom_site_label
 _atom_site_symmetry_multiplicity
 _atom_site_fract_x
 _atom_site_fract_y
 _atom_site_fract_z
 _atom_site_occupancy
  Tb  Tb0  1  0.042628  0.292030  0.332330  1
  Tb  Tb1  1  0.957372  0.707970  0.667670  1
  Tb  Tb2  1  0.457372  0.207970  0.832330  1
  Tb  Tb3  1  0.792030  0.542628  0.167670  1
  Tb  Tb4  1  0.542628  0.792030  0.167670  1
  Tb  Tb5  1  0.207970  0.457372  0.832330  1
  Tb  Tb6  1  0.707970  0.957372  0.667670  1
  Tb  Tb7  1  0.292030  0.042628  0.332330  1
  Tb  Tb8  1  0.000000  0.000000  0.000000  1
  Tb  Tb9  1  0.500000  0.500000  0.500000  1
  Si  Si10  1  0.370715  0.370715  0.127235  1
  Si  Si11  1  0.629285  0.629285  0.872765  1
  Si  Si12  1  0.129285  0.129285  0.627235  1
  Si  Si13  1  0.870715  0.870715  0.372765  1
  Te  Te14  1  0.794063  0.205937  0.000000  1
  Te  Te15  1  0.205937  0.794063  0.000000  1
  Te  Te16  1  0.705937  0.294063  0.500000  1
  Te  Te17  1  0.294063  0.705937  0.500000  1
