# generated using pymatgen
data_Eu5MgCo17MoP12
_symmetry_space_group_name_H-M   'P 1'
_cell_length_a   12.18159646
_cell_length_b   12.16988316
_cell_length_c   3.73641300
_cell_angle_alpha   90.00000000
_cell_angle_beta   90.00000000
_cell_angle_gamma   119.70951451
_symmetry_Int_Tables_number   1
_chemical_formula_structural   Eu5MgCo17MoP12
_chemical_formula_sum   'Eu5 Mg1 Co17 Mo1 P12'
_cell_volume   481.10506541
_cell_formula_units_Z   1
loop_
 _symmetry_equiv_pos_site_id
 _symmetry_equiv_pos_as_xyz
  1  'x, y, z'
loop_
 _atom_site_type_symbol
 _atom_site_label
 _atom_site_symmetry_multiplicity
 _atom_site_fract_x
 _atom_site_fract_y
 _atom_site_fract_z
 _atom_site_occupancy
  Eu  Eu0  1  0.666301  0.336203  0.000000  1
  Eu  Eu1  1  0.332602  0.664511  0.000000  1
  Eu  Eu2  1  0.816454  0.815645  0.500000  1
  Eu  Eu3  1  0.181592  0.999663  0.500000  1
  Eu  Eu4  1  0.000683  0.187700  0.500000  1
  Mg  Mg5  1  0.560467  0.001742  0.000000  1
  Co  Co6  1  0.881082  0.363190  0.500000  1
  Co  Co7  1  0.644753  0.519608  0.500000  1
  Co  Co8  1  0.480973  0.126658  0.500000  1
  Co  Co9  1  0.354135  0.875664  0.500000  1
  Co  Co10  1  0.520740  0.641073  0.500000  1
  Co  Co11  1  0.125464  0.484163  0.500000  1
  Co  Co12  1  0.001211  0.553811  0.000000  1
  Co  Co13  1  0.802804  0.182086  0.000000  1
  Co  Co14  1  0.824729  0.621403  0.000000  1
  Co  Co15  1  0.372950  0.196510  0.000000  1
  Co  Co16  1  0.174485  0.796412  0.000000  1
  Co  Co17  1  0.623143  0.821452  0.000000  1
  Co  Co18  1  0.197119  0.376396  0.000000  1
  Co  Co19  1  0.280776  0.281988  0.500000  1
  Co  Co20  1  0.717301  0.001147  0.500000  1
  Co  Co21  1  0.999453  0.711854  0.500000  1
  Co  Co22  1  0.997031  0.997179  0.000000  1
  Mo  Mo23  1  0.443470  0.442695  0.000000  1
  P  P24  1  0.695300  0.175283  0.500000  1
  P  P25  1  0.836095  0.522205  0.500000  1
  P  P26  1  0.475828  0.311614  0.500000  1
  P  P27  1  0.165520  0.687448  0.500000  1
  P  P28  1  0.521528  0.827362  0.500000  1
  P  P29  1  0.313023  0.477420  0.500000  1
  P  P30  1  0.180121  0.181760  0.000000  1
  P  P31  1  0.816626  0.001197  0.000000  1
  P  P32  1  0.999498  0.813750  0.000000  1
  P  P33  1  0.636404  0.633144  0.000000  1
  P  P34  1  0.358231  0.997302  0.000000  1
  P  P35  1  0.002109  0.372761  0.000000  1
