# generated using pymatgen
data_Y21Fe8Sb7C12
_symmetry_space_group_name_H-M   'P 1'
_cell_length_a   11.04310300
_cell_length_b   11.04310349
_cell_length_c   11.04310300
_cell_angle_alpha   120.00000153
_cell_angle_beta   90.00000000
_cell_angle_gamma   120.00000153
_symmetry_Int_Tables_number   1
_chemical_formula_structural   Y21Fe8Sb7C12
_chemical_formula_sum   'Y21 Fe8 Sb7 C12'
_cell_volume   952.26620060
_cell_formula_units_Z   1
loop_
 _symmetry_equiv_pos_site_id
 _symmetry_equiv_pos_as_xyz
  1  'x, y, z'
loop_
 _atom_site_type_symbol
 _atom_site_label
 _atom_site_symmetry_multiplicity
 _atom_site_fract_x
 _atom_site_fract_y
 _atom_site_fract_z
 _atom_site_occupancy
  Y  Y0  1  0.403897  0.269264  0.134632  1
  Y  Y1  1  0.865369  0.269264  0.134632  1
  Y  Y2  1  0.865369  0.730737  0.134632  1
  Y  Y3  1  0.500000  0.000000  0.157958  1
  Y  Y4  1  0.157958  0.657958  0.157958  1
  Y  Y5  1  0.500000  0.657958  0.157958  1
  Y  Y6  1  0.134632  0.269264  0.403897  1
  Y  Y7  1  0.842042  0.000000  0.500000  1
  Y  Y8  1  0.500000  0.000000  0.500000  1
  Y  Y9  1  0.842042  0.342042  0.500000  1
  Y  Y10  1  0.157958  0.000000  0.500000  1
  Y  Y11  1  0.500000  0.342042  0.500000  1
  Y  Y12  1  0.157958  0.657958  0.500000  1
  Y  Y13  1  0.500000  0.657958  0.500000  1
  Y  Y14  1  0.865369  0.730737  0.596104  1
  Y  Y15  1  0.500000  0.000000  0.842042  1
  Y  Y16  1  0.842042  0.342042  0.842042  1
  Y  Y17  1  0.500000  0.342042  0.842042  1
  Y  Y18  1  0.134632  0.269264  0.865369  1
  Y  Y19  1  0.134632  0.730737  0.865369  1
  Y  Y20  1  0.596104  0.730737  0.865369  1
  Fe  Fe21  1  0.692541  0.385082  0.077623  1
  Fe  Fe22  1  0.692541  0.385082  0.307459  1
  Fe  Fe23  1  0.692541  0.614918  0.307459  1
  Fe  Fe24  1  0.922376  0.614918  0.307459  1
  Fe  Fe25  1  0.077623  0.385082  0.692541  1
  Fe  Fe26  1  0.307459  0.385082  0.692541  1
  Fe  Fe27  1  0.307459  0.614918  0.692541  1
  Fe  Fe28  1  0.307459  0.614918  0.922376  1
  Sb  Sb29  1  0.000000  0.000000  0.000000  1
  Sb  Sb30  1  0.222614  0.000000  0.222614  1
  Sb  Sb31  1  0.222614  0.445229  0.222614  1
  Sb  Sb32  1  0.777385  0.000000  0.222614  1
  Sb  Sb33  1  0.222614  0.000000  0.777385  1
  Sb  Sb34  1  0.777385  0.554770  0.777385  1
  Sb  Sb35  1  0.777386  0.000000  0.777386  1
  C  C36  1  0.894784  0.500000  0.105217  1
  C  C37  1  0.605217  0.210434  0.105217  1
  C  C38  1  0.605217  0.500000  0.105217  1
  C  C39  1  0.605217  0.500000  0.394783  1
  C  C40  1  0.894784  0.500000  0.394783  1
  C  C41  1  0.894784  0.789567  0.394783  1
  C  C42  1  0.105217  0.210434  0.605217  1
  C  C43  1  0.105217  0.500000  0.605217  1
  C  C44  1  0.394783  0.500000  0.605217  1
  C  C45  1  0.105217  0.500000  0.894784  1
  C  C46  1  0.394783  0.500000  0.894784  1
  C  C47  1  0.394783  0.789567  0.894784  1
