# generated using pymatgen
data_Li4TmNi9As3P4
_symmetry_space_group_name_H-M   'P 1'
_cell_length_a   9.22764741
_cell_length_b   9.29990795
_cell_length_c   3.68304900
_cell_angle_alpha   90.00000000
_cell_angle_beta   90.00000000
_cell_angle_gamma   119.90662499
_symmetry_Int_Tables_number   1
_chemical_formula_structural   Li4TmNi9As3P4
_chemical_formula_sum   'Li4 Tm1 Ni9 As3 P4'
_cell_volume   273.97796345
_cell_formula_units_Z   1
loop_
 _symmetry_equiv_pos_site_id
 _symmetry_equiv_pos_as_xyz
  1  'x, y, z'
loop_
 _atom_site_type_symbol
 _atom_site_label
 _atom_site_symmetry_multiplicity
 _atom_site_fract_x
 _atom_site_fract_y
 _atom_site_fract_z
 _atom_site_occupancy
  Li  Li0  1  0.775298  0.557749  0.500000  1
  Li  Li1  1  0.446076  0.217364  0.500000  1
  Li  Li2  1  0.782159  0.229210  0.500000  1
  Li  Li3  1  0.995539  0.975628  0.500000  1
  Tm  Tm4  1  0.334249  0.668747  0.000000  1
  Ni  Ni5  1  0.276698  0.392323  0.500000  1
  Ni  Ni6  1  0.611535  0.886697  0.500000  1
  Ni  Ni7  1  0.106166  0.726614  0.500000  1
  Ni  Ni8  1  0.498143  0.459491  0.000000  1
  Ni  Ni9  1  0.540280  0.040020  0.000000  1
  Ni  Ni10  1  0.959962  0.509474  0.000000  1
  Ni  Ni11  1  0.726293  0.757879  0.000000  1
  Ni  Ni12  1  0.234911  0.950842  0.000000  1
  Ni  Ni13  1  0.043979  0.293031  0.000000  1
  As  As14  1  0.240160  0.208604  0.000000  1
  As  As15  1  0.793285  0.034322  0.000000  1
  As  As16  1  0.665686  0.333486  0.000000  1
  P  P17  1  0.968817  0.753524  0.000000  1
  P  P18  1  0.543833  0.620537  0.500000  1
  P  P19  1  0.379375  0.921641  0.500000  1
  P  P20  1  0.077557  0.462814  0.500000  1
