# generated using pymatgen
data_DyLuCdCuNi
_symmetry_space_group_name_H-M   'P 1'
_cell_length_a   7.40385087
_cell_length_b   7.40385015
_cell_length_c   3.64533700
_cell_angle_alpha   90.00000000
_cell_angle_beta   90.00000000
_cell_angle_gamma   90.46144154
_symmetry_Int_Tables_number   1
_chemical_formula_structural   DyLuCdCuNi
_chemical_formula_sum   'Dy2 Lu2 Cd2 Cu2 Ni2'
_cell_volume   199.81996647
_cell_formula_units_Z   2
loop_
 _symmetry_equiv_pos_site_id
 _symmetry_equiv_pos_as_xyz
  1  'x, y, z'
loop_
 _atom_site_type_symbol
 _atom_site_label
 _atom_site_symmetry_multiplicity
 _atom_site_fract_x
 _atom_site_fract_y
 _atom_site_fract_z
 _atom_site_occupancy
  Dy  Dy0  1  0.685155  0.185155  0.500000  1
  Dy  Dy1  1  0.314845  0.814845  0.500000  1
  Lu  Lu2  1  0.165468  0.334532  0.500000  1
  Lu  Lu3  1  0.834532  0.665468  0.500000  1
  Cd  Cd4  1  0.000000  0.000000  0.000000  1
  Cd  Cd5  1  0.500000  0.500000  0.000000  1
  Cu  Cu6  1  0.620530  0.879470  0.000000  1
  Cu  Cu7  1  0.379470  0.120530  0.000000  1
  Ni  Ni8  1  0.118228  0.618228  0.000000  1
  Ni  Ni9  1  0.881772  0.381772  0.000000  1
