# generated using pymatgen
data_Ce2Pr2Zn7NiRu2
_symmetry_space_group_name_H-M   'P 1'
_cell_length_a   7.19760841
_cell_length_b   7.19760836
_cell_length_c   5.15393491
_cell_angle_alpha   90.27841410
_cell_angle_beta   90.27841571
_cell_angle_gamma   90.25022850
_symmetry_Int_Tables_number   1
_chemical_formula_structural   Ce2Pr2Zn7NiRu2
_chemical_formula_sum   'Ce2 Pr2 Zn7 Ni1 Ru2'
_cell_volume   266.99363884
_cell_formula_units_Z   1
loop_
 _symmetry_equiv_pos_site_id
 _symmetry_equiv_pos_as_xyz
  1  'x, y, z'
loop_
 _atom_site_type_symbol
 _atom_site_label
 _atom_site_symmetry_multiplicity
 _atom_site_fract_x
 _atom_site_fract_y
 _atom_site_fract_z
 _atom_site_occupancy
  Ce  Ce0  1  0.009816  0.991325  0.011473  1
  Ce  Ce1  1  0.491325  0.509816  0.011473  1
  Pr  Pr2  1  0.004738  0.504738  0.766402  1
  Pr  Pr3  1  0.494852  0.994852  0.233962  1
  Zn  Zn4  1  0.823680  0.684639  0.292807  1
  Zn  Zn5  1  0.808932  0.308932  0.288191  1
  Zn  Zn6  1  0.316343  0.186198  0.713355  1
  Zn  Zn7  1  0.184639  0.323680  0.292807  1
  Zn  Zn8  1  0.689398  0.189398  0.726807  1
  Zn  Zn9  1  0.686198  0.816343  0.713355  1
  Zn  Zn10  1  0.303736  0.803736  0.686767  1
  Ni  Ni11  1  0.182885  0.682885  0.250346  1
  Ru  Ru12  1  0.504551  0.498905  0.506128  1
  Ru  Ru13  1  0.998905  0.004551  0.506128  1
