# generated using pymatgen
data_TbY5(Ni3P2)6
_symmetry_space_group_name_H-M   'P 1'
_cell_length_a   3.79154500
_cell_length_b   10.50525700
_cell_length_c   12.35332200
_cell_angle_alpha   90.00000000
_cell_angle_beta   90.00000000
_cell_angle_gamma   90.00000000
_symmetry_Int_Tables_number   1
_chemical_formula_structural   TbY5(Ni3P2)6
_chemical_formula_sum   'Tb1 Y5 Ni18 P12'
_cell_volume   492.04707905
_cell_formula_units_Z   1
loop_
 _symmetry_equiv_pos_site_id
 _symmetry_equiv_pos_as_xyz
  1  'x, y, z'
loop_
 _atom_site_type_symbol
 _atom_site_label
 _atom_site_symmetry_multiplicity
 _atom_site_fract_x
 _atom_site_fract_y
 _atom_site_fract_z
 _atom_site_occupancy
  Tb  Tb0  1  0.750000  0.250000  0.478710  1
  Y  Y1  1  0.250000  0.750000  0.520941  1
  Y  Y2  1  0.250000  0.933248  0.794516  1
  Y  Y3  1  0.250000  0.566752  0.794516  1
  Y  Y4  1  0.750000  0.066161  0.205639  1
  Y  Y5  1  0.750000  0.433839  0.205639  1
  Ni  Ni6  1  0.250000  0.250000  0.841612  1
  Ni  Ni7  1  0.750000  0.750000  0.158306  1
  Ni  Ni8  1  0.250000  0.250000  0.299857  1
  Ni  Ni9  1  0.750000  0.750000  0.699989  1
  Ni  Ni10  1  0.750000  0.250000  0.015465  1
  Ni  Ni11  1  0.250000  0.750000  0.984557  1
  Ni  Ni12  1  0.250000  0.417165  0.004122  1
  Ni  Ni13  1  0.250000  0.082835  0.004122  1
  Ni  Ni14  1  0.750000  0.582751  0.995927  1
  Ni  Ni15  1  0.750000  0.917249  0.995927  1
  Ni  Ni16  1  0.250000  0.449111  0.571393  1
  Ni  Ni17  1  0.250000  0.050889  0.571393  1
  Ni  Ni18  1  0.750000  0.550902  0.428711  1
  Ni  Ni19  1  0.750000  0.949098  0.428711  1
  Ni  Ni20  1  0.250000  0.870140  0.288881  1
  Ni  Ni21  1  0.250000  0.629860  0.288881  1
  Ni  Ni22  1  0.750000  0.129689  0.711115  1
  Ni  Ni23  1  0.750000  0.370311  0.711115  1
  P  P24  1  0.250000  0.250000  0.122876  1
  P  P25  1  0.750000  0.750000  0.877146  1
  P  P26  1  0.250000  0.250000  0.656807  1
  P  P27  1  0.750000  0.750000  0.343428  1
  P  P28  1  0.250000  0.437198  0.385688  1
  P  P29  1  0.250000  0.062802  0.385688  1
  P  P30  1  0.750000  0.562846  0.614180  1
  P  P31  1  0.750000  0.937154  0.614180  1
  P  P32  1  0.250000  0.901871  0.107181  1
  P  P33  1  0.250000  0.598129  0.107181  1
  P  P34  1  0.750000  0.098106  0.892799  1
  P  P35  1  0.750000  0.401894  0.892799  1
