# generated using pymatgen
data_Tb5InBi2
_symmetry_space_group_name_H-M   'P 1'
_cell_length_a   9.13970946
_cell_length_b   9.15701026
_cell_length_c   6.56086300
_cell_angle_alpha   90.00000000
_cell_angle_beta   90.00000000
_cell_angle_gamma   120.06264501
_symmetry_Int_Tables_number   1
_chemical_formula_structural   Tb5InBi2
_chemical_formula_sum   'Tb10 In2 Bi4'
_cell_volume   475.22928580
_cell_formula_units_Z   2
loop_
 _symmetry_equiv_pos_site_id
 _symmetry_equiv_pos_as_xyz
  1  'x, y, z'
loop_
 _atom_site_type_symbol
 _atom_site_label
 _atom_site_symmetry_multiplicity
 _atom_site_fract_x
 _atom_site_fract_y
 _atom_site_fract_z
 _atom_site_occupancy
  Tb  Tb0  1  0.660523  0.328943  0.997595  1
  Tb  Tb1  1  0.339477  0.668420  0.997595  1
  Tb  Tb2  1  0.339477  0.668420  0.502405  1
  Tb  Tb3  1  0.660523  0.328943  0.502405  1
  Tb  Tb4  1  0.755713  0.763786  0.750000  1
  Tb  Tb5  1  0.244287  0.008073  0.750000  1
  Tb  Tb6  1  0.000000  0.235473  0.750000  1
  Tb  Tb7  1  0.239425  0.237950  0.250000  1
  Tb  Tb8  1  0.760575  0.998526  0.250000  1
  Tb  Tb9  1  0.000000  0.760853  0.250000  1
  In  In10  1  0.392919  0.394535  0.750000  1
  In  In11  1  0.607081  0.001616  0.750000  1
  Bi  Bi12  1  0.000000  0.609677  0.750000  1
  Bi  Bi13  1  0.608056  0.605288  0.250000  1
  Bi  Bi14  1  0.391944  0.997232  0.250000  1
  Bi  Bi15  1  0.000000  0.392264  0.250000  1
