# generated using pymatgen
data_Li4Nd2ThSi4
_symmetry_space_group_name_H-M   'P 1'
_cell_length_a   8.28162765
_cell_length_b   8.28162588
_cell_length_c   8.28162700
_cell_angle_alpha   149.12651601
_cell_angle_beta   132.50135558
_cell_angle_gamma   57.72997348
_symmetry_Int_Tables_number   1
_chemical_formula_structural   Li4Nd2ThSi4
_chemical_formula_sum   'Li4 Nd2 Th1 Si4'
_cell_volume   213.29386062
_cell_formula_units_Z   1
loop_
 _symmetry_equiv_pos_site_id
 _symmetry_equiv_pos_as_xyz
  1  'x, y, z'
loop_
 _atom_site_type_symbol
 _atom_site_label
 _atom_site_symmetry_multiplicity
 _atom_site_fract_x
 _atom_site_fract_y
 _atom_site_fract_z
 _atom_site_occupancy
  Li  Li0  1  0.861593  0.670252  0.191341  1
  Li  Li1  1  0.138407  0.329748  0.808659  1
  Li  Li2  1  0.478909  0.670252  0.808659  1
  Li  Li3  1  0.521091  0.329748  0.191341  1
  Nd  Nd4  1  0.868868  0.868868  0.000000  1
  Nd  Nd5  1  0.131132  0.131132  0.000000  1
  Th  Th6  1  0.500000  0.000000  0.500000  1
  Si  Si7  1  0.289106  0.789106  0.500000  1
  Si  Si8  1  0.818378  0.500000  0.318378  1
  Si  Si9  1  0.181622  0.500000  0.681622  1
  Si  Si10  1  0.710894  0.210894  0.500000  1
