# generated using pymatgen
data_La10Yb3Pr3Mg2(CdIr2)2
_symmetry_space_group_name_H-M   'P 1'
_cell_length_a   10.10847205
_cell_length_b   10.11640794
_cell_length_c   10.09201298
_cell_angle_alpha   60.13758687
_cell_angle_beta   60.16548637
_cell_angle_gamma   59.90729224
_symmetry_Int_Tables_number   1
_chemical_formula_structural   La10Yb3Pr3Mg2(CdIr2)2
_chemical_formula_sum   'La10 Yb3 Pr3 Mg2 Cd2 Ir4'
_cell_volume   730.90168255
_cell_formula_units_Z   1
loop_
 _symmetry_equiv_pos_site_id
 _symmetry_equiv_pos_as_xyz
  1  'x, y, z'
loop_
 _atom_site_type_symbol
 _atom_site_label
 _atom_site_symmetry_multiplicity
 _atom_site_fract_x
 _atom_site_fract_y
 _atom_site_fract_z
 _atom_site_occupancy
  La  La0  1  0.347264  0.347520  0.343440  1
  La  La1  1  0.349538  0.345900  0.960387  1
  La  La2  1  0.343939  0.962089  0.348134  1
  La  La3  1  0.963746  0.343738  0.345544  1
  La  La4  1  0.812530  0.187823  0.189210  1
  La  La5  1  0.191667  0.809081  0.810169  1
  La  La6  1  0.189157  0.810594  0.189023  1
  La  La7  1  0.810429  0.189653  0.810173  1
  La  La8  1  0.195893  0.192826  0.806894  1
  La  La9  1  0.805858  0.809151  0.196986  1
  Yb  Yb10  1  0.941449  0.561699  0.563517  1
  Yb  Yb11  1  0.562342  0.938532  0.938232  1
  Yb  Yb12  1  0.560976  0.943437  0.560146  1
  Pr  Pr13  1  0.936230  0.567046  0.936267  1
  Pr  Pr14  1  0.567861  0.570525  0.922726  1
  Pr  Pr15  1  0.930130  0.938629  0.565443  1
  Mg  Mg16  1  0.573256  0.571227  0.580394  1
  Mg  Mg17  1  0.576261  0.570518  0.269864  1
  Cd  Cd18  1  0.582303  0.257551  0.580721  1
  Cd  Cd19  1  0.258187  0.580646  0.581303  1
  Ir  Ir20  1  0.144163  0.141015  0.137237  1
  Ir  Ir21  1  0.141748  0.141873  0.579231  1
  Ir  Ir22  1  0.135357  0.580868  0.140914  1
  Ir  Ir23  1  0.579706  0.138053  0.144042  1
