# generated using pymatgen
data_YHo3(Ga2Ag)4
_symmetry_space_group_name_H-M   'P 1'
_cell_length_a   4.37313200
_cell_length_b   6.94524487
_cell_length_c   10.24741109
_cell_angle_alpha   90.05301116
_cell_angle_beta   90.00000000
_cell_angle_gamma   90.00000000
_symmetry_Int_Tables_number   1
_chemical_formula_structural   YHo3(Ga2Ag)4
_chemical_formula_sum   'Y1 Ho3 Ga8 Ag4'
_cell_volume   311.23907904
_cell_formula_units_Z   1
loop_
 _symmetry_equiv_pos_site_id
 _symmetry_equiv_pos_as_xyz
  1  'x, y, z'
loop_
 _atom_site_type_symbol
 _atom_site_label
 _atom_site_symmetry_multiplicity
 _atom_site_fract_x
 _atom_site_fract_y
 _atom_site_fract_z
 _atom_site_occupancy
  Y  Y0  1  0.250000  0.279267  0.675637  1
  Ho  Ho1  1  0.250000  0.779097  0.824976  1
  Ho  Ho2  1  0.750000  0.220666  0.175347  1
  Ho  Ho3  1  0.750000  0.720740  0.324580  1
  Ga  Ga4  1  0.250000  0.928913  0.154513  1
  Ga  Ga5  1  0.750000  0.070356  0.845861  1
  Ga  Ga6  1  0.750000  0.572098  0.654441  1
  Ga  Ga7  1  0.250000  0.429232  0.345410  1
  Ga  Ga8  1  0.250000  0.702084  0.535892  1
  Ga  Ga9  1  0.750000  0.298707  0.463513  1
  Ga  Ga10  1  0.750000  0.798878  0.036094  1
  Ga  Ga11  1  0.250000  0.200567  0.964705  1
  Ag  Ag12  1  0.250000  0.544905  0.095757  1
  Ag  Ag13  1  0.750000  0.455228  0.904441  1
  Ag  Ag14  1  0.750000  0.954752  0.595366  1
  Ag  Ag15  1  0.250000  0.044508  0.403469  1
