# generated using pymatgen
data_ErSc7Ti11Si16Ru
_symmetry_space_group_name_H-M   'P 1'
_cell_length_a   6.86170804
_cell_length_b   6.86635135
_cell_length_c   12.56396333
_cell_angle_alpha   89.97563986
_cell_angle_beta   89.96940612
_cell_angle_gamma   89.85974835
_symmetry_Int_Tables_number   1
_chemical_formula_structural   ErSc7Ti11Si16Ru
_chemical_formula_sum   'Er1 Sc7 Ti11 Si16 Ru1'
_cell_volume   591.94794295
_cell_formula_units_Z   1
loop_
 _symmetry_equiv_pos_site_id
 _symmetry_equiv_pos_as_xyz
  1  'x, y, z'
loop_
 _atom_site_type_symbol
 _atom_site_label
 _atom_site_symmetry_multiplicity
 _atom_site_fract_x
 _atom_site_fract_y
 _atom_site_fract_z
 _atom_site_occupancy
  Er  Er0  1  0.997265  0.658178  0.031055  1
  Sc  Sc1  1  0.341822  0.002684  0.468169  1
  Sc  Sc2  1  0.497695  0.842400  0.717156  1
  Sc  Sc3  1  0.499556  0.157898  0.217226  1
  Sc  Sc4  1  0.842125  0.498103  0.282567  1
  Sc  Sc5  1  0.157958  0.499123  0.784118  1
  Sc  Sc6  1  0.656578  0.000068  0.967639  1
  Sc  Sc7  1  0.002734  0.342215  0.532167  1
  Ti  Ti8  1  0.174412  0.829225  0.249018  1
  Ti  Ti9  1  0.827403  0.173339  0.750802  1
  Ti  Ti10  1  0.673280  0.673686  0.500014  1
  Ti  Ti11  1  0.149421  0.999126  0.871254  1
  Ti  Ti12  1  0.494006  0.653569  0.123823  1
  Ti  Ti13  1  0.505476  0.352562  0.626910  1
  Ti  Ti14  1  0.652817  0.491210  0.875058  1
  Ti  Ti15  1  0.352869  0.505527  0.374316  1
  Ti  Ti16  1  0.851797  0.996155  0.375382  1
  Ti  Ti17  1  0.000921  0.149256  0.127828  1
  Ti  Ti18  1  0.995308  0.852168  0.625117  1
  Si  Si19  1  0.204635  0.138616  0.679623  1
  Si  Si20  1  0.371207  0.705754  0.927134  1
  Si  Si21  1  0.637197  0.295061  0.430430  1
  Si  Si22  1  0.699338  0.362614  0.070655  1
  Si  Si23  1  0.294417  0.637140  0.570167  1
  Si  Si24  1  0.790889  0.866315  0.182616  1
  Si  Si25  1  0.138246  0.204843  0.320839  1
  Si  Si26  1  0.860368  0.795050  0.817813  1
  Si  Si27  1  0.295220  0.960053  0.064055  1
  Si  Si28  1  0.545066  0.798483  0.316468  1
  Si  Si29  1  0.450390  0.203537  0.817260  1
  Si  Si30  1  0.798611  0.546025  0.683782  1
  Si  Si31  1  0.207637  0.448481  0.184480  1
  Si  Si32  1  0.702260  0.047857  0.565559  1
  Si  Si33  1  0.955291  0.286365  0.934806  1
  Si  Si34  1  0.047444  0.702652  0.434533  1
  Ru  Ru35  1  0.328343  0.324664  0.000163  1
