# generated using pymatgen
data_Tb6Sm4Sn5Bi3
_symmetry_space_group_name_H-M   'P 1'
_cell_length_a   8.24291600
_cell_length_b   8.27878460
_cell_length_c   15.66961583
_cell_angle_alpha   90.18284345
_cell_angle_beta   90.00000000
_cell_angle_gamma   90.00000000
_symmetry_Int_Tables_number   1
_chemical_formula_structural   Tb6Sm4Sn5Bi3
_chemical_formula_sum   'Tb12 Sm8 Sn10 Bi6'
_cell_volume   1069.30991800
_cell_formula_units_Z   2
loop_
 _symmetry_equiv_pos_site_id
 _symmetry_equiv_pos_as_xyz
  1  'x, y, z'
loop_
 _atom_site_type_symbol
 _atom_site_label
 _atom_site_symmetry_multiplicity
 _atom_site_fract_x
 _atom_site_fract_y
 _atom_site_fract_z
 _atom_site_occupancy
  Tb  Tb0  1  0.369279  0.839565  0.874704  1
  Tb  Tb1  1  0.869279  0.660435  0.625296  1
  Tb  Tb2  1  0.625565  0.160363  0.374876  1
  Tb  Tb3  1  0.125565  0.339637  0.125124  1
  Tb  Tb4  1  0.632769  0.165409  0.124545  1
  Tb  Tb5  1  0.132769  0.334591  0.375455  1
  Tb  Tb6  1  0.366575  0.842724  0.624205  1
  Tb  Tb7  1  0.866575  0.657276  0.875795  1
  Tb  Tb8  1  0.199899  0.499397  0.749750  1
  Tb  Tb9  1  0.699899  0.000603  0.750250  1
  Tb  Tb10  1  0.800338  0.500386  0.247258  1
  Tb  Tb11  1  0.300338  0.999614  0.252742  1
  Sm  Sm12  1  0.536085  0.328186  0.896605  1
  Sm  Sm13  1  0.036085  0.171814  0.603395  1
  Sm  Sm14  1  0.467879  0.680170  0.395346  1
  Sm  Sm15  1  0.967879  0.819830  0.104654  1
  Sm  Sm16  1  0.474834  0.672342  0.103461  1
  Sm  Sm17  1  0.974834  0.827658  0.396539  1
  Sm  Sm18  1  0.528004  0.320498  0.603253  1
  Sm  Sm19  1  0.028004  0.179502  0.896747  1
  Sn  Sn20  1  0.286976  0.034187  0.457073  1
  Sn  Sn21  1  0.786976  0.465813  0.042927  1
  Sn  Sn22  1  0.564525  0.624161  0.748755  1
  Sn  Sn23  1  0.064525  0.875839  0.751245  1
  Sn  Sn24  1  0.433414  0.376974  0.249838  1
  Sn  Sn25  1  0.933414  0.123026  0.250162  1
  Sn  Sn26  1  0.336035  0.146629  0.751226  1
  Sn  Sn27  1  0.836035  0.353371  0.748774  1
  Sn  Sn28  1  0.666064  0.855745  0.249776  1
  Sn  Sn29  1  0.166064  0.644255  0.250224  1
  Bi  Bi30  1  0.284664  0.032964  0.043445  1
  Bi  Bi31  1  0.784664  0.467036  0.456555  1
  Bi  Bi32  1  0.712877  0.965638  0.542429  1
  Bi  Bi33  1  0.212877  0.534362  0.957571  1
  Bi  Bi34  1  0.714216  0.966150  0.957179  1
  Bi  Bi35  1  0.214216  0.533850  0.542821  1
