# generated using pymatgen
data_Tb3Zr2Pb3
_symmetry_space_group_name_H-M   'P 1'
_cell_length_a   8.98764300
_cell_length_b   8.98764225
_cell_length_c   6.18838600
_cell_angle_alpha   90.00000000
_cell_angle_beta   90.00000000
_cell_angle_gamma   120.00000645
_symmetry_Int_Tables_number   1
_chemical_formula_structural   Tb3Zr2Pb3
_chemical_formula_sum   'Tb6 Zr4 Pb6'
_cell_volume   432.91196462
_cell_formula_units_Z   2
loop_
 _symmetry_equiv_pos_site_id
 _symmetry_equiv_pos_as_xyz
  1  'x, y, z'
loop_
 _atom_site_type_symbol
 _atom_site_label
 _atom_site_symmetry_multiplicity
 _atom_site_fract_x
 _atom_site_fract_y
 _atom_site_fract_z
 _atom_site_occupancy
  Tb  Tb0  1  0.760170  0.760170  0.250000  1
  Tb  Tb1  1  0.000000  0.239830  0.250000  1
  Tb  Tb2  1  0.760170  0.000000  0.750000  1
  Tb  Tb3  1  0.239830  0.000000  0.250000  1
  Tb  Tb4  1  0.000000  0.760170  0.750000  1
  Tb  Tb5  1  0.239830  0.239830  0.750000  1
  Zr  Zr6  1  0.333333  0.666667  0.500000  1
  Zr  Zr7  1  0.666667  0.333333  0.500000  1
  Zr  Zr8  1  0.333333  0.666667  0.000000  1
  Zr  Zr9  1  0.666667  0.333333  0.000000  1
  Pb  Pb10  1  0.601175  0.601175  0.750000  1
  Pb  Pb11  1  0.398825  0.000000  0.750000  1
  Pb  Pb12  1  0.601175  0.000000  0.250000  1
  Pb  Pb13  1  0.000000  0.398825  0.750000  1
  Pb  Pb14  1  0.398825  0.398825  0.250000  1
  Pb  Pb15  1  0.000000  0.601175  0.250000  1
