# generated using pymatgen
data_Eu2ZnPt2Rh
_symmetry_space_group_name_H-M   'P 1'
_cell_length_a   5.36405608
_cell_length_b   5.32488579
_cell_length_c   5.32488605
_cell_angle_alpha   63.81377495
_cell_angle_beta   64.00470756
_cell_angle_gamma   64.00471362
_symmetry_Int_Tables_number   1
_chemical_formula_structural   Eu2ZnPt2Rh
_chemical_formula_sum   'Eu2 Zn1 Pt2 Rh1'
_cell_volume   116.88566915
_cell_formula_units_Z   1
loop_
 _symmetry_equiv_pos_site_id
 _symmetry_equiv_pos_as_xyz
  1  'x, y, z'
loop_
 _atom_site_type_symbol
 _atom_site_label
 _atom_site_symmetry_multiplicity
 _atom_site_fract_x
 _atom_site_fract_y
 _atom_site_fract_z
 _atom_site_occupancy
  Eu  Eu0  1  0.246879  0.251806  0.251806  1
  Eu  Eu1  1  0.003121  0.998194  0.998194  1
  Zn  Zn2  1  0.625000  0.625000  0.625000  1
  Pt  Pt3  1  0.625000  0.125000  0.625000  1
  Pt  Pt4  1  0.625000  0.625000  0.125000  1
  Rh  Rh5  1  0.125000  0.625000  0.625000  1
