# generated using pymatgen
data_RbHfCrSe4
_symmetry_space_group_name_H-M   'P 1'
_cell_length_a   6.45907900
_cell_length_b   7.57358800
_cell_length_c   16.87928800
_cell_angle_alpha   90.00000000
_cell_angle_beta   90.00000000
_cell_angle_gamma   90.00000000
_symmetry_Int_Tables_number   1
_chemical_formula_structural   RbHfCrSe4
_chemical_formula_sum   'Rb4 Hf4 Cr4 Se16'
_cell_volume   825.70781620
_cell_formula_units_Z   4
loop_
 _symmetry_equiv_pos_site_id
 _symmetry_equiv_pos_as_xyz
  1  'x, y, z'
loop_
 _atom_site_type_symbol
 _atom_site_label
 _atom_site_symmetry_multiplicity
 _atom_site_fract_x
 _atom_site_fract_y
 _atom_site_fract_z
 _atom_site_occupancy
  Rb  Rb0  1  0.344474  0.000000  0.000000  1
  Rb  Rb1  1  0.655526  0.500000  0.500000  1
  Rb  Rb2  1  0.016398  0.000000  0.500000  1
  Rb  Rb3  1  0.983602  0.500000  0.000000  1
  Hf  Hf4  1  0.500000  0.250000  0.250000  1
  Hf  Hf5  1  0.500000  0.750000  0.750000  1
  Hf  Hf6  1  0.500000  0.750000  0.250000  1
  Hf  Hf7  1  0.500000  0.250000  0.750000  1
  Cr  Cr8  1  0.000906  0.000000  0.250097  1
  Cr  Cr9  1  0.000906  0.000000  0.749903  1
  Cr  Cr10  1  0.999094  0.500000  0.249903  1
  Cr  Cr11  1  0.999094  0.500000  0.750097  1
  Se  Se12  1  0.847063  0.250807  0.336520  1
  Se  Se13  1  0.847063  0.749193  0.663480  1
  Se  Se14  1  0.152937  0.750807  0.163480  1
  Se  Se15  1  0.152937  0.249193  0.836520  1
  Se  Se16  1  0.152937  0.249193  0.163480  1
  Se  Se17  1  0.152937  0.750807  0.836520  1
  Se  Se18  1  0.847063  0.749193  0.336520  1
  Se  Se19  1  0.847063  0.250807  0.663480  1
  Se  Se20  1  0.678921  0.000000  0.159978  1
  Se  Se21  1  0.678921  0.000000  0.840022  1
  Se  Se22  1  0.321079  0.500000  0.340022  1
  Se  Se23  1  0.321079  0.500000  0.659978  1
  Se  Se24  1  0.327980  0.000000  0.340273  1
  Se  Se25  1  0.327980  0.000000  0.659727  1
  Se  Se26  1  0.672020  0.500000  0.159727  1
  Se  Se27  1  0.672020  0.500000  0.840273  1
