# generated using pymatgen
data_Sc4Sn2B4Ru3Rh7
_symmetry_space_group_name_H-M   'P 1'
_cell_length_a   9.52922055
_cell_length_b   9.55871554
_cell_length_c   3.09745900
_cell_angle_alpha   90.00000000
_cell_angle_beta   90.00000000
_cell_angle_gamma   89.88813934
_symmetry_Int_Tables_number   1
_chemical_formula_structural   Sc4Sn2B4Ru3Rh7
_chemical_formula_sum   'Sc4 Sn2 B4 Ru3 Rh7'
_cell_volume   282.13804661
_cell_formula_units_Z   1
loop_
 _symmetry_equiv_pos_site_id
 _symmetry_equiv_pos_as_xyz
  1  'x, y, z'
loop_
 _atom_site_type_symbol
 _atom_site_label
 _atom_site_symmetry_multiplicity
 _atom_site_fract_x
 _atom_site_fract_y
 _atom_site_fract_z
 _atom_site_occupancy
  Sc  Sc0  1  0.832215  0.324388  0.000000  1
  Sc  Sc1  1  0.322464  0.173154  0.000000  1
  Sc  Sc2  1  0.672554  0.827450  0.000000  1
  Sc  Sc3  1  0.173136  0.671917  0.000000  1
  Sn  Sn4  1  0.000268  0.001873  0.000000  1
  Sn  Sn5  1  0.500364  0.499893  0.000000  1
  B  B6  1  0.620295  0.119896  0.000000  1
  B  B7  1  0.117771  0.375656  0.000000  1
  B  B8  1  0.881178  0.619988  0.000000  1
  B  B9  1  0.379558  0.880210  0.000000  1
  Ru  Ru10  1  0.073506  0.221785  0.500000  1
  Ru  Ru11  1  0.499619  0.000033  0.500000  1
  Ru  Ru12  1  0.000409  0.502440  0.500000  1
  Rh  Rh13  1  0.221668  0.924776  0.500000  1
  Rh  Rh14  1  0.777149  0.072416  0.500000  1
  Rh  Rh15  1  0.925708  0.779985  0.500000  1
  Rh  Rh16  1  0.427315  0.721862  0.500000  1
  Rh  Rh17  1  0.573755  0.278280  0.500000  1
  Rh  Rh18  1  0.721718  0.574575  0.500000  1
  Rh  Rh19  1  0.279349  0.429424  0.500000  1
