# generated using pymatgen
data_Tb4Sc8GaNi4Sn
_symmetry_space_group_name_H-M   'P 1'
_cell_length_a   8.00884564
_cell_length_b   8.00914913
_cell_length_c   8.00884583
_cell_angle_alpha   106.79963799
_cell_angle_beta   110.16305043
_cell_angle_gamma   111.48491987
_symmetry_Int_Tables_number   1
_chemical_formula_structural   Tb4Sc8GaNi4Sn
_chemical_formula_sum   'Tb4 Sc8 Ga1 Ni4 Sn1'
_cell_volume   394.77298454
_cell_formula_units_Z   1
loop_
 _symmetry_equiv_pos_site_id
 _symmetry_equiv_pos_as_xyz
  1  'x, y, z'
loop_
 _atom_site_type_symbol
 _atom_site_label
 _atom_site_symmetry_multiplicity
 _atom_site_fract_x
 _atom_site_fract_y
 _atom_site_fract_z
 _atom_site_occupancy
  Tb  Tb0  1  0.603766  0.790686  0.813062  1
  Tb  Tb1  1  0.977623  0.790686  0.186919  1
  Tb  Tb2  1  0.022377  0.209314  0.813081  1
  Tb  Tb3  1  0.396234  0.209314  0.186938  1
  Sc  Sc4  1  0.700680  0.275786  0.976471  1
  Sc  Sc5  1  0.299320  0.724214  0.023529  1
  Sc  Sc6  1  0.700685  0.724214  0.424896  1
  Sc  Sc7  1  0.299315  0.275786  0.575104  1
  Sc  Sc8  1  0.807612  0.132318  0.324707  1
  Sc  Sc9  1  0.807602  0.482943  0.675340  1
  Sc  Sc10  1  0.192388  0.867682  0.675293  1
  Sc  Sc11  1  0.192398  0.517057  0.324660  1
  Ga  Ga12  1  0.500000  0.500000  0.000000  1
  Ni  Ni13  1  0.856896  0.500000  0.356896  1
  Ni  Ni14  1  0.143104  0.500000  0.643104  1
  Ni  Ni15  1  0.000061  0.136151  0.136090  1
  Ni  Ni16  1  0.999939  0.863849  0.863910  1
  Sn  Sn17  1  0.500000  0.000000  0.500000  1
