# generated using pymatgen
data_SmY3Ho2PtI10
_symmetry_space_group_name_H-M   'P 1'
_cell_length_a   7.75291866
_cell_length_b   9.76604320
_cell_length_c   9.81421751
_cell_angle_alpha   107.04677774
_cell_angle_beta   96.59564761
_cell_angle_gamma   104.55869899
_symmetry_Int_Tables_number   1
_chemical_formula_structural   SmY3Ho2PtI10
_chemical_formula_sum   'Sm1 Y3 Ho2 Pt1 I10'
_cell_volume   673.20234731
_cell_formula_units_Z   1
loop_
 _symmetry_equiv_pos_site_id
 _symmetry_equiv_pos_as_xyz
  1  'x, y, z'
loop_
 _atom_site_type_symbol
 _atom_site_label
 _atom_site_symmetry_multiplicity
 _atom_site_fract_x
 _atom_site_fract_y
 _atom_site_fract_z
 _atom_site_occupancy
  Sm  Sm0  1  0.882333  0.957656  0.244474  1
  Y  Y1  1  0.652434  0.875947  0.834078  1
  Y  Y2  1  0.969204  0.286897  0.085436  1
  Y  Y3  1  0.031918  0.713209  0.912355  1
  Ho  Ho4  1  0.116487  0.041834  0.760274  1
  Ho  Ho5  1  0.345264  0.123795  0.163561  1
  Pt  Pt6  1  0.000927  0.000162  0.999153  1
  I  I7  1  0.350750  0.448470  0.271533  1
  I  I8  1  0.650154  0.550105  0.728736  1
  I  I9  1  0.915794  0.623087  0.177504  1
  I  I10  1  0.085836  0.372128  0.819716  1
  I  I11  1  0.450692  0.816029  0.090279  1
  I  I12  1  0.544695  0.183477  0.908528  1
  I  I13  1  0.262639  0.088583  0.464010  1
  I  I14  1  0.743979  0.914027  0.542395  1
  I  I15  1  0.771420  0.259484  0.344024  1
  I  I16  1  0.225474  0.745109  0.653941  1
