# generated using pymatgen
data_Dy7Er3(BiPb)3
_symmetry_space_group_name_H-M   'P 1'
_cell_length_a   9.11929300
_cell_length_b   9.11929427
_cell_length_c   6.45921500
_cell_angle_alpha   90.00000000
_cell_angle_beta   90.00000000
_cell_angle_gamma   120.00000628
_symmetry_Int_Tables_number   1
_chemical_formula_structural   Dy7Er3(BiPb)3
_chemical_formula_sum   'Dy7 Er3 Bi3 Pb3'
_cell_volume   465.19254312
_cell_formula_units_Z   1
loop_
 _symmetry_equiv_pos_site_id
 _symmetry_equiv_pos_as_xyz
  1  'x, y, z'
loop_
 _atom_site_type_symbol
 _atom_site_label
 _atom_site_symmetry_multiplicity
 _atom_site_fract_x
 _atom_site_fract_y
 _atom_site_fract_z
 _atom_site_occupancy
  Dy  Dy0  1  0.666667  0.333333  0.002697  1
  Dy  Dy1  1  0.761698  0.761676  0.749901  1
  Dy  Dy2  1  0.238324  0.000022  0.749901  1
  Dy  Dy3  1  0.999978  0.238302  0.749901  1
  Dy  Dy4  1  0.238662  0.238687  0.250080  1
  Dy  Dy5  1  0.761313  0.999975  0.250080  1
  Dy  Dy6  1  0.000025  0.761338  0.250080  1
  Er  Er7  1  0.333333  0.666667  0.002973  1
  Er  Er8  1  0.333333  0.666667  0.497096  1
  Er  Er9  1  0.666667  0.333333  0.497168  1
  Bi  Bi10  1  0.393095  0.393379  0.749742  1
  Bi  Bi11  1  0.606621  0.999716  0.749742  1
  Bi  Bi12  1  0.000284  0.606905  0.749742  1
  Pb  Pb13  1  0.606963  0.607294  0.250298  1
  Pb  Pb14  1  0.392706  0.999668  0.250298  1
  Pb  Pb15  1  0.000332  0.393037  0.250298  1
