# generated using pymatgen
data_Er4Lu4Tc(B8Ru)3
_symmetry_space_group_name_H-M   'P 1'
_cell_length_a   3.61872200
_cell_length_b   9.05424530
_cell_length_c   11.43898901
_cell_angle_alpha   89.91528702
_cell_angle_beta   90.00000000
_cell_angle_gamma   90.00000000
_symmetry_Int_Tables_number   1
_chemical_formula_structural   Er4Lu4Tc(B8Ru)3
_chemical_formula_sum   'Er4 Lu4 Tc1 B24 Ru3'
_cell_volume   374.79573903
_cell_formula_units_Z   1
loop_
 _symmetry_equiv_pos_site_id
 _symmetry_equiv_pos_as_xyz
  1  'x, y, z'
loop_
 _atom_site_type_symbol
 _atom_site_label
 _atom_site_symmetry_multiplicity
 _atom_site_fract_x
 _atom_site_fract_y
 _atom_site_fract_z
 _atom_site_occupancy
  Er  Er0  1  0.000000  0.323307  0.413264  1
  Er  Er1  1  0.000000  0.677976  0.583396  1
  Er  Er2  1  0.000000  0.819644  0.087822  1
  Er  Er3  1  0.000000  0.177698  0.915035  1
  Lu  Lu4  1  0.000000  0.943278  0.372542  1
  Lu  Lu5  1  0.000000  0.057110  0.627867  1
  Lu  Lu6  1  0.000000  0.444159  0.128136  1
  Lu  Lu7  1  0.000000  0.556727  0.871695  1
  Tc  Tc8  1  0.000000  0.638140  0.320501  1
  B  B9  1  0.500000  0.553076  0.433368  1
  B  B10  1  0.500000  0.446186  0.567271  1
  B  B11  1  0.500000  0.053853  0.066897  1
  B  B12  1  0.500000  0.945971  0.933357  1
  B  B13  1  0.500000  0.749800  0.419515  1
  B  B14  1  0.500000  0.250621  0.580531  1
  B  B15  1  0.500000  0.249523  0.080240  1
  B  B16  1  0.500000  0.750392  0.919615  1
  B  B17  1  0.500000  0.792457  0.265733  1
  B  B18  1  0.500000  0.208131  0.734333  1
  B  B19  1  0.500000  0.291708  0.233575  1
  B  B20  1  0.500000  0.708556  0.765654  1
  B  B21  1  0.500000  0.630629  0.184737  1
  B  B22  1  0.500000  0.369065  0.815693  1
  B  B23  1  0.500000  0.130752  0.315112  1
  B  B24  1  0.500000  0.869695  0.684462  1
  B  B25  1  0.500000  0.982310  0.213077  1
  B  B26  1  0.500000  0.017740  0.787322  1
  B  B27  1  0.500000  0.481324  0.286886  1
  B  B28  1  0.500000  0.517610  0.713145  1
  B  B29  1  0.500000  0.604241  0.028186  1
  B  B30  1  0.500000  0.395299  0.970874  1
  B  B31  1  0.500000  0.105092  0.471333  1
  B  B32  1  0.500000  0.896506  0.529202  1
  Ru  Ru33  1  0.000000  0.361415  0.680144  1
  Ru  Ru34  1  0.000000  0.138103  0.179029  1
  Ru  Ru35  1  0.000000  0.861904  0.820449  1
