# generated using pymatgen
data_Hf4H3C2
_symmetry_space_group_name_H-M   'P 1'
_cell_length_a   6.61171762
_cell_length_b   3.30177321
_cell_length_c   7.86877605
_cell_angle_alpha   90.04557553
_cell_angle_beta   128.93470433
_cell_angle_gamma   120.05321355
_symmetry_Int_Tables_number   1
_chemical_formula_structural   Hf4H3C2
_chemical_formula_sum   'Hf4 H3 C2'
_cell_volume   102.17053676
_cell_formula_units_Z   1
loop_
 _symmetry_equiv_pos_site_id
 _symmetry_equiv_pos_as_xyz
  1  'x, y, z'
loop_
 _atom_site_type_symbol
 _atom_site_label
 _atom_site_symmetry_multiplicity
 _atom_site_fract_x
 _atom_site_fract_y
 _atom_site_fract_z
 _atom_site_occupancy
  Hf  Hf0  1  0.695615  0.325061  0.887438  1
  Hf  Hf1  1  0.328918  0.460101  0.358941  1
  Hf  Hf2  1  0.194536  0.324156  0.887394  1
  Hf  Hf3  1  0.834700  0.466183  0.356297  1
  H  H4  1  0.816766  0.948039  0.510583  1
  H  H5  1  0.708464  0.838008  0.735544  1
  H  H6  1  0.213025  0.843075  0.734805  1
  C  C7  1  0.269286  0.899723  0.126667  1
  C  C8  1  0.759018  0.889111  0.119586  1
