# generated using pymatgen
data_LuZr3Fe8
_symmetry_space_group_name_H-M   'P 1'
_cell_length_a   8.66997570
_cell_length_b   8.66997588
_cell_length_c   8.66997544
_cell_angle_alpha   33.44973972
_cell_angle_beta   33.44973597
_cell_angle_gamma   33.44974191
_symmetry_Int_Tables_number   1
_chemical_formula_structural   LuZr3Fe8
_chemical_formula_sum   'Lu1 Zr3 Fe8'
_cell_volume   176.33827341
_cell_formula_units_Z   1
loop_
 _symmetry_equiv_pos_site_id
 _symmetry_equiv_pos_as_xyz
  1  'x, y, z'
loop_
 _atom_site_type_symbol
 _atom_site_label
 _atom_site_symmetry_multiplicity
 _atom_site_fract_x
 _atom_site_fract_y
 _atom_site_fract_z
 _atom_site_occupancy
  Lu  Lu0  1  0.125098  0.125098  0.125098  1
  Zr  Zr1  1  0.624899  0.624899  0.624899  1
  Zr  Zr2  1  0.999847  0.999847  0.999847  1
  Zr  Zr3  1  0.500246  0.500246  0.500246  1
  Fe  Fe4  1  0.562103  0.061408  0.562103  1
  Fe  Fe5  1  0.062900  0.563523  0.062900  1
  Fe  Fe6  1  0.061408  0.562103  0.562103  1
  Fe  Fe7  1  0.563523  0.062900  0.062900  1
  Fe  Fe8  1  0.812486  0.812486  0.812486  1
  Fe  Fe9  1  0.312489  0.312489  0.312489  1
  Fe  Fe10  1  0.562103  0.562103  0.061408  1
  Fe  Fe11  1  0.062900  0.062900  0.563523  1
