# generated using pymatgen
data_Hf5(BeTe)2
_symmetry_space_group_name_H-M   'P 1'
_cell_length_a   7.13580541
_cell_length_b   7.13580485
_cell_length_c   13.75651500
_cell_angle_alpha   90.00000000
_cell_angle_beta   90.00000000
_cell_angle_gamma   150.44286713
_symmetry_Int_Tables_number   1
_chemical_formula_structural   Hf5(BeTe)2
_chemical_formula_sum   'Hf10 Be4 Te4'
_cell_volume   345.53954225
_cell_formula_units_Z   2
loop_
 _symmetry_equiv_pos_site_id
 _symmetry_equiv_pos_as_xyz
  1  'x, y, z'
loop_
 _atom_site_type_symbol
 _atom_site_label
 _atom_site_symmetry_multiplicity
 _atom_site_fract_x
 _atom_site_fract_y
 _atom_site_fract_z
 _atom_site_occupancy
  Hf  Hf0  1  0.963488  0.036512  0.123228  1
  Hf  Hf1  1  0.036512  0.963488  0.876772  1
  Hf  Hf2  1  0.036512  0.963488  0.623228  1
  Hf  Hf3  1  0.963488  0.036512  0.376772  1
  Hf  Hf4  1  0.742103  0.257897  0.629160  1
  Hf  Hf5  1  0.257897  0.742103  0.370840  1
  Hf  Hf6  1  0.257897  0.742103  0.129160  1
  Hf  Hf7  1  0.742103  0.257897  0.870840  1
  Hf  Hf8  1  0.610780  0.389220  0.250000  1
  Hf  Hf9  1  0.389220  0.610780  0.750000  1
  Be  Be10  1  0.408774  0.591226  0.250000  1
  Be  Be11  1  0.591226  0.408774  0.750000  1
  Be  Be12  1  0.818018  0.181982  0.250000  1
  Be  Be13  1  0.181982  0.818018  0.750000  1
  Te  Te14  1  0.614912  0.385088  0.037208  1
  Te  Te15  1  0.385088  0.614912  0.962792  1
  Te  Te16  1  0.385088  0.614912  0.537208  1
  Te  Te17  1  0.614912  0.385088  0.462792  1
