# generated using pymatgen
data_Eu10InAu5
_symmetry_space_group_name_H-M   'P 1'
_cell_length_a   9.53481258
_cell_length_b   9.53481299
_cell_length_c   9.53481300
_cell_angle_alpha   128.47824566
_cell_angle_beta   128.47824763
_cell_angle_gamma   75.85156326
_symmetry_Int_Tables_number   1
_chemical_formula_structural   Eu10InAu5
_chemical_formula_sum   'Eu10 In1 Au5'
_cell_volume   516.62983109
_cell_formula_units_Z   1
loop_
 _symmetry_equiv_pos_site_id
 _symmetry_equiv_pos_as_xyz
  1  'x, y, z'
loop_
 _atom_site_type_symbol
 _atom_site_label
 _atom_site_symmetry_multiplicity
 _atom_site_fract_x
 _atom_site_fract_y
 _atom_site_fract_z
 _atom_site_occupancy
  Eu  Eu0  1  0.033533  0.517118  0.834063  1
  Eu  Eu1  1  0.300530  0.816945  0.834063  1
  Eu  Eu2  1  0.982882  0.466467  0.165937  1
  Eu  Eu3  1  0.989458  0.989458  0.000000  1
  Eu  Eu4  1  0.466467  0.300530  0.483586  1
  Eu  Eu5  1  0.199470  0.033533  0.516414  1
  Eu  Eu6  1  0.683055  0.199470  0.165937  1
  Eu  Eu7  1  0.517118  0.683055  0.483586  1
  Eu  Eu8  1  0.816945  0.982882  0.516414  1
  Eu  Eu9  1  0.510542  0.510542  0.000000  1
  In  In10  1  0.750000  0.750000  0.000000  1
  Au  Au11  1  0.870949  0.629051  0.500000  1
  Au  Au12  1  0.629051  0.129051  0.758101  1
  Au  Au13  1  0.129051  0.370949  0.500000  1
  Au  Au14  1  0.250000  0.250000  0.000000  1
  Au  Au15  1  0.370949  0.870949  0.241899  1
