# generated using pymatgen
data_Dy6Al24FeCu3Ru4
_symmetry_space_group_name_H-M   'P 1'
_cell_length_a   8.79227123
_cell_length_b   8.75667324
_cell_length_c   9.42536822
_cell_angle_alpha   90.04294283
_cell_angle_beta   89.91711182
_cell_angle_gamma   119.23421554
_symmetry_Int_Tables_number   1
_chemical_formula_structural   Dy6Al24FeCu3Ru4
_chemical_formula_sum   'Dy6 Al24 Fe1 Cu3 Ru4'
_cell_volume   633.24026543
_cell_formula_units_Z   1
loop_
 _symmetry_equiv_pos_site_id
 _symmetry_equiv_pos_as_xyz
  1  'x, y, z'
loop_
 _atom_site_type_symbol
 _atom_site_label
 _atom_site_symmetry_multiplicity
 _atom_site_fract_x
 _atom_site_fract_y
 _atom_site_fract_z
 _atom_site_occupancy
  Dy  Dy0  1  0.192203  0.804771  0.251242  1
  Dy  Dy1  1  0.190487  0.384720  0.247116  1
  Dy  Dy2  1  0.616596  0.808464  0.252280  1
  Dy  Dy3  1  0.807797  0.195229  0.748758  1
  Dy  Dy4  1  0.809513  0.615280  0.752884  1
  Dy  Dy5  1  0.383404  0.191536  0.747720  1
  Al  Al6  1  0.560743  0.438038  0.249545  1
  Al  Al7  1  0.562005  0.124195  0.247913  1
  Al  Al8  1  0.876456  0.437907  0.249755  1
  Al  Al9  1  0.439257  0.561962  0.750455  1
  Al  Al10  1  0.437995  0.875805  0.752087  1
  Al  Al11  1  0.123544  0.562093  0.750245  1
  Al  Al12  1  0.321398  0.161538  0.418998  1
  Al  Al13  1  0.842316  0.167597  0.418750  1
  Al  Al14  1  0.842603  0.675870  0.421692  1
  Al  Al15  1  0.678602  0.838462  0.581002  1
  Al  Al16  1  0.157684  0.832403  0.581250  1
  Al  Al17  1  0.157397  0.324130  0.578308  1
  Al  Al18  1  0.681809  0.846448  0.924900  1
  Al  Al19  1  0.162299  0.839282  0.924070  1
  Al  Al20  1  0.155035  0.319054  0.923379  1
  Al  Al21  1  0.318191  0.153552  0.075100  1
  Al  Al22  1  0.837701  0.160718  0.075930  1
  Al  Al23  1  0.844965  0.680946  0.076621  1
  Al  Al24  1  0.670043  0.335417  0.524358  1
  Al  Al25  1  0.329957  0.664583  0.475642  1
  Al  Al26  1  0.332012  0.668972  0.023265  1
  Al  Al27  1  0.667988  0.331028  0.976735  1
  Al  Al28  1  0.997122  0.999783  0.243245  1
  Al  Al29  1  0.002878  0.000217  0.756755  1
  Fe  Fe30  1  0.000000  0.000000  0.000000  1
  Cu  Cu31  1  0.500000  0.500000  0.500000  1
  Cu  Cu32  1  0.500000  0.000000  0.500000  1
  Cu  Cu33  1  0.500000  0.500000  0.000000  1
  Ru  Ru34  1  0.000000  0.000000  0.500000  1
  Ru  Ru35  1  0.000000  0.500000  0.500000  1
  Ru  Ru36  1  0.500000  0.000000  0.000000  1
  Ru  Ru37  1  0.000000  0.500000  0.000000  1
