# generated using pymatgen
data_Cs2Sr4Si8O21
_symmetry_space_group_name_H-M   'P 1'
_cell_length_a   7.18774114
_cell_length_b   7.45116644
_cell_length_c   11.67290071
_cell_angle_alpha   97.77693238
_cell_angle_beta   104.80271900
_cell_angle_gamma   108.56818777
_symmetry_Int_Tables_number   1
_chemical_formula_structural   Cs2Sr4Si8O21
_chemical_formula_sum   'Cs2 Sr4 Si8 O21'
_cell_volume   556.71248023
_cell_formula_units_Z   1
loop_
 _symmetry_equiv_pos_site_id
 _symmetry_equiv_pos_as_xyz
  1  'x, y, z'
loop_
 _atom_site_type_symbol
 _atom_site_label
 _atom_site_symmetry_multiplicity
 _atom_site_fract_x
 _atom_site_fract_y
 _atom_site_fract_z
 _atom_site_occupancy
  Cs  Cs0  1  0.755052  0.706059  0.434288  1
  Cs  Cs1  1  0.244948  0.293941  0.565712  1
  Sr  Sr2  1  0.694445  0.788819  0.823099  1
  Sr  Sr3  1  0.305555  0.211181  0.176901  1
  Sr  Sr4  1  0.360702  0.715404  0.037354  1
  Sr  Sr5  1  0.639298  0.284596  0.962646  1
  Si  Si6  1  0.097960  0.232851  0.880289  1
  Si  Si7  1  0.902040  0.767149  0.119711  1
  Si  Si8  1  0.189498  0.888048  0.749304  1
  Si  Si9  1  0.810502  0.111952  0.250696  1
  Si  Si10  1  0.643404  0.189667  0.464067  1
  Si  Si11  1  0.356596  0.810333  0.535933  1
  Si  Si12  1  0.880635  0.459868  0.731897  1
  Si  Si13  1  0.119365  0.540132  0.268103  1
  O  O14  1  0.500000  0.000000  0.500000  1
  O  O15  1  0.824318  0.335018  0.591732  1
  O  O16  1  0.175682  0.664982  0.408268  1
  O  O17  1  0.392444  0.904549  0.854657  1
  O  O18  1  0.607556  0.095451  0.145343  1
  O  O19  1  0.895256  0.140097  0.919643  1
  O  O20  1  0.104744  0.859903  0.080357  1
  O  O21  1  0.682345  0.678284  0.012144  1
  O  O22  1  0.317655  0.321716  0.987856  1
  O  O23  1  0.109114  0.071257  0.769912  1
  O  O24  1  0.890886  0.928743  0.230088  1
  O  O25  1  0.080861  0.421319  0.818131  1
  O  O26  1  0.919139  0.578681  0.181869  1
  O  O27  1  0.979554  0.695698  0.732601  1
  O  O28  1  0.020446  0.304302  0.267399  1
  O  O29  1  0.492061  0.706856  0.610056  1
  O  O30  1  0.507939  0.293144  0.389944  1
  O  O31  1  0.309911  0.571107  0.216577  1
  O  O32  1  0.690089  0.428893  0.783423  1
  O  O33  1  0.219618  0.886283  0.613038  1
  O  O34  1  0.780382  0.113717  0.386962  1
