# generated using pymatgen
data_YbTe28
_symmetry_space_group_name_H-M   'P 1'
_cell_length_a   9.05160469
_cell_length_b   12.63759654
_cell_length_c   11.91474434
_cell_angle_alpha   121.89544335
_cell_angle_beta   96.49718304
_cell_angle_gamma   100.61836813
_symmetry_Int_Tables_number   1
_chemical_formula_structural   YbTe28
_chemical_formula_sum   'Yb1 Te28'
_cell_volume   1100.54916085
_cell_formula_units_Z   1
loop_
 _symmetry_equiv_pos_site_id
 _symmetry_equiv_pos_as_xyz
  1  'x, y, z'
loop_
 _atom_site_type_symbol
 _atom_site_label
 _atom_site_symmetry_multiplicity
 _atom_site_fract_x
 _atom_site_fract_y
 _atom_site_fract_z
 _atom_site_occupancy
  Yb  Yb0  1  0.500000  0.000000  0.000000  1
  Te  Te1  1  0.162234  0.088984  0.400970  1
  Te  Te2  1  0.629703  0.105404  0.408155  1
  Te  Te3  1  0.314757  0.357955  0.817002  1
  Te  Te4  1  0.822413  0.352135  0.824397  1
  Te  Te5  1  0.250502  0.693632  0.810296  1
  Te  Te6  1  0.708166  0.574991  0.711865  1
  Te  Te7  1  0.370297  0.894596  0.591845  1
  Te  Te8  1  0.837766  0.911016  0.599030  1
  Te  Te9  1  0.177587  0.647865  0.175603  1
  Te  Te10  1  0.685243  0.642045  0.182998  1
  Te  Te11  1  0.291834  0.425009  0.288135  1
  Te  Te12  1  0.749498  0.306368  0.189704  1
  Te  Te13  1  0.694630  0.079515  0.791797  1
  Te  Te14  1  0.247361  0.043266  0.821321  1
  Te  Te15  1  0.940024  0.635955  0.959856  1
  Te  Te16  1  0.473499  0.669951  0.018471  1
  Te  Te17  1  0.486295  0.265175  0.288843  1
  Te  Te18  1  0.994279  0.193356  0.274363  1
  Te  Te19  1  0.752639  0.956734  0.178679  1
  Te  Te20  1  0.305370  0.920485  0.208203  1
  Te  Te21  1  0.526501  0.330049  0.981529  1
  Te  Te22  1  0.059976  0.364045  0.040144  1
  Te  Te23  1  0.005721  0.806644  0.725637  1
  Te  Te24  1  0.513705  0.734825  0.711157  1
  Te  Te25  1  0.936813  0.296004  0.586612  1
  Te  Te26  1  0.442191  0.330902  0.593846  1
  Te  Te27  1  0.557809  0.669098  0.406154  1
  Te  Te28  1  0.063187  0.703996  0.413388  1
