# generated using pymatgen
data_TbY2In3Ga2Pt
_symmetry_space_group_name_H-M   'P 1'
_cell_length_a   7.30075000
_cell_length_b   7.31603723
_cell_length_c   4.42348000
_cell_angle_alpha   90.00000000
_cell_angle_beta   90.00000000
_cell_angle_gamma   119.93090225
_symmetry_Int_Tables_number   1
_chemical_formula_structural   TbY2In3Ga2Pt
_chemical_formula_sum   'Tb1 Y2 In3 Ga2 Pt1'
_cell_volume   204.75760982
_cell_formula_units_Z   1
loop_
 _symmetry_equiv_pos_site_id
 _symmetry_equiv_pos_as_xyz
  1  'x, y, z'
loop_
 _atom_site_type_symbol
 _atom_site_label
 _atom_site_symmetry_multiplicity
 _atom_site_fract_x
 _atom_site_fract_y
 _atom_site_fract_z
 _atom_site_occupancy
  Tb  Tb0  1  0.408422  0.000000  0.500000  1
  Y  Y1  1  0.000402  0.408871  0.500000  1
  Y  Y2  1  0.591531  0.591129  0.500000  1
  In  In3  1  0.750351  0.000000  0.000000  1
  In  In4  1  0.249682  0.250188  0.000000  1
  In  In5  1  0.999493  0.749812  0.000000  1
  Ga  Ga6  1  0.666632  0.333332  0.000000  1
  Ga  Ga7  1  0.333299  0.666668  0.000000  1
  Pt  Pt8  1  0.000188  0.000000  0.500000  1
