# generated using pymatgen
data_Np7PaS12
_symmetry_space_group_name_H-M   'P 1'
_cell_length_a   3.89685700
_cell_length_b   10.35078703
_cell_length_c   10.56247906
_cell_angle_alpha   89.92831263
_cell_angle_beta   90.00000000
_cell_angle_gamma   90.00000000
_symmetry_Int_Tables_number   1
_chemical_formula_structural   Np7PaS12
_chemical_formula_sum   'Np7 Pa1 S12'
_cell_volume   426.04293043
_cell_formula_units_Z   1
loop_
 _symmetry_equiv_pos_site_id
 _symmetry_equiv_pos_as_xyz
  1  'x, y, z'
loop_
 _atom_site_type_symbol
 _atom_site_label
 _atom_site_symmetry_multiplicity
 _atom_site_fract_x
 _atom_site_fract_y
 _atom_site_fract_z
 _atom_site_occupancy
  Np  Np0  1  0.750000  0.687103  0.007420  1
  Np  Np1  1  0.750000  0.817461  0.506694  1
  Np  Np2  1  0.250000  0.182366  0.494138  1
  Np  Np3  1  0.250000  0.507455  0.314508  1
  Np  Np4  1  0.750000  0.491905  0.686161  1
  Np  Np5  1  0.750000  0.005111  0.185489  1
  Np  Np6  1  0.250000  0.992918  0.814825  1
  Pa  Pa7  1  0.250000  0.316483  0.992032  1
  S  S8  1  0.250000  0.869667  0.050529  1
  S  S9  1  0.750000  0.132182  0.948685  1
  S  S10  1  0.750000  0.368077  0.448330  1
  S  S11  1  0.250000  0.631623  0.551011  1
  S  S12  1  0.250000  0.553883  0.877042  1
  S  S13  1  0.750000  0.444720  0.125233  1
  S  S14  1  0.750000  0.055960  0.625414  1
  S  S15  1  0.250000  0.945433  0.374797  1
  S  S16  1  0.250000  0.203009  0.225364  1
  S  S17  1  0.750000  0.797189  0.770913  1
  S  S18  1  0.750000  0.702096  0.270752  1
  S  S19  1  0.250000  0.295359  0.730663  1
