# generated using pymatgen
data_Tb3Ho(ErSb5)4
_symmetry_space_group_name_H-M   'P 1'
_cell_length_a   4.23882800
_cell_length_b   13.15185825
_cell_length_c   14.63737800
_cell_angle_alpha   77.71064053
_cell_angle_beta   90.00000000
_cell_angle_gamma   90.00000000
_symmetry_Int_Tables_number   1
_chemical_formula_structural   Tb3Ho(ErSb5)4
_chemical_formula_sum   'Tb3 Ho1 Er4 Sb20'
_cell_volume   797.31255310
_cell_formula_units_Z   1
loop_
 _symmetry_equiv_pos_site_id
 _symmetry_equiv_pos_as_xyz
  1  'x, y, z'
loop_
 _atom_site_type_symbol
 _atom_site_label
 _atom_site_symmetry_multiplicity
 _atom_site_fract_x
 _atom_site_fract_y
 _atom_site_fract_z
 _atom_site_occupancy
  Tb  Tb0  1  0.250000  0.669397  0.577134  1
  Tb  Tb1  1  0.750000  0.330620  0.422935  1
  Tb  Tb2  1  0.250000  0.952619  0.359746  1
  Ho  Ho3  1  0.750000  0.047346  0.639952  1
  Er  Er4  1  0.250000  0.394528  0.771966  1
  Er  Er5  1  0.750000  0.605459  0.228008  1
  Er  Er6  1  0.250000  0.662290  0.855902  1
  Er  Er7  1  0.750000  0.337764  0.144082  1
  Sb  Sb8  1  0.250000  0.143353  0.780010  1
  Sb  Sb9  1  0.750000  0.856433  0.219830  1
  Sb  Sb10  1  0.250000  0.142533  0.483030  1
  Sb  Sb11  1  0.750000  0.857344  0.517490  1
  Sb  Sb12  1  0.250000  0.153699  0.171842  1
  Sb  Sb13  1  0.750000  0.846453  0.828068  1
  Sb  Sb14  1  0.250000  0.420358  0.975818  1
  Sb  Sb15  1  0.750000  0.579642  0.024187  1
  Sb  Sb16  1  0.750000  0.030038  0.906443  1
  Sb  Sb17  1  0.250000  0.970013  0.093564  1
  Sb  Sb18  1  0.750000  0.139416  0.321565  1
  Sb  Sb19  1  0.250000  0.861102  0.678362  1
  Sb  Sb20  1  0.750000  0.279790  0.938622  1
  Sb  Sb21  1  0.250000  0.720187  0.061386  1
  Sb  Sb22  1  0.750000  0.287224  0.654122  1
  Sb  Sb23  1  0.250000  0.712450  0.345930  1
  Sb  Sb24  1  0.750000  0.575420  0.736320  1
  Sb  Sb25  1  0.250000  0.424601  0.263685  1
  Sb  Sb26  1  0.750000  0.574316  0.446246  1
  Sb  Sb27  1  0.250000  0.425605  0.553759  1
