# generated using pymatgen
data_Mn8IrW3
_symmetry_space_group_name_H-M   'P 1'
_cell_length_a   4.69106400
_cell_length_b   4.69106435
_cell_length_c   7.73695600
_cell_angle_alpha   90.00000000
_cell_angle_beta   90.00000000
_cell_angle_gamma   119.99999753
_symmetry_Int_Tables_number   1
_chemical_formula_structural   Mn8IrW3
_chemical_formula_sum   'Mn8 Ir1 W3'
_cell_volume   147.44957264
_cell_formula_units_Z   1
loop_
 _symmetry_equiv_pos_site_id
 _symmetry_equiv_pos_as_xyz
  1  'x, y, z'
loop_
 _atom_site_type_symbol
 _atom_site_label
 _atom_site_symmetry_multiplicity
 _atom_site_fract_x
 _atom_site_fract_y
 _atom_site_fract_z
 _atom_site_occupancy
  Mn  Mn0  1  0.000000  0.000000  0.000673  1
  Mn  Mn1  1  0.173186  0.346372  0.249433  1
  Mn  Mn2  1  0.173186  0.826813  0.249433  1
  Mn  Mn3  1  0.653626  0.826813  0.249433  1
  Mn  Mn4  1  0.000000  0.000000  0.500060  1
  Mn  Mn5  1  0.346567  0.173284  0.749727  1
  Mn  Mn6  1  0.826716  0.173284  0.749727  1
  Mn  Mn7  1  0.826716  0.653434  0.749727  1
  Ir  Ir8  1  0.666666  0.333333  0.069263  1
  W  W9  1  0.666666  0.333333  0.428949  1
  W  W10  1  0.333334  0.666668  0.565998  1
  W  W11  1  0.333334  0.666668  0.937576  1
