# generated using pymatgen
data_Nd3Er3Th2(CdIr)2
_symmetry_space_group_name_H-M   'P 1'
_cell_length_a   9.84075764
_cell_length_b   9.84075775
_cell_length_c   9.84075700
_cell_angle_alpha   59.99999915
_cell_angle_beta   59.99999878
_cell_angle_gamma   59.99999956
_symmetry_Int_Tables_number   1
_chemical_formula_structural   Nd3Er3Th2(CdIr)2
_chemical_formula_sum   'Nd6 Er6 Th4 Cd4 Ir4'
_cell_volume   673.86139756
_cell_formula_units_Z   2
loop_
 _symmetry_equiv_pos_site_id
 _symmetry_equiv_pos_as_xyz
  1  'x, y, z'
loop_
 _atom_site_type_symbol
 _atom_site_label
 _atom_site_symmetry_multiplicity
 _atom_site_fract_x
 _atom_site_fract_y
 _atom_site_fract_z
 _atom_site_occupancy
  Nd  Nd0  1  0.938816  0.561184  0.561184  1
  Nd  Nd1  1  0.561184  0.938816  0.938816  1
  Nd  Nd2  1  0.561184  0.938816  0.561184  1
  Nd  Nd3  1  0.938816  0.561184  0.938816  1
  Nd  Nd4  1  0.561184  0.561184  0.938816  1
  Nd  Nd5  1  0.938816  0.938816  0.561184  1
  Er  Er6  1  0.814919  0.185081  0.185081  1
  Er  Er7  1  0.185081  0.814919  0.814919  1
  Er  Er8  1  0.185081  0.814919  0.185081  1
  Er  Er9  1  0.814919  0.185081  0.814919  1
  Er  Er10  1  0.185081  0.185081  0.814919  1
  Er  Er11  1  0.814919  0.814919  0.185081  1
  Th  Th12  1  0.348661  0.348661  0.348661  1
  Th  Th13  1  0.348661  0.348661  0.954017  1
  Th  Th14  1  0.348661  0.954017  0.348661  1
  Th  Th15  1  0.954017  0.348661  0.348661  1
  Cd  Cd16  1  0.580149  0.580149  0.580149  1
  Cd  Cd17  1  0.580149  0.580149  0.259550  1
  Cd  Cd18  1  0.580149  0.259550  0.580149  1
  Cd  Cd19  1  0.259550  0.580149  0.580149  1
  Ir  Ir20  1  0.143115  0.143115  0.143115  1
  Ir  Ir21  1  0.143115  0.143115  0.570654  1
  Ir  Ir22  1  0.143115  0.570654  0.143115  1
  Ir  Ir23  1  0.570654  0.143115  0.143115  1
