# generated using pymatgen
data_Y6Er3TmSi6
_symmetry_space_group_name_H-M   'P 1'
_cell_length_a   8.42770500
_cell_length_b   8.42770384
_cell_length_c   6.31640700
_cell_angle_alpha   90.00000000
_cell_angle_beta   90.00000000
_cell_angle_gamma   120.00000847
_symmetry_Int_Tables_number   1
_chemical_formula_structural   Y6Er3TmSi6
_chemical_formula_sum   'Y6 Er3 Tm1 Si6'
_cell_volume   388.52528867
_cell_formula_units_Z   1
loop_
 _symmetry_equiv_pos_site_id
 _symmetry_equiv_pos_as_xyz
  1  'x, y, z'
loop_
 _atom_site_type_symbol
 _atom_site_label
 _atom_site_symmetry_multiplicity
 _atom_site_fract_x
 _atom_site_fract_y
 _atom_site_fract_z
 _atom_site_occupancy
  Y  Y0  1  0.755775  0.755750  0.249973  1
  Y  Y1  1  0.244250  0.000024  0.249973  1
  Y  Y2  1  0.999976  0.244225  0.249973  1
  Y  Y3  1  0.244250  0.244225  0.750027  1
  Y  Y4  1  0.755775  0.000024  0.750027  1
  Y  Y5  1  0.999976  0.755750  0.750027  1
  Er  Er6  1  0.666667  0.333333  0.500000  1
  Er  Er7  1  0.333333  0.666667  0.500000  1
  Er  Er8  1  0.333333  0.666667  0.000000  1
  Tm  Tm9  1  0.666667  0.333333  0.000000  1
  Si  Si10  1  0.395088  0.395011  0.249932  1
  Si  Si11  1  0.604989  0.000078  0.249932  1
  Si  Si12  1  0.999922  0.604912  0.249932  1
  Si  Si13  1  0.604989  0.604912  0.750068  1
  Si  Si14  1  0.395088  0.000078  0.750068  1
  Si  Si15  1  0.999922  0.395011  0.750068  1
