# generated using pymatgen
data_CaHo4Er2Co6Sn23
_symmetry_space_group_name_H-M   'P 1'
_cell_length_a   9.70094001
_cell_length_b   9.70115726
_cell_length_c   9.94061601
_cell_angle_alpha   89.99999975
_cell_angle_beta   90.00343631
_cell_angle_gamma   120.00073986
_symmetry_Int_Tables_number   1
_chemical_formula_structural   CaHo4Er2Co6Sn23
_chemical_formula_sum   'Ca1 Ho4 Er2 Co6 Sn23'
_cell_volume   810.17353826
_cell_formula_units_Z   1
loop_
 _symmetry_equiv_pos_site_id
 _symmetry_equiv_pos_as_xyz
  1  'x, y, z'
loop_
 _atom_site_type_symbol
 _atom_site_label
 _atom_site_symmetry_multiplicity
 _atom_site_fract_x
 _atom_site_fract_y
 _atom_site_fract_z
 _atom_site_occupancy
  Ca  Ca0  1  0.000005  0.000002  0.999983  1
  Ho  Ho1  1  0.958147  0.479074  0.693602  1
  Ho  Ho2  1  0.041842  0.520921  0.306402  1
  Ho  Ho3  1  0.479082  0.958149  0.306433  1
  Ho  Ho4  1  0.479082  0.520933  0.306433  1
  Er  Er5  1  0.520889  0.479145  0.693594  1
  Er  Er6  1  0.520889  0.041744  0.693594  1
  Co  Co7  1  0.168735  0.831409  0.801411  1
  Co  Co8  1  0.168735  0.337325  0.801411  1
  Co  Co9  1  0.662628  0.831314  0.801385  1
  Co  Co10  1  0.337304  0.168652  0.198564  1
  Co  Co11  1  0.831349  0.662696  0.198556  1
  Co  Co12  1  0.831349  0.168654  0.198556  1
  Sn  Sn13  1  0.666663  0.333331  0.183184  1
  Sn  Sn14  1  0.666519  0.333259  0.880799  1
  Sn  Sn15  1  0.333340  0.666670  0.119026  1
  Sn  Sn16  1  0.346200  0.346192  0.999963  1
  Sn  Sn17  1  0.000005  0.653813  0.999995  1
  Sn  Sn18  1  0.653795  0.999983  0.999961  1
  Sn  Sn19  1  0.653795  0.653812  0.999961  1
  Sn  Sn20  1  0.333378  0.666690  0.816796  1
  Sn  Sn21  1  0.437215  0.218608  0.452082  1
  Sn  Sn22  1  0.218716  0.781497  0.548089  1
  Sn  Sn23  1  0.218716  0.437217  0.548089  1
  Sn  Sn24  1  0.562785  0.781391  0.548146  1
  Sn  Sn25  1  0.117540  0.882470  0.274050  1
  Sn  Sn26  1  0.781346  0.562784  0.452030  1
  Sn  Sn27  1  0.781346  0.218564  0.452030  1
  Sn  Sn28  1  0.346200  0.000007  0.999963  1
  Sn  Sn29  1  0.117540  0.235071  0.274050  1
  Sn  Sn30  1  0.764915  0.882458  0.274059  1
  Sn  Sn31  1  0.235228  0.117613  0.725927  1
  Sn  Sn32  1  0.882356  0.764854  0.725943  1
  Sn  Sn33  1  0.882356  0.117502  0.725943  1
  Sn  Sn34  1  0.000005  0.000003  0.499993  1
  Sn  Sn35  1  0.000005  0.346192  0.999995  1
