# generated using pymatgen
data_TmScMnC2
_symmetry_space_group_name_H-M   'P 1'
_cell_length_a   4.83633200
_cell_length_b   6.28202200
_cell_length_c   9.19339700
_cell_angle_alpha   90.00000000
_cell_angle_beta   90.00000000
_cell_angle_gamma   90.00000000
_symmetry_Int_Tables_number   1
_chemical_formula_structural   TmScMnC2
_chemical_formula_sum   'Tm4 Sc4 Mn4 C8'
_cell_volume   279.31327304
_cell_formula_units_Z   4
loop_
 _symmetry_equiv_pos_site_id
 _symmetry_equiv_pos_as_xyz
  1  'x, y, z'
loop_
 _atom_site_type_symbol
 _atom_site_label
 _atom_site_symmetry_multiplicity
 _atom_site_fract_x
 _atom_site_fract_y
 _atom_site_fract_z
 _atom_site_occupancy
  Tm  Tm0  1  0.250000  0.471906  0.208315  1
  Tm  Tm1  1  0.250000  0.971906  0.291685  1
  Tm  Tm2  1  0.750000  0.528094  0.791685  1
  Tm  Tm3  1  0.750000  0.028094  0.708315  1
  Sc  Sc4  1  0.250000  0.833659  0.940205  1
  Sc  Sc5  1  0.250000  0.333659  0.559795  1
  Sc  Sc6  1  0.750000  0.166341  0.059795  1
  Sc  Sc7  1  0.750000  0.666341  0.440205  1
  Mn  Mn8  1  0.250000  0.270421  0.860239  1
  Mn  Mn9  1  0.250000  0.770421  0.639761  1
  Mn  Mn10  1  0.750000  0.729579  0.139761  1
  Mn  Mn11  1  0.750000  0.229579  0.360239  1
  C  C12  1  0.250000  0.042120  0.734154  1
  C  C13  1  0.250000  0.542120  0.765846  1
  C  C14  1  0.750000  0.957880  0.265846  1
  C  C15  1  0.750000  0.457880  0.234154  1
  C  C16  1  0.250000  0.673801  0.457154  1
  C  C17  1  0.250000  0.173801  0.042846  1
  C  C18  1  0.750000  0.326199  0.542846  1
  C  C19  1  0.750000  0.826199  0.957154  1
