# generated using pymatgen
data_Gd2BeIr2
_symmetry_space_group_name_H-M   'P 1'
_cell_length_a   5.57742010
_cell_length_b   5.57741895
_cell_length_c   5.57742072
_cell_angle_alpha   140.09684430
_cell_angle_beta   116.92828784
_cell_angle_gamma   77.29068868
_symmetry_Int_Tables_number   1
_chemical_formula_structural   Gd2BeIr2
_chemical_formula_sum   'Gd2 Be1 Ir2'
_cell_volume   96.73775976
_cell_formula_units_Z   1
loop_
 _symmetry_equiv_pos_site_id
 _symmetry_equiv_pos_as_xyz
  1  'x, y, z'
loop_
 _atom_site_type_symbol
 _atom_site_label
 _atom_site_symmetry_multiplicity
 _atom_site_fract_x
 _atom_site_fract_y
 _atom_site_fract_z
 _atom_site_occupancy
  Gd  Gd0  1  0.697679  0.197678  0.500001  1
  Gd  Gd1  1  0.302321  0.802320  0.499999  1
  Be  Be2  1  0.000000  0.000000  0.000000  1
  Ir  Ir3  1  0.755327  0.499999  0.255327  1
  Ir  Ir4  1  0.244673  0.499999  0.744672  1
