# generated using pymatgen
data_NpNiGeH
_symmetry_space_group_name_H-M   'P 1'
_cell_length_a   4.00083900
_cell_length_b   4.00083900
_cell_length_c   7.00443700
_cell_angle_alpha   90.00000000
_cell_angle_beta   90.00000000
_cell_angle_gamma   90.00000000
_symmetry_Int_Tables_number   1
_chemical_formula_structural   NpNiGeH
_chemical_formula_sum   'Np2 Ni2 Ge2 H2'
_cell_volume   112.11801071
_cell_formula_units_Z   2
loop_
 _symmetry_equiv_pos_site_id
 _symmetry_equiv_pos_as_xyz
  1  'x, y, z'
loop_
 _atom_site_type_symbol
 _atom_site_label
 _atom_site_symmetry_multiplicity
 _atom_site_fract_x
 _atom_site_fract_y
 _atom_site_fract_z
 _atom_site_occupancy
  Np  Np0  1  0.500000  0.000000  0.345073  1
  Np  Np1  1  0.000000  0.500000  0.654927  1
  Ni  Ni2  1  0.500000  0.500000  0.000000  1
  Ni  Ni3  1  0.000000  0.000000  0.000000  1
  Ge  Ge4  1  0.500000  0.000000  0.809885  1
  Ge  Ge5  1  0.000000  0.500000  0.190115  1
  H  H6  1  0.000000  0.000000  0.500000  1
  H  H7  1  0.500000  0.500000  0.500000  1
