# generated using pymatgen
data_LaPr3Nd4(CdIr)2
_symmetry_space_group_name_H-M   'P 1'
_cell_length_a   10.02276267
_cell_length_b   10.02276169
_cell_length_c   10.03021600
_cell_angle_alpha   59.97540089
_cell_angle_beta   59.97540413
_cell_angle_gamma   59.97911717
_symmetry_Int_Tables_number   1
_chemical_formula_structural   LaPr3Nd4(CdIr)2
_chemical_formula_sum   'La2 Pr6 Nd8 Cd4 Ir4'
_cell_volume   712.09844105
_cell_formula_units_Z   2
loop_
 _symmetry_equiv_pos_site_id
 _symmetry_equiv_pos_as_xyz
  1  'x, y, z'
loop_
 _atom_site_type_symbol
 _atom_site_label
 _atom_site_symmetry_multiplicity
 _atom_site_fract_x
 _atom_site_fract_y
 _atom_site_fract_z
 _atom_site_occupancy
  La  La0  1  0.346895  0.346895  0.347675  1
  La  La1  1  0.346895  0.346895  0.958534  1
  Pr  Pr2  1  0.939570  0.560326  0.561153  1
  Pr  Pr3  1  0.560326  0.939570  0.938951  1
  Pr  Pr4  1  0.560326  0.939570  0.561153  1
  Pr  Pr5  1  0.939570  0.560326  0.938951  1
  Pr  Pr6  1  0.562053  0.562053  0.937947  1
  Pr  Pr7  1  0.940245  0.940245  0.559755  1
  Nd  Nd8  1  0.348572  0.952246  0.349591  1
  Nd  Nd9  1  0.952246  0.348572  0.349591  1
  Nd  Nd10  1  0.810832  0.189188  0.190392  1
  Nd  Nd11  1  0.189188  0.810832  0.809589  1
  Nd  Nd12  1  0.189188  0.810832  0.190392  1
  Nd  Nd13  1  0.810832  0.189188  0.809589  1
  Nd  Nd14  1  0.189199  0.189199  0.810801  1
  Nd  Nd15  1  0.809694  0.809694  0.190306  1
  Cd  Cd16  1  0.580475  0.580475  0.578749  1
  Cd  Cd17  1  0.580475  0.580475  0.260300  1
  Cd  Cd18  1  0.581251  0.259474  0.579636  1
  Cd  Cd19  1  0.259474  0.581251  0.579636  1
  Ir  Ir20  1  0.142372  0.142372  0.140465  1
  Ir  Ir21  1  0.142372  0.142372  0.574793  1
  Ir  Ir22  1  0.142691  0.575259  0.141026  1
  Ir  Ir23  1  0.575259  0.142691  0.141026  1
