# generated using pymatgen
data_Dy6Al24Ru5Pt3
_symmetry_space_group_name_H-M   'P 1'
_cell_length_a   8.82289632
_cell_length_b   8.80378703
_cell_length_c   9.55696489
_cell_angle_alpha   89.88290834
_cell_angle_beta   90.05388785
_cell_angle_gamma   119.53596460
_symmetry_Int_Tables_number   1
_chemical_formula_structural   Dy6Al24Ru5Pt3
_chemical_formula_sum   'Dy6 Al24 Ru5 Pt3'
_cell_volume   645.86569198
_cell_formula_units_Z   1
loop_
 _symmetry_equiv_pos_site_id
 _symmetry_equiv_pos_as_xyz
  1  'x, y, z'
loop_
 _atom_site_type_symbol
 _atom_site_label
 _atom_site_symmetry_multiplicity
 _atom_site_fract_x
 _atom_site_fract_y
 _atom_site_fract_z
 _atom_site_occupancy
  Dy  Dy0  1  0.190847  0.807231  0.250043  1
  Dy  Dy1  1  0.188795  0.385214  0.248580  1
  Dy  Dy2  1  0.616023  0.809916  0.250641  1
  Dy  Dy3  1  0.809153  0.192769  0.749957  1
  Dy  Dy4  1  0.811205  0.614786  0.751420  1
  Dy  Dy5  1  0.383977  0.190084  0.749359  1
  Al  Al6  1  0.564198  0.436105  0.250334  1
  Al  Al7  1  0.561563  0.125486  0.246440  1
  Al  Al8  1  0.877139  0.440325  0.250129  1
  Al  Al9  1  0.435802  0.563895  0.749666  1
  Al  Al10  1  0.438437  0.874514  0.753560  1
  Al  Al11  1  0.122861  0.559675  0.749871  1
  Al  Al12  1  0.323510  0.162915  0.422651  1
  Al  Al13  1  0.841406  0.168079  0.421386  1
  Al  Al14  1  0.841729  0.674711  0.423651  1
  Al  Al15  1  0.676490  0.837085  0.577349  1
  Al  Al16  1  0.158594  0.831921  0.578614  1
  Al  Al17  1  0.158271  0.325289  0.576349  1
  Al  Al18  1  0.674763  0.841783  0.925830  1
  Al  Al19  1  0.164450  0.836389  0.922963  1
  Al  Al20  1  0.158739  0.325947  0.924632  1
  Al  Al21  1  0.325237  0.158217  0.074170  1
  Al  Al22  1  0.835550  0.163611  0.077037  1
  Al  Al23  1  0.841261  0.674053  0.075368  1
  Al  Al24  1  0.672776  0.335878  0.530961  1
  Al  Al25  1  0.327224  0.664122  0.469039  1
  Al  Al26  1  0.330533  0.670087  0.030029  1
  Al  Al27  1  0.669467  0.329913  0.969971  1
  Al  Al28  1  0.996556  0.001088  0.249826  1
  Al  Al29  1  0.003444  0.998912  0.750174  1
  Ru  Ru30  1  0.000000  0.000000  0.500000  1
  Ru  Ru31  1  0.000000  0.000000  0.000000  1
  Ru  Ru32  1  0.000000  0.500000  0.500000  1
  Ru  Ru33  1  0.500000  0.000000  0.000000  1
  Ru  Ru34  1  0.000000  0.500000  0.000000  1
  Pt  Pt35  1  0.500000  0.500000  0.500000  1
  Pt  Pt36  1  0.500000  0.000000  0.500000  1
  Pt  Pt37  1  0.500000  0.500000  0.000000  1
