# generated using pymatgen
data_Er3Al3HgAu2
_symmetry_space_group_name_H-M   'P 1'
_cell_length_a   7.22698600
_cell_length_b   7.22698646
_cell_length_c   4.21208800
_cell_angle_alpha   90.00000000
_cell_angle_beta   90.00000000
_cell_angle_gamma   119.99999789
_symmetry_Int_Tables_number   1
_chemical_formula_structural   Er3Al3HgAu2
_chemical_formula_sum   'Er3 Al3 Hg1 Au2'
_cell_volume   190.52085919
_cell_formula_units_Z   1
loop_
 _symmetry_equiv_pos_site_id
 _symmetry_equiv_pos_as_xyz
  1  'x, y, z'
loop_
 _atom_site_type_symbol
 _atom_site_label
 _atom_site_symmetry_multiplicity
 _atom_site_fract_x
 _atom_site_fract_y
 _atom_site_fract_z
 _atom_site_occupancy
  Er  Er0  1  0.410418  0.417174  0.500000  1
  Er  Er1  1  0.582826  0.993244  0.500000  1
  Er  Er2  1  0.006756  0.589582  0.500000  1
  Al  Al3  1  0.757572  0.764210  0.000000  1
  Al  Al4  1  0.235790  0.993362  0.000000  1
  Al  Al5  1  0.006638  0.242428  0.000000  1
  Hg  Hg6  1  0.666667  0.333333  0.000000  1
  Au  Au7  1  0.333333  0.666667  0.000000  1
  Au  Au8  1  0.000000  0.000000  0.500000  1
