# generated using pymatgen
data_Ho3Tm(MnOs3)2
_symmetry_space_group_name_H-M   'P 1'
_cell_length_a   5.33118800
_cell_length_b   5.33118743
_cell_length_c   8.61254600
_cell_angle_alpha   90.00000000
_cell_angle_beta   90.00000000
_cell_angle_gamma   120.00001597
_symmetry_Int_Tables_number   1
_chemical_formula_structural   Ho3Tm(MnOs3)2
_chemical_formula_sum   'Ho3 Tm1 Mn2 Os6'
_cell_volume   211.98740824
_cell_formula_units_Z   1
loop_
 _symmetry_equiv_pos_site_id
 _symmetry_equiv_pos_as_xyz
  1  'x, y, z'
loop_
 _atom_site_type_symbol
 _atom_site_label
 _atom_site_symmetry_multiplicity
 _atom_site_fract_x
 _atom_site_fract_y
 _atom_site_fract_z
 _atom_site_occupancy
  Ho  Ho0  1  0.666667  0.333333  0.566532  1
  Ho  Ho1  1  0.666667  0.333333  0.933295  1
  Ho  Ho2  1  0.333333  0.666667  0.066826  1
  Tm  Tm3  1  0.333333  0.666667  0.433286  1
  Mn  Mn4  1  0.000000  0.000000  0.499940  1
  Mn  Mn5  1  0.000000  0.000000  0.999934  1
  Os  Os6  1  0.830556  0.169444  0.250390  1
  Os  Os7  1  0.830556  0.661114  0.250390  1
  Os  Os8  1  0.338886  0.169444  0.250390  1
  Os  Os9  1  0.169484  0.830516  0.749672  1
  Os  Os10  1  0.169484  0.338967  0.749672  1
  Os  Os11  1  0.661033  0.830516  0.749672  1
