# generated using pymatgen
data_K4In8AgAu7
_symmetry_space_group_name_H-M   'P 1'
_cell_length_a   4.82275200
_cell_length_b   9.04258684
_cell_length_c   12.38710380
_cell_angle_alpha   90.20306051
_cell_angle_beta   90.00000000
_cell_angle_gamma   90.00000000
_symmetry_Int_Tables_number   1
_chemical_formula_structural   K4In8AgAu7
_chemical_formula_sum   'K4 In8 Ag1 Au7'
_cell_volume   540.20010869
_cell_formula_units_Z   1
loop_
 _symmetry_equiv_pos_site_id
 _symmetry_equiv_pos_as_xyz
  1  'x, y, z'
loop_
 _atom_site_type_symbol
 _atom_site_label
 _atom_site_symmetry_multiplicity
 _atom_site_fract_x
 _atom_site_fract_y
 _atom_site_fract_z
 _atom_site_occupancy
  K  K0  1  0.750000  0.720027  0.334443  1
  K  K1  1  0.250000  0.777329  0.833330  1
  K  K2  1  0.250000  0.279539  0.665822  1
  K  K3  1  0.750000  0.222696  0.167616  1
  In  In4  1  0.250000  0.361209  0.358147  1
  In  In5  1  0.250000  0.858254  0.142484  1
  In  In6  1  0.750000  0.604277  0.050643  1
  In  In7  1  0.750000  0.638651  0.641611  1
  In  In8  1  0.750000  0.140107  0.857420  1
  In  In9  1  0.250000  0.897900  0.551007  1
  In  In10  1  0.750000  0.101937  0.449238  1
  In  In11  1  0.250000  0.396775  0.948634  1
  Ag  Ag12  1  0.250000  0.087708  0.978646  1
  Au  Au13  1  0.750000  0.472799  0.837272  1
  Au  Au14  1  0.750000  0.971496  0.662872  1
  Au  Au15  1  0.250000  0.528303  0.162358  1
  Au  Au16  1  0.250000  0.028506  0.336700  1
  Au  Au17  1  0.750000  0.912820  0.021583  1
  Au  Au18  1  0.250000  0.590549  0.522953  1
  Au  Au19  1  0.750000  0.409116  0.477222  1
