# generated using pymatgen
data_Tb7Dy3(GaSb)4
_symmetry_space_group_name_H-M   'P 1'
_cell_length_a   8.68487725
_cell_length_b   8.68055485
_cell_length_c   7.95904030
_cell_angle_alpha   90.00736979
_cell_angle_beta   90.02083897
_cell_angle_gamma   125.42664526
_symmetry_Int_Tables_number   1
_chemical_formula_structural   Tb7Dy3(GaSb)4
_chemical_formula_sum   'Tb7 Dy3 Ga4 Sb4'
_cell_volume   488.93813193
_cell_formula_units_Z   1
loop_
 _symmetry_equiv_pos_site_id
 _symmetry_equiv_pos_as_xyz
  1  'x, y, z'
loop_
 _atom_site_type_symbol
 _atom_site_label
 _atom_site_symmetry_multiplicity
 _atom_site_fract_x
 _atom_site_fract_y
 _atom_site_fract_z
 _atom_site_occupancy
  Tb  Tb0  1  0.039087  0.301368  0.331941  1
  Tb  Tb1  1  0.961111  0.698727  0.667872  1
  Tb  Tb2  1  0.460916  0.198509  0.831976  1
  Tb  Tb3  1  0.801395  0.539026  0.168025  1
  Tb  Tb4  1  0.539047  0.801457  0.168038  1
  Tb  Tb5  1  0.198672  0.460984  0.832047  1
  Tb  Tb6  1  0.698789  0.960998  0.668026  1
  Dy  Dy7  1  0.300717  0.038924  0.332376  1
  Dy  Dy8  1  0.000234  0.000081  0.000242  1
  Dy  Dy9  1  0.499816  0.499660  0.499854  1
  Ga  Ga10  1  0.375711  0.375473  0.123929  1
  Ga  Ga11  1  0.624201  0.624157  0.876319  1
  Ga  Ga12  1  0.124428  0.124190  0.623373  1
  Ga  Ga13  1  0.876222  0.875936  0.376268  1
  Sb  Sb14  1  0.795304  0.204837  0.999887  1
  Sb  Sb15  1  0.205044  0.795620  0.000609  1
  Sb  Sb16  1  0.704074  0.294588  0.499532  1
  Sb  Sb17  1  0.295232  0.705466  0.499687  1
