# generated using pymatgen
data_Y2Zn5Cd4Cu13
_symmetry_space_group_name_H-M   'P 1'
_cell_length_a   5.16774400
_cell_length_b   5.16774523
_cell_length_c   16.02496200
_cell_angle_alpha   90.00000000
_cell_angle_beta   90.00000000
_cell_angle_gamma   119.99999215
_symmetry_Int_Tables_number   1
_chemical_formula_structural   Y2Zn5Cd4Cu13
_chemical_formula_sum   'Y2 Zn5 Cd4 Cu13'
_cell_volume   370.62077533
_cell_formula_units_Z   1
loop_
 _symmetry_equiv_pos_site_id
 _symmetry_equiv_pos_as_xyz
  1  'x, y, z'
loop_
 _atom_site_type_symbol
 _atom_site_label
 _atom_site_symmetry_multiplicity
 _atom_site_fract_x
 _atom_site_fract_y
 _atom_site_fract_z
 _atom_site_occupancy
  Y  Y0  1  0.666667  0.333333  0.250000  1
  Y  Y1  1  0.333333  0.666667  0.750000  1
  Zn  Zn2  1  0.333333  0.666667  0.250000  1
  Zn  Zn3  1  0.666667  0.333333  0.750000  1
  Zn  Zn4  1  0.000000  0.000000  0.750000  1
  Zn  Zn5  1  0.000000  0.000000  0.000423  1
  Zn  Zn6  1  0.000000  0.000000  0.499577  1
  Cd  Cd7  1  0.666667  0.333333  0.461965  1
  Cd  Cd8  1  0.333333  0.666667  0.961525  1
  Cd  Cd9  1  0.666667  0.333333  0.038035  1
  Cd  Cd10  1  0.333333  0.666667  0.538475  1
  Cu  Cu11  1  0.167901  0.832099  0.375620  1
  Cu  Cu12  1  0.167901  0.335800  0.375620  1
  Cu  Cu13  1  0.000000  0.000000  0.250000  1
  Cu  Cu14  1  0.167901  0.335800  0.124380  1
  Cu  Cu15  1  0.831599  0.168401  0.623063  1
  Cu  Cu16  1  0.336801  0.168401  0.623063  1
  Cu  Cu17  1  0.664200  0.832099  0.124380  1
  Cu  Cu18  1  0.167901  0.832099  0.124380  1
  Cu  Cu19  1  0.831599  0.663199  0.876937  1
  Cu  Cu20  1  0.831599  0.168401  0.876937  1
  Cu  Cu21  1  0.831599  0.663199  0.623063  1
  Cu  Cu22  1  0.336801  0.168401  0.876937  1
  Cu  Cu23  1  0.664200  0.832099  0.375620  1
