# generated using pymatgen
data_Co2Ni6RuSe8
_symmetry_space_group_name_H-M   'P 1'
_cell_length_a   7.42987444
_cell_length_b   7.42987438
_cell_length_c   7.42930300
_cell_angle_alpha   60.00254834
_cell_angle_beta   60.00254860
_cell_angle_gamma   60.02771443
_symmetry_Int_Tables_number   1
_chemical_formula_structural   Co2Ni6RuSe8
_chemical_formula_sum   'Co2 Ni6 Ru1 Se8'
_cell_volume   290.07054749
_cell_formula_units_Z   1
loop_
 _symmetry_equiv_pos_site_id
 _symmetry_equiv_pos_as_xyz
  1  'x, y, z'
loop_
 _atom_site_type_symbol
 _atom_site_label
 _atom_site_symmetry_multiplicity
 _atom_site_fract_x
 _atom_site_fract_y
 _atom_site_fract_z
 _atom_site_occupancy
  Co  Co0  1  0.633563  0.121084  0.122677  1
  Co  Co1  1  0.121084  0.633563  0.122677  1
  Ni  Ni2  1  0.123195  0.123195  0.629684  1
  Ni  Ni3  1  0.123195  0.123195  0.123927  1
  Ni  Ni4  1  0.369822  0.877616  0.876280  1
  Ni  Ni5  1  0.877616  0.369822  0.876280  1
  Ni  Ni6  1  0.877466  0.877466  0.368597  1
  Ni  Ni7  1  0.877466  0.877466  0.876469  1
  Ru  Ru8  1  0.498869  0.498869  0.501131  1
  Se  Se9  1  0.255600  0.255600  0.244400  1
  Se  Se10  1  0.750832  0.750832  0.749168  1
  Se  Se11  1  0.733818  0.261649  0.261256  1
  Se  Se12  1  0.733818  0.261649  0.743277  1
  Se  Se13  1  0.738555  0.738555  0.261445  1
  Se  Se14  1  0.261649  0.733818  0.743277  1
  Se  Se15  1  0.261649  0.733818  0.261256  1
  Se  Se16  1  0.261802  0.261802  0.738198  1
