# generated using pymatgen
data_Yb12Ga8Si4SnW7O48
_symmetry_space_group_name_H-M   'P 1'
_cell_length_a   10.83831216
_cell_length_b   10.83830687
_cell_length_c   10.83831200
_cell_angle_alpha   109.03143254
_cell_angle_beta   109.03145085
_cell_angle_gamma   110.35443115
_symmetry_Int_Tables_number   1
_chemical_formula_structural   Yb12Ga8Si4SnW7O48
_chemical_formula_sum   'Yb12 Ga8 Si4 Sn1 W7 O48'
_cell_volume   979.90771136
_cell_formula_units_Z   1
loop_
 _symmetry_equiv_pos_site_id
 _symmetry_equiv_pos_as_xyz
  1  'x, y, z'
loop_
 _atom_site_type_symbol
 _atom_site_label
 _atom_site_symmetry_multiplicity
 _atom_site_fract_x
 _atom_site_fract_y
 _atom_site_fract_z
 _atom_site_occupancy
  Yb  Yb0  1  0.750617  0.750872  0.000451  1
  Yb  Yb1  1  0.875619  0.249360  0.875315  1
  Yb  Yb2  1  0.499698  0.124885  0.874699  1
  Yb  Yb3  1  0.249963  0.249849  0.000018  1
  Yb  Yb4  1  0.875152  0.749753  0.374860  1
  Yb  Yb5  1  0.250275  0.625063  0.125334  1
  Yb  Yb6  1  0.999725  0.124937  0.374666  1
  Yb  Yb7  1  0.000037  0.500151  0.499982  1
  Yb  Yb8  1  0.374848  0.000247  0.125140  1
  Yb  Yb9  1  0.750302  0.625115  0.625301  1
  Yb  Yb10  1  0.374381  0.500640  0.624685  1
  Yb  Yb11  1  0.499383  0.999128  0.499549  1
  Ga  Ga12  1  0.999457  0.624728  0.875103  1
  Ga  Ga13  1  0.375008  0.750017  0.875028  1
  Ga  Ga14  1  0.874773  0.499929  0.123940  1
  Ga  Ga15  1  0.750017  0.125068  0.125045  1
  Ga  Ga16  1  0.499983  0.624932  0.374955  1
  Ga  Ga17  1  0.375227  0.250071  0.376060  1
  Ga  Ga18  1  0.874992  0.999983  0.624972  1
  Ga  Ga19  1  0.250543  0.125272  0.624897  1
  Si  Si20  1  0.000026  0.000023  0.999995  1
  Si  Si21  1  0.500097  0.500024  0.999991  1
  Si  Si22  1  0.249974  0.749977  0.500005  1
  Si  Si23  1  0.749903  0.249976  0.500009  1
  Sn  Sn24  1  0.625000  0.375000  0.750000  1
  W  W25  1  0.125000  0.375000  0.750000  1
  W  W26  1  0.625000  0.875000  0.250000  1
  W  W27  1  0.125000  0.875000  0.750000  1
  W  W28  1  0.625000  0.375000  0.250000  1
  W  W29  1  0.125000  0.375000  0.250000  1
  W  W30  1  0.125000  0.875000  0.250000  1
  W  W31  1  0.625000  0.875000  0.750000  1
  O  O32  1  0.825817  0.869067  0.860364  1
  O  O33  1  0.031857  0.194822  0.779877  1
  O  O34  1  0.046009  0.474484  0.876221  1
  O  O35  1  0.804880  0.586626  0.836825  1
  O  O36  1  0.531819  0.751969  0.837054  1
  O  O37  1  0.534566  0.491648  0.859670  1
  O  O38  1  0.723724  0.346464  0.927734  1
  O  O39  1  0.914945  0.695056  0.163237  1
  O  O40  1  0.025611  0.454012  0.123822  1
  O  O41  1  0.034544  0.174295  0.043101  1
  O  O42  1  0.419847  0.796035  0.071533  1
  O  O43  1  0.247856  0.085050  0.779548  1
  O  O44  1  0.704111  0.080048  0.928586  1
  O  O45  1  0.325823  0.465359  0.956657  1
  O  O46  1  0.631127  0.674163  0.139372  1
  O  O47  1  0.508625  0.368920  0.042990  1
  O  O48  1  0.151647  0.775401  0.071533  1
  O  O49  1  0.330043  0.901604  0.876218  1
  O  O50  1  0.008660  0.965567  0.139759  1
  O  O51  1  0.834863  0.497799  0.279007  1
  O  O52  1  0.944842  0.281866  0.279943  1
  O  O53  1  0.598372  0.169847  0.124087  1
  O  O54  1  0.501922  0.781730  0.336943  1
  O  O55  1  0.131236  0.991500  0.956944  1
  O  O56  1  0.118764  0.758500  0.543056  1
  O  O57  1  0.748078  0.968270  0.163057  1
  O  O58  1  0.651628  0.580153  0.375913  1
  O  O59  1  0.305158  0.468134  0.220057  1
  O  O60  1  0.415137  0.252201  0.220993  1
  O  O61  1  0.241340  0.784433  0.360241  1
  O  O62  1  0.919957  0.848396  0.623782  1
  O  O63  1  0.098353  0.974599  0.428467  1
  O  O64  1  0.741375  0.381080  0.457010  1
  O  O65  1  0.618873  0.075837  0.360628  1
  O  O66  1  0.924177  0.284641  0.543343  1
  O  O67  1  0.545889  0.669952  0.571414  1
  O  O68  1  0.002144  0.664950  0.720452  1
  O  O69  1  0.830153  0.953965  0.428467  1
  O  O70  1  0.224389  0.295988  0.376178  1
  O  O71  1  0.215456  0.575705  0.456899  1
  O  O72  1  0.335055  0.054944  0.336763  1
  O  O73  1  0.526276  0.403536  0.572266  1
  O  O74  1  0.715434  0.258352  0.640330  1
  O  O75  1  0.718181  0.998031  0.662946  1
  O  O76  1  0.445120  0.163374  0.663175  1
  O  O77  1  0.203991  0.275516  0.623779  1
  O  O78  1  0.218143  0.555178  0.720123  1
  O  O79  1  0.424183  0.880933  0.639636  1
