# generated using pymatgen
data_Yb3ReN4
_symmetry_space_group_name_H-M   'P 1'
_cell_length_a   6.37799755
_cell_length_b   6.37799685
_cell_length_c   6.40818003
_cell_angle_alpha   92.02593657
_cell_angle_beta   92.02594058
_cell_angle_gamma   76.56699667
_symmetry_Int_Tables_number   1
_chemical_formula_structural   Yb3ReN4
_chemical_formula_sum   'Yb6 Re2 N8'
_cell_volume   253.28856351
_cell_formula_units_Z   2
loop_
 _symmetry_equiv_pos_site_id
 _symmetry_equiv_pos_as_xyz
  1  'x, y, z'
loop_
 _atom_site_type_symbol
 _atom_site_label
 _atom_site_symmetry_multiplicity
 _atom_site_fract_x
 _atom_site_fract_y
 _atom_site_fract_z
 _atom_site_occupancy
  Yb  Yb0  1  0.159112  0.603546  0.182700  1
  Yb  Yb1  1  0.840888  0.396454  0.817300  1
  Yb  Yb2  1  0.396454  0.840888  0.817300  1
  Yb  Yb3  1  0.603546  0.159112  0.182700  1
  Yb  Yb4  1  0.110516  0.110516  0.315291  1
  Yb  Yb5  1  0.889484  0.889484  0.684709  1
  Re  Re6  1  0.682335  0.682335  0.319368  1
  Re  Re7  1  0.317665  0.317665  0.680632  1
  N  N8  1  0.127199  0.127199  0.688717  1
  N  N9  1  0.872801  0.872801  0.311283  1
  N  N10  1  0.574874  0.161743  0.809080  1
  N  N11  1  0.425126  0.838257  0.190920  1
  N  N12  1  0.838257  0.425126  0.190920  1
  N  N13  1  0.161743  0.574874  0.809080  1
  N  N14  1  0.343360  0.343360  0.401247  1
  N  N15  1  0.656640  0.656640  0.598753  1
