# generated using pymatgen
data_La2TbDy5(WO6)4
_symmetry_space_group_name_H-M   'P 1'
_cell_length_a   5.47418300
_cell_length_b   7.80600702
_cell_length_c   11.61008813
_cell_angle_alpha   75.70044385
_cell_angle_beta   90.00000000
_cell_angle_gamma   90.00000000
_symmetry_Int_Tables_number   1
_chemical_formula_structural   La2TbDy5(WO6)4
_chemical_formula_sum   'La2 Tb1 Dy5 W4 O24'
_cell_volume   480.74574667
_cell_formula_units_Z   1
loop_
 _symmetry_equiv_pos_site_id
 _symmetry_equiv_pos_as_xyz
  1  'x, y, z'
loop_
 _atom_site_type_symbol
 _atom_site_label
 _atom_site_symmetry_multiplicity
 _atom_site_fract_x
 _atom_site_fract_y
 _atom_site_fract_z
 _atom_site_occupancy
  La  La0  1  0.686498  0.500000  0.750000  1
  La  La1  1  0.313439  0.500000  0.250000  1
  Tb  Tb2  1  0.741142  0.000000  0.750000  1
  Dy  Dy3  1  0.258974  0.000000  0.250000  1
  Dy  Dy4  1  0.188199  0.798895  0.576226  1
  Dy  Dy5  1  0.811858  0.798932  0.076315  1
  Dy  Dy6  1  0.188199  0.201105  0.923774  1
  Dy  Dy7  1  0.811858  0.201068  0.423685  1
  W  W8  1  0.251989  0.728699  0.884089  1
  W  W9  1  0.747999  0.728840  0.384026  1
  W  W10  1  0.251989  0.271301  0.615911  1
  W  W11  1  0.747999  0.271160  0.115974  1
  O  O12  1  0.040866  0.941568  0.896068  1
  O  O13  1  0.529830  0.846445  0.930904  1
  O  O14  1  0.959802  0.941692  0.395750  1
  O  O15  1  0.453529  0.795187  0.727841  1
  O  O16  1  0.469959  0.846671  0.430670  1
  O  O17  1  0.987479  0.721283  0.769243  1
  O  O18  1  0.545829  0.795666  0.227865  1
  O  O19  1  0.858212  0.643542  0.543814  1
  O  O20  1  0.346494  0.495089  0.887695  1
  O  O21  1  0.012654  0.721526  0.269222  1
  O  O22  1  0.346494  0.504911  0.612305  1
  O  O23  1  0.858212  0.356458  0.956186  1
  O  O24  1  0.141719  0.643467  0.043828  1
  O  O25  1  0.653556  0.495131  0.387658  1
  O  O26  1  0.987479  0.278717  0.730757  1
  O  O27  1  0.653556  0.504869  0.112342  1
  O  O28  1  0.141719  0.356533  0.456172  1
  O  O29  1  0.453529  0.204813  0.772159  1
  O  O30  1  0.012654  0.278474  0.230778  1
  O  O31  1  0.529830  0.153555  0.569096  1
  O  O32  1  0.545829  0.204334  0.272135  1
  O  O33  1  0.040866  0.058432  0.603932  1
  O  O34  1  0.469959  0.153329  0.069330  1
  O  O35  1  0.959802  0.058308  0.104250  1
