# generated using pymatgen
data_Sm2Si7(NiRu3)3
_symmetry_space_group_name_H-M   'P 1'
_cell_length_a   9.56439200
_cell_length_b   9.56439162
_cell_length_c   3.84771600
_cell_angle_alpha   90.00000000
_cell_angle_beta   90.00000000
_cell_angle_gamma   120.00000133
_symmetry_Int_Tables_number   1
_chemical_formula_structural   Sm2Si7(NiRu3)3
_chemical_formula_sum   'Sm2 Si7 Ni3 Ru9'
_cell_volume   304.82343498
_cell_formula_units_Z   1
loop_
 _symmetry_equiv_pos_site_id
 _symmetry_equiv_pos_as_xyz
  1  'x, y, z'
loop_
 _atom_site_type_symbol
 _atom_site_label
 _atom_site_symmetry_multiplicity
 _atom_site_fract_x
 _atom_site_fract_y
 _atom_site_fract_z
 _atom_site_occupancy
  Sm  Sm0  1  0.333333  0.666667  0.500000  1
  Sm  Sm1  1  0.000000  0.000000  0.000000  1
  Si  Si2  1  0.770014  0.722896  0.500000  1
  Si  Si3  1  0.277104  0.047118  0.500000  1
  Si  Si4  1  0.952882  0.229986  0.500000  1
  Si  Si5  1  0.666667  0.333333  0.000000  1
  Si  Si6  1  0.065888  0.626163  0.000000  1
  Si  Si7  1  0.373837  0.439725  0.000000  1
  Si  Si8  1  0.560275  0.934112  0.000000  1
  Ni  Ni9  1  0.817559  0.606175  0.000000  1
  Ni  Ni10  1  0.393825  0.211384  0.000000  1
  Ni  Ni11  1  0.788616  0.182441  0.000000  1
  Ru  Ru12  1  0.094576  0.391282  0.000000  1
  Ru  Ru13  1  0.608718  0.703294  0.000000  1
  Ru  Ru14  1  0.296706  0.905424  0.000000  1
  Ru  Ru15  1  0.045369  0.769063  0.500000  1
  Ru  Ru16  1  0.230937  0.276306  0.500000  1
  Ru  Ru17  1  0.723694  0.954631  0.500000  1
  Ru  Ru18  1  0.871647  0.430892  0.500000  1
  Ru  Ru19  1  0.569108  0.440755  0.500000  1
  Ru  Ru20  1  0.559245  0.128353  0.500000  1
