# generated using pymatgen
data_La10Co2Sn3Bi
_symmetry_space_group_name_H-M   'P 1'
_cell_length_a   8.40135330
_cell_length_b   9.31284268
_cell_length_c   12.78685622
_cell_angle_alpha   89.86432548
_cell_angle_beta   90.01173826
_cell_angle_gamma   89.97171882
_symmetry_Int_Tables_number   1
_chemical_formula_structural   La10Co2Sn3Bi
_chemical_formula_sum   'La20 Co4 Sn6 Bi2'
_cell_volume   1000.44683999
_cell_formula_units_Z   2
loop_
 _symmetry_equiv_pos_site_id
 _symmetry_equiv_pos_as_xyz
  1  'x, y, z'
loop_
 _atom_site_type_symbol
 _atom_site_label
 _atom_site_symmetry_multiplicity
 _atom_site_fract_x
 _atom_site_fract_y
 _atom_site_fract_z
 _atom_site_occupancy
  La  La0  1  0.350565  0.748266  0.699679  1
  La  La1  1  0.649435  0.251734  0.300321  1
  La  La2  1  0.848174  0.252219  0.802575  1
  La  La3  1  0.151826  0.747781  0.197425  1
  La  La4  1  0.874299  0.748039  0.809127  1
  La  La5  1  0.125701  0.251961  0.190873  1
  La  La6  1  0.381574  0.252666  0.690159  1
  La  La7  1  0.618426  0.747334  0.309841  1
  La  La8  1  0.685043  0.535863  0.571288  1
  La  La9  1  0.314957  0.464137  0.428712  1
  La  La10  1  0.183302  0.471722  0.929745  1
  La  La11  1  0.320345  0.031143  0.429053  1
  La  La12  1  0.816698  0.528278  0.070255  1
  La  La13  1  0.679655  0.968857  0.570947  1
  La  La14  1  0.815588  0.968377  0.065567  1
  La  La15  1  0.184412  0.031623  0.934433  1
  La  La16  1  0.063947  0.743654  0.497047  1
  La  La17  1  0.936053  0.256346  0.502953  1
  La  La18  1  0.555362  0.249797  0.003584  1
  La  La19  1  0.444638  0.750203  0.996416  1
  Co  Co20  1  0.078618  0.750675  0.989876  1
  Co  Co21  1  0.921382  0.249325  0.010124  1
  Co  Co22  1  0.579049  0.248032  0.506998  1
  Co  Co23  1  0.420951  0.751968  0.493002  1
  Sn  Sn24  1  0.570640  0.505015  0.828181  1
  Sn  Sn25  1  0.429360  0.494985  0.171819  1
  Sn  Sn26  1  0.070355  0.493538  0.673735  1
  Sn  Sn27  1  0.429292  0.004738  0.172493  1
  Sn  Sn28  1  0.929645  0.506462  0.326265  1
  Sn  Sn29  1  0.570708  0.995262  0.827507  1
  Bi  Bi30  1  0.927303  0.992725  0.327649  1
  Bi  Bi31  1  0.072697  0.007275  0.672351  1
