# generated using pymatgen
data_LiDyMgPt3
_symmetry_space_group_name_H-M   'P 1'
_cell_length_a   5.09202558
_cell_length_b   5.09202488
_cell_length_c   5.09202446
_cell_angle_alpha   65.03313301
_cell_angle_beta   65.03314040
_cell_angle_gamma   65.03313666
_symmetry_Int_Tables_number   1
_chemical_formula_structural   LiDyMgPt3
_chemical_formula_sum   'Li1 Dy1 Mg1 Pt3'
_cell_volume   103.61708180
_cell_formula_units_Z   1
loop_
 _symmetry_equiv_pos_site_id
 _symmetry_equiv_pos_as_xyz
  1  'x, y, z'
loop_
 _atom_site_type_symbol
 _atom_site_label
 _atom_site_symmetry_multiplicity
 _atom_site_fract_x
 _atom_site_fract_y
 _atom_site_fract_z
 _atom_site_occupancy
  Li  Li0  1  0.628530  0.628530  0.628530  1
  Dy  Dy1  1  0.246321  0.246321  0.246321  1
  Mg  Mg2  1  0.992942  0.992942  0.992942  1
  Pt  Pt3  1  0.627930  0.627930  0.126349  1
  Pt  Pt4  1  0.627930  0.126349  0.627930  1
  Pt  Pt5  1  0.126349  0.627930  0.627930  1
