# generated using pymatgen
data_ZnSn3Pd8
_symmetry_space_group_name_H-M   'P 1'
_cell_length_a   4.28206200
_cell_length_b   5.73455889
_cell_length_c   8.17929410
_cell_angle_alpha   89.88514320
_cell_angle_beta   90.00000000
_cell_angle_gamma   90.00000000
_symmetry_Int_Tables_number   1
_chemical_formula_structural   ZnSn3Pd8
_chemical_formula_sum   'Zn1 Sn3 Pd8'
_cell_volume   200.84818871
_cell_formula_units_Z   1
loop_
 _symmetry_equiv_pos_site_id
 _symmetry_equiv_pos_as_xyz
  1  'x, y, z'
loop_
 _atom_site_type_symbol
 _atom_site_label
 _atom_site_symmetry_multiplicity
 _atom_site_fract_x
 _atom_site_fract_y
 _atom_site_fract_z
 _atom_site_occupancy
  Zn  Zn0  1  0.750000  0.805990  0.894790  1
  Sn  Sn1  1  0.750000  0.294760  0.612659  1
  Sn  Sn2  1  0.250000  0.196463  0.099734  1
  Sn  Sn3  1  0.250000  0.699538  0.390582  1
  Pd  Pd4  1  0.750000  0.444622  0.287151  1
  Pd  Pd5  1  0.750000  0.944879  0.211484  1
  Pd  Pd6  1  0.250000  0.553186  0.718233  1
  Pd  Pd7  1  0.250000  0.043104  0.785331  1
  Pd  Pd8  1  0.750000  0.351041  0.934022  1
  Pd  Pd9  1  0.750000  0.826885  0.573624  1
  Pd  Pd10  1  0.250000  0.673971  0.059237  1
  Pd  Pd11  1  0.250000  0.165561  0.433152  1
