# generated using pymatgen
data_Sr2LiSmO4
_symmetry_space_group_name_H-M   'P 1'
_cell_length_a   11.75983600
_cell_length_b   11.64958100
_cell_length_c   3.51378300
_cell_angle_alpha   90.00000000
_cell_angle_beta   90.00000000
_cell_angle_gamma   90.00000000
_symmetry_Int_Tables_number   1
_chemical_formula_structural   Sr2LiSmO4
_chemical_formula_sum   'Sr8 Li4 Sm4 O16'
_cell_volume   481.37829898
_cell_formula_units_Z   4
loop_
 _symmetry_equiv_pos_site_id
 _symmetry_equiv_pos_as_xyz
  1  'x, y, z'
loop_
 _atom_site_type_symbol
 _atom_site_label
 _atom_site_symmetry_multiplicity
 _atom_site_fract_x
 _atom_site_fract_y
 _atom_site_fract_z
 _atom_site_occupancy
  Sr  Sr0  1  0.572713  0.864432  0.750001  1
  Sr  Sr1  1  0.072712  0.635569  0.250001  1
  Sr  Sr2  1  0.927287  0.364431  0.750001  1
  Sr  Sr3  1  0.427287  0.135568  0.250001  1
  Sr  Sr4  1  0.388216  0.599012  0.750001  1
  Sr  Sr5  1  0.888216  0.900988  0.250001  1
  Sr  Sr6  1  0.111784  0.099012  0.750001  1
  Sr  Sr7  1  0.611784  0.400987  0.250001  1
  Li  Li8  1  0.092548  0.846871  0.750001  1
  Li  Li9  1  0.592548  0.653129  0.250001  1
  Li  Li10  1  0.407452  0.346872  0.750001  1
  Li  Li11  1  0.907451  0.153129  0.250001  1
  Sm  Sm12  1  0.795925  0.640814  0.750001  1
  Sm  Sm13  1  0.295926  0.859186  0.250001  1
  Sm  Sm14  1  0.704075  0.140814  0.750001  1
  Sm  Sm15  1  0.204075  0.359186  0.250001  1
  O  O16  1  0.957238  0.755584  0.750001  1
  O  O17  1  0.457238  0.744415  0.250001  1
  O  O18  1  0.542762  0.255584  0.750001  1
  O  O19  1  0.042763  0.244415  0.250001  1
  O  O20  1  0.611151  0.560366  0.750001  1
  O  O21  1  0.111152  0.939634  0.250001  1
  O  O22  1  0.888848  0.060367  0.750001  1
  O  O23  1  0.388848  0.439633  0.250001  1
  O  O24  1  0.221430  0.742282  0.750001  1
  O  O25  1  0.721430  0.757718  0.250001  1
  O  O26  1  0.278570  0.242282  0.750001  1
  O  O27  1  0.778570  0.257718  0.250001  1
  O  O28  1  0.371316  0.974353  0.750001  1
  O  O29  1  0.871316  0.525647  0.250001  1
  O  O30  1  0.128684  0.474352  0.750001  1
  O  O31  1  0.628685  0.025647  0.250001  1
