# generated using pymatgen
data_Pr3Pa3Fe2(Co4P3)4
_symmetry_space_group_name_H-M   'P 1'
_cell_length_a   3.76227300
_cell_length_b   10.52979736
_cell_length_c   12.38503591
_cell_angle_alpha   90.11538253
_cell_angle_beta   90.00000000
_cell_angle_gamma   90.00000000
_symmetry_Int_Tables_number   1
_chemical_formula_structural   Pr3Pa3Fe2(Co4P3)4
_chemical_formula_sum   'Pr3 Pa3 Fe2 Co16 P12'
_cell_volume   490.64424490
_cell_formula_units_Z   1
loop_
 _symmetry_equiv_pos_site_id
 _symmetry_equiv_pos_as_xyz
  1  'x, y, z'
loop_
 _atom_site_type_symbol
 _atom_site_label
 _atom_site_symmetry_multiplicity
 _atom_site_fract_x
 _atom_site_fract_y
 _atom_site_fract_z
 _atom_site_occupancy
  Pr  Pr0  1  0.000000  0.500551  0.517849  1
  Pr  Pr1  1  0.500000  0.000035  0.481625  1
  Pr  Pr2  1  0.000000  0.315683  0.795291  1
  Pa  Pa3  1  0.500000  0.819259  0.207921  1
  Pa  Pa4  1  0.500000  0.180357  0.207260  1
  Pa  Pa5  1  0.000000  0.680090  0.790584  1
  Fe  Fe6  1  0.500000  0.500631  0.155399  1
  Fe  Fe7  1  0.000000  0.998888  0.846237  1
  Co  Co8  1  0.500000  0.513037  0.709760  1
  Co  Co9  1  0.000000  0.000173  0.288513  1
  Co  Co10  1  0.000000  0.501490  0.987542  1
  Co  Co11  1  0.500000  0.997814  0.016155  1
  Co  Co12  1  0.500000  0.331871  0.999237  1
  Co  Co13  1  0.500000  0.667721  0.996943  1
  Co  Co14  1  0.000000  0.165279  0.007415  1
  Co  Co15  1  0.000000  0.831088  0.004072  1
  Co  Co16  1  0.500000  0.296671  0.425405  1
  Co  Co17  1  0.500000  0.703656  0.424732  1
  Co  Co18  1  0.000000  0.204236  0.569059  1
  Co  Co19  1  0.000000  0.799490  0.573421  1
  Co  Co20  1  0.500000  0.875692  0.716122  1
  Co  Co21  1  0.500000  0.117691  0.711710  1
  Co  Co22  1  0.000000  0.623723  0.284238  1
  Co  Co23  1  0.000000  0.375520  0.283918  1
  P  P24  1  0.500000  0.500740  0.888260  1
  P  P25  1  0.000000  0.998167  0.112856  1
  P  P26  1  0.500000  0.500489  0.336790  1
  P  P27  1  0.000000  0.001223  0.663606  1
  P  P28  1  0.500000  0.308439  0.613990  1
  P  P29  1  0.500000  0.695205  0.611642  1
  P  P30  1  0.000000  0.191494  0.385489  1
  P  P31  1  0.000000  0.808965  0.386028  1
  P  P32  1  0.500000  0.846017  0.895748  1
  P  P33  1  0.500000  0.148842  0.896078  1
  P  P34  1  0.000000  0.653236  0.105080  1
  P  P35  1  0.000000  0.346539  0.104025  1
