# generated using pymatgen
data_Ho8Zn(Si5W4)3
_symmetry_space_group_name_H-M   'P 1'
_cell_length_a   6.74709543
_cell_length_b   6.91570875
_cell_length_c   12.98011977
_cell_angle_alpha   89.80375767
_cell_angle_beta   90.00871177
_cell_angle_gamma   89.92598358
_symmetry_Int_Tables_number   1
_chemical_formula_structural   Ho8Zn(Si5W4)3
_chemical_formula_sum   'Ho8 Zn1 Si15 W12'
_cell_volume   605.66061353
_cell_formula_units_Z   1
loop_
 _symmetry_equiv_pos_site_id
 _symmetry_equiv_pos_as_xyz
  1  'x, y, z'
loop_
 _atom_site_type_symbol
 _atom_site_label
 _atom_site_symmetry_multiplicity
 _atom_site_fract_x
 _atom_site_fract_y
 _atom_site_fract_z
 _atom_site_occupancy
  Ho  Ho0  1  0.495988  0.331303  0.093762  1
  Ho  Ho1  1  0.996131  0.166104  0.406258  1
  Ho  Ho2  1  0.505740  0.669326  0.592335  1
  Ho  Ho3  1  0.003264  0.831569  0.906662  1
  Ho  Ho4  1  0.504366  0.668689  0.906673  1
  Ho  Ho5  1  0.005816  0.833484  0.593486  1
  Ho  Ho6  1  0.495078  0.331705  0.406279  1
  Ho  Ho7  1  0.995361  0.168137  0.093602  1
  Zn  Zn8  1  0.666704  0.042225  0.542880  1
  Si  Si9  1  0.801837  0.636963  0.749892  1
  Si  Si10  1  0.304706  0.866122  0.749627  1
  Si  Si11  1  0.197058  0.365201  0.250407  1
  Si  Si12  1  0.696462  0.132495  0.250460  1
  Si  Si13  1  0.535710  0.372207  0.748627  1
  Si  Si14  1  0.032927  0.127388  0.750594  1
  Si  Si15  1  0.463106  0.626170  0.248310  1
  Si  Si16  1  0.964685  0.870372  0.249389  1
  Si  Si17  1  0.162913  0.457637  0.954919  1
  Si  Si18  1  0.336791  0.957176  0.045593  1
  Si  Si19  1  0.837059  0.542295  0.454921  1
  Si  Si20  1  0.340971  0.957068  0.454735  1
  Si  Si21  1  0.836664  0.542490  0.045797  1
  Si  Si22  1  0.662888  0.044507  0.956244  1
  Si  Si23  1  0.163307  0.458315  0.545400  1
  W  W24  1  0.662781  0.006874  0.753964  1
  W  W25  1  0.165835  0.497292  0.750777  1
  W  W26  1  0.334512  0.996862  0.249572  1
  W  W27  1  0.834467  0.500553  0.249359  1
  W  W28  1  0.837085  0.342863  0.628456  1
  W  W29  1  0.331633  0.163436  0.875247  1
  W  W30  1  0.166947  0.662799  0.125344  1
  W  W31  1  0.665437  0.828723  0.368566  1
  W  W32  1  0.168516  0.663334  0.374413  1
  W  W33  1  0.668347  0.836975  0.123822  1
  W  W34  1  0.833263  0.337955  0.875889  1
  W  W35  1  0.325644  0.163386  0.627739  1
