# generated using pymatgen
data_Cs2Ta3Nb3PbBr18
_symmetry_space_group_name_H-M   'P 1'
_cell_length_a   11.05570908
_cell_length_b   11.05603908
_cell_length_c   11.05663570
_cell_angle_alpha   54.99414634
_cell_angle_beta   54.98882514
_cell_angle_gamma   54.98696423
_symmetry_Int_Tables_number   1
_chemical_formula_structural   Cs2Ta3Nb3PbBr18
_chemical_formula_sum   'Cs2 Ta3 Nb3 Pb1 Br18'
_cell_volume   844.23797275
_cell_formula_units_Z   1
loop_
 _symmetry_equiv_pos_site_id
 _symmetry_equiv_pos_as_xyz
  1  'x, y, z'
loop_
 _atom_site_type_symbol
 _atom_site_label
 _atom_site_symmetry_multiplicity
 _atom_site_fract_x
 _atom_site_fract_y
 _atom_site_fract_z
 _atom_site_occupancy
  Cs  Cs0  1  0.276668  0.276870  0.276565  1
  Cs  Cs1  1  0.723175  0.723378  0.723100  1
  Ta  Ta2  1  0.638324  0.423509  0.310144  1
  Ta  Ta3  1  0.576502  0.689844  0.361698  1
  Ta  Ta4  1  0.310190  0.638275  0.423514  1
  Nb  Nb5  1  0.422869  0.308735  0.639343  1
  Nb  Nb6  1  0.360703  0.577121  0.691256  1
  Nb  Nb7  1  0.691273  0.360652  0.577161  1
  Pb  Pb8  1  0.000956  0.999713  0.998812  1
  Br  Br9  1  0.639197  0.094319  0.768022  1
  Br  Br10  1  0.767331  0.638760  0.095705  1
  Br  Br11  1  0.094796  0.767920  0.637521  1
  Br  Br12  1  0.825325  0.323115  0.043886  1
  Br  Br13  1  0.168934  0.437124  0.575988  1
  Br  Br14  1  0.677281  0.955994  0.174236  1
  Br  Br15  1  0.904653  0.232691  0.359598  1
  Br  Br16  1  0.564594  0.422847  0.831110  1
  Br  Br17  1  0.424047  0.831026  0.562893  1
  Br  Br18  1  0.958287  0.172989  0.678161  1
  Br  Br19  1  0.172612  0.678947  0.957963  1
  Br  Br20  1  0.044211  0.825748  0.322239  1
  Br  Br21  1  0.321400  0.041879  0.827012  1
  Br  Br22  1  0.232027  0.360794  0.905676  1
  Br  Br23  1  0.578172  0.170144  0.433724  1
  Br  Br24  1  0.435435  0.576998  0.170108  1
  Br  Br25  1  0.361213  0.904317  0.232713  1
  Br  Br26  1  0.829827  0.566290  0.421853  1
