# generated using pymatgen
data_Tb(YbB8)3
_symmetry_space_group_name_H-M   'P 1'
_cell_length_a   7.12806690
_cell_length_b   7.12806756
_cell_length_c   5.82148700
_cell_angle_alpha   90.00000000
_cell_angle_beta   90.00000000
_cell_angle_gamma   109.44295589
_symmetry_Int_Tables_number   1
_chemical_formula_structural   Tb(YbB8)3
_chemical_formula_sum   'Tb1 Yb3 B24'
_cell_volume   278.91825040
_cell_formula_units_Z   1
loop_
 _symmetry_equiv_pos_site_id
 _symmetry_equiv_pos_as_xyz
  1  'x, y, z'
loop_
 _atom_site_type_symbol
 _atom_site_label
 _atom_site_symmetry_multiplicity
 _atom_site_fract_x
 _atom_site_fract_y
 _atom_site_fract_z
 _atom_site_occupancy
  Tb  Tb0  1  0.000000  0.000000  0.000000  1
  Yb  Yb1  1  0.748596  0.251404  0.500000  1
  Yb  Yb2  1  0.500000  0.500000  0.000000  1
  Yb  Yb3  1  0.251404  0.748596  0.500000  1
  B  B4  1  0.174428  0.324467  0.649450  1
  B  B5  1  0.925384  0.574869  0.150049  1
  B  B6  1  0.675533  0.825572  0.649450  1
  B  B7  1  0.425131  0.074616  0.150049  1
  B  B8  1  0.174428  0.324467  0.350550  1
  B  B9  1  0.925384  0.574869  0.849951  1
  B  B10  1  0.675533  0.825572  0.350550  1
  B  B11  1  0.425131  0.074616  0.849951  1
  B  B12  1  0.399438  0.399438  0.500000  1
  B  B13  1  0.150026  0.649541  0.000000  1
  B  B14  1  0.900108  0.900108  0.500000  1
  B  B15  1  0.649541  0.150026  0.000000  1
  B  B16  1  0.324467  0.174428  0.649450  1
  B  B17  1  0.074616  0.425131  0.150049  1
  B  B18  1  0.825572  0.675533  0.649450  1
  B  B19  1  0.574869  0.925384  0.150049  1
  B  B20  1  0.099892  0.099892  0.500000  1
  B  B21  1  0.849974  0.350459  0.000000  1
  B  B22  1  0.600562  0.600562  0.500000  1
  B  B23  1  0.350459  0.849974  0.000000  1
  B  B24  1  0.324467  0.174428  0.350550  1
  B  B25  1  0.074616  0.425131  0.849951  1
  B  B26  1  0.825572  0.675533  0.350550  1
  B  B27  1  0.574869  0.925384  0.849951  1
