# generated using pymatgen
data_Dy4Sc2AlInPt4
_symmetry_space_group_name_H-M   'P 1'
_cell_length_a   4.44405600
_cell_length_b   7.20242379
_cell_length_c   8.19439784
_cell_angle_alpha   90.28229217
_cell_angle_beta   90.00000000
_cell_angle_gamma   90.00000000
_symmetry_Int_Tables_number   1
_chemical_formula_structural   Dy4Sc2AlInPt4
_chemical_formula_sum   'Dy4 Sc2 Al1 In1 Pt4'
_cell_volume   262.28289489
_cell_formula_units_Z   1
loop_
 _symmetry_equiv_pos_site_id
 _symmetry_equiv_pos_as_xyz
  1  'x, y, z'
loop_
 _atom_site_type_symbol
 _atom_site_label
 _atom_site_symmetry_multiplicity
 _atom_site_fract_x
 _atom_site_fract_y
 _atom_site_fract_z
 _atom_site_occupancy
  Dy  Dy0  1  0.250000  0.454798  0.173591  1
  Dy  Dy1  1  0.750000  0.517511  0.819950  1
  Dy  Dy2  1  0.750000  0.050760  0.679875  1
  Dy  Dy3  1  0.250000  0.985109  0.337141  1
  Sc  Sc4  1  0.250000  0.867021  0.936519  1
  Sc  Sc5  1  0.750000  0.632534  0.434206  1
  Al  Al6  1  0.250000  0.363855  0.562016  1
  In  In7  1  0.750000  0.138064  0.069414  1
  Pt  Pt8  1  0.250000  0.735933  0.615175  1
  Pt  Pt9  1  0.750000  0.264661  0.395310  1
  Pt  Pt10  1  0.750000  0.742722  0.111757  1
  Pt  Pt11  1  0.250000  0.247031  0.865047  1
