# generated using pymatgen
data_CeY3(CuGe)4
_symmetry_space_group_name_H-M   'P 1'
_cell_length_a   7.60234222
_cell_length_b   4.27473300
_cell_length_c   7.35024001
_cell_angle_alpha   90.00000000
_cell_angle_beta   90.32723541
_cell_angle_gamma   90.00000000
_symmetry_Int_Tables_number   1
_chemical_formula_structural   CeY3(CuGe)4
_chemical_formula_sum   'Ce1 Y3 Cu4 Ge4'
_cell_volume   238.86408020
_cell_formula_units_Z   1
loop_
 _symmetry_equiv_pos_site_id
 _symmetry_equiv_pos_as_xyz
  1  'x, y, z'
loop_
 _atom_site_type_symbol
 _atom_site_label
 _atom_site_symmetry_multiplicity
 _atom_site_fract_x
 _atom_site_fract_y
 _atom_site_fract_z
 _atom_site_occupancy
  Ce  Ce0  1  0.500047  0.500000  0.245183  1
  Y  Y1  1  0.000531  0.500000  0.255239  1
  Y  Y2  1  0.000064  0.000000  0.745059  1
  Y  Y3  1  0.500012  0.000000  0.754261  1
  Cu  Cu4  1  0.758022  0.000000  0.081477  1
  Cu  Cu5  1  0.243289  0.000000  0.418601  1
  Cu  Cu6  1  0.743553  0.500000  0.583893  1
  Cu  Cu7  1  0.230412  0.500000  0.916103  1
  Ge  Ge8  1  0.248311  0.000000  0.082345  1
  Ge  Ge9  1  0.754574  0.000000  0.417284  1
  Ge  Ge10  1  0.260207  0.500000  0.584986  1
  Ge  Ge11  1  0.760978  0.500000  0.915567  1
