# generated using pymatgen
data_Nb12Ga5Pd3N4
_symmetry_space_group_name_H-M   'P 1'
_cell_length_a   7.06019141
_cell_length_b   7.06019130
_cell_length_c   7.06019115
_cell_angle_alpha   90.29970561
_cell_angle_beta   90.29969876
_cell_angle_gamma   90.29970770
_symmetry_Int_Tables_number   1
_chemical_formula_structural   Nb12Ga5Pd3N4
_chemical_formula_sum   'Nb12 Ga5 Pd3 N4'
_cell_volume   351.90992573
_cell_formula_units_Z   1
loop_
 _symmetry_equiv_pos_site_id
 _symmetry_equiv_pos_as_xyz
  1  'x, y, z'
loop_
 _atom_site_type_symbol
 _atom_site_label
 _atom_site_symmetry_multiplicity
 _atom_site_fract_x
 _atom_site_fract_y
 _atom_site_fract_z
 _atom_site_occupancy
  Nb  Nb0  1  0.788682  0.957153  0.379442  1
  Nb  Nb1  1  0.709742  0.042196  0.872509  1
  Nb  Nb2  1  0.211155  0.455261  0.123220  1
  Nb  Nb3  1  0.290243  0.544218  0.623170  1
  Nb  Nb4  1  0.957153  0.379442  0.788682  1
  Nb  Nb5  1  0.042196  0.872509  0.709742  1
  Nb  Nb6  1  0.455261  0.123220  0.211155  1
  Nb  Nb7  1  0.544218  0.623170  0.290243  1
  Nb  Nb8  1  0.379442  0.788682  0.957153  1
  Nb  Nb9  1  0.872509  0.709742  0.042196  1
  Nb  Nb10  1  0.123220  0.211155  0.455261  1
  Nb  Nb11  1  0.623170  0.290243  0.544218  1
  Ga  Ga12  1  0.677637  0.677637  0.677637  1
  Ga  Ga13  1  0.570835  0.421788  0.933744  1
  Ga  Ga14  1  0.421788  0.933744  0.570835  1
  Ga  Ga15  1  0.933744  0.570835  0.421788  1
  Ga  Ga16  1  0.072289  0.072289  0.072289  1
  Pd  Pd17  1  0.178537  0.822427  0.318038  1
  Pd  Pd18  1  0.318038  0.178537  0.822427  1
  Pd  Pd19  1  0.822427  0.318038  0.178537  1
  N  N20  1  0.879741  0.126834  0.625538  1
  N  N21  1  0.625538  0.879741  0.126834  1
  N  N22  1  0.126834  0.625538  0.879741  1
  N  N23  1  0.375601  0.375601  0.375601  1
