# generated using pymatgen
data_Dy4Al6FeTc
_symmetry_space_group_name_H-M   'P 1'
_cell_length_a   5.49385700
_cell_length_b   5.49385612
_cell_length_c   8.79793400
_cell_angle_alpha   90.00000000
_cell_angle_beta   90.00000000
_cell_angle_gamma   119.99999927
_symmetry_Int_Tables_number   1
_chemical_formula_structural   Dy4Al6FeTc
_chemical_formula_sum   'Dy4 Al6 Fe1 Tc1'
_cell_volume   229.96723680
_cell_formula_units_Z   1
loop_
 _symmetry_equiv_pos_site_id
 _symmetry_equiv_pos_as_xyz
  1  'x, y, z'
loop_
 _atom_site_type_symbol
 _atom_site_label
 _atom_site_symmetry_multiplicity
 _atom_site_fract_x
 _atom_site_fract_y
 _atom_site_fract_z
 _atom_site_occupancy
  Dy  Dy0  1  0.666666  0.333334  0.053791  1
  Dy  Dy1  1  0.666666  0.333334  0.448126  1
  Dy  Dy2  1  0.333333  0.666666  0.551873  1
  Dy  Dy3  1  0.333333  0.666666  0.946209  1
  Al  Al4  1  0.161514  0.323027  0.255011  1
  Al  Al5  1  0.161513  0.838487  0.255011  1
  Al  Al6  1  0.676974  0.838487  0.255011  1
  Al  Al7  1  0.323027  0.161513  0.744989  1
  Al  Al8  1  0.838486  0.161513  0.744989  1
  Al  Al9  1  0.838486  0.676973  0.744989  1
  Fe  Fe10  1  0.000000  0.000000  0.499999  1
  Tc  Tc11  1  0.000000  0.000000  0.000000  1
