# generated using pymatgen
data_Ti2FeP2Ir
_symmetry_space_group_name_H-M   'P 1'
_cell_length_a   3.67123700
_cell_length_b   6.16285700
_cell_length_c   7.01240000
_cell_angle_alpha   90.00000000
_cell_angle_beta   90.00000000
_cell_angle_gamma   90.00000000
_symmetry_Int_Tables_number   1
_chemical_formula_structural   Ti2FeP2Ir
_chemical_formula_sum   'Ti4 Fe2 P4 Ir2'
_cell_volume   158.65771434
_cell_formula_units_Z   2
loop_
 _symmetry_equiv_pos_site_id
 _symmetry_equiv_pos_as_xyz
  1  'x, y, z'
loop_
 _atom_site_type_symbol
 _atom_site_label
 _atom_site_symmetry_multiplicity
 _atom_site_fract_x
 _atom_site_fract_y
 _atom_site_fract_z
 _atom_site_occupancy
  Ti  Ti0  1  0.250000  0.022490  0.820985  1
  Ti  Ti1  1  0.250000  0.522490  0.679015  1
  Ti  Ti2  1  0.750000  0.976856  0.173295  1
  Ti  Ti3  1  0.750000  0.476856  0.326705  1
  Fe  Fe4  1  0.750000  0.853884  0.559914  1
  Fe  Fe5  1  0.750000  0.353884  0.940086  1
  P  P6  1  0.250000  0.765651  0.390646  1
  P  P7  1  0.250000  0.265651  0.109354  1
  P  P8  1  0.750000  0.230862  0.638306  1
  P  P9  1  0.750000  0.730862  0.861694  1
  Ir  Ir10  1  0.250000  0.150257  0.436585  1
  Ir  Ir11  1  0.250000  0.650257  0.063415  1
