# generated using pymatgen
data_Yb3YAl13Si5Ir6
_symmetry_space_group_name_H-M   'P 1'
_cell_length_a   7.48118908
_cell_length_b   7.44840100
_cell_length_c   9.42890325
_cell_angle_alpha   89.97458875
_cell_angle_beta   90.05021841
_cell_angle_gamma   119.86222024
_symmetry_Int_Tables_number   1
_chemical_formula_structural   Yb3YAl13Si5Ir6
_chemical_formula_sum   'Yb3 Y1 Al13 Si5 Ir6'
_cell_volume   455.64500064
_cell_formula_units_Z   1
loop_
 _symmetry_equiv_pos_site_id
 _symmetry_equiv_pos_as_xyz
  1  'x, y, z'
loop_
 _atom_site_type_symbol
 _atom_site_label
 _atom_site_symmetry_multiplicity
 _atom_site_fract_x
 _atom_site_fract_y
 _atom_site_fract_z
 _atom_site_occupancy
  Yb  Yb0  1  0.005466  0.341921  0.749250  1
  Yb  Yb1  1  0.674880  0.007808  0.252424  1
  Yb  Yb2  1  0.319688  0.991227  0.745194  1
  Y  Y3  1  0.999749  0.662460  0.253393  1
  Al  Al4  1  0.129349  0.127745  0.250334  1
  Al  Al5  1  0.871162  0.872381  0.750536  1
  Al  Al6  1  0.665104  0.997220  0.578111  1
  Al  Al7  1  0.662464  0.998046  0.923750  1
  Al  Al8  1  0.339538  0.003603  0.071284  1
  Al  Al9  1  0.336472  0.334456  0.559638  1
  Al  Al10  1  0.663749  0.669196  0.439480  1
  Al  Al11  1  0.663186  0.669148  0.059304  1
  Al  Al12  1  0.336317  0.331504  0.940156  1
  Al  Al13  1  0.337069  0.546267  0.250375  1
  Al  Al14  1  0.660317  0.449571  0.750582  1
  Al  Al15  1  0.546029  0.343936  0.250134  1
  Al  Al16  1  0.453737  0.658180  0.749458  1
  Si  Si17  1  0.001024  0.326287  0.067198  1
  Si  Si18  1  0.998244  0.671168  0.931808  1
  Si  Si19  1  0.991245  0.665709  0.573022  1
  Si  Si20  1  0.340618  0.006686  0.423097  1
  Si  Si21  1  0.003009  0.327176  0.430210  1
  Ir  Ir22  1  0.688964  0.338764  0.004183  1
  Ir  Ir23  1  0.311194  0.661105  0.999768  1
  Ir  Ir24  1  0.311402  0.670625  0.499194  1
  Ir  Ir25  1  0.682517  0.332001  0.497148  1
  Ir  Ir26  1  0.000625  0.998408  0.001981  1
  Ir  Ir27  1  0.006885  0.997404  0.498992  1
