# generated using pymatgen
data_Hf10BeSn6As
_symmetry_space_group_name_H-M   'P 1'
_cell_length_a   5.79834000
_cell_length_b   8.58790311
_cell_length_c   8.58790300
_cell_angle_alpha   120.00000343
_cell_angle_beta   90.00000000
_cell_angle_gamma   90.00000000
_symmetry_Int_Tables_number   1
_chemical_formula_structural   Hf10BeSn6As
_chemical_formula_sum   'Hf10 Be1 Sn6 As1'
_cell_volume   370.34676956
_cell_formula_units_Z   1
loop_
 _symmetry_equiv_pos_site_id
 _symmetry_equiv_pos_as_xyz
  1  'x, y, z'
loop_
 _atom_site_type_symbol
 _atom_site_label
 _atom_site_symmetry_multiplicity
 _atom_site_fract_x
 _atom_site_fract_y
 _atom_site_fract_z
 _atom_site_occupancy
  Hf  Hf0  1  0.736674  0.742811  0.742811  1
  Hf  Hf1  1  0.263326  0.257189  0.257189  1
  Hf  Hf2  1  0.736674  0.000000  0.257189  1
  Hf  Hf3  1  0.263326  0.000000  0.742811  1
  Hf  Hf4  1  0.736674  0.257189  0.000000  1
  Hf  Hf5  1  0.263326  0.742811  0.000000  1
  Hf  Hf6  1  0.000000  0.666667  0.333333  1
  Hf  Hf7  1  0.000000  0.333333  0.666667  1
  Hf  Hf8  1  0.500000  0.333333  0.666667  1
  Hf  Hf9  1  0.500000  0.666667  0.333333  1
  Be  Be10  1  0.500000  0.000000  0.000000  1
  Sn  Sn11  1  0.750698  0.394186  0.394186  1
  Sn  Sn12  1  0.249302  0.605814  0.605814  1
  Sn  Sn13  1  0.750698  0.000000  0.605814  1
  Sn  Sn14  1  0.249302  0.000000  0.394186  1
  Sn  Sn15  1  0.750698  0.605814  0.000000  1
  Sn  Sn16  1  0.249302  0.394186  0.000000  1
  As  As17  1  0.000000  0.000000  0.000000  1
