# generated using pymatgen
data_Y4Lu8Co5Pb
_symmetry_space_group_name_H-M   'P 1'
_cell_length_a   8.18630687
_cell_length_b   8.18630617
_cell_length_c   8.18630600
_cell_angle_alpha   110.98449899
_cell_angle_beta   110.52454737
_cell_angle_gamma   106.93436203
_symmetry_Int_Tables_number   1
_chemical_formula_structural   Y4Lu8Co5Pb
_chemical_formula_sum   'Y4 Lu8 Co5 Pb1'
_cell_volume   421.69581935
_cell_formula_units_Z   1
loop_
 _symmetry_equiv_pos_site_id
 _symmetry_equiv_pos_as_xyz
  1  'x, y, z'
loop_
 _atom_site_type_symbol
 _atom_site_label
 _atom_site_symmetry_multiplicity
 _atom_site_fract_x
 _atom_site_fract_y
 _atom_site_fract_z
 _atom_site_occupancy
  Y  Y0  1  0.287582  0.187197  0.474778  1
  Y  Y1  1  0.712418  0.812803  0.525222  1
  Y  Y2  1  0.287582  0.812803  0.100383  1
  Y  Y3  1  0.712418  0.187197  0.899617  1
  Lu  Lu4  1  0.620920  0.312730  0.308190  1
  Lu  Lu5  1  0.379080  0.687270  0.691810  1
  Lu  Lu6  1  0.004540  0.312730  0.691810  1
  Lu  Lu7  1  0.995460  0.687270  0.308190  1
  Lu  Lu8  1  0.210263  0.403911  0.193649  1
  Lu  Lu9  1  0.789737  0.596089  0.806351  1
  Lu  Lu10  1  0.210263  0.016614  0.806351  1
  Lu  Lu11  1  0.789737  0.983386  0.193649  1
  Co  Co12  1  0.000000  0.376594  0.376594  1
  Co  Co13  1  0.000000  0.623406  0.623406  1
  Co  Co14  1  0.386501  0.886501  0.500000  1
  Co  Co15  1  0.613499  0.113499  0.500000  1
  Co  Co16  1  0.000000  0.000000  0.000000  1
  Pb  Pb17  1  0.500000  0.500000  0.000000  1
