# generated using pymatgen
data_MgZn3Rh2
_symmetry_space_group_name_H-M   'P 1'
_cell_length_a   3.13069400
_cell_length_b   6.80531100
_cell_length_c   4.24512500
_cell_angle_alpha   90.00000000
_cell_angle_beta   90.00000000
_cell_angle_gamma   76.70183413
_symmetry_Int_Tables_number   1
_chemical_formula_structural   MgZn3Rh2
_chemical_formula_sum   'Mg1 Zn3 Rh2'
_cell_volume   88.01871805
_cell_formula_units_Z   1
loop_
 _symmetry_equiv_pos_site_id
 _symmetry_equiv_pos_as_xyz
  1  'x, y, z'
loop_
 _atom_site_type_symbol
 _atom_site_label
 _atom_site_symmetry_multiplicity
 _atom_site_fract_x
 _atom_site_fract_y
 _atom_site_fract_z
 _atom_site_occupancy
  Mg  Mg0  1  0.787158  0.425684  0.500001  1
  Zn  Zn1  1  0.986250  0.027502  0.000000  1
  Zn  Zn2  1  0.655848  0.688303  0.000000  1
  Zn  Zn3  1  0.460464  0.079076  0.500001  1
  Rh  Rh4  1  0.324989  0.350025  0.000000  1
  Rh  Rh5  1  0.118631  0.762742  0.500001  1
