# generated using pymatgen
data_Pr2MnCoSi2C
_symmetry_space_group_name_H-M   'P 1'
_cell_length_a   5.81016638
_cell_length_b   5.81016590
_cell_length_c   7.03602239
_cell_angle_alpha   125.84628685
_cell_angle_beta   125.84628100
_cell_angle_gamma   40.56805250
_symmetry_Int_Tables_number   1
_chemical_formula_structural   Pr2MnCoSi2C
_chemical_formula_sum   'Pr2 Mn1 Co1 Si2 C1'
_cell_volume   120.66805271
_cell_formula_units_Z   1
loop_
 _symmetry_equiv_pos_site_id
 _symmetry_equiv_pos_as_xyz
  1  'x, y, z'
loop_
 _atom_site_type_symbol
 _atom_site_label
 _atom_site_symmetry_multiplicity
 _atom_site_fract_x
 _atom_site_fract_y
 _atom_site_fract_z
 _atom_site_occupancy
  Pr  Pr0  1  0.559657  0.559657  0.298802  1
  Pr  Pr1  1  0.441569  0.441569  0.699471  1
  Mn  Mn2  1  0.805596  0.805596  0.914212  1
  Co  Co3  1  0.197341  0.197341  0.089920  1
  Si  Si4  1  0.823309  0.823309  0.261610  1
  Si  Si5  1  0.176625  0.176625  0.741296  1
  C  C6  1  0.995902  0.995902  0.994689  1
