# generated using pymatgen
data_Tb5Y3Re2(TcC4)2
_symmetry_space_group_name_H-M   'P 1'
_cell_length_a   5.13475000
_cell_length_b   6.59724003
_cell_length_c   9.92510205
_cell_angle_alpha   90.01101344
_cell_angle_beta   90.00000000
_cell_angle_gamma   90.00000000
_symmetry_Int_Tables_number   1
_chemical_formula_structural   Tb5Y3Re2(TcC4)2
_chemical_formula_sum   'Tb5 Y3 Re2 Tc2 C8'
_cell_volume   336.21459471
_cell_formula_units_Z   1
loop_
 _symmetry_equiv_pos_site_id
 _symmetry_equiv_pos_as_xyz
  1  'x, y, z'
loop_
 _atom_site_type_symbol
 _atom_site_label
 _atom_site_symmetry_multiplicity
 _atom_site_fract_x
 _atom_site_fract_y
 _atom_site_fract_z
 _atom_site_occupancy
  Tb  Tb0  1  0.250000  0.180869  0.943064  1
  Tb  Tb1  1  0.750000  0.468467  0.783563  1
  Tb  Tb2  1  0.250000  0.031508  0.283655  1
  Tb  Tb3  1  0.750000  0.969099  0.715418  1
  Tb  Tb4  1  0.250000  0.530891  0.215489  1
  Y  Y5  1  0.750000  0.820483  0.055846  1
  Y  Y6  1  0.250000  0.679437  0.555797  1
  Y  Y7  1  0.750000  0.319405  0.442885  1
  Re  Re8  1  0.750000  0.778132  0.364529  1
  Re  Re9  1  0.250000  0.721699  0.864514  1
  Tc  Tc10  1  0.750000  0.277583  0.135314  1
  Tc  Tc11  1  0.250000  0.222400  0.635154  1
  C  C12  1  0.750000  0.178808  0.953423  1
  C  C13  1  0.250000  0.820398  0.047741  1
  C  C14  1  0.750000  0.679550  0.547757  1
  C  C15  1  0.250000  0.321176  0.453413  1
  C  C16  1  0.750000  0.043434  0.259354  1
  C  C17  1  0.250000  0.456640  0.759258  1
  C  C18  1  0.750000  0.545369  0.241897  1
  C  C19  1  0.250000  0.954652  0.741931  1
