# generated using pymatgen
data_Tb7ThAlPd24
_symmetry_space_group_name_H-M   'P 1'
_cell_length_a   8.37634834
_cell_length_b   8.37634925
_cell_length_c   8.37634842
_cell_angle_alpha   89.95586609
_cell_angle_beta   90.04413572
_cell_angle_gamma   90.04414148
_symmetry_Int_Tables_number   1
_chemical_formula_structural   Tb7ThAlPd24
_chemical_formula_sum   'Tb7 Th1 Al1 Pd24'
_cell_volume   587.71104644
_cell_formula_units_Z   1
loop_
 _symmetry_equiv_pos_site_id
 _symmetry_equiv_pos_as_xyz
  1  'x, y, z'
loop_
 _atom_site_type_symbol
 _atom_site_label
 _atom_site_symmetry_multiplicity
 _atom_site_fract_x
 _atom_site_fract_y
 _atom_site_fract_z
 _atom_site_occupancy
  Tb  Tb0  1  0.251630  0.252228  0.252228  1
  Tb  Tb1  1  0.747680  0.747624  0.747624  1
  Tb  Tb2  1  0.747772  0.748370  0.252228  1
  Tb  Tb3  1  0.747772  0.252228  0.748370  1
  Tb  Tb4  1  0.252376  0.252320  0.747624  1
  Tb  Tb5  1  0.252376  0.747624  0.252320  1
  Tb  Tb6  1  0.252533  0.747467  0.747467  1
  Th  Th7  1  0.746297  0.253703  0.253703  1
  Al  Al8  1  0.000995  0.999005  0.999005  1
  Pd  Pd9  1  0.259548  0.499888  0.999890  1
  Pd  Pd10  1  0.740589  0.500080  0.000365  1
  Pd  Pd11  1  0.999635  0.259411  0.500080  1
  Pd  Pd12  1  0.499920  0.259411  0.000365  1
  Pd  Pd13  1  0.000110  0.740452  0.499888  1
  Pd  Pd14  1  0.500112  0.740452  0.999890  1
  Pd  Pd15  1  0.499920  0.000365  0.259411  1
  Pd  Pd16  1  0.259548  0.999890  0.499888  1
  Pd  Pd17  1  0.500112  0.999890  0.740452  1
  Pd  Pd18  1  0.740589  0.000365  0.500080  1
  Pd  Pd19  1  0.999635  0.500080  0.259411  1
  Pd  Pd20  1  0.000110  0.499888  0.740452  1
  Pd  Pd21  1  0.252851  0.499855  0.499855  1
  Pd  Pd22  1  0.746857  0.500559  0.500559  1
  Pd  Pd23  1  0.499441  0.253143  0.500559  1
  Pd  Pd24  1  0.500145  0.747149  0.499855  1
  Pd  Pd25  1  0.499441  0.500559  0.253143  1
  Pd  Pd26  1  0.500145  0.499855  0.747149  1
  Pd  Pd27  1  0.288932  0.999785  0.999785  1
  Pd  Pd28  1  0.711516  0.999508  0.999508  1
  Pd  Pd29  1  0.000492  0.288484  0.999508  1
  Pd  Pd30  1  0.000215  0.711068  0.999785  1
  Pd  Pd31  1  0.000492  0.999508  0.288484  1
  Pd  Pd32  1  0.000215  0.999785  0.711068  1
