# generated using pymatgen
data_Y9ErHg3Ru
_symmetry_space_group_name_H-M   'P 1'
_cell_length_a   9.66458989
_cell_length_b   9.66568108
_cell_length_c   9.68262520
_cell_angle_alpha   89.99855088
_cell_angle_beta   89.95134843
_cell_angle_gamma   119.98907483
_symmetry_Int_Tables_number   1
_chemical_formula_structural   Y9ErHg3Ru
_chemical_formula_sum   'Y18 Er2 Hg6 Ru2'
_cell_volume   783.40660637
_cell_formula_units_Z   2
loop_
 _symmetry_equiv_pos_site_id
 _symmetry_equiv_pos_as_xyz
  1  'x, y, z'
loop_
 _atom_site_type_symbol
 _atom_site_label
 _atom_site_symmetry_multiplicity
 _atom_site_fract_x
 _atom_site_fract_y
 _atom_site_fract_z
 _atom_site_occupancy
  Y  Y0  1  0.000427  0.000216  0.499854  1
  Y  Y1  1  0.000029  0.000016  0.999888  1
  Y  Y2  1  0.580040  0.790008  0.439799  1
  Y  Y3  1  0.790697  0.209799  0.560211  1
  Y  Y4  1  0.790699  0.580909  0.560205  1
  Y  Y5  1  0.419108  0.209567  0.560062  1
  Y  Y6  1  0.790423  0.209709  0.939710  1
  Y  Y7  1  0.790439  0.580730  0.939710  1
  Y  Y8  1  0.419364  0.209687  0.939676  1
  Y  Y9  1  0.209651  0.790261  0.060575  1
  Y  Y10  1  0.209636  0.419363  0.060577  1
  Y  Y11  1  0.580573  0.790282  0.060236  1
  Y  Y12  1  0.540997  0.458679  0.250185  1
  Y  Y13  1  0.541004  0.082313  0.250173  1
  Y  Y14  1  0.918106  0.459044  0.250383  1
  Y  Y15  1  0.458577  0.541101  0.749720  1
  Y  Y16  1  0.458582  0.917494  0.749731  1
  Y  Y17  1  0.082697  0.541348  0.749423  1
  Er  Er18  1  0.209996  0.789552  0.439376  1
  Er  Er19  1  0.210006  0.420434  0.439358  1
  Hg  Hg20  1  0.881598  0.118777  0.250023  1
  Hg  Hg21  1  0.881554  0.762816  0.250028  1
  Hg  Hg22  1  0.237121  0.118604  0.250027  1
  Hg  Hg23  1  0.118458  0.881234  0.749844  1
  Hg  Hg24  1  0.118500  0.237240  0.749844  1
  Hg  Hg25  1  0.762884  0.881404  0.749959  1
  Ru  Ru26  1  0.332258  0.666131  0.251510  1
  Ru  Ru27  1  0.666577  0.333281  0.749912  1
