# generated using pymatgen
data_Tb3Er6Tm(In2Ni)4
_symmetry_space_group_name_H-M   'P 1'
_cell_length_a   3.58044400
_cell_length_b   7.98328263
_cell_length_c   17.86185464
_cell_angle_alpha   89.90796838
_cell_angle_beta   90.00000000
_cell_angle_gamma   90.00000000
_symmetry_Int_Tables_number   1
_chemical_formula_structural   Tb3Er6Tm(In2Ni)4
_chemical_formula_sum   'Tb3 Er6 Tm1 In8 Ni4'
_cell_volume   510.55717135
_cell_formula_units_Z   1
loop_
 _symmetry_equiv_pos_site_id
 _symmetry_equiv_pos_as_xyz
  1  'x, y, z'
loop_
 _atom_site_type_symbol
 _atom_site_label
 _atom_site_symmetry_multiplicity
 _atom_site_fract_x
 _atom_site_fract_y
 _atom_site_fract_z
 _atom_site_occupancy
  Tb  Tb0  1  0.000000  0.500604  0.499731  1
  Tb  Tb1  1  0.000000  0.999304  0.999606  1
  Tb  Tb2  1  0.000000  0.745640  0.279557  1
  Er  Er3  1  0.000000  0.254425  0.721063  1
  Er  Er4  1  0.000000  0.753816  0.778626  1
  Er  Er5  1  0.000000  0.245533  0.221070  1
  Er  Er6  1  0.000000  0.617245  0.088426  1
  Er  Er7  1  0.000000  0.381816  0.910734  1
  Er  Er8  1  0.000000  0.883251  0.589322  1
  Tm  Tm9  1  0.000000  0.118235  0.411387  1
  In  In10  1  0.500000  0.701979  0.930585  1
  In  In11  1  0.500000  0.296229  0.068737  1
  In  In12  1  0.500000  0.800271  0.432731  1
  In  In13  1  0.500000  0.202979  0.568930  1
  In  In14  1  0.500000  0.574259  0.652688  1
  In  In15  1  0.500000  0.423620  0.347306  1
  In  In16  1  0.500000  0.927037  0.152325  1
  In  In17  1  0.500000  0.073561  0.847438  1
  Ni  Ni18  1  0.500000  0.522406  0.195277  1
  Ni  Ni19  1  0.500000  0.474312  0.803361  1
  Ni  Ni20  1  0.500000  0.976359  0.696208  1
  Ni  Ni21  1  0.500000  0.027119  0.304890  1
