# generated using pymatgen
data_Dy16ZnIn3(IrRh)2
_symmetry_space_group_name_H-M   'P 1'
_cell_length_a   9.65257001
_cell_length_b   9.63047156
_cell_length_c   9.63087188
_cell_angle_alpha   59.87671775
_cell_angle_beta   59.92544154
_cell_angle_gamma   59.92406660
_symmetry_Int_Tables_number   1
_chemical_formula_structural   Dy16ZnIn3(IrRh)2
_chemical_formula_sum   'Dy16 Zn1 In3 Ir2 Rh2'
_cell_volume   631.74366319
_cell_formula_units_Z   1
loop_
 _symmetry_equiv_pos_site_id
 _symmetry_equiv_pos_as_xyz
  1  'x, y, z'
loop_
 _atom_site_type_symbol
 _atom_site_label
 _atom_site_symmetry_multiplicity
 _atom_site_fract_x
 _atom_site_fract_y
 _atom_site_fract_z
 _atom_site_occupancy
  Dy  Dy0  1  0.689800  0.310302  0.310098  1
  Dy  Dy1  1  0.689513  0.689743  0.312234  1
  Dy  Dy2  1  0.308510  0.689743  0.312234  1
  Dy  Dy3  1  0.937108  0.938649  0.556519  1
  Dy  Dy4  1  0.150513  0.149017  0.549957  1
  Dy  Dy5  1  0.567723  0.938649  0.556519  1
  Dy  Dy6  1  0.150709  0.149369  0.150273  1
  Dy  Dy7  1  0.308046  0.311130  0.690611  1
  Dy  Dy8  1  0.939866  0.565081  0.555185  1
  Dy  Dy9  1  0.562361  0.562205  0.937332  1
  Dy  Dy10  1  0.564254  0.937212  0.934280  1
  Dy  Dy11  1  0.938102  0.562205  0.937332  1
  Dy  Dy12  1  0.149340  0.552202  0.149117  1
  Dy  Dy13  1  0.309753  0.690084  0.690410  1
  Dy  Dy14  1  0.690214  0.311130  0.690611  1
  Dy  Dy15  1  0.549646  0.149369  0.150273  1
  Zn  Zn16  1  0.915911  0.917020  0.251159  1
  In  In17  1  0.243932  0.917391  0.922303  1
  In  In18  1  0.916803  0.243644  0.922749  1
  In  In19  1  0.916374  0.917391  0.922303  1
  Ir  Ir20  1  0.358363  0.357623  0.357198  1
  Ir  Ir21  1  0.926819  0.357623  0.357198  1
  Rh  Rh22  1  0.357992  0.357546  0.926469  1
  Rh  Rh23  1  0.358348  0.925671  0.357635  1
