# generated using pymatgen
data_Ba2CaReN4
_symmetry_space_group_name_H-M   'P 1'
_cell_length_a   10.90591932
_cell_length_b   10.53964259
_cell_length_c   8.10065204
_cell_angle_alpha   70.22708278
_cell_angle_beta   65.42750115
_cell_angle_gamma   44.34541415
_symmetry_Int_Tables_number   1
_chemical_formula_structural   Ba2CaReN4
_chemical_formula_sum   'Ba8 Ca4 Re4 N16'
_cell_volume   590.67054188
_cell_formula_units_Z   4
loop_
 _symmetry_equiv_pos_site_id
 _symmetry_equiv_pos_as_xyz
  1  'x, y, z'
loop_
 _atom_site_type_symbol
 _atom_site_label
 _atom_site_symmetry_multiplicity
 _atom_site_fract_x
 _atom_site_fract_y
 _atom_site_fract_z
 _atom_site_occupancy
  Ba  Ba0  1  0.570960  0.929040  0.929040  1
  Ba  Ba1  1  0.929040  0.570960  0.570960  1
  Ba  Ba2  1  0.320960  0.679040  0.679040  1
  Ba  Ba3  1  0.111980  0.111980  0.888020  1
  Ba  Ba4  1  0.138020  0.138020  0.361980  1
  Ba  Ba5  1  0.361980  0.361980  0.138020  1
  Ba  Ba6  1  0.679040  0.320960  0.320960  1
  Ba  Ba7  1  0.888020  0.888020  0.111980  1
  Ca  Ca8  1  0.338921  0.338921  0.661079  1
  Ca  Ca9  1  0.911079  0.911079  0.588921  1
  Ca  Ca10  1  0.661079  0.661079  0.338921  1
  Ca  Ca11  1  0.588921  0.588921  0.911079  1
  Re  Re12  1  0.493538  0.006462  0.493538  1
  Re  Re13  1  0.006462  0.493538  0.006462  1
  Re  Re14  1  0.756462  0.243538  0.756462  1
  Re  Re15  1  0.243538  0.756462  0.243538  1
  N  N16  1  0.008231  0.657062  0.824906  1
  N  N17  1  0.704455  0.281203  0.995077  1
  N  N18  1  0.657062  0.008231  0.509802  1
  N  N19  1  0.509802  0.824906  0.657062  1
  N  N20  1  0.241769  0.592938  0.425094  1
  N  N21  1  0.740198  0.425094  0.592938  1
  N  N22  1  0.995077  0.019265  0.704455  1
  N  N23  1  0.545545  0.968797  0.254923  1
  N  N24  1  0.425094  0.740198  0.241769  1
  N  N25  1  0.968797  0.545545  0.230735  1
  N  N26  1  0.281203  0.704455  0.019265  1
  N  N27  1  0.824906  0.509802  0.008231  1
  N  N28  1  0.230735  0.254923  0.968797  1
  N  N29  1  0.592938  0.241769  0.740198  1
  N  N30  1  0.254923  0.230735  0.545545  1
  N  N31  1  0.019265  0.995077  0.281203  1
