# generated using pymatgen
data_Hf2Ta(ReSi)3
_symmetry_space_group_name_H-M   'P 1'
_cell_length_a   6.91290870
_cell_length_b   6.95241128
_cell_length_c   3.38191300
_cell_angle_alpha   90.00000000
_cell_angle_beta   90.00000000
_cell_angle_gamma   120.18922530
_symmetry_Int_Tables_number   1
_chemical_formula_structural   Hf2Ta(ReSi)3
_chemical_formula_sum   'Hf2 Ta1 Re3 Si3'
_cell_volume   140.49409851
_cell_formula_units_Z   1
loop_
 _symmetry_equiv_pos_site_id
 _symmetry_equiv_pos_as_xyz
  1  'x, y, z'
loop_
 _atom_site_type_symbol
 _atom_site_label
 _atom_site_symmetry_multiplicity
 _atom_site_fract_x
 _atom_site_fract_y
 _atom_site_fract_z
 _atom_site_occupancy
  Hf  Hf0  1  0.401708  0.403368  0.500000  1
  Hf  Hf1  1  0.598292  0.001660  0.500000  1
  Ta  Ta2  1  0.000000  0.597369  0.500000  1
  Re  Re3  1  0.747273  0.743281  0.000000  1
  Re  Re4  1  0.252727  0.996008  0.000000  1
  Re  Re5  1  0.000000  0.256109  0.000000  1
  Si  Si6  1  0.671236  0.337404  0.000000  1
  Si  Si7  1  0.328764  0.666169  0.000000  1
  Si  Si8  1  0.000000  0.998631  0.500000  1
