# generated using pymatgen
data_YTl2Ag(Ir2O7)2
_symmetry_space_group_name_H-M   'P 1'
_cell_length_a   7.23982886
_cell_length_b   7.23982892
_cell_length_c   7.30713296
_cell_angle_alpha   60.57279873
_cell_angle_beta   60.57279729
_cell_angle_gamma   60.20127228
_symmetry_Int_Tables_number   1
_chemical_formula_structural   YTl2Ag(Ir2O7)2
_chemical_formula_sum   'Y1 Tl2 Ag1 Ir4 O14'
_cell_volume   273.56616957
_cell_formula_units_Z   1
loop_
 _symmetry_equiv_pos_site_id
 _symmetry_equiv_pos_as_xyz
  1  'x, y, z'
loop_
 _atom_site_type_symbol
 _atom_site_label
 _atom_site_symmetry_multiplicity
 _atom_site_fract_x
 _atom_site_fract_y
 _atom_site_fract_z
 _atom_site_occupancy
  Y  Y0  1  0.125000  0.125000  0.625000  1
  Tl  Tl1  1  0.625000  0.125000  0.125000  1
  Tl  Tl2  1  0.125000  0.625000  0.125000  1
  Ag  Ag3  1  0.125000  0.125000  0.125000  1
  Ir  Ir4  1  0.125000  0.625000  0.625000  1
  Ir  Ir5  1  0.625000  0.125000  0.625000  1
  Ir  Ir6  1  0.625000  0.625000  0.125000  1
  Ir  Ir7  1  0.625000  0.625000  0.625000  1
  O  O8  1  0.703894  0.703894  0.298031  1
  O  O9  1  0.297540  0.297540  0.692091  1
  O  O10  1  0.709847  0.295075  0.701900  1
  O  O11  1  0.301624  0.691097  0.303391  1
  O  O12  1  0.295075  0.709847  0.701900  1
  O  O13  1  0.691097  0.301624  0.303391  1
  O  O14  1  0.546106  0.546106  0.951969  1
  O  O15  1  0.952460  0.952460  0.557909  1
  O  O16  1  0.540153  0.954925  0.548100  1
  O  O17  1  0.948376  0.558903  0.946609  1
  O  O18  1  0.954925  0.540153  0.548100  1
  O  O19  1  0.558903  0.948376  0.946609  1
  O  O20  1  0.241565  0.241565  0.249579  1
  O  O21  1  0.008435  0.008435  0.000421  1
