# generated using pymatgen
data_Ba6La2(TeO6)3
_symmetry_space_group_name_H-M   'P 1'
_cell_length_a   10.62487585
_cell_length_b   10.62487582
_cell_length_c   10.62487521
_cell_angle_alpha   146.60629548
_cell_angle_beta   131.72383158
_cell_angle_gamma   59.97027426
_symmetry_Int_Tables_number   1
_chemical_formula_structural   Ba6La2(TeO6)3
_chemical_formula_sum   'Ba6 La2 Te3 O18'
_cell_volume   488.23770744
_cell_formula_units_Z   1
loop_
 _symmetry_equiv_pos_site_id
 _symmetry_equiv_pos_as_xyz
  1  'x, y, z'
loop_
 _atom_site_type_symbol
 _atom_site_label
 _atom_site_symmetry_multiplicity
 _atom_site_fract_x
 _atom_site_fract_y
 _atom_site_fract_z
 _atom_site_occupancy
  Ba  Ba0  1  0.781348  0.500000  0.281348  1
  Ba  Ba1  1  0.378915  0.149722  0.229193  1
  Ba  Ba2  1  0.079471  0.850278  0.229193  1
  Ba  Ba3  1  0.218652  0.500000  0.718652  1
  Ba  Ba4  1  0.920529  0.149722  0.770807  1
  Ba  Ba5  1  0.621085  0.850278  0.770807  1
  La  La6  1  0.666921  0.666921  0.000000  1
  La  La7  1  0.333079  0.333079  0.000000  1
  Te  Te8  1  0.500000  0.000000  0.500000  1
  Te  Te9  1  0.168237  0.668237  0.500000  1
  Te  Te10  1  0.831763  0.331763  0.500000  1
  O  O11  1  0.721608  0.000000  0.721608  1
  O  O12  1  0.395061  0.667088  0.727973  1
  O  O13  1  0.060887  0.332912  0.727973  1
  O  O14  1  0.576660  0.849093  0.272432  1
  O  O15  1  0.242672  0.513941  0.271269  1
  O  O16  1  0.906541  0.182372  0.275831  1
  O  O17  1  0.423340  0.695771  0.272432  1
  O  O18  1  0.093459  0.369291  0.275831  1
  O  O19  1  0.757328  0.028597  0.271269  1
  O  O20  1  0.278392  0.000000  0.278392  1
  O  O21  1  0.939113  0.667088  0.272027  1
  O  O22  1  0.604939  0.332912  0.272027  1
  O  O23  1  0.423340  0.150907  0.727568  1
  O  O24  1  0.093459  0.817628  0.724169  1
  O  O25  1  0.757328  0.486059  0.728731  1
  O  O26  1  0.576660  0.304229  0.727568  1
  O  O27  1  0.242672  0.971403  0.728731  1
  O  O28  1  0.906541  0.630710  0.724169  1
