# generated using pymatgen
data_Mg2Pt(AuO2)3
_symmetry_space_group_name_H-M   'P 1'
_cell_length_a   5.39592600
_cell_length_b   5.39592637
_cell_length_c   18.68136600
_cell_angle_alpha   90.00000000
_cell_angle_beta   90.00000000
_cell_angle_gamma   119.99998546
_symmetry_Int_Tables_number   1
_chemical_formula_structural   Mg2Pt(AuO2)3
_chemical_formula_sum   'Mg6 Pt3 Au9 O18'
_cell_volume   471.05468180
_cell_formula_units_Z   3
loop_
 _symmetry_equiv_pos_site_id
 _symmetry_equiv_pos_as_xyz
  1  'x, y, z'
loop_
 _atom_site_type_symbol
 _atom_site_label
 _atom_site_symmetry_multiplicity
 _atom_site_fract_x
 _atom_site_fract_y
 _atom_site_fract_z
 _atom_site_occupancy
  Mg  Mg0  1  0.106929  0.893071  0.333333  1
  Mg  Mg1  1  0.106929  0.213858  0.666667  1
  Mg  Mg2  1  0.786142  0.893071  0.000000  1
  Mg  Mg3  1  0.773633  0.226367  0.333333  1
  Mg  Mg4  1  0.773633  0.547265  0.666667  1
  Mg  Mg5  1  0.452735  0.226367  0.000000  1
  Pt  Pt6  1  0.440279  0.559721  0.333333  1
  Pt  Pt7  1  0.440279  0.880559  0.666667  1
  Pt  Pt8  1  0.119441  0.559721  0.000000  1
  Au  Au9  1  0.440286  0.220143  0.500000  1
  Au  Au10  1  0.779857  0.220143  0.833333  1
  Au  Au11  1  0.779857  0.559714  0.166667  1
  Au  Au12  1  0.122953  0.561476  0.500000  1
  Au  Au13  1  0.438524  0.561476  0.833333  1
  Au  Au14  1  0.438524  0.877047  0.166667  1
  Au  Au15  1  0.758333  0.879165  0.500000  1
  Au  Au16  1  0.120835  0.879165  0.833333  1
  Au  Au17  1  0.120835  0.241667  0.166667  1
  O  O18  1  0.767159  0.559834  0.277260  1
  O  O19  1  0.440166  0.207325  0.610593  1
  O  O20  1  0.792675  0.232841  0.943927  1
  O  O21  1  0.767159  0.207325  0.722740  1
  O  O22  1  0.440166  0.232841  0.389407  1
  O  O23  1  0.792675  0.559834  0.056073  1
  O  O24  1  0.440804  0.885989  0.277108  1
  O  O25  1  0.114011  0.554813  0.610441  1
  O  O26  1  0.445187  0.559196  0.943775  1
  O  O27  1  0.440804  0.554813  0.722892  1
  O  O28  1  0.114011  0.559196  0.389559  1
  O  O29  1  0.445187  0.885989  0.056225  1
  O  O30  1  0.114098  0.233101  0.277148  1
  O  O31  1  0.766899  0.880996  0.610481  1
  O  O32  1  0.119004  0.885902  0.943814  1
  O  O33  1  0.114098  0.880996  0.722852  1
  O  O34  1  0.766899  0.885902  0.389519  1
  O  O35  1  0.119004  0.233101  0.056186  1
