# generated using pymatgen
data_Th3Ag3C
_symmetry_space_group_name_H-M   'P 1'
_cell_length_a   9.64821896
_cell_length_b   9.64821892
_cell_length_c   9.64821800
_cell_angle_alpha   60.00000314
_cell_angle_beta   60.00000330
_cell_angle_gamma   60.00000204
_symmetry_Int_Tables_number   1
_chemical_formula_structural   Th3Ag3C
_chemical_formula_sum   'Th12 Ag12 C4'
_cell_volume   635.07707768
_cell_formula_units_Z   4
loop_
 _symmetry_equiv_pos_site_id
 _symmetry_equiv_pos_as_xyz
  1  'x, y, z'
loop_
 _atom_site_type_symbol
 _atom_site_label
 _atom_site_symmetry_multiplicity
 _atom_site_fract_x
 _atom_site_fract_y
 _atom_site_fract_z
 _atom_site_occupancy
  Th  Th0  1  0.442005  0.442005  0.057995  1
  Th  Th1  1  0.057995  0.442005  0.057995  1
  Th  Th2  1  0.442005  0.057995  0.057995  1
  Th  Th3  1  0.057995  0.057995  0.442005  1
  Th  Th4  1  0.442005  0.057995  0.442005  1
  Th  Th5  1  0.057995  0.442005  0.442005  1
  Th  Th6  1  0.807995  0.807995  0.192005  1
  Th  Th7  1  0.192005  0.807995  0.192005  1
  Th  Th8  1  0.807995  0.192005  0.192005  1
  Th  Th9  1  0.192005  0.192005  0.807995  1
  Th  Th10  1  0.807995  0.192005  0.807995  1
  Th  Th11  1  0.192005  0.807995  0.807995  1
  Ag  Ag12  1  0.829981  0.829981  0.510058  1
  Ag  Ag13  1  0.829981  0.510058  0.829981  1
  Ag  Ag14  1  0.510058  0.829981  0.829981  1
  Ag  Ag15  1  0.829981  0.829981  0.829981  1
  Ag  Ag16  1  0.420019  0.420019  0.739942  1
  Ag  Ag17  1  0.420019  0.739942  0.420019  1
  Ag  Ag18  1  0.739942  0.420019  0.420019  1
  Ag  Ag19  1  0.420019  0.420019  0.420019  1
  Ag  Ag20  1  0.625000  0.625000  0.125000  1
  Ag  Ag21  1  0.625000  0.125000  0.625000  1
  Ag  Ag22  1  0.125000  0.625000  0.625000  1
  Ag  Ag23  1  0.625000  0.625000  0.625000  1
  C  C24  1  0.125000  0.125000  0.625000  1
  C  C25  1  0.125000  0.625000  0.125000  1
  C  C26  1  0.625000  0.125000  0.125000  1
  C  C27  1  0.125000  0.125000  0.125000  1
