# generated using pymatgen
data_ScNb5Al16Ir7
_symmetry_space_group_name_H-M   'P 1'
_cell_length_a   8.62271077
_cell_length_b   8.62271119
_cell_length_c   8.63675200
_cell_angle_alpha   59.94611993
_cell_angle_beta   59.94611830
_cell_angle_gamma   60.10776464
_symmetry_Int_Tables_number   1
_chemical_formula_structural   ScNb5Al16Ir7
_chemical_formula_sum   'Sc1 Nb5 Al16 Ir7'
_cell_volume   454.06791265
_cell_formula_units_Z   1
loop_
 _symmetry_equiv_pos_site_id
 _symmetry_equiv_pos_as_xyz
  1  'x, y, z'
loop_
 _atom_site_type_symbol
 _atom_site_label
 _atom_site_symmetry_multiplicity
 _atom_site_fract_x
 _atom_site_fract_y
 _atom_site_fract_z
 _atom_site_occupancy
  Sc  Sc0  1  0.187652  0.187652  0.812348  1
  Nb  Nb1  1  0.180972  0.816122  0.819028  1
  Nb  Nb2  1  0.816122  0.180972  0.183878  1
  Nb  Nb3  1  0.816122  0.180972  0.819028  1
  Nb  Nb4  1  0.825969  0.825969  0.174031  1
  Nb  Nb5  1  0.180972  0.816122  0.183878  1
  Al  Al6  1  0.838009  0.838009  0.837939  1
  Al  Al7  1  0.838009  0.838009  0.486043  1
  Al  Al8  1  0.481309  0.838125  0.840283  1
  Al  Al9  1  0.838125  0.481309  0.840283  1
  Al  Al10  1  0.159717  0.159717  0.161875  1
  Al  Al11  1  0.159717  0.159717  0.518691  1
  Al  Al12  1  0.162061  0.513957  0.161991  1
  Al  Al13  1  0.513957  0.162061  0.161991  1
  Al  Al14  1  0.619543  0.619543  0.620041  1
  Al  Al15  1  0.619543  0.619543  0.140872  1
  Al  Al16  1  0.139775  0.622152  0.619036  1
  Al  Al17  1  0.622152  0.139775  0.619036  1
  Al  Al18  1  0.380964  0.380964  0.377848  1
  Al  Al19  1  0.380964  0.380964  0.860225  1
  Al  Al20  1  0.379959  0.859128  0.380457  1
  Al  Al21  1  0.859128  0.379959  0.380457  1
  Ir  Ir22  1  0.499714  0.499714  0.500286  1
  Ir  Ir23  1  0.998927  0.501739  0.498261  1
  Ir  Ir24  1  0.501739  0.998927  0.001073  1
  Ir  Ir25  1  0.501739  0.998927  0.498261  1
  Ir  Ir26  1  0.499106  0.499106  0.000894  1
  Ir  Ir27  1  0.998927  0.501739  0.001073  1
  Ir  Ir28  1  0.999106  0.999106  0.500894  1
