# generated using pymatgen
data_HoTh7(Si3Tc)4
_symmetry_space_group_name_H-M   'P 1'
_cell_length_a   8.35997400
_cell_length_b   8.35997449
_cell_length_c   8.12108500
_cell_angle_alpha   90.00000000
_cell_angle_beta   90.00000000
_cell_angle_gamma   119.99999015
_symmetry_Int_Tables_number   1
_chemical_formula_structural   HoTh7(Si3Tc)4
_chemical_formula_sum   'Ho1 Th7 Si12 Tc4'
_cell_volume   491.53518372
_cell_formula_units_Z   1
loop_
 _symmetry_equiv_pos_site_id
 _symmetry_equiv_pos_as_xyz
  1  'x, y, z'
loop_
 _atom_site_type_symbol
 _atom_site_label
 _atom_site_symmetry_multiplicity
 _atom_site_fract_x
 _atom_site_fract_y
 _atom_site_fract_z
 _atom_site_occupancy
  Ho  Ho0  1  0.000000  0.000000  0.750000  1
  Th  Th1  1  0.500137  0.000272  0.250000  1
  Th  Th2  1  0.499873  0.999746  0.750000  1
  Th  Th3  1  0.999728  0.499863  0.250000  1
  Th  Th4  1  0.000254  0.500127  0.750000  1
  Th  Th5  1  0.500137  0.499863  0.250000  1
  Th  Th6  1  0.499873  0.500127  0.750000  1
  Th  Th7  1  0.000000  0.000000  0.250000  1
  Si  Si8  1  0.164508  0.329013  0.997314  1
  Si  Si9  1  0.835516  0.671033  0.996569  1
  Si  Si10  1  0.670987  0.835492  0.997314  1
  Si  Si11  1  0.835516  0.671033  0.503431  1
  Si  Si12  1  0.328967  0.164484  0.996569  1
  Si  Si13  1  0.164508  0.329013  0.502686  1
  Si  Si14  1  0.164508  0.835492  0.997314  1
  Si  Si15  1  0.328967  0.164484  0.503431  1
  Si  Si16  1  0.835516  0.164484  0.996569  1
  Si  Si17  1  0.670987  0.835492  0.502686  1
  Si  Si18  1  0.835516  0.164484  0.503431  1
  Si  Si19  1  0.164508  0.835492  0.502686  1
  Tc  Tc20  1  0.333333  0.666667  0.002489  1
  Tc  Tc21  1  0.666667  0.333333  0.002257  1
  Tc  Tc22  1  0.666667  0.333333  0.497743  1
  Tc  Tc23  1  0.333333  0.666667  0.497511  1
