# generated using pymatgen
data_Sr4Li3CdAu4
_symmetry_space_group_name_H-M   'P 1'
_cell_length_a   4.58285000
_cell_length_b   7.74275955
_cell_length_c   8.85867709
_cell_angle_alpha   90.62337345
_cell_angle_beta   90.00000000
_cell_angle_gamma   90.00000000
_symmetry_Int_Tables_number   1
_chemical_formula_structural   Sr4Li3CdAu4
_chemical_formula_sum   'Sr4 Li3 Cd1 Au4'
_cell_volume   314.32185738
_cell_formula_units_Z   1
loop_
 _symmetry_equiv_pos_site_id
 _symmetry_equiv_pos_as_xyz
  1  'x, y, z'
loop_
 _atom_site_type_symbol
 _atom_site_label
 _atom_site_symmetry_multiplicity
 _atom_site_fract_x
 _atom_site_fract_y
 _atom_site_fract_z
 _atom_site_occupancy
  Sr  Sr0  1  0.250000  0.033566  0.315277  1
  Sr  Sr1  1  0.250000  0.530857  0.184030  1
  Sr  Sr2  1  0.750000  0.972432  0.685567  1
  Sr  Sr3  1  0.750000  0.472480  0.816315  1
  Li  Li4  1  0.250000  0.136781  0.935924  1
  Li  Li5  1  0.250000  0.633263  0.559441  1
  Li  Li6  1  0.750000  0.865955  0.060081  1
  Cd  Cd7  1  0.750000  0.357594  0.438239  1
  Au  Au8  1  0.250000  0.268276  0.627727  1
  Au  Au9  1  0.250000  0.772964  0.884987  1
  Au  Au10  1  0.750000  0.733339  0.383656  1
  Au  Au11  1  0.750000  0.222493  0.108756  1
