# generated using pymatgen
data_La3Hf4NpF28
_symmetry_space_group_name_H-M   'P 1'
_cell_length_a   5.89764094
_cell_length_b   9.37693326
_cell_length_c   12.58014000
_cell_angle_alpha   61.98646653
_cell_angle_beta   90.07412573
_cell_angle_gamma   90.01547632
_symmetry_Int_Tables_number   1
_chemical_formula_structural   La3Hf4NpF28
_chemical_formula_sum   'La3 Hf4 Np1 F28'
_cell_volume   614.19262838
_cell_formula_units_Z   1
loop_
 _symmetry_equiv_pos_site_id
 _symmetry_equiv_pos_as_xyz
  1  'x, y, z'
loop_
 _atom_site_type_symbol
 _atom_site_label
 _atom_site_symmetry_multiplicity
 _atom_site_fract_x
 _atom_site_fract_y
 _atom_site_fract_z
 _atom_site_occupancy
  La  La0  1  0.742898  0.810689  0.266433  1
  La  La1  1  0.242858  0.188401  0.233480  1
  La  La2  1  0.256124  0.189619  0.733175  1
  Hf  Hf3  1  0.744765  0.272333  0.456113  1
  Hf  Hf4  1  0.245402  0.725773  0.043413  1
  Hf  Hf5  1  0.255790  0.726610  0.545848  1
  Hf  Hf6  1  0.755127  0.275976  0.954852  1
  Np  Np7  1  0.757023  0.811297  0.767080  1
  F  F8  1  0.458303  0.710677  0.924882  1
  F  F9  1  0.953773  0.289046  0.575339  1
  F  F10  1  0.545714  0.289644  0.074971  1
  F  F11  1  0.043738  0.711715  0.426752  1
  F  F12  1  0.465075  0.284131  0.543698  1
  F  F13  1  0.967317  0.714101  0.953750  1
  F  F14  1  0.533874  0.715757  0.456416  1
  F  F15  1  0.035197  0.286305  0.043011  1
  F  F16  1  0.762952  0.517408  0.859594  1
  F  F17  1  0.266230  0.484899  0.639904  1
  F  F18  1  0.233121  0.484441  0.138394  1
  F  F19  1  0.733853  0.514250  0.361346  1
  F  F20  1  0.760870  0.034894  0.052980  1
  F  F21  1  0.261281  0.967571  0.447264  1
  F  F22  1  0.238891  0.966790  0.946637  1
  F  F23  1  0.739304  0.031328  0.554655  1
  F  F24  1  0.993138  0.732621  0.644575  1
  F  F25  1  0.490520  0.268498  0.857358  1
  F  F26  1  0.011013  0.267623  0.358751  1
  F  F27  1  0.509866  0.730681  0.141637  1
  F  F28  1  0.042456  0.742469  0.165978  1
  F  F29  1  0.545228  0.255664  0.332092  1
  F  F30  1  0.955418  0.258513  0.831574  1
  F  F31  1  0.459511  0.742887  0.668544  1
  F  F32  1  0.414910  0.967117  0.232489  1
  F  F33  1  0.915370  0.031699  0.267234  1
  F  F34  1  0.582567  0.029947  0.766632  1
  F  F35  1  0.080524  0.968627  0.733157  1
