# generated using pymatgen
data_Tm3Pa(Pd2Pb)2
_symmetry_space_group_name_H-M   'P 1'
_cell_length_a   7.90853758
_cell_length_b   7.90853758
_cell_length_c   3.56820900
_cell_angle_alpha   90.00000000
_cell_angle_beta   90.00000000
_cell_angle_gamma   91.20545566
_symmetry_Int_Tables_number   1
_chemical_formula_structural   Tm3Pa(Pd2Pb)2
_chemical_formula_sum   'Tm3 Pa1 Pd4 Pb2'
_cell_volume   223.12412135
_cell_formula_units_Z   1
loop_
 _symmetry_equiv_pos_site_id
 _symmetry_equiv_pos_as_xyz
  1  'x, y, z'
loop_
 _atom_site_type_symbol
 _atom_site_label
 _atom_site_symmetry_multiplicity
 _atom_site_fract_x
 _atom_site_fract_y
 _atom_site_fract_z
 _atom_site_occupancy
  Tm  Tm0  1  0.671842  0.171842  0.500000  1
  Tm  Tm1  1  0.168038  0.330381  0.500000  1
  Tm  Tm2  1  0.830381  0.668038  0.500000  1
  Pa  Pa3  1  0.331181  0.831181  0.500000  1
  Pd  Pd4  1  0.877564  0.377564  0.000000  1
  Pd  Pd5  1  0.619181  0.870807  0.000000  1
  Pd  Pd6  1  0.370807  0.119181  0.000000  1
  Pd  Pd7  1  0.133045  0.633045  0.000000  1
  Pb  Pb8  1  0.504534  0.493425  0.000000  1
  Pb  Pb9  1  0.993425  0.004534  0.000000  1
