# generated using pymatgen
data_GdPa(VB4)2
_symmetry_space_group_name_H-M   'P 1'
_cell_length_a   5.98736800
_cell_length_b   11.60308500
_cell_length_c   3.54599400
_cell_angle_alpha   90.00000000
_cell_angle_beta   90.00000000
_cell_angle_gamma   90.00000000
_symmetry_Int_Tables_number   1
_chemical_formula_structural   GdPa(VB4)2
_chemical_formula_sum   'Gd2 Pa2 V4 B16'
_cell_volume   246.34708181
_cell_formula_units_Z   2
loop_
 _symmetry_equiv_pos_site_id
 _symmetry_equiv_pos_as_xyz
  1  'x, y, z'
loop_
 _atom_site_type_symbol
 _atom_site_label
 _atom_site_symmetry_multiplicity
 _atom_site_fract_x
 _atom_site_fract_y
 _atom_site_fract_z
 _atom_site_occupancy
  Gd  Gd0  1  0.375335  0.651962  0.000000  1
  Gd  Gd1  1  0.875335  0.848038  0.000000  1
  Pa  Pa2  1  0.124467  0.150152  0.000000  1
  Pa  Pa3  1  0.624468  0.349848  0.000000  1
  V  V4  1  0.626146  0.083919  0.000000  1
  V  V5  1  0.126145  0.416081  0.000000  1
  V  V6  1  0.872682  0.579900  0.000000  1
  V  V7  1  0.372683  0.920100  0.000000  1
  B  B8  1  0.864067  0.033754  0.500000  1
  B  B9  1  0.387514  0.046375  0.500000  1
  B  B10  1  0.784238  0.184979  0.500000  1
  B  B11  1  0.474009  0.191531  0.500000  1
  B  B12  1  0.974008  0.308469  0.500000  1
  B  B13  1  0.284239  0.315021  0.500000  1
  B  B14  1  0.887515  0.453625  0.500000  1
  B  B15  1  0.364068  0.466246  0.500000  1
  B  B16  1  0.637215  0.532468  0.500000  1
  B  B17  1  0.113835  0.546910  0.500000  1
  B  B18  1  0.716885  0.685394  0.500000  1
  B  B19  1  0.023607  0.691964  0.500000  1
  B  B20  1  0.523607  0.808036  0.500000  1
  B  B21  1  0.216885  0.814606  0.500000  1
  B  B22  1  0.613834  0.953090  0.500000  1
  B  B23  1  0.137215  0.967532  0.500000  1
