# generated using pymatgen
data_Ca12Ti11In8GeO48
_symmetry_space_group_name_H-M   'P 1'
_cell_length_a   11.17100039
_cell_length_b   11.17100798
_cell_length_c   11.17099900
_cell_angle_alpha   109.46980060
_cell_angle_beta   109.46984359
_cell_angle_gamma   109.47431815
_symmetry_Int_Tables_number   1
_chemical_formula_structural   Ca12Ti11In8GeO48
_chemical_formula_sum   'Ca12 Ti11 In8 Ge1 O48'
_cell_volume   1073.13149404
_cell_formula_units_Z   1
loop_
 _symmetry_equiv_pos_site_id
 _symmetry_equiv_pos_as_xyz
  1  'x, y, z'
loop_
 _atom_site_type_symbol
 _atom_site_label
 _atom_site_symmetry_multiplicity
 _atom_site_fract_x
 _atom_site_fract_y
 _atom_site_fract_z
 _atom_site_occupancy
  Ca  Ca0  1  0.249882  0.374958  0.124930  1
  Ca  Ca1  1  0.750396  0.625713  0.875333  1
  Ca  Ca2  1  0.750030  0.124944  0.375071  1
  Ca  Ca3  1  0.124932  0.249602  0.375309  1
  Ca  Ca4  1  0.374294  0.749623  0.124687  1
  Ca  Ca5  1  0.250382  0.875071  0.624666  1
  Ca  Ca6  1  0.875050  0.750114  0.625080  1
  Ca  Ca7  1  0.625033  0.249971  0.874921  1
  Ca  Ca8  1  0.374521  0.124520  0.250002  1
  Ca  Ca9  1  0.625174  0.875173  0.750009  1
  Ca  Ca10  1  0.124823  0.374826  0.749994  1
  Ca  Ca11  1  0.875483  0.625480  0.249994  1
  Ti  Ti12  1  0.249939  0.625060  0.374951  1
  Ti  Ti13  1  0.749922  0.374856  0.625264  1
  Ti  Ti14  1  0.750106  0.874985  0.125048  1
  Ti  Ti15  1  0.374940  0.249886  0.624875  1
  Ti  Ti16  1  0.625147  0.750405  0.375073  1
  Ti  Ti17  1  0.249594  0.124661  0.874738  1
  Ti  Ti18  1  0.125014  0.750065  0.875125  1
  Ti  Ti19  1  0.875340  0.250078  0.124936  1
  Ti  Ti20  1  0.625000  0.375000  0.250002  1
  Ti  Ti21  1  0.375000  0.625001  0.749999  1
  Ti  Ti22  1  0.874998  0.125000  0.750000  1
  In  In23  1  0.000161  0.998821  0.000733  1
  In  In24  1  0.498086  0.999426  0.499268  1
  In  In25  1  0.999988  0.500012  0.499978  1
  In  In26  1  0.499989  0.000008  0.000025  1
  In  In27  1  0.500031  0.500008  0.000018  1
  In  In28  1  0.499985  0.499966  0.499975  1
  In  In29  1  0.000570  0.999839  0.498657  1
  In  In30  1  0.001180  0.501912  0.001339  1
  Ge  Ge31  1  0.125012  0.875013  0.250002  1
  O  O32  1  0.477580  0.376559  0.288214  1
  O  O33  1  0.522424  0.623453  0.711775  1
  O  O34  1  0.588345  0.189366  0.211784  1
  O  O35  1  0.911749  0.123169  0.600925  1
  O  O36  1  0.288124  0.477716  0.376579  1
  O  O37  1  0.306131  0.910506  0.287374  1
  O  O38  1  0.411677  0.810650  0.788224  1
  O  O39  1  0.089495  0.876871  0.395625  1
  O  O40  1  0.711783  0.522122  0.623363  1
  O  O41  1  0.689174  0.088249  0.711419  1
  O  O42  1  0.022244  0.310823  0.899075  1
  O  O43  1  0.212236  0.588104  0.189372  1
  O  O44  1  0.123133  0.018759  0.212626  1
  O  O45  1  0.981245  0.693871  0.104375  1
  O  O46  1  0.789244  0.413207  0.811901  1
  O  O47  1  0.876833  0.977759  0.788581  1
  O  O48  1  0.601137  0.911543  0.123418  1
  O  O49  1  0.189350  0.477574  0.601026  1
  O  O50  1  0.398757  0.088422  0.876636  1
  O  O51  1  0.810636  0.522422  0.398982  1
  O  O52  1  0.898734  0.022865  0.310627  1
  O  O53  1  0.376547  0.588324  0.898972  1
  O  O54  1  0.101304  0.977346  0.688101  1
  O  O55  1  0.623443  0.411658  0.101021  1
  O  O56  1  0.376590  0.288321  0.477572  1
  O  O57  1  0.586797  0.898696  0.376042  1
  O  O58  1  0.623425  0.711729  0.522107  1
  O  O59  1  0.411896  0.101267  0.624132  1
  O  O60  1  0.123553  0.600958  0.911376  1
  O  O61  1  0.022655  0.210754  0.123960  1
  O  O62  1  0.876817  0.399297  0.088319  1
  O  O63  1  0.977137  0.787763  0.875867  1
  O  O64  1  0.310750  0.899019  0.022427  1
  O  O65  1  0.911581  0.288214  0.310341  1
  O  O66  1  0.689626  0.101318  0.977895  1
  O  O67  1  0.088457  0.711875  0.689594  1
  O  O68  1  0.189582  0.212176  0.588624  1
  O  O69  1  0.477876  0.601242  0.189661  1
  O  O70  1  0.810978  0.788498  0.411679  1
  O  O71  1  0.522279  0.398861  0.810405  1
  O  O72  1  0.288269  0.310379  0.911695  1
  O  O73  1  0.711675  0.689250  0.088268  1
  O  O74  1  0.211498  0.123182  0.022478  1
  O  O75  1  0.787824  0.876447  0.977406  1
  O  O76  1  0.898678  0.376571  0.588300  1
  O  O77  1  0.100986  0.623410  0.411735  1
  O  O78  1  0.600703  0.189021  0.477520  1
  O  O79  1  0.399041  0.810418  0.522593  1
