# generated using pymatgen
data_CrGaNiO4
_symmetry_space_group_name_H-M   'P 1'
_cell_length_a   5.92936069
_cell_length_b   5.92957146
_cell_length_c   5.93218415
_cell_angle_alpha   120.69791257
_cell_angle_beta   119.36790529
_cell_angle_gamma   89.97856807
_symmetry_Int_Tables_number   1
_chemical_formula_structural   CrGaNiO4
_chemical_formula_sum   'Cr2 Ga2 Ni2 O8'
_cell_volume   147.34015379
_cell_formula_units_Z   2
loop_
 _symmetry_equiv_pos_site_id
 _symmetry_equiv_pos_as_xyz
  1  'x, y, z'
loop_
 _atom_site_type_symbol
 _atom_site_label
 _atom_site_symmetry_multiplicity
 _atom_site_fract_x
 _atom_site_fract_y
 _atom_site_fract_z
 _atom_site_occupancy
  Cr  Cr0  1  0.500000  0.500000  0.000000  1
  Cr  Cr1  1  0.000000  0.500000  0.500000  1
  Ga  Ga2  1  0.382736  0.132778  0.249968  1
  Ga  Ga3  1  0.617264  0.867222  0.750032  1
  Ni  Ni4  1  0.000000  0.500000  0.000000  1
  Ni  Ni5  1  0.000000  0.000000  0.500000  1
  O  O6  1  0.750650  0.735666  0.485699  1
  O  O7  1  0.750087  0.264754  0.014599  1
  O  O8  1  0.232375  0.740800  0.492047  1
  O  O9  1  0.748755  0.740701  0.008352  1
  O  O10  1  0.249350  0.264334  0.514301  1
  O  O11  1  0.249913  0.735246  0.985401  1
  O  O12  1  0.767625  0.259200  0.507953  1
  O  O13  1  0.251245  0.259299  0.991648  1
