# generated using pymatgen
data_Gd2B2IrRhN2
_symmetry_space_group_name_H-M   'P 1'
_cell_length_a   3.77728700
_cell_length_b   3.77728700
_cell_length_c   7.43788200
_cell_angle_alpha   90.00000000
_cell_angle_beta   90.00000000
_cell_angle_gamma   90.00000000
_symmetry_Int_Tables_number   1
_chemical_formula_structural   Gd2B2IrRhN2
_chemical_formula_sum   'Gd2 B2 Ir1 Rh1 N2'
_cell_volume   106.12293487
_cell_formula_units_Z   1
loop_
 _symmetry_equiv_pos_site_id
 _symmetry_equiv_pos_as_xyz
  1  'x, y, z'
loop_
 _atom_site_type_symbol
 _atom_site_label
 _atom_site_symmetry_multiplicity
 _atom_site_fract_x
 _atom_site_fract_y
 _atom_site_fract_z
 _atom_site_occupancy
  Gd  Gd0  1  0.500000  0.000000  0.164631  1
  Gd  Gd1  1  0.000000  0.500000  0.835369  1
  B  B2  1  0.000000  0.500000  0.347089  1
  B  B3  1  0.500000  0.000000  0.652910  1
  Ir  Ir4  1  0.000000  0.000000  0.500000  1
  Rh  Rh5  1  0.500000  0.500000  0.500000  1
  N  N6  1  0.000000  0.500000  0.146575  1
  N  N7  1  0.500000  0.000000  0.853425  1
