# generated using pymatgen
data_HoEr7ZnIn3
_symmetry_space_group_name_H-M   'P 1'
_cell_length_a   10.57227914
_cell_length_b   10.57171275
_cell_length_c   6.72482702
_cell_angle_alpha   89.99484718
_cell_angle_beta   90.00573917
_cell_angle_gamma   119.99352544
_symmetry_Int_Tables_number   1
_chemical_formula_structural   HoEr7ZnIn3
_chemical_formula_sum   'Ho2 Er14 Zn2 In6'
_cell_volume   650.95962408
_cell_formula_units_Z   2
loop_
 _symmetry_equiv_pos_site_id
 _symmetry_equiv_pos_as_xyz
  1  'x, y, z'
loop_
 _atom_site_type_symbol
 _atom_site_label
 _atom_site_symmetry_multiplicity
 _atom_site_fract_x
 _atom_site_fract_y
 _atom_site_fract_z
 _atom_site_occupancy
  Ho  Ho0  1  0.521220  0.042007  0.796161  1
  Ho  Ho1  1  0.957975  0.478758  0.796159  1
  Er  Er2  1  0.521157  0.478863  0.796516  1
  Er  Er3  1  0.478961  0.958097  0.296270  1
  Er  Er4  1  0.041894  0.521019  0.296275  1
  Er  Er5  1  0.479088  0.520931  0.296499  1
  Er  Er6  1  0.827099  0.654430  0.512148  1
  Er  Er7  1  0.345550  0.172879  0.512168  1
  Er  Er8  1  0.827235  0.172865  0.511686  1
  Er  Er9  1  0.173266  0.346016  0.012676  1
  Er  Er10  1  0.653981  0.826708  0.012652  1
  Er  Er11  1  0.172874  0.827153  0.012629  1
  Er  Er12  1  0.666588  0.333424  0.148257  1
  Er  Er13  1  0.333543  0.666469  0.647239  1
  Er  Er14  1  0.000002  0.000010  0.777875  1
  Er  Er15  1  0.000001  0.000014  0.277460  1
  Zn  Zn16  1  0.666444  0.333499  0.580197  1
  Zn  Zn17  1  0.333151  0.666869  0.080465  1
  In  In18  1  0.835726  0.671568  0.028660  1
  In  In19  1  0.328466  0.164305  0.028693  1
  In  In20  1  0.835993  0.163963  0.028876  1
  In  In21  1  0.164244  0.328804  0.528710  1
  In  In22  1  0.671220  0.835729  0.528829  1
  In  In23  1  0.164323  0.835617  0.528805  1
