# generated using pymatgen
data_Li2CeNd3(AgAs4)2
_symmetry_space_group_name_H-M   'P 1'
_cell_length_a   4.02035633
_cell_length_b   4.01965813
_cell_length_c   21.09288545
_cell_angle_alpha   90.10666913
_cell_angle_beta   90.08898817
_cell_angle_gamma   90.03818507
_symmetry_Int_Tables_number   1
_chemical_formula_structural   Li2CeNd3(AgAs4)2
_chemical_formula_sum   'Li2 Ce1 Nd3 Ag2 As8'
_cell_volume   340.86961116
_cell_formula_units_Z   1
loop_
 _symmetry_equiv_pos_site_id
 _symmetry_equiv_pos_as_xyz
  1  'x, y, z'
loop_
 _atom_site_type_symbol
 _atom_site_label
 _atom_site_symmetry_multiplicity
 _atom_site_fract_x
 _atom_site_fract_y
 _atom_site_fract_z
 _atom_site_occupancy
  Li  Li0  1  0.244966  0.745195  0.750880  1
  Li  Li1  1  0.254835  0.754944  0.248696  1
  Ce  Ce2  1  0.247102  0.246693  0.887000  1
  Nd  Nd3  1  0.254642  0.255243  0.384412  1
  Nd  Nd4  1  0.745107  0.745438  0.615457  1
  Nd  Nd5  1  0.753276  0.752865  0.112214  1
  Ag  Ag6  1  0.754980  0.254941  0.248599  1
  Ag  Ag7  1  0.745004  0.244943  0.752777  1
  As  As8  1  0.746743  0.746228  0.839412  1
  As  As9  1  0.254240  0.253915  0.163535  1
  As  As10  1  0.245061  0.245592  0.668309  1
  As  As11  1  0.754478  0.754987  0.334014  1
  As  As12  1  0.251705  0.747598  0.996888  1
  As  As13  1  0.240170  0.760530  0.500490  1
  As  As14  1  0.747859  0.251201  0.996730  1
  As  As15  1  0.759834  0.239687  0.500586  1
