# generated using pymatgen
data_TbPr4SmRh18
_symmetry_space_group_name_H-M   'P 1'
_cell_length_a   5.34800900
_cell_length_b   5.34800955
_cell_length_c   17.64406000
_cell_angle_alpha   90.00000000
_cell_angle_beta   90.00000000
_cell_angle_gamma   120.00000278
_symmetry_Int_Tables_number   1
_chemical_formula_structural   TbPr4SmRh18
_chemical_formula_sum   'Tb1 Pr4 Sm1 Rh18'
_cell_volume   437.03221268
_cell_formula_units_Z   1
loop_
 _symmetry_equiv_pos_site_id
 _symmetry_equiv_pos_as_xyz
  1  'x, y, z'
loop_
 _atom_site_type_symbol
 _atom_site_label
 _atom_site_symmetry_multiplicity
 _atom_site_fract_x
 _atom_site_fract_y
 _atom_site_fract_z
 _atom_site_occupancy
  Tb  Tb0  1  0.333333  0.666667  0.957849  1
  Pr  Pr1  1  0.666667  0.333333  0.041351  1
  Pr  Pr2  1  0.666667  0.333333  0.458012  1
  Pr  Pr3  1  0.333333  0.666667  0.750585  1
  Pr  Pr4  1  0.666667  0.333333  0.249563  1
  Sm  Sm5  1  0.333333  0.666667  0.542142  1
  Rh  Rh6  1  0.166887  0.833113  0.372383  1
  Rh  Rh7  1  0.166887  0.333774  0.372383  1
  Rh  Rh8  1  0.666226  0.833113  0.372383  1
  Rh  Rh9  1  0.833180  0.166820  0.626447  1
  Rh  Rh10  1  0.833180  0.666359  0.626447  1
  Rh  Rh11  1  0.333641  0.166820  0.626447  1
  Rh  Rh12  1  0.832925  0.167075  0.875345  1
  Rh  Rh13  1  0.832925  0.665848  0.875345  1
  Rh  Rh14  1  0.334152  0.167075  0.875345  1
  Rh  Rh15  1  0.167267  0.832733  0.126012  1
  Rh  Rh16  1  0.167267  0.334533  0.126012  1
  Rh  Rh17  1  0.665467  0.832733  0.126012  1
  Rh  Rh18  1  0.333333  0.666667  0.249328  1
  Rh  Rh19  1  0.666667  0.333333  0.750770  1
  Rh  Rh20  1  0.000000  0.000000  0.249091  1
  Rh  Rh21  1  0.000000  0.000000  0.750855  1
  Rh  Rh22  1  0.000000  0.000000  0.499571  1
  Rh  Rh23  1  0.000000  0.000000  0.000323  1
