# generated using pymatgen
data_Pr3Pu4ThN12
_symmetry_space_group_name_H-M   'P 1'
_cell_length_a   5.84476595
_cell_length_b   6.05435170
_cell_length_c   8.37128700
_cell_angle_alpha   90.00000000
_cell_angle_beta   90.00000000
_cell_angle_gamma   90.23794397
_symmetry_Int_Tables_number   1
_chemical_formula_structural   Pr3Pu4ThN12
_chemical_formula_sum   'Pr3 Pu4 Th1 N12'
_cell_volume   296.22605613
_cell_formula_units_Z   1
loop_
 _symmetry_equiv_pos_site_id
 _symmetry_equiv_pos_as_xyz
  1  'x, y, z'
loop_
 _atom_site_type_symbol
 _atom_site_label
 _atom_site_symmetry_multiplicity
 _atom_site_fract_x
 _atom_site_fract_y
 _atom_site_fract_z
 _atom_site_occupancy
  Pr  Pr0  1  0.510492  0.553369  0.250000  1
  Pr  Pr1  1  0.990648  0.051911  0.250000  1
  Pr  Pr2  1  0.491337  0.447480  0.750000  1
  Pu  Pu3  1  0.999685  0.499183  0.000912  1
  Pu  Pu4  1  0.500052  0.000882  0.499239  1
  Pu  Pu5  1  0.999685  0.499183  0.499088  1
  Pu  Pu6  1  0.500052  0.000882  0.000761  1
  Th  Th7  1  0.007279  0.942626  0.750000  1
  N  N8  1  0.400583  0.964574  0.250000  1
  N  N9  1  0.103010  0.461306  0.250000  1
  N  N10  1  0.615899  0.032738  0.750000  1
  N  N11  1  0.899181  0.544069  0.750000  1
  N  N12  1  0.778006  0.812254  0.046525  1
  N  N13  1  0.723044  0.311296  0.450106  1
  N  N14  1  0.218783  0.183182  0.557115  1
  N  N15  1  0.271216  0.694166  0.945307  1
  N  N16  1  0.218783  0.183182  0.942885  1
  N  N17  1  0.271216  0.694166  0.554693  1
  N  N18  1  0.778006  0.812254  0.453475  1
  N  N19  1  0.723044  0.311296  0.049894  1
