# generated using pymatgen
data_Be3V12Ga5N4
_symmetry_space_group_name_H-M   'P 1'
_cell_length_a   6.49050264
_cell_length_b   6.49050264
_cell_length_c   6.49050264
_cell_angle_alpha   90.12422562
_cell_angle_beta   90.12422562
_cell_angle_gamma   90.12422562
_symmetry_Int_Tables_number   1
_chemical_formula_structural   Be3V12Ga5N4
_chemical_formula_sum   'Be3 V12 Ga5 N4'
_cell_volume   273.42103638
_cell_formula_units_Z   1
loop_
 _symmetry_equiv_pos_site_id
 _symmetry_equiv_pos_as_xyz
  1  'x, y, z'
loop_
 _atom_site_type_symbol
 _atom_site_label
 _atom_site_symmetry_multiplicity
 _atom_site_fract_x
 _atom_site_fract_y
 _atom_site_fract_z
 _atom_site_occupancy
  Be  Be0  1  0.176901  0.823984  0.320547  1
  Be  Be1  1  0.320547  0.176901  0.823984  1
  Be  Be2  1  0.823984  0.320547  0.176901  1
  V  V3  1  0.794603  0.961409  0.371478  1
  V  V4  1  0.706335  0.042564  0.876132  1
  V  V5  1  0.206616  0.460359  0.125450  1
  V  V6  1  0.291899  0.539572  0.626615  1
  V  V7  1  0.961409  0.371478  0.794603  1
  V  V8  1  0.042564  0.876132  0.706335  1
  V  V9  1  0.460359  0.125450  0.206616  1
  V  V10  1  0.539572  0.626615  0.291899  1
  V  V11  1  0.371478  0.794603  0.961409  1
  V  V12  1  0.876132  0.706335  0.042564  1
  V  V13  1  0.125450  0.206616  0.460359  1
  V  V14  1  0.626615  0.291899  0.539572  1
  Ga  Ga15  1  0.679498  0.679498  0.679498  1
  Ga  Ga16  1  0.569770  0.414764  0.936581  1
  Ga  Ga17  1  0.414764  0.936581  0.569770  1
  Ga  Ga18  1  0.936581  0.569770  0.414764  1
  Ga  Ga19  1  0.074754  0.074754  0.074754  1
  N  N20  1  0.875334  0.124529  0.624866  1
  N  N21  1  0.624866  0.875334  0.124529  1
  N  N22  1  0.124529  0.624866  0.875334  1
  N  N23  1  0.375440  0.375440  0.375440  1
