# generated using pymatgen
data_Pa4ReTc3B16
_symmetry_space_group_name_H-M   'P 1'
_cell_length_a   3.66779400
_cell_length_b   5.96605236
_cell_length_c   11.57284417
_cell_angle_alpha   89.98976837
_cell_angle_beta   90.00000000
_cell_angle_gamma   90.00000000
_symmetry_Int_Tables_number   1
_chemical_formula_structural   Pa4ReTc3B16
_chemical_formula_sum   'Pa4 Re1 Tc3 B16'
_cell_volume   253.23987754
_cell_formula_units_Z   1
loop_
 _symmetry_equiv_pos_site_id
 _symmetry_equiv_pos_as_xyz
  1  'x, y, z'
loop_
 _atom_site_type_symbol
 _atom_site_label
 _atom_site_symmetry_multiplicity
 _atom_site_fract_x
 _atom_site_fract_y
 _atom_site_fract_z
 _atom_site_occupancy
  Pa  Pa0  1  0.000000  0.627547  0.350520  1
  Pa  Pa1  1  0.000000  0.372624  0.649865  1
  Pa  Pa2  1  0.000000  0.127728  0.150178  1
  Pa  Pa3  1  0.000000  0.872544  0.849631  1
  Re  Re4  1  0.000000  0.638533  0.093765  1
  Tc  Tc5  1  0.000000  0.360848  0.905765  1
  Tc  Tc6  1  0.000000  0.138673  0.406029  1
  Tc  Tc7  1  0.000000  0.861358  0.593883  1
  B  B8  1  0.500000  0.788669  0.187574  1
  B  B9  1  0.500000  0.211143  0.812426  1
  B  B10  1  0.500000  0.288593  0.312896  1
  B  B11  1  0.500000  0.711267  0.687202  1
  B  B12  1  0.500000  0.864555  0.031954  1
  B  B13  1  0.500000  0.135428  0.967925  1
  B  B14  1  0.500000  0.364624  0.468023  1
  B  B15  1  0.500000  0.635305  0.532173  1
  B  B16  1  0.500000  0.887354  0.454030  1
  B  B17  1  0.500000  0.112733  0.546070  1
  B  B18  1  0.500000  0.386965  0.046121  1
  B  B19  1  0.500000  0.613023  0.953889  1
  B  B20  1  0.500000  0.973147  0.308673  1
  B  B21  1  0.500000  0.027215  0.691476  1
  B  B22  1  0.500000  0.472811  0.191498  1
  B  B23  1  0.500000  0.527317  0.808436  1
