# generated using pymatgen
data_Er9Mg(SiB4)4
_symmetry_space_group_name_H-M   'P 1'
_cell_length_a   7.14571100
_cell_length_b   7.14571100
_cell_length_c   7.92457900
_cell_angle_alpha   90.00000000
_cell_angle_beta   90.00000000
_cell_angle_gamma   90.00000000
_symmetry_Int_Tables_number   1
_chemical_formula_structural   Er9Mg(SiB4)4
_chemical_formula_sum   'Er9 Mg1 Si4 B16'
_cell_volume   404.63839988
_cell_formula_units_Z   1
loop_
 _symmetry_equiv_pos_site_id
 _symmetry_equiv_pos_as_xyz
  1  'x, y, z'
loop_
 _atom_site_type_symbol
 _atom_site_label
 _atom_site_symmetry_multiplicity
 _atom_site_fract_x
 _atom_site_fract_y
 _atom_site_fract_z
 _atom_site_occupancy
  Er  Er0  1  0.681707  0.179974  0.227790  1
  Er  Er1  1  0.318293  0.820026  0.772210  1
  Er  Er2  1  0.318293  0.820026  0.227790  1
  Er  Er3  1  0.820026  0.681707  0.227790  1
  Er  Er4  1  0.820026  0.681707  0.772210  1
  Er  Er5  1  0.681707  0.179974  0.772210  1
  Er  Er6  1  0.179974  0.318293  0.772210  1
  Er  Er7  1  0.179974  0.318293  0.227790  1
  Er  Er8  1  0.500000  0.500000  0.500000  1
  Mg  Mg9  1  0.000000  0.000000  0.500000  1
  Si  Si10  1  0.115894  0.616731  0.500000  1
  Si  Si11  1  0.884106  0.383269  0.500000  1
  Si  Si12  1  0.383269  0.115894  0.500000  1
  Si  Si13  1  0.616731  0.884106  0.500000  1
  B  B14  1  0.174611  0.038422  0.000000  1
  B  B15  1  0.825389  0.961578  0.000000  1
  B  B16  1  0.961578  0.174611  0.000000  1
  B  B17  1  0.326807  0.539564  0.000000  1
  B  B18  1  0.038422  0.825389  0.000000  1
  B  B19  1  0.673193  0.460436  0.000000  1
  B  B20  1  0.539564  0.673193  0.000000  1
  B  B21  1  0.460436  0.326807  0.000000  1
  B  B22  1  0.088963  0.588186  0.000000  1
  B  B23  1  0.911037  0.411814  0.000000  1
  B  B24  1  0.411814  0.088963  0.000000  1
  B  B25  1  0.588186  0.911037  0.000000  1
  B  B26  1  0.000000  0.000000  0.161153  1
  B  B27  1  0.000000  0.000000  0.838847  1
  B  B28  1  0.500000  0.500000  0.834988  1
  B  B29  1  0.500000  0.500000  0.165012  1
