# generated using pymatgen
data_Zr4VRe7
_symmetry_space_group_name_H-M   'P 1'
_cell_length_a   5.33240800
_cell_length_b   5.28349197
_cell_length_c   8.68489300
_cell_angle_alpha   90.00000000
_cell_angle_beta   90.00000000
_cell_angle_gamma   120.30673682
_symmetry_Int_Tables_number   1
_chemical_formula_structural   Zr4VRe7
_chemical_formula_sum   'Zr4 V1 Re7'
_cell_volume   211.24617697
_cell_formula_units_Z   1
loop_
 _symmetry_equiv_pos_site_id
 _symmetry_equiv_pos_as_xyz
  1  'x, y, z'
loop_
 _atom_site_type_symbol
 _atom_site_label
 _atom_site_symmetry_multiplicity
 _atom_site_fract_x
 _atom_site_fract_y
 _atom_site_fract_z
 _atom_site_occupancy
  Zr  Zr0  1  0.333400  0.666801  0.062947  1
  Zr  Zr1  1  0.667566  0.335133  0.561920  1
  Zr  Zr2  1  0.667566  0.335133  0.938080  1
  Zr  Zr3  1  0.333400  0.666801  0.437053  1
  V  V4  1  0.830584  0.661170  0.250000  1
  Re  Re5  1  0.998803  0.997606  0.003290  1
  Re  Re6  1  0.998803  0.997606  0.496710  1
  Re  Re7  1  0.170674  0.828673  0.750000  1
  Re  Re8  1  0.658000  0.828673  0.750000  1
  Re  Re9  1  0.343278  0.172108  0.250000  1
  Re  Re10  1  0.828830  0.172108  0.250000  1
  Re  Re11  1  0.169094  0.338187  0.750000  1
