# generated using pymatgen
data_Y4HoTm5Ir4
_symmetry_space_group_name_H-M   'P 1'
_cell_length_a   6.43661662
_cell_length_b   7.20505476
_cell_length_c   8.47706797
_cell_angle_alpha   96.82573897
_cell_angle_beta   112.35856461
_cell_angle_gamma   90.02857539
_symmetry_Int_Tables_number   1
_chemical_formula_structural   Y4HoTm5Ir4
_chemical_formula_sum   'Y4 Ho1 Tm5 Ir4'
_cell_volume   360.55421834
_cell_formula_units_Z   1
loop_
 _symmetry_equiv_pos_site_id
 _symmetry_equiv_pos_as_xyz
  1  'x, y, z'
loop_
 _atom_site_type_symbol
 _atom_site_label
 _atom_site_symmetry_multiplicity
 _atom_site_fract_x
 _atom_site_fract_y
 _atom_site_fract_z
 _atom_site_occupancy
  Y  Y0  1  0.971738  0.920217  0.186241  1
  Y  Y1  1  0.785268  0.579908  0.813718  1
  Y  Y2  1  0.028713  0.080130  0.813864  1
  Y  Y3  1  0.214531  0.419830  0.186419  1
  Ho  Ho4  1  0.650319  0.816885  0.440693  1
  Tm  Tm5  1  0.209906  0.682545  0.559666  1
  Tm  Tm6  1  0.349726  0.183260  0.559851  1
  Tm  Tm7  1  0.790269  0.317266  0.440466  1
  Tm  Tm8  1  0.427778  0.749989  0.999653  1
  Tm  Tm9  1  0.572089  0.249822  0.999906  1
  Ir  Ir10  1  0.820336  0.572900  0.220917  1
  Ir  Ir11  1  0.598174  0.926743  0.779291  1
  Ir  Ir12  1  0.179890  0.426608  0.778472  1
  Ir  Ir13  1  0.401264  0.073897  0.220844  1
