# generated using pymatgen
data_Gd3Y(GaRu)4
_symmetry_space_group_name_H-M   'P 1'
_cell_length_a   7.14999970
_cell_length_b   4.49246300
_cell_length_c   7.12493800
_cell_angle_alpha   90.00000000
_cell_angle_beta   90.15362500
_cell_angle_gamma   90.00000000
_symmetry_Int_Tables_number   1
_chemical_formula_structural   Gd3Y(GaRu)4
_chemical_formula_sum   'Gd3 Y1 Ga4 Ru4'
_cell_volume   228.86008823
_cell_formula_units_Z   1
loop_
 _symmetry_equiv_pos_site_id
 _symmetry_equiv_pos_as_xyz
  1  'x, y, z'
loop_
 _atom_site_type_symbol
 _atom_site_label
 _atom_site_symmetry_multiplicity
 _atom_site_fract_x
 _atom_site_fract_y
 _atom_site_fract_z
 _atom_site_occupancy
  Gd  Gd0  1  0.017563  0.749999  0.195656  1
  Gd  Gd1  1  0.518098  0.749999  0.303961  1
  Gd  Gd2  1  0.482307  0.249999  0.695461  1
  Y  Y3  1  0.983681  0.249999  0.804801  1
  Ga  Ga4  1  0.301978  0.249999  0.104699  1
  Ga  Ga5  1  0.803704  0.249999  0.395367  1
  Ga  Ga6  1  0.195126  0.749999  0.606370  1
  Ga  Ga7  1  0.698461  0.749999  0.894291  1
  Ru  Ru8  1  0.659250  0.249999  0.063234  1
  Ru  Ru9  1  0.160773  0.249999  0.436233  1
  Ru  Ru10  1  0.839297  0.749999  0.563476  1
  Ru  Ru11  1  0.339758  0.749999  0.936448  1
