# generated using pymatgen
data_LaNd7Cd2CoIr
_symmetry_space_group_name_H-M   'P 1'
_cell_length_a   9.90725519
_cell_length_b   9.90725559
_cell_length_c   9.87396800
_cell_angle_alpha   60.11108316
_cell_angle_beta   60.11108184
_cell_angle_gamma   60.38758649
_symmetry_Int_Tables_number   1
_chemical_formula_structural   LaNd7Cd2CoIr
_chemical_formula_sum   'La2 Nd14 Cd4 Co2 Ir2'
_cell_volume   688.44756639
_cell_formula_units_Z   2
loop_
 _symmetry_equiv_pos_site_id
 _symmetry_equiv_pos_as_xyz
  1  'x, y, z'
loop_
 _atom_site_type_symbol
 _atom_site_label
 _atom_site_symmetry_multiplicity
 _atom_site_fract_x
 _atom_site_fract_y
 _atom_site_fract_z
 _atom_site_occupancy
  La  La0  1  0.342555  0.342555  0.354164  1
  La  La1  1  0.342555  0.342555  0.960724  1
  Nd  Nd2  1  0.341698  0.955843  0.351229  1
  Nd  Nd3  1  0.955843  0.341698  0.351229  1
  Nd  Nd4  1  0.816424  0.190909  0.188005  1
  Nd  Nd5  1  0.190909  0.816424  0.804662  1
  Nd  Nd6  1  0.190909  0.816424  0.188005  1
  Nd  Nd7  1  0.816424  0.190909  0.804662  1
  Nd  Nd8  1  0.190080  0.190080  0.809920  1
  Nd  Nd9  1  0.810085  0.810085  0.189915  1
  Nd  Nd10  1  0.937780  0.564157  0.559942  1
  Nd  Nd11  1  0.564157  0.937780  0.938121  1
  Nd  Nd12  1  0.564157  0.937780  0.559942  1
  Nd  Nd13  1  0.937780  0.564157  0.938121  1
  Nd  Nd14  1  0.561453  0.561453  0.938547  1
  Nd  Nd15  1  0.936693  0.936693  0.563307  1
  Cd  Cd16  1  0.580498  0.580498  0.578071  1
  Cd  Cd17  1  0.580498  0.580498  0.260932  1
  Cd  Cd18  1  0.581884  0.259051  0.579532  1
  Cd  Cd19  1  0.259051  0.581884  0.579532  1
  Co  Co20  1  0.140580  0.140580  0.141408  1
  Co  Co21  1  0.140580  0.140580  0.577430  1
  Ir  Ir22  1  0.142105  0.575299  0.141298  1
  Ir  Ir23  1  0.575299  0.142105  0.141298  1
