# generated using pymatgen
data_Pa4Ga6Ru7
_symmetry_space_group_name_H-M   'P 1'
_cell_length_a   7.13441398
_cell_length_b   7.13441429
_cell_length_c   7.13441400
_cell_angle_alpha   109.47121981
_cell_angle_beta   109.47122070
_cell_angle_gamma   109.47121968
_symmetry_Int_Tables_number   1
_chemical_formula_structural   Pa4Ga6Ru7
_chemical_formula_sum   'Pa4 Ga6 Ru7'
_cell_volume   279.54585448
_cell_formula_units_Z   1
loop_
 _symmetry_equiv_pos_site_id
 _symmetry_equiv_pos_as_xyz
  1  'x, y, z'
loop_
 _atom_site_type_symbol
 _atom_site_label
 _atom_site_symmetry_multiplicity
 _atom_site_fract_x
 _atom_site_fract_y
 _atom_site_fract_z
 _atom_site_occupancy
  Pa  Pa0  1  0.499998  0.499998  0.499998  1
  Pa  Pa1  1  0.000000  0.000000  0.499998  1
  Pa  Pa2  1  0.499998  0.000000  0.000000  1
  Pa  Pa3  1  0.000000  0.499998  0.000000  1
  Ga  Ga4  1  0.000000  0.307264  0.307264  1
  Ga  Ga5  1  0.000000  0.692735  0.692735  1
  Ga  Ga6  1  0.307264  0.000000  0.307264  1
  Ga  Ga7  1  0.307264  0.307264  0.000000  1
  Ga  Ga8  1  0.692735  0.000000  0.692735  1
  Ga  Ga9  1  0.692735  0.692735  0.000000  1
  Ru  Ru10  1  0.000000  0.000000  0.000000  1
  Ru  Ru11  1  0.500001  0.750000  0.249999  1
  Ru  Ru12  1  0.500001  0.249999  0.750000  1
  Ru  Ru13  1  0.249999  0.500001  0.750000  1
  Ru  Ru14  1  0.750000  0.249999  0.500001  1
  Ru  Ru15  1  0.750000  0.500001  0.249999  1
  Ru  Ru16  1  0.249999  0.750000  0.500001  1
