# generated using pymatgen
data_Sc4CoSi4Pt5
_symmetry_space_group_name_H-M   'P 1'
_cell_length_a   4.01349100
_cell_length_b   6.43657418
_cell_length_c   8.62046731
_cell_angle_alpha   89.37381262
_cell_angle_beta   90.00000000
_cell_angle_gamma   90.00000000
_symmetry_Int_Tables_number   1
_chemical_formula_structural   Sc4CoSi4Pt5
_chemical_formula_sum   'Sc4 Co1 Si4 Pt5'
_cell_volume   222.68037494
_cell_formula_units_Z   1
loop_
 _symmetry_equiv_pos_site_id
 _symmetry_equiv_pos_as_xyz
  1  'x, y, z'
loop_
 _atom_site_type_symbol
 _atom_site_label
 _atom_site_symmetry_multiplicity
 _atom_site_fract_x
 _atom_site_fract_y
 _atom_site_fract_z
 _atom_site_occupancy
  Sc  Sc0  1  0.000000  0.877007  0.336130  1
  Sc  Sc1  1  0.000000  0.122993  0.663870  1
  Sc  Sc2  1  0.000000  0.390171  0.175208  1
  Sc  Sc3  1  0.000000  0.609829  0.824792  1
  Co  Co4  1  0.000000  0.500000  0.500000  1
  Si  Si5  1  0.500000  0.569108  0.358128  1
  Si  Si6  1  0.500000  0.430892  0.641872  1
  Si  Si7  1  0.500000  0.072030  0.152940  1
  Si  Si8  1  0.500000  0.927970  0.847060  1
  Pt  Pt9  1  0.500000  0.688834  0.087349  1
  Pt  Pt10  1  0.500000  0.311166  0.912651  1
  Pt  Pt11  1  0.500000  0.193180  0.415434  1
  Pt  Pt12  1  0.500000  0.806820  0.584566  1
  Pt  Pt13  1  0.000000  0.000000  0.000000  1
