# generated using pymatgen
data_Cs4Ga3FeBr16
_symmetry_space_group_name_H-M   'P 1'
_cell_length_a   7.74964800
_cell_length_b   10.30091633
_cell_length_c   12.69676465
_cell_angle_alpha   89.94172410
_cell_angle_beta   90.00000000
_cell_angle_gamma   90.00000000
_symmetry_Int_Tables_number   1
_chemical_formula_structural   Cs4Ga3FeBr16
_chemical_formula_sum   'Cs4 Ga3 Fe1 Br16'
_cell_volume   1013.56284279
_cell_formula_units_Z   1
loop_
 _symmetry_equiv_pos_site_id
 _symmetry_equiv_pos_as_xyz
  1  'x, y, z'
loop_
 _atom_site_type_symbol
 _atom_site_label
 _atom_site_symmetry_multiplicity
 _atom_site_fract_x
 _atom_site_fract_y
 _atom_site_fract_z
 _atom_site_occupancy
  Cs  Cs0  1  0.250000  0.658786  0.181868  1
  Cs  Cs1  1  0.750000  0.340007  0.817540  1
  Cs  Cs2  1  0.750000  0.158824  0.318398  1
  Cs  Cs3  1  0.250000  0.840515  0.682616  1
  Ga  Ga4  1  0.250000  0.190935  0.063781  1
  Ga  Ga5  1  0.750000  0.809194  0.936236  1
  Ga  Ga6  1  0.750000  0.691083  0.436410  1
  Fe  Fe7  1  0.250000  0.308192  0.563942  1
  Br  Br8  1  0.250000  0.398943  0.394997  1
  Br  Br9  1  0.750000  0.602285  0.606735  1
  Br  Br10  1  0.750000  0.897928  0.106582  1
  Br  Br11  1  0.250000  0.102392  0.893534  1
  Br  Br12  1  0.250000  0.035989  0.200975  1
  Br  Br13  1  0.750000  0.964200  0.799163  1
  Br  Br14  1  0.750000  0.535507  0.299789  1
  Br  Br15  1  0.250000  0.464931  0.698761  1
  Br  Br16  1  0.003725  0.326566  0.083692  1
  Br  Br17  1  0.996073  0.673381  0.916228  1
  Br  Br18  1  0.996318  0.826591  0.416266  1
  Br  Br19  1  0.503927  0.673381  0.916228  1
  Br  Br20  1  0.003869  0.173607  0.583150  1
  Br  Br21  1  0.496275  0.326566  0.083692  1
  Br  Br22  1  0.496131  0.173607  0.583150  1
  Br  Br23  1  0.503682  0.826591  0.416266  1
