# generated using pymatgen
data_Dy3Pa(Si4Tc3)2
_symmetry_space_group_name_H-M   'P 1'
_cell_length_a   8.12296798
_cell_length_b   5.62021235
_cell_length_c   6.94587400
_cell_angle_alpha   76.68812435
_cell_angle_beta   90.37500479
_cell_angle_gamma   90.01231323
_symmetry_Int_Tables_number   1
_chemical_formula_structural   Dy3Pa(Si4Tc3)2
_chemical_formula_sum   'Dy3 Pa1 Si8 Tc6'
_cell_volume   308.57168063
_cell_formula_units_Z   1
loop_
 _symmetry_equiv_pos_site_id
 _symmetry_equiv_pos_as_xyz
  1  'x, y, z'
loop_
 _atom_site_type_symbol
 _atom_site_label
 _atom_site_symmetry_multiplicity
 _atom_site_fract_x
 _atom_site_fract_y
 _atom_site_fract_z
 _atom_site_occupancy
  Dy  Dy0  1  0.934663  0.564807  0.250037  1
  Dy  Dy1  1  0.432376  0.936391  0.747447  1
  Dy  Dy2  1  0.063972  0.433746  0.750284  1
  Pa  Pa3  1  0.561080  0.072150  0.245652  1
  Si  Si4  1  0.591306  0.620785  0.113322  1
  Si  Si5  1  0.091547  0.884768  0.886177  1
  Si  Si6  1  0.405713  0.391578  0.879421  1
  Si  Si7  1  0.912093  0.111088  0.118705  1
  Si  Si8  1  0.752192  0.717271  0.588471  1
  Si  Si9  1  0.249997  0.774524  0.415562  1
  Si  Si10  1  0.244911  0.287074  0.412696  1
  Si  Si11  1  0.749311  0.218035  0.587645  1
  Tc  Tc12  1  0.294628  0.614518  0.114631  1
  Tc  Tc13  1  0.794307  0.885031  0.882572  1
  Tc  Tc14  1  0.704317  0.377538  0.892294  1
  Tc  Tc15  1  0.215551  0.109889  0.120021  1
  Tc  Tc16  1  0.502601  0.501982  0.498034  1
  Tc  Tc17  1  0.999434  0.998825  0.497031  1
