# generated using pymatgen
data_LuZr2VF15
_symmetry_space_group_name_H-M   'P 1'
_cell_length_a   8.01441652
_cell_length_b   8.01441661
_cell_length_c   8.10506741
_cell_angle_alpha   79.64588113
_cell_angle_beta   79.64588035
_cell_angle_gamma   99.51758183
_symmetry_Int_Tables_number   1
_chemical_formula_structural   LuZr2VF15
_chemical_formula_sum   'Lu2 Zr4 V2 F30'
_cell_volume   493.15809395
_cell_formula_units_Z   2
loop_
 _symmetry_equiv_pos_site_id
 _symmetry_equiv_pos_as_xyz
  1  'x, y, z'
loop_
 _atom_site_type_symbol
 _atom_site_label
 _atom_site_symmetry_multiplicity
 _atom_site_fract_x
 _atom_site_fract_y
 _atom_site_fract_z
 _atom_site_occupancy
  Lu  Lu0  1  0.676575  0.323425  0.750000  1
  Lu  Lu1  1  0.323425  0.676575  0.250000  1
  Zr  Zr2  1  0.820554  0.750964  0.323728  1
  Zr  Zr3  1  0.249036  0.179446  0.176272  1
  Zr  Zr4  1  0.179446  0.249036  0.676272  1
  Zr  Zr5  1  0.750964  0.820554  0.823728  1
  V  V6  1  0.249994  0.750006  0.750000  1
  V  V7  1  0.750006  0.249994  0.250000  1
  F  F8  1  0.149206  0.185930  0.947518  1
  F  F9  1  0.687670  0.556447  0.850396  1
  F  F10  1  0.046269  0.655010  0.310101  1
  F  F11  1  0.655010  0.046269  0.810101  1
  F  F12  1  0.556447  0.687670  0.350396  1
  F  F13  1  0.185930  0.149206  0.447518  1
  F  F14  1  0.850794  0.814070  0.052482  1
  F  F15  1  0.312330  0.443553  0.149604  1
  F  F16  1  0.953731  0.344990  0.689899  1
  F  F17  1  0.344990  0.953731  0.189899  1
  F  F18  1  0.443553  0.312330  0.649604  1
  F  F19  1  0.814070  0.850794  0.552482  1
  F  F20  1  0.967169  0.032831  0.750000  1
  F  F21  1  0.541129  0.753154  0.030530  1
  F  F22  1  0.246846  0.458871  0.469470  1
  F  F23  1  0.458871  0.246846  0.969470  1
  F  F24  1  0.753154  0.541129  0.530530  1
  F  F25  1  0.032831  0.967169  0.250000  1
  F  F26  1  0.222161  0.729800  0.982387  1
  F  F27  1  0.228198  0.504724  0.777982  1
  F  F28  1  0.001748  0.720510  0.775594  1
  F  F29  1  0.720510  0.001748  0.275594  1
  F  F30  1  0.504724  0.228198  0.277982  1
  F  F31  1  0.729800  0.222161  0.482387  1
  F  F32  1  0.777839  0.270200  0.017613  1
  F  F33  1  0.771802  0.495276  0.222018  1
  F  F34  1  0.998252  0.279490  0.224406  1
  F  F35  1  0.279490  0.998252  0.724406  1
  F  F36  1  0.495276  0.771802  0.722018  1
  F  F37  1  0.270200  0.777839  0.517613  1
