# generated using pymatgen
data_PuNb(PO4)3
_symmetry_space_group_name_H-M   'P 1'
_cell_length_a   9.12346407
_cell_length_b   9.12391608
_cell_length_c   9.39953200
_cell_angle_alpha   90.10671789
_cell_angle_beta   118.91379923
_cell_angle_gamma   119.97632407
_symmetry_Int_Tables_number   1
_chemical_formula_structural   PuNb(PO4)3
_chemical_formula_sum   'Pu2 Nb2 P6 O24'
_cell_volume   561.87679065
_cell_formula_units_Z   2
loop_
 _symmetry_equiv_pos_site_id
 _symmetry_equiv_pos_as_xyz
  1  'x, y, z'
loop_
 _atom_site_type_symbol
 _atom_site_label
 _atom_site_symmetry_multiplicity
 _atom_site_fract_x
 _atom_site_fract_y
 _atom_site_fract_z
 _atom_site_occupancy
  Pu  Pu0  1  0.212048  0.857254  0.068975  1
  Pu  Pu1  1  0.788186  0.642979  0.431672  1
  Nb  Nb2  1  0.210868  0.356256  0.566412  1
  Nb  Nb3  1  0.787964  0.143240  0.931475  1
  P  P4  1  0.997429  0.974907  0.248555  1
  P  P5  1  0.273577  0.523371  0.250403  1
  P  P6  1  0.295842  0.750942  0.748041  1
  P  P7  1  0.726338  0.249582  0.251349  1
  P  P8  1  0.704665  0.454025  0.749423  1
  P  P9  1  0.001985  0.047083  0.751987  1
  O  O10  1  0.283543  0.694223  0.230311  1
  O  O11  1  0.876585  0.010098  0.082641  1
  O  O12  1  0.856263  0.874312  0.599113  1
  O  O13  1  0.844696  0.813684  0.269195  1
  O  O14  1  0.142961  0.945829  0.235832  1
  O  O15  1  0.456869  0.534105  0.271981  1
  O  O16  1  0.118344  0.740657  0.589401  1
  O  O17  1  0.882788  0.622937  0.906650  1
  O  O18  1  0.284788  0.766119  0.905056  1
  O  O19  1  0.503874  0.917521  0.789261  1
  O  O20  1  0.720845  0.473580  0.594076  1
  O  O21  1  0.731687  0.420104  0.265883  1
  O  O22  1  0.289579  0.579625  0.709086  1
  O  O23  1  0.267852  0.491407  0.411508  1
  O  O24  1  0.538407  0.088866  0.235526  1
  O  O25  1  0.725104  0.205588  0.089738  1
  O  O26  1  0.073243  0.361649  0.088285  1
  O  O27  1  0.922494  0.283256  0.414538  1
  O  O28  1  0.497208  0.418511  0.703389  1
  O  O29  1  0.873840  0.088457  0.789199  1
  O  O30  1  0.129124  0.208075  0.706378  1
  O  O31  1  0.126709  0.143050  0.406861  1
  O  O32  1  0.148697  0.030173  0.913741  1
  O  O33  1  0.705598  0.288539  0.794060  1
