# generated using pymatgen
data_HfPa2Zn3FePd2
_symmetry_space_group_name_H-M   'P 1'
_cell_length_a   7.26817880
_cell_length_b   7.26093188
_cell_length_c   3.59517700
_cell_angle_alpha   90.00000000
_cell_angle_beta   90.00000000
_cell_angle_gamma   120.46484240
_symmetry_Int_Tables_number   1
_chemical_formula_structural   HfPa2Zn3FePd2
_chemical_formula_sum   'Hf1 Pa2 Zn3 Fe1 Pd2'
_cell_volume   163.53679968
_cell_formula_units_Z   1
loop_
 _symmetry_equiv_pos_site_id
 _symmetry_equiv_pos_as_xyz
  1  'x, y, z'
loop_
 _atom_site_type_symbol
 _atom_site_label
 _atom_site_symmetry_multiplicity
 _atom_site_fract_x
 _atom_site_fract_y
 _atom_site_fract_z
 _atom_site_occupancy
  Hf  Hf0  1  0.397712  0.982866  0.000000  1
  Pa  Pa1  1  0.028419  0.430509  0.000000  1
  Pa  Pa2  1  0.573824  0.598802  0.000000  1
  Zn  Zn3  1  0.021732  0.760126  0.500000  1
  Zn  Zn4  1  0.261644  0.240066  0.500000  1
  Zn  Zn5  1  0.722516  0.001342  0.500000  1
  Fe  Fe6  1  0.327867  0.644843  0.500000  1
  Pd  Pd7  1  0.991290  0.999103  0.000000  1
  Pd  Pd8  1  0.674996  0.342343  0.500000  1
