# generated using pymatgen
data_Ta2Be4Os5
_symmetry_space_group_name_H-M   'P 1'
_cell_length_a   3.14830200
_cell_length_b   8.56571300
_cell_length_c   10.07219800
_cell_angle_alpha   90.00105686
_cell_angle_beta   90.00000000
_cell_angle_gamma   90.00000000
_symmetry_Int_Tables_number   1
_chemical_formula_structural   Ta2Be4Os5
_chemical_formula_sum   'Ta4 Be8 Os10'
_cell_volume   271.62150975
_cell_formula_units_Z   2
loop_
 _symmetry_equiv_pos_site_id
 _symmetry_equiv_pos_as_xyz
  1  'x, y, z'
loop_
 _atom_site_type_symbol
 _atom_site_label
 _atom_site_symmetry_multiplicity
 _atom_site_fract_x
 _atom_site_fract_y
 _atom_site_fract_z
 _atom_site_occupancy
  Ta  Ta0  1  0.500000  0.842274  0.180875  1
  Ta  Ta1  1  0.500000  0.157726  0.819125  1
  Ta  Ta2  1  0.500000  0.657747  0.680849  1
  Ta  Ta3  1  0.500000  0.342253  0.319151  1
  Be  Be4  1  0.500000  0.963642  0.593254  1
  Be  Be5  1  0.500000  0.036358  0.406746  1
  Be  Be6  1  0.500000  0.844828  0.902400  1
  Be  Be7  1  0.500000  0.155172  0.097600  1
  Be  Be8  1  0.500000  0.655133  0.402405  1
  Be  Be9  1  0.500000  0.344867  0.597595  1
  Be  Be10  1  0.500000  0.463663  0.906735  1
  Be  Be11  1  0.500000  0.536337  0.093265  1
  Os  Os12  1  0.000000  0.660775  0.952045  1
  Os  Os13  1  0.000000  0.339225  0.047955  1
  Os  Os14  1  0.000000  0.839209  0.452049  1
  Os  Os15  1  0.000000  0.160791  0.547951  1
  Os  Os16  1  0.000000  0.000000  0.000000  1
  Os  Os17  1  0.000000  0.402131  0.759618  1
  Os  Os18  1  0.000000  0.597869  0.240382  1
  Os  Os19  1  0.000000  0.500000  0.500000  1
  Os  Os20  1  0.000000  0.902110  0.740376  1
  Os  Os21  1  0.000000  0.097890  0.259624  1
