# generated using pymatgen
data_CsLuTe3O8
_symmetry_space_group_name_H-M   'P 1'
_cell_length_a   6.01246324
_cell_length_b   7.96605225
_cell_length_c   11.61244811
_cell_angle_alpha   100.41355921
_cell_angle_beta   89.34301255
_cell_angle_gamma   109.90134889
_symmetry_Int_Tables_number   1
_chemical_formula_structural   CsLuTe3O8
_chemical_formula_sum   'Cs2 Lu2 Te6 O16'
_cell_volume   513.60164754
_cell_formula_units_Z   2
loop_
 _symmetry_equiv_pos_site_id
 _symmetry_equiv_pos_as_xyz
  1  'x, y, z'
loop_
 _atom_site_type_symbol
 _atom_site_label
 _atom_site_symmetry_multiplicity
 _atom_site_fract_x
 _atom_site_fract_y
 _atom_site_fract_z
 _atom_site_occupancy
  Cs  Cs0  1  0.819927  0.111538  0.163730  1
  Cs  Cs1  1  0.180073  0.888462  0.836270  1
  Lu  Lu2  1  0.500000  0.500000  0.000000  1
  Lu  Lu3  1  0.000000  0.500000  0.500000  1
  Te  Te4  1  0.214010  0.987669  0.420676  1
  Te  Te5  1  0.785990  0.012331  0.579324  1
  Te  Te6  1  0.078862  0.679604  0.153273  1
  Te  Te7  1  0.921138  0.320396  0.846727  1
  Te  Te8  1  0.510969  0.521392  0.333667  1
  Te  Te9  1  0.489031  0.478608  0.666333  1
  O  O10  1  0.176741  0.744968  0.426765  1
  O  O11  1  0.823259  0.255032  0.573235  1
  O  O12  1  0.228407  0.927463  0.235878  1
  O  O13  1  0.771593  0.072537  0.764122  1
  O  O14  1  0.886101  0.961715  0.398891  1
  O  O15  1  0.113899  0.038285  0.601109  1
  O  O16  1  0.294225  0.689396  0.033442  1
  O  O17  1  0.705775  0.310604  0.966558  1
  O  O18  1  0.836785  0.719438  0.072970  1
  O  O19  1  0.163215  0.280562  0.927030  1
  O  O20  1  0.413816  0.429534  0.173401  1
  O  O21  1  0.586184  0.570466  0.826599  1
  O  O22  1  0.242251  0.373486  0.401266  1
  O  O23  1  0.757749  0.626514  0.598734  1
  O  O24  1  0.727405  0.401310  0.351021  1
  O  O25  1  0.272595  0.598690  0.648979  1
