# generated using pymatgen
data_Dy4MnSi4Ir
_symmetry_space_group_name_H-M   'P 1'
_cell_length_a   5.71735829
_cell_length_b   5.71735760
_cell_length_c   10.05281356
_cell_angle_alpha   63.41804134
_cell_angle_beta   63.41804539
_cell_angle_gamma   42.93840194
_symmetry_Int_Tables_number   1
_chemical_formula_structural   Dy4MnSi4Ir
_chemical_formula_sum   'Dy4 Mn1 Si4 Ir1'
_cell_volume   196.27497348
_cell_formula_units_Z   1
loop_
 _symmetry_equiv_pos_site_id
 _symmetry_equiv_pos_as_xyz
  1  'x, y, z'
loop_
 _atom_site_type_symbol
 _atom_site_label
 _atom_site_symmetry_multiplicity
 _atom_site_fract_x
 _atom_site_fract_y
 _atom_site_fract_z
 _atom_site_occupancy
  Dy  Dy0  1  0.005280  0.005280  0.323580  1
  Dy  Dy1  1  0.995300  0.995300  0.677408  1
  Dy  Dy2  1  0.813956  0.813956  0.109067  1
  Dy  Dy3  1  0.187413  0.187413  0.888498  1
  Mn  Mn4  1  0.274930  0.274930  0.371308  1
  Si  Si5  1  0.638143  0.638143  0.439564  1
  Si  Si6  1  0.359155  0.359155  0.562070  1
  Si  Si7  1  0.506903  0.506903  0.120930  1
  Si  Si8  1  0.492689  0.492689  0.878232  1
  Ir  Ir9  1  0.726229  0.726229  0.629343  1
