# generated using pymatgen
data_HoTm2Hf(Al3Ir)6
_symmetry_space_group_name_H-M   'P 1'
_cell_length_a   7.52257403
_cell_length_b   7.51379667
_cell_length_c   9.38162300
_cell_angle_alpha   90.00000000
_cell_angle_beta   90.00000000
_cell_angle_gamma   119.62317615
_symmetry_Int_Tables_number   1
_chemical_formula_structural   HoTm2Hf(Al3Ir)6
_chemical_formula_sum   'Ho1 Tm2 Hf1 Al18 Ir6'
_cell_volume   460.96833851
_cell_formula_units_Z   1
loop_
 _symmetry_equiv_pos_site_id
 _symmetry_equiv_pos_as_xyz
  1  'x, y, z'
loop_
 _atom_site_type_symbol
 _atom_site_label
 _atom_site_symmetry_multiplicity
 _atom_site_fract_x
 _atom_site_fract_y
 _atom_site_fract_z
 _atom_site_occupancy
  Ho  Ho0  1  0.329190  0.006453  0.750000  1
  Tm  Tm1  1  0.005743  0.327678  0.750000  1
  Tm  Tm2  1  0.671191  0.995883  0.250000  1
  Hf  Hf3  1  0.997448  0.672726  0.250000  1
  Al  Al4  1  0.125804  0.123251  0.250000  1
  Al  Al5  1  0.871140  0.869980  0.750000  1
  Al  Al6  1  0.999959  0.337663  0.079350  1
  Al  Al7  1  0.999327  0.664864  0.928784  1
  Al  Al8  1  0.999327  0.664864  0.571216  1
  Al  Al9  1  0.332629  0.998119  0.420441  1
  Al  Al10  1  0.999959  0.337663  0.420650  1
  Al  Al11  1  0.664774  0.998547  0.574688  1
  Al  Al12  1  0.664774  0.998547  0.925312  1
  Al  Al13  1  0.332629  0.998119  0.079559  1
  Al  Al14  1  0.333495  0.333699  0.551662  1
  Al  Al15  1  0.668862  0.666907  0.442452  1
  Al  Al16  1  0.668862  0.666907  0.057548  1
  Al  Al17  1  0.333495  0.333699  0.948338  1
  Al  Al18  1  0.335929  0.549287  0.250000  1
  Al  Al19  1  0.661095  0.452349  0.750000  1
  Al  Al20  1  0.554882  0.344308  0.250000  1
  Al  Al21  1  0.450834  0.659682  0.750000  1
  Ir  Ir22  1  0.672700  0.328245  0.001154  1
  Ir  Ir23  1  0.327433  0.672290  0.001867  1
  Ir  Ir24  1  0.327433  0.672290  0.498133  1
  Ir  Ir25  1  0.672700  0.328245  0.498846  1
  Ir  Ir26  1  0.999194  0.998869  0.001326  1
  Ir  Ir27  1  0.999194  0.998869  0.498674  1
