# generated using pymatgen
data_Nd5Te9
_symmetry_space_group_name_H-M   'P 1'
_cell_length_a   13.50333222
_cell_length_b   13.50333222
_cell_length_c   11.14552715
_cell_angle_alpha   79.71336865
_cell_angle_beta   79.71337377
_cell_angle_gamma   26.78026734
_symmetry_Int_Tables_number   1
_chemical_formula_structural   Nd5Te9
_chemical_formula_sum   'Nd10 Te18'
_cell_volume   900.12320272
_cell_formula_units_Z   2
loop_
 _symmetry_equiv_pos_site_id
 _symmetry_equiv_pos_as_xyz
  1  'x, y, z'
loop_
 _atom_site_type_symbol
 _atom_site_label
 _atom_site_symmetry_multiplicity
 _atom_site_fract_x
 _atom_site_fract_y
 _atom_site_fract_z
 _atom_site_occupancy
  Nd  Nd0  1  0.946525  0.045001  0.241313  1
  Nd  Nd1  1  0.146676  0.247057  0.841644  1
  Nd  Nd2  1  0.345185  0.449699  0.437267  1
  Nd  Nd3  1  0.540050  0.651635  0.036966  1
  Nd  Nd4  1  0.752856  0.836885  0.636515  1
  Nd  Nd5  1  0.348365  0.459950  0.963034  1
  Nd  Nd6  1  0.550301  0.654815  0.562733  1
  Nd  Nd7  1  0.752943  0.853324  0.158356  1
  Nd  Nd8  1  0.954999  0.053475  0.758687  1
  Nd  Nd9  1  0.163115  0.247144  0.363485  1
  Te  Te10  1  0.473397  0.572080  0.821582  1
  Te  Te11  1  0.072215  0.177272  0.621548  1
  Te  Te12  1  0.869456  0.979594  0.020341  1
  Te  Te13  1  0.681631  0.763572  0.422026  1
  Te  Te14  1  0.273964  0.375375  0.221597  1
  Te  Te15  1  0.020406  0.130544  0.979659  1
  Te  Te16  1  0.624625  0.726036  0.778403  1
  Te  Te17  1  0.427920  0.526603  0.178418  1
  Te  Te18  1  0.236428  0.318369  0.577974  1
  Te  Te19  1  0.822728  0.927785  0.378452  1
  Te  Te20  1  0.699564  0.300436  0.500000  1
  Te  Te21  1  0.299903  0.901879  0.299384  1
  Te  Te22  1  0.098121  0.700097  0.700616  1
  Te  Te23  1  0.894445  0.494502  0.112026  1
  Te  Te24  1  0.505498  0.105555  0.887974  1
  Te  Te25  1  0.002167  0.602813  0.894151  1
  Te  Te26  1  0.199327  0.800673  0.500000  1
  Te  Te27  1  0.397187  0.997833  0.105849  1
