# generated using pymatgen
data_TmLuNi7HgB2
_symmetry_space_group_name_H-M   'P 1'
_cell_length_a   4.96851700
_cell_length_b   4.96851680
_cell_length_c   14.15072000
_cell_angle_alpha   90.00000000
_cell_angle_beta   90.00000000
_cell_angle_gamma   119.99999467
_symmetry_Int_Tables_number   1
_chemical_formula_structural   TmLuNi7HgB2
_chemical_formula_sum   'Tm2 Lu2 Ni14 Hg2 B4'
_cell_volume   302.52602116
_cell_formula_units_Z   2
loop_
 _symmetry_equiv_pos_site_id
 _symmetry_equiv_pos_as_xyz
  1  'x, y, z'
loop_
 _atom_site_type_symbol
 _atom_site_label
 _atom_site_symmetry_multiplicity
 _atom_site_fract_x
 _atom_site_fract_y
 _atom_site_fract_z
 _atom_site_occupancy
  Tm  Tm0  1  0.666667  0.333333  0.471058  1
  Tm  Tm1  1  0.333333  0.666667  0.971058  1
  Lu  Lu2  1  0.333333  0.666667  0.743348  1
  Lu  Lu3  1  0.666667  0.333333  0.243348  1
  Ni  Ni4  1  0.000000  0.000000  0.999944  1
  Ni  Ni5  1  0.000000  0.000000  0.499944  1
  Ni  Ni6  1  0.165741  0.331480  0.148307  1
  Ni  Ni7  1  0.834259  0.668520  0.648307  1
  Ni  Ni8  1  0.668520  0.834259  0.148307  1
  Ni  Ni9  1  0.165741  0.834259  0.148307  1
  Ni  Ni10  1  0.834259  0.165741  0.648307  1
  Ni  Ni11  1  0.331480  0.165741  0.648307  1
  Ni  Ni12  1  0.834119  0.668238  0.851823  1
  Ni  Ni13  1  0.834119  0.165881  0.851823  1
  Ni  Ni14  1  0.331762  0.165881  0.851823  1
  Ni  Ni15  1  0.668238  0.834119  0.351823  1
  Ni  Ni16  1  0.165881  0.834119  0.351823  1
  Ni  Ni17  1  0.165881  0.331762  0.351823  1
  Hg  Hg18  1  0.333333  0.666667  0.532599  1
  Hg  Hg19  1  0.666667  0.333333  0.032599  1
  B  B20  1  0.333333  0.666667  0.250226  1
  B  B21  1  0.666667  0.333333  0.750226  1
  B  B22  1  0.000000  0.000000  0.252432  1
  B  B23  1  0.000000  0.000000  0.752432  1
