# generated using pymatgen
data_NaHf2FeF11
_symmetry_space_group_name_H-M   'P 1'
_cell_length_a   5.73897583
_cell_length_b   5.73897576
_cell_length_c   7.81870862
_cell_angle_alpha   69.36704663
_cell_angle_beta   69.36704837
_cell_angle_gamma   73.26658351
_symmetry_Int_Tables_number   1
_chemical_formula_structural   NaHf2FeF11
_chemical_formula_sum   'Na1 Hf2 Fe1 F11'
_cell_volume   221.56266150
_cell_formula_units_Z   1
loop_
 _symmetry_equiv_pos_site_id
 _symmetry_equiv_pos_as_xyz
  1  'x, y, z'
loop_
 _atom_site_type_symbol
 _atom_site_label
 _atom_site_symmetry_multiplicity
 _atom_site_fract_x
 _atom_site_fract_y
 _atom_site_fract_z
 _atom_site_occupancy
  Na  Na0  1  0.000000  0.000000  0.000000  1
  Hf  Hf1  1  0.495733  0.495733  0.234752  1
  Hf  Hf2  1  0.504267  0.504267  0.765248  1
  Fe  Fe3  1  0.000000  0.000000  0.500000  1
  F  F4  1  0.198283  0.776169  0.306858  1
  F  F5  1  0.223831  0.801717  0.693142  1
  F  F6  1  0.801717  0.223831  0.693142  1
  F  F7  1  0.776169  0.198283  0.306858  1
  F  F8  1  0.500000  0.500000  0.500000  1
  F  F9  1  0.667420  0.332580  0.000000  1
  F  F10  1  0.332580  0.667420  0.000000  1
  F  F11  1  0.749943  0.749943  0.646253  1
  F  F12  1  0.250057  0.250057  0.353747  1
  F  F13  1  0.731650  0.731650  0.111414  1
  F  F14  1  0.268350  0.268350  0.888586  1
