# generated using pymatgen
data_Dy3Ta3(B2Ru5)2
_symmetry_space_group_name_H-M   'P 1'
_cell_length_a   9.61792778
_cell_length_b   9.61792778
_cell_length_c   3.11551300
_cell_angle_alpha   90.00000000
_cell_angle_beta   90.00000000
_cell_angle_gamma   90.46083720
_symmetry_Int_Tables_number   1
_chemical_formula_structural   Dy3Ta3(B2Ru5)2
_chemical_formula_sum   'Dy3 Ta3 B4 Ru10'
_cell_volume   288.18975836
_cell_formula_units_Z   1
loop_
 _symmetry_equiv_pos_site_id
 _symmetry_equiv_pos_as_xyz
  1  'x, y, z'
loop_
 _atom_site_type_symbol
 _atom_site_label
 _atom_site_symmetry_multiplicity
 _atom_site_fract_x
 _atom_site_fract_y
 _atom_site_fract_z
 _atom_site_occupancy
  Dy  Dy0  1  0.824206  0.674767  0.000000  1
  Dy  Dy1  1  0.174767  0.324206  0.000000  1
  Dy  Dy2  1  0.325667  0.825667  0.000000  1
  Ta  Ta3  1  0.675992  0.175992  0.000000  1
  Ta  Ta4  1  0.498128  0.502680  0.000000  1
  Ta  Ta5  1  0.002680  0.998128  0.000000  1
  B  B6  1  0.623653  0.881489  0.000000  1
  B  B7  1  0.381489  0.123653  0.000000  1
  B  B8  1  0.119214  0.619214  0.000000  1
  B  B9  1  0.875488  0.375488  0.000000  1
  Ru  Ru10  1  0.571430  0.722028  0.500000  1
  Ru  Ru11  1  0.440793  0.280412  0.500000  1
  Ru  Ru12  1  0.069455  0.780435  0.500000  1
  Ru  Ru13  1  0.915318  0.213043  0.500000  1
  Ru  Ru14  1  0.280435  0.569455  0.500000  1
  Ru  Ru15  1  0.713043  0.415318  0.500000  1
  Ru  Ru16  1  0.222028  0.071430  0.500000  1
  Ru  Ru17  1  0.780412  0.940793  0.500000  1
  Ru  Ru18  1  0.510006  0.010006  0.500000  1
  Ru  Ru19  1  0.995796  0.495796  0.500000  1
