# generated using pymatgen
data_Cs4Al11GaSe20
_symmetry_space_group_name_H-M   'P 1'
_cell_length_a   13.59778168
_cell_length_b   7.61916221
_cell_length_c   11.15438542
_cell_angle_alpha   76.65164246
_cell_angle_beta   89.88587330
_cell_angle_gamma   89.90149500
_symmetry_Int_Tables_number   1
_chemical_formula_structural   Cs4Al11GaSe20
_chemical_formula_sum   'Cs4 Al11 Ga1 Se20'
_cell_volume   1124.41224602
_cell_formula_units_Z   1
loop_
 _symmetry_equiv_pos_site_id
 _symmetry_equiv_pos_as_xyz
  1  'x, y, z'
loop_
 _atom_site_type_symbol
 _atom_site_label
 _atom_site_symmetry_multiplicity
 _atom_site_fract_x
 _atom_site_fract_y
 _atom_site_fract_z
 _atom_site_occupancy
  Cs  Cs0  1  0.611599  0.835945  0.401117  1
  Cs  Cs1  1  0.111756  0.164425  0.098851  1
  Cs  Cs2  1  0.388177  0.164188  0.598960  1
  Cs  Cs3  1  0.888476  0.835152  0.901129  1
  Al  Al4  1  0.924024  0.793777  0.401330  1
  Al  Al5  1  0.576535  0.794404  0.901175  1
  Al  Al6  1  0.423573  0.205427  0.098714  1
  Al  Al7  1  0.399747  0.562968  0.806025  1
  Al  Al8  1  0.100566  0.563920  0.305959  1
  Al  Al9  1  0.337446  0.710310  0.124051  1
  Al  Al10  1  0.599805  0.437414  0.193656  1
  Al  Al11  1  0.076536  0.205812  0.599129  1
  Al  Al12  1  0.662695  0.289921  0.875744  1
  Al  Al13  1  0.899958  0.436875  0.694347  1
  Al  Al14  1  0.162934  0.710113  0.624482  1
  Ga  Ga15  1  0.836577  0.289131  0.375270  1
  Se  Se16  1  0.834844  0.716050  0.587876  1
  Se  Se17  1  0.104508  0.812713  0.411455  1
  Se  Se18  1  0.665120  0.716287  0.087842  1
  Se  Se19  1  0.396064  0.812150  0.911014  1
  Se  Se20  1  0.334946  0.283687  0.912119  1
  Se  Se21  1  0.663017  0.345902  0.398441  1
  Se  Se22  1  0.579753  0.572095  0.767928  1
  Se  Se23  1  0.604057  0.188038  0.088876  1
  Se  Se24  1  0.896439  0.187256  0.590324  1
  Se  Se25  1  0.635441  0.061864  0.763644  1
  Se  Se26  1  0.364606  0.938136  0.236271  1
  Se  Se27  1  0.164844  0.283693  0.411784  1
  Se  Se28  1  0.079943  0.428324  0.732585  1
  Se  Se29  1  0.921078  0.574331  0.266752  1
  Se  Se30  1  0.863990  0.059067  0.262106  1
  Se  Se31  1  0.135644  0.938294  0.736809  1
  Se  Se32  1  0.834601  0.345751  0.898515  1
  Se  Se33  1  0.335128  0.654114  0.601934  1
  Se  Se34  1  0.419968  0.427729  0.232162  1
  Se  Se35  1  0.165604  0.654736  0.101624  1
