# generated using pymatgen
data_Yb6Y2Si12PtAu3
_symmetry_space_group_name_H-M   'P 1'
_cell_length_a   8.26235600
_cell_length_b   8.26235447
_cell_length_c   8.24240100
_cell_angle_alpha   90.00000000
_cell_angle_beta   90.00000000
_cell_angle_gamma   119.99999812
_symmetry_Int_Tables_number   1
_chemical_formula_structural   Yb6Y2Si12PtAu3
_chemical_formula_sum   'Yb6 Y2 Si12 Pt1 Au3'
_cell_volume   487.29516903
_cell_formula_units_Z   1
loop_
 _symmetry_equiv_pos_site_id
 _symmetry_equiv_pos_as_xyz
  1  'x, y, z'
loop_
 _atom_site_type_symbol
 _atom_site_label
 _atom_site_symmetry_multiplicity
 _atom_site_fract_x
 _atom_site_fract_y
 _atom_site_fract_z
 _atom_site_occupancy
  Yb  Yb0  1  0.498616  0.997233  0.246910  1
  Yb  Yb1  1  0.497761  0.995520  0.753125  1
  Yb  Yb2  1  0.002767  0.501384  0.246910  1
  Yb  Yb3  1  0.004480  0.502239  0.753125  1
  Yb  Yb4  1  0.498616  0.501384  0.246910  1
  Yb  Yb5  1  0.497761  0.502239  0.753125  1
  Y  Y6  1  0.000000  0.000000  0.248434  1
  Y  Y7  1  0.000000  0.000000  0.751505  1
  Si  Si8  1  0.165859  0.331719  0.000615  1
  Si  Si9  1  0.839590  0.679181  0.999476  1
  Si  Si10  1  0.668281  0.834141  0.000615  1
  Si  Si11  1  0.837906  0.675813  0.500518  1
  Si  Si12  1  0.320819  0.160410  0.999476  1
  Si  Si13  1  0.161617  0.323234  0.499461  1
  Si  Si14  1  0.165859  0.834141  0.000615  1
  Si  Si15  1  0.324187  0.162094  0.500518  1
  Si  Si16  1  0.839590  0.160410  0.999476  1
  Si  Si17  1  0.676766  0.838383  0.499461  1
  Si  Si18  1  0.837906  0.162094  0.500518  1
  Si  Si19  1  0.161617  0.838383  0.499461  1
  Pt  Pt20  1  0.333333  0.666667  0.000636  1
  Au  Au21  1  0.666667  0.333333  0.999233  1
  Au  Au22  1  0.666667  0.333333  0.500852  1
  Au  Au23  1  0.333333  0.666667  0.499028  1
