# generated using pymatgen
data_Nb6Ga4CuPtN2
_symmetry_space_group_name_H-M   'P 1'
_cell_length_a   8.30698788
_cell_length_b   8.30753779
_cell_length_c   8.30753882
_cell_angle_alpha   59.88381445
_cell_angle_beta   60.00219623
_cell_angle_gamma   60.00218984
_symmetry_Int_Tables_number   1
_chemical_formula_structural   Nb6Ga4CuPtN2
_chemical_formula_sum   'Nb12 Ga8 Cu2 Pt2 N4'
_cell_volume   405.04647822
_cell_formula_units_Z   2
loop_
 _symmetry_equiv_pos_site_id
 _symmetry_equiv_pos_as_xyz
  1  'x, y, z'
loop_
 _atom_site_type_symbol
 _atom_site_label
 _atom_site_symmetry_multiplicity
 _atom_site_fract_x
 _atom_site_fract_y
 _atom_site_fract_z
 _atom_site_occupancy
  Nb  Nb0  1  0.813755  0.815044  0.181981  1
  Nb  Nb1  1  0.189219  0.181981  0.815044  1
  Nb  Nb2  1  0.813755  0.181981  0.815044  1
  Nb  Nb3  1  0.189219  0.815044  0.181981  1
  Nb  Nb4  1  0.180002  0.819998  0.819998  1
  Nb  Nb5  1  0.808406  0.191594  0.191594  1
  Nb  Nb6  1  0.436245  0.434956  0.068019  1
  Nb  Nb7  1  0.060781  0.068019  0.434956  1
  Nb  Nb8  1  0.436245  0.068019  0.434956  1
  Nb  Nb9  1  0.060781  0.434956  0.068019  1
  Nb  Nb10  1  0.069998  0.430002  0.430002  1
  Nb  Nb11  1  0.441594  0.058406  0.058406  1
  Ga  Ga12  1  0.754938  0.412723  0.412723  1
  Ga  Ga13  1  0.415692  0.761458  0.407159  1
  Ga  Ga14  1  0.415692  0.407159  0.761458  1
  Ga  Ga15  1  0.419618  0.412723  0.412723  1
  Ga  Ga16  1  0.495062  0.837277  0.837277  1
  Ga  Ga17  1  0.834308  0.488542  0.842841  1
  Ga  Ga18  1  0.834308  0.842841  0.488542  1
  Ga  Ga19  1  0.830382  0.837277  0.837277  1
  Cu  Cu20  1  0.625000  0.125000  0.625000  1
  Cu  Cu21  1  0.625000  0.625000  0.125000  1
  Pt  Pt22  1  0.125000  0.625000  0.625000  1
  Pt  Pt23  1  0.625000  0.625000  0.625000  1
  N  N24  1  0.625000  0.125000  0.125000  1
  N  N25  1  0.125000  0.625000  0.125000  1
  N  N26  1  0.125000  0.125000  0.625000  1
  N  N27  1  0.125000  0.125000  0.125000  1
