# generated using pymatgen
data_Tm5LuAl24(Ru3Rh)2
_symmetry_space_group_name_H-M   'P 1'
_cell_length_a   8.74884802
_cell_length_b   8.74884790
_cell_length_c   9.54783600
_cell_angle_alpha   90.00000000
_cell_angle_beta   90.00000000
_cell_angle_gamma   119.80306158
_symmetry_Int_Tables_number   1
_chemical_formula_structural   Tm5LuAl24(Ru3Rh)2
_chemical_formula_sum   'Tm5 Lu1 Al24 Ru6 Rh2'
_cell_volume   634.15548712
_cell_formula_units_Z   1
loop_
 _symmetry_equiv_pos_site_id
 _symmetry_equiv_pos_as_xyz
  1  'x, y, z'
loop_
 _atom_site_type_symbol
 _atom_site_label
 _atom_site_symmetry_multiplicity
 _atom_site_fract_x
 _atom_site_fract_y
 _atom_site_fract_z
 _atom_site_occupancy
  Tm  Tm0  1  0.194930  0.805070  0.250000  1
  Tm  Tm1  1  0.386969  0.189713  0.750000  1
  Tm  Tm2  1  0.613084  0.810286  0.250000  1
  Tm  Tm3  1  0.810287  0.613031  0.750000  1
  Tm  Tm4  1  0.189714  0.386916  0.250000  1
  Lu  Lu5  1  0.804829  0.195171  0.750000  1
  Al  Al6  1  0.667308  0.332692  0.978491  1
  Al  Al7  1  0.332777  0.667223  0.021408  1
  Al  Al8  1  0.332777  0.667223  0.478592  1
  Al  Al9  1  0.667308  0.332692  0.521509  1
  Al  Al10  1  0.836926  0.163074  0.422027  1
  Al  Al11  1  0.163063  0.836937  0.578081  1
  Al  Al12  1  0.324908  0.161546  0.421358  1
  Al  Al13  1  0.163063  0.836937  0.921919  1
  Al  Al14  1  0.675129  0.838553  0.578698  1
  Al  Al15  1  0.836926  0.163074  0.077973  1
  Al  Al16  1  0.838454  0.675092  0.421358  1
  Al  Al17  1  0.675129  0.838553  0.921302  1
  Al  Al18  1  0.161447  0.324871  0.578698  1
  Al  Al19  1  0.324908  0.161546  0.078642  1
  Al  Al20  1  0.161447  0.324871  0.921302  1
  Al  Al21  1  0.838454  0.675092  0.078642  1
  Al  Al22  1  0.438894  0.561106  0.750000  1
  Al  Al23  1  0.561101  0.438899  0.250000  1
  Al  Al24  1  0.123616  0.560836  0.750000  1
  Al  Al25  1  0.876206  0.438939  0.250000  1
  Al  Al26  1  0.439164  0.876384  0.750000  1
  Al  Al27  1  0.561061  0.123794  0.250000  1
  Al  Al28  1  0.000343  0.999657  0.750000  1
  Al  Al29  1  0.999571  0.000429  0.250000  1
  Ru  Ru30  1  0.999903  0.499833  0.999908  1
  Ru  Ru31  1  0.500167  0.000097  0.999908  1
  Ru  Ru32  1  0.999903  0.499833  0.500092  1
  Ru  Ru33  1  0.500167  0.000097  0.500092  1
  Ru  Ru34  1  0.999998  0.000002  0.999989  1
  Ru  Ru35  1  0.999998  0.000002  0.500011  1
  Rh  Rh36  1  0.500036  0.499964  0.999996  1
  Rh  Rh37  1  0.500036  0.499964  0.500004  1
