# generated using pymatgen
data_Zr10CuSn5GePb
_symmetry_space_group_name_H-M   'P 1'
_cell_length_a   8.74352839
_cell_length_b   8.74353178
_cell_length_c   5.88545934
_cell_angle_alpha   90.01942371
_cell_angle_beta   90.01951607
_cell_angle_gamma   119.97186282
_symmetry_Int_Tables_number   1
_chemical_formula_structural   Zr10CuSn5GePb
_chemical_formula_sum   'Zr10 Cu1 Sn5 Ge1 Pb1'
_cell_volume   389.76925398
_cell_formula_units_Z   1
loop_
 _symmetry_equiv_pos_site_id
 _symmetry_equiv_pos_as_xyz
  1  'x, y, z'
loop_
 _atom_site_type_symbol
 _atom_site_label
 _atom_site_symmetry_multiplicity
 _atom_site_fract_x
 _atom_site_fract_y
 _atom_site_fract_z
 _atom_site_occupancy
  Zr  Zr0  1  0.668831  0.332927  0.501348  1
  Zr  Zr1  1  0.332926  0.668830  0.501348  1
  Zr  Zr2  1  0.332916  0.668903  0.998604  1
  Zr  Zr3  1  0.668903  0.332916  0.998604  1
  Zr  Zr4  1  0.739238  0.739238  0.251609  1
  Zr  Zr5  1  0.262373  0.995891  0.251573  1
  Zr  Zr6  1  0.995890  0.262372  0.251573  1
  Zr  Zr7  1  0.262473  0.262472  0.748365  1
  Zr  Zr8  1  0.735935  0.000172  0.748737  1
  Zr  Zr9  1  0.000172  0.735936  0.748737  1
  Cu  Cu10  1  0.000151  0.000152  0.999845  1
  Sn  Sn11  1  0.611442  0.999697  0.248924  1
  Sn  Sn12  1  0.999694  0.611441  0.248924  1
  Sn  Sn13  1  0.612505  0.612505  0.750798  1
  Sn  Sn14  1  0.388247  0.000691  0.750977  1
  Sn  Sn15  1  0.000690  0.388245  0.750975  1
  Ge  Ge16  1  0.000327  0.000328  0.500196  1
  Pb  Pb17  1  0.387286  0.387286  0.248862  1
