# generated using pymatgen
data_Na7Pr(P7Ir8)2
_symmetry_space_group_name_H-M   'P 1'
_cell_length_a   3.97335000
_cell_length_b   12.53663534
_cell_length_c   13.01690395
_cell_angle_alpha   81.73827342
_cell_angle_beta   90.00000000
_cell_angle_gamma   90.00000000
_symmetry_Int_Tables_number   1
_chemical_formula_structural   Na7Pr(P7Ir8)2
_chemical_formula_sum   'Na7 Pr1 P14 Ir16'
_cell_volume   641.67461188
_cell_formula_units_Z   1
loop_
 _symmetry_equiv_pos_site_id
 _symmetry_equiv_pos_as_xyz
  1  'x, y, z'
loop_
 _atom_site_type_symbol
 _atom_site_label
 _atom_site_symmetry_multiplicity
 _atom_site_fract_x
 _atom_site_fract_y
 _atom_site_fract_z
 _atom_site_occupancy
  Na  Na0  1  0.750000  0.784269  0.566642  1
  Na  Na1  1  0.250000  0.213871  0.435178  1
  Na  Na2  1  0.750000  0.485663  0.707796  1
  Na  Na3  1  0.250000  0.516552  0.291634  1
  Na  Na4  1  0.750000  0.715227  0.891316  1
  Na  Na5  1  0.250000  0.100101  0.796128  1
  Na  Na6  1  0.750000  0.898719  0.205085  1
  Pr  Pr7  1  0.250000  0.284991  0.106396  1
  P  P8  1  0.250000  0.908122  0.412732  1
  P  P9  1  0.750000  0.477482  0.127887  1
  P  P10  1  0.250000  0.527829  0.868124  1
  P  P11  1  0.750000  0.088388  0.589721  1
  P  P12  1  0.250000  0.743540  0.080266  1
  P  P13  1  0.750000  0.260270  0.916396  1
  P  P14  1  0.750000  0.154268  0.286211  1
  P  P15  1  0.250000  0.842911  0.716730  1
  P  P16  1  0.250000  0.056071  0.101241  1
  P  P17  1  0.750000  0.942009  0.902572  1
  P  P18  1  0.250000  0.301565  0.684877  1
  P  P19  1  0.750000  0.697002  0.313971  1
  P  P20  1  0.250000  0.608667  0.562965  1
  P  P21  1  0.750000  0.390422  0.438118  1
  Ir  Ir22  1  0.250000  0.983874  0.575992  1
  Ir  Ir23  1  0.750000  0.013330  0.427601  1
  Ir  Ir24  1  0.250000  0.662308  0.725006  1
  Ir  Ir25  1  0.750000  0.337470  0.269344  1
  Ir  Ir26  1  0.250000  0.558203  0.046348  1
  Ir  Ir27  1  0.750000  0.444768  0.951047  1
  Ir  Ir28  1  0.250000  0.060607  0.275728  1
  Ir  Ir29  1  0.750000  0.936262  0.728046  1
  Ir  Ir30  1  0.250000  0.422595  0.528363  1
  Ir  Ir31  1  0.750000  0.576591  0.471048  1
  Ir  Ir32  1  0.250000  0.918348  0.000234  1
  Ir  Ir33  1  0.750000  0.086699  0.001839  1
  Ir  Ir34  1  0.250000  0.727095  0.398913  1
  Ir  Ir35  1  0.750000  0.270378  0.601288  1
  Ir  Ir36  1  0.250000  0.338122  0.853530  1
  Ir  Ir37  1  0.750000  0.665410  0.143688  1
