# generated using pymatgen
data_La2Hg2P6N13
_symmetry_space_group_name_H-M   'P 1'
_cell_length_a   7.42937564
_cell_length_b   7.47740541
_cell_length_c   7.42937600
_cell_angle_alpha   109.25729174
_cell_angle_beta   109.64030078
_cell_angle_gamma   109.25729746
_symmetry_Int_Tables_number   1
_chemical_formula_structural   La2Hg2P6N13
_chemical_formula_sum   'La2 Hg2 P6 N13'
_cell_volume   318.71909161
_cell_formula_units_Z   1
loop_
 _symmetry_equiv_pos_site_id
 _symmetry_equiv_pos_as_xyz
  1  'x, y, z'
loop_
 _atom_site_type_symbol
 _atom_site_label
 _atom_site_symmetry_multiplicity
 _atom_site_fract_x
 _atom_site_fract_y
 _atom_site_fract_z
 _atom_site_occupancy
  La  La0  1  0.680951  0.000000  0.009266  1
  La  La1  1  0.009266  0.000000  0.680951  1
  Hg  Hg2  1  0.995519  0.710700  0.995519  1
  Hg  Hg3  1  0.284818  0.289300  0.284818  1
  P  P4  1  0.251420  0.748817  0.498474  1
  P  P5  1  0.749657  0.251183  0.502603  1
  P  P6  1  0.750851  0.500000  0.250851  1
  P  P7  1  0.250851  0.500000  0.750851  1
  P  P8  1  0.498474  0.748817  0.251420  1
  P  P9  1  0.502603  0.251183  0.749657  1
  N  N10  1  0.985115  0.000000  0.985115  1
  N  N11  1  0.715872  0.299843  0.300753  1
  N  N12  1  0.296282  0.719077  0.296282  1
  N  N13  1  0.312826  0.601591  0.602218  1
  N  N14  1  0.602218  0.601591  0.312826  1
  N  N15  1  0.416029  0.700157  0.000910  1
  N  N16  1  0.000910  0.700157  0.416029  1
  N  N17  1  0.577204  0.280923  0.577204  1
  N  N18  1  0.709235  0.000000  0.397287  1
  N  N19  1  0.397287  0.000000  0.709235  1
  N  N20  1  0.711235  0.398409  0.000627  1
  N  N21  1  0.300753  0.299843  0.715872  1
  N  N22  1  0.000627  0.398409  0.711235  1
