# generated using pymatgen
data_La20MnTc3Sb8
_symmetry_space_group_name_H-M   'P 1'
_cell_length_a   8.40141997
_cell_length_b   9.32480600
_cell_length_c   12.79987500
_cell_angle_alpha   90.00000000
_cell_angle_beta   89.48988786
_cell_angle_gamma   90.00000000
_symmetry_Int_Tables_number   1
_chemical_formula_structural   La20MnTc3Sb8
_chemical_formula_sum   'La20 Mn1 Tc3 Sb8'
_cell_volume   1002.72309043
_cell_formula_units_Z   1
loop_
 _symmetry_equiv_pos_site_id
 _symmetry_equiv_pos_as_xyz
  1  'x, y, z'
loop_
 _atom_site_type_symbol
 _atom_site_label
 _atom_site_symmetry_multiplicity
 _atom_site_fract_x
 _atom_site_fract_y
 _atom_site_fract_z
 _atom_site_occupancy
  La  La0  1  0.040089  0.750000  0.498131  1
  La  La1  1  0.962052  0.250000  0.502398  1
  La  La2  1  0.541380  0.250000  0.003274  1
  La  La3  1  0.462692  0.750000  0.997641  1
  La  La4  1  0.872107  0.750000  0.801716  1
  La  La5  1  0.125984  0.250000  0.197605  1
  La  La6  1  0.374586  0.250000  0.696346  1
  La  La7  1  0.629390  0.750000  0.300773  1
  La  La8  1  0.681829  0.528585  0.563155  1
  La  La9  1  0.319129  0.475834  0.437827  1
  La  La10  1  0.182450  0.472222  0.934478  1
  La  La11  1  0.319129  0.024166  0.437827  1
  La  La12  1  0.816807  0.528238  0.064202  1
  La  La13  1  0.681829  0.971415  0.563155  1
  La  La14  1  0.816807  0.971762  0.064202  1
  La  La15  1  0.182450  0.027778  0.934478  1
  La  La16  1  0.341811  0.750000  0.707474  1
  La  La17  1  0.652821  0.250000  0.296043  1
  La  La18  1  0.845339  0.250000  0.794332  1
  La  La19  1  0.150692  0.750000  0.201242  1
  Mn  Mn20  1  0.413843  0.750000  0.483316  1
  Tc  Tc21  1  0.090200  0.750000  0.979554  1
  Tc  Tc22  1  0.911276  0.250000  0.018622  1
  Tc  Tc23  1  0.587419  0.250000  0.520022  1
  Sb  Sb24  1  0.571082  0.505317  0.826121  1
  Sb  Sb25  1  0.427367  0.495070  0.175351  1
  Sb  Sb26  1  0.072056  0.494487  0.673166  1
  Sb  Sb27  1  0.427367  0.004930  0.175351  1
  Sb  Sb28  1  0.928439  0.505441  0.326456  1
  Sb  Sb29  1  0.571082  0.994683  0.826121  1
  Sb  Sb30  1  0.928439  0.994559  0.326456  1
  Sb  Sb31  1  0.072056  0.005513  0.673166  1
