# generated using pymatgen
data_PrU5(Co3P2)6
_symmetry_space_group_name_H-M   'P 1'
_cell_length_a   3.71916400
_cell_length_b   10.44016500
_cell_length_c   12.27935900
_cell_angle_alpha   90.00000000
_cell_angle_beta   90.00000000
_cell_angle_gamma   90.00000000
_symmetry_Int_Tables_number   1
_chemical_formula_structural   PrU5(Co3P2)6
_chemical_formula_sum   'Pr1 U5 Co18 P12'
_cell_volume   476.79137271
_cell_formula_units_Z   1
loop_
 _symmetry_equiv_pos_site_id
 _symmetry_equiv_pos_as_xyz
  1  'x, y, z'
loop_
 _atom_site_type_symbol
 _atom_site_label
 _atom_site_symmetry_multiplicity
 _atom_site_fract_x
 _atom_site_fract_y
 _atom_site_fract_z
 _atom_site_occupancy
  Pr  Pr0  1  0.500000  0.000000  0.478953  1
  U  U1  1  0.000000  0.500000  0.524544  1
  U  U2  1  0.500000  0.819995  0.205661  1
  U  U3  1  0.500000  0.180005  0.205661  1
  U  U4  1  0.000000  0.680261  0.793661  1
  U  U5  1  0.000000  0.319739  0.793661  1
  Co  Co6  1  0.500000  0.500000  0.161194  1
  Co  Co7  1  0.000000  0.000000  0.841885  1
  Co  Co8  1  0.500000  0.500000  0.701609  1
  Co  Co9  1  0.000000  0.000000  0.286945  1
  Co  Co10  1  0.000000  0.500000  0.986679  1
  Co  Co11  1  0.500000  0.000000  0.011953  1
  Co  Co12  1  0.500000  0.333360  0.996725  1
  Co  Co13  1  0.500000  0.666640  0.996725  1
  Co  Co14  1  0.000000  0.169459  0.003383  1
  Co  Co15  1  0.000000  0.830541  0.003383  1
  Co  Co16  1  0.500000  0.303145  0.429848  1
  Co  Co17  1  0.500000  0.696855  0.429848  1
  Co  Co18  1  0.000000  0.204458  0.571690  1
  Co  Co19  1  0.000000  0.795542  0.571690  1
  Co  Co20  1  0.500000  0.877156  0.713459  1
  Co  Co21  1  0.500000  0.122844  0.713459  1
  Co  Co22  1  0.000000  0.620492  0.289257  1
  Co  Co23  1  0.000000  0.379508  0.289257  1
  P  P24  1  0.500000  0.500000  0.885186  1
  P  P25  1  0.000000  0.000000  0.109455  1
  P  P26  1  0.500000  0.500000  0.344655  1
  P  P27  1  0.000000  0.000000  0.660958  1
  P  P28  1  0.500000  0.308570  0.613431  1
  P  P29  1  0.500000  0.691430  0.613431  1
  P  P30  1  0.000000  0.193536  0.384458  1
  P  P31  1  0.000000  0.806464  0.384458  1
  P  P32  1  0.500000  0.844589  0.893813  1
  P  P33  1  0.500000  0.155411  0.893813  1
  P  P34  1  0.000000  0.653416  0.107609  1
  P  P35  1  0.000000  0.346584  0.107609  1
