# generated using pymatgen
data_Nd6Tm2Sc11Si16W
_symmetry_space_group_name_H-M   'P 1'
_cell_length_a   7.17525836
_cell_length_b   7.40991091
_cell_length_c   14.02268153
_cell_angle_alpha   90.05919483
_cell_angle_beta   89.53472429
_cell_angle_gamma   89.89790700
_symmetry_Int_Tables_number   1
_chemical_formula_structural   Nd6Tm2Sc11Si16W
_chemical_formula_sum   'Nd6 Tm2 Sc11 Si16 W1'
_cell_volume   745.53210986
_cell_formula_units_Z   1
loop_
 _symmetry_equiv_pos_site_id
 _symmetry_equiv_pos_as_xyz
  1  'x, y, z'
loop_
 _atom_site_type_symbol
 _atom_site_label
 _atom_site_symmetry_multiplicity
 _atom_site_fract_x
 _atom_site_fract_y
 _atom_site_fract_z
 _atom_site_occupancy
  Nd  Nd0  1  0.011564  0.171372  0.099059  1
  Nd  Nd1  1  0.990059  0.827955  0.896613  1
  Nd  Nd2  1  0.487303  0.673689  0.898327  1
  Nd  Nd3  1  0.992480  0.829285  0.594255  1
  Nd  Nd4  1  0.513107  0.327466  0.096721  1
  Nd  Nd5  1  0.011235  0.174829  0.405443  1
  Tm  Tm6  1  0.504101  0.323754  0.410049  1
  Tm  Tm7  1  0.491853  0.676794  0.596725  1
  Sc  Sc8  1  0.165653  0.492975  0.742880  1
  Sc  Sc9  1  0.836235  0.498464  0.253796  1
  Sc  Sc10  1  0.336475  0.000439  0.254096  1
  Sc  Sc11  1  0.658720  0.004021  0.746167  1
  Sc  Sc12  1  0.660871  0.825249  0.379685  1
  Sc  Sc13  1  0.168389  0.672851  0.380912  1
  Sc  Sc14  1  0.668975  0.824725  0.126468  1
  Sc  Sc15  1  0.832890  0.327833  0.621403  1
  Sc  Sc16  1  0.332823  0.176541  0.873504  1
  Sc  Sc17  1  0.829997  0.323257  0.869704  1
  Sc  Sc18  1  0.170348  0.675585  0.126726  1
  Si  Si19  1  0.045311  0.126550  0.742233  1
  Si  Si20  1  0.962292  0.876263  0.253895  1
  Si  Si21  1  0.464168  0.621379  0.253530  1
  Si  Si22  1  0.531502  0.371712  0.743305  1
  Si  Si23  1  0.292214  0.887253  0.742973  1
  Si  Si24  1  0.706592  0.122088  0.253951  1
  Si  Si25  1  0.216504  0.379118  0.253827  1
  Si  Si26  1  0.783812  0.619007  0.743765  1
  Si  Si27  1  0.187832  0.450251  0.542954  1
  Si  Si28  1  0.829945  0.532513  0.458772  1
  Si  Si29  1  0.339859  0.968784  0.471713  1
  Si  Si30  1  0.849111  0.537749  0.038698  1
  Si  Si31  1  0.640961  0.037788  0.545495  1
  Si  Si32  1  0.148827  0.463925  0.958195  1
  Si  Si33  1  0.656373  0.037979  0.958264  1
  Si  Si34  1  0.346635  0.961512  0.038704  1
  W  W35  1  0.334981  0.179043  0.627193  1
