# generated using pymatgen
data_YHo19(Ir3Os)3
_symmetry_space_group_name_H-M   'P 1'
_cell_length_a   10.81587510
_cell_length_b   10.81777629
_cell_length_c   6.38877122
_cell_angle_alpha   89.97354483
_cell_angle_beta   90.01496507
_cell_angle_gamma   90.00340235
_symmetry_Int_Tables_number   1
_chemical_formula_structural   YHo19(Ir3Os)3
_chemical_formula_sum   'Y1 Ho19 Ir9 Os3'
_cell_volume   747.50987522
_cell_formula_units_Z   1
loop_
 _symmetry_equiv_pos_site_id
 _symmetry_equiv_pos_as_xyz
  1  'x, y, z'
loop_
 _atom_site_type_symbol
 _atom_site_label
 _atom_site_symmetry_multiplicity
 _atom_site_fract_x
 _atom_site_fract_y
 _atom_site_fract_z
 _atom_site_occupancy
  Y  Y0  1  0.087253  0.292273  0.120460  1
  Ho  Ho1  1  0.294254  0.086328  0.377743  1
  Ho  Ho2  1  0.294108  0.913694  0.877693  1
  Ho  Ho3  1  0.705865  0.086313  0.877694  1
  Ho  Ho4  1  0.705834  0.913519  0.377677  1
  Ho  Ho5  1  0.586280  0.794131  0.877682  1
  Ho  Ho6  1  0.586487  0.205855  0.377614  1
  Ho  Ho7  1  0.413558  0.794097  0.377698  1
  Ho  Ho8  1  0.413731  0.205870  0.877663  1
  Ho  Ho9  1  0.207686  0.413062  0.623733  1
  Ho  Ho10  1  0.207358  0.587232  0.120084  1
  Ho  Ho11  1  0.792594  0.412936  0.120065  1
  Ho  Ho12  1  0.792292  0.587026  0.623811  1
  Ho  Ho13  1  0.912902  0.707289  0.120066  1
  Ho  Ho14  1  0.912833  0.292407  0.623803  1
  Ho  Ho15  1  0.087105  0.707686  0.623804  1
  Ho  Ho16  1  0.999954  0.999997  0.499775  1
  Ho  Ho17  1  0.999940  0.999880  0.000002  1
  Ho  Ho18  1  0.500001  0.500011  0.999968  1
  Ho  Ho19  1  0.500034  0.500007  0.499802  1
  Ir  Ir20  1  0.847922  0.152843  0.250523  1
  Ir  Ir21  1  0.848056  0.847051  0.749883  1
  Ir  Ir22  1  0.152084  0.152625  0.749036  1
  Ir  Ir23  1  0.151756  0.846936  0.250385  1
  Ir  Ir24  1  0.652888  0.348053  0.749840  1
  Ir  Ir25  1  0.653014  0.651796  0.250375  1
  Ir  Ir26  1  0.347417  0.348269  0.250705  1
  Ir  Ir27  1  0.347118  0.651989  0.749871  1
  Ir  Ir28  1  0.999859  0.500395  0.377769  1
  Os  Os29  1  0.500021  0.000005  0.124769  1
  Os  Os30  1  0.499973  0.999986  0.624531  1
  Os  Os31  1  0.999824  0.500441  0.875476  1
