# generated using pymatgen
data_Nd3Co7P6RuRh
_symmetry_space_group_name_H-M   'P 1'
_cell_length_a   3.79498700
_cell_length_b   10.76116800
_cell_length_c   12.56599300
_cell_angle_alpha   90.00000000
_cell_angle_beta   90.00000000
_cell_angle_gamma   90.00000000
_symmetry_Int_Tables_number   1
_chemical_formula_structural   Nd3Co7P6RuRh
_chemical_formula_sum   'Nd6 Co14 P12 Ru2 Rh2'
_cell_volume   513.17621296
_cell_formula_units_Z   2
loop_
 _symmetry_equiv_pos_site_id
 _symmetry_equiv_pos_as_xyz
  1  'x, y, z'
loop_
 _atom_site_type_symbol
 _atom_site_label
 _atom_site_symmetry_multiplicity
 _atom_site_fract_x
 _atom_site_fract_y
 _atom_site_fract_z
 _atom_site_occupancy
  Nd  Nd0  1  0.000000  0.500000  0.519866  1
  Nd  Nd1  1  0.500000  0.000000  0.480134  1
  Nd  Nd2  1  0.500000  0.814060  0.205840  1
  Nd  Nd3  1  0.500000  0.185940  0.205840  1
  Nd  Nd4  1  0.000000  0.685940  0.794160  1
  Nd  Nd5  1  0.000000  0.314060  0.794160  1
  Co  Co6  1  0.000000  0.500000  0.989520  1
  Co  Co7  1  0.500000  0.000000  0.010480  1
  Co  Co8  1  0.500000  0.331602  0.993391  1
  Co  Co9  1  0.500000  0.668398  0.993391  1
  Co  Co10  1  0.000000  0.168398  0.006609  1
  Co  Co11  1  0.000000  0.831602  0.006609  1
  Co  Co12  1  0.500000  0.300647  0.428009  1
  Co  Co13  1  0.500000  0.699353  0.428009  1
  Co  Co14  1  0.000000  0.199353  0.571991  1
  Co  Co15  1  0.000000  0.800647  0.571991  1
  Co  Co16  1  0.500000  0.883277  0.711928  1
  Co  Co17  1  0.500000  0.116723  0.711928  1
  Co  Co18  1  0.000000  0.616723  0.288072  1
  Co  Co19  1  0.000000  0.383277  0.288072  1
  P  P20  1  0.500000  0.500000  0.893356  1
  P  P21  1  0.000000  0.000000  0.106644  1
  P  P22  1  0.500000  0.500000  0.343408  1
  P  P23  1  0.000000  0.000000  0.656592  1
  P  P24  1  0.500000  0.298476  0.611480  1
  P  P25  1  0.500000  0.701524  0.611480  1
  P  P26  1  0.000000  0.201524  0.388520  1
  P  P27  1  0.000000  0.798476  0.388520  1
  P  P28  1  0.500000  0.848137  0.895841  1
  P  P29  1  0.500000  0.151863  0.895841  1
  P  P30  1  0.000000  0.651863  0.104159  1
  P  P31  1  0.000000  0.348137  0.104159  1
  Ru  Ru32  1  0.500000  0.500000  0.156780  1
  Ru  Ru33  1  0.000000  0.000000  0.843220  1
  Rh  Rh34  1  0.500000  0.500000  0.704802  1
  Rh  Rh35  1  0.000000  0.000000  0.295198  1
