# generated using pymatgen
data_Li2FeSbRh4
_symmetry_space_group_name_H-M   'P 1'
_cell_length_a   6.06366800
_cell_length_b   6.06199301
_cell_length_c   6.05518400
_cell_angle_alpha   89.99990548
_cell_angle_beta   89.99986771
_cell_angle_gamma   90.00318520
_symmetry_Int_Tables_number   1
_chemical_formula_structural   Li2FeSbRh4
_chemical_formula_sum   'Li4 Fe2 Sb2 Rh8'
_cell_volume   222.57592649
_cell_formula_units_Z   2
loop_
 _symmetry_equiv_pos_site_id
 _symmetry_equiv_pos_as_xyz
  1  'x, y, z'
loop_
 _atom_site_type_symbol
 _atom_site_label
 _atom_site_symmetry_multiplicity
 _atom_site_fract_x
 _atom_site_fract_y
 _atom_site_fract_z
 _atom_site_occupancy
  Li  Li0  1  0.500014  0.750044  0.249940  1
  Li  Li1  1  0.999987  0.249953  0.249935  1
  Li  Li2  1  0.999984  0.750030  0.750060  1
  Li  Li3  1  0.500011  0.249970  0.750062  1
  Fe  Fe4  1  0.499961  0.250031  0.250014  1
  Fe  Fe5  1  0.000033  0.749971  0.250017  1
  Sb  Sb6  1  0.999996  0.250009  0.749994  1
  Sb  Sb7  1  0.500000  0.749992  0.749988  1
  Rh  Rh8  1  0.249953  0.999943  0.009661  1
  Rh  Rh9  1  0.750053  0.999940  0.009696  1
  Rh  Rh10  1  0.750051  0.500050  0.009708  1
  Rh  Rh11  1  0.249950  0.500046  0.009674  1
  Rh  Rh12  1  0.249948  0.500055  0.490335  1
  Rh  Rh13  1  0.249951  0.999956  0.490343  1
  Rh  Rh14  1  0.750050  0.500063  0.490292  1
  Rh  Rh15  1  0.750053  0.999946  0.490283  1
