# generated using pymatgen
data_BaMg2(H6Ir)2
_symmetry_space_group_name_H-M   'P 1'
_cell_length_a   4.83267400
_cell_length_b   4.83267584
_cell_length_c   8.30146100
_cell_angle_alpha   90.00000000
_cell_angle_beta   90.00000000
_cell_angle_gamma   120.00000109
_symmetry_Int_Tables_number   1
_chemical_formula_structural   BaMg2(H6Ir)2
_chemical_formula_sum   'Ba1 Mg2 H12 Ir2'
_cell_volume   167.90372209
_cell_formula_units_Z   1
loop_
 _symmetry_equiv_pos_site_id
 _symmetry_equiv_pos_as_xyz
  1  'x, y, z'
loop_
 _atom_site_type_symbol
 _atom_site_label
 _atom_site_symmetry_multiplicity
 _atom_site_fract_x
 _atom_site_fract_y
 _atom_site_fract_z
 _atom_site_occupancy
  Ba  Ba0  1  0.000000  0.000000  0.000000  1
  Mg  Mg1  1  0.666667  0.333333  0.376607  1
  Mg  Mg2  1  0.333333  0.666667  0.623393  1
  H  H3  1  0.165849  0.834151  0.390675  1
  H  H4  1  0.668303  0.834151  0.390675  1
  H  H5  1  0.165849  0.331697  0.390675  1
  H  H6  1  0.834151  0.165849  0.609325  1
  H  H7  1  0.331697  0.165849  0.609325  1
  H  H8  1  0.834151  0.668303  0.609325  1
  H  H9  1  0.503219  0.006438  0.834016  1
  H  H10  1  0.503219  0.496781  0.834016  1
  H  H11  1  0.993562  0.496781  0.834016  1
  H  H12  1  0.496781  0.993562  0.165984  1
  H  H13  1  0.496781  0.503219  0.165984  1
  H  H14  1  0.006438  0.503219  0.165984  1
  Ir  Ir15  1  0.666667  0.333333  0.716131  1
  Ir  Ir16  1  0.333333  0.666667  0.283869  1
