# generated using pymatgen
data_Hf4Al4Cr3Cu
_symmetry_space_group_name_H-M   'P 1'
_cell_length_a   5.09394395
_cell_length_b   5.09151710
_cell_length_c   8.47567400
_cell_angle_alpha   90.00000000
_cell_angle_beta   90.00000000
_cell_angle_gamma   60.96514468
_symmetry_Int_Tables_number   1
_chemical_formula_structural   Hf4Al4Cr3Cu
_chemical_formula_sum   'Hf4 Al4 Cr3 Cu1'
_cell_volume   192.19775826
_cell_formula_units_Z   1
loop_
 _symmetry_equiv_pos_site_id
 _symmetry_equiv_pos_as_xyz
  1  'x, y, z'
loop_
 _atom_site_type_symbol
 _atom_site_label
 _atom_site_symmetry_multiplicity
 _atom_site_fract_x
 _atom_site_fract_y
 _atom_site_fract_z
 _atom_site_occupancy
  Hf  Hf0  1  0.333865  0.333863  0.554390  1
  Hf  Hf1  1  0.665695  0.665694  0.426802  1
  Hf  Hf2  1  0.665695  0.665694  0.073198  1
  Hf  Hf3  1  0.333865  0.333863  0.945610  1
  Al  Al4  1  0.995674  0.995642  0.491493  1
  Al  Al5  1  0.995674  0.995642  0.008507  1
  Al  Al6  1  0.833366  0.347892  0.750000  1
  Al  Al7  1  0.347835  0.833348  0.750000  1
  Cr  Cr8  1  0.177064  0.640619  0.250000  1
  Cr  Cr9  1  0.640880  0.176903  0.250000  1
  Cr  Cr10  1  0.175271  0.175262  0.250000  1
  Cu  Cu11  1  0.835116  0.835579  0.750000  1
