# generated using pymatgen
data_CaLaNd5FeBr12
_symmetry_space_group_name_H-M   'P 1'
_cell_length_a   9.30372657
_cell_length_b   9.67768184
_cell_length_c   9.65810281
_cell_angle_alpha   107.45849851
_cell_angle_beta   106.53985749
_cell_angle_gamma   106.91638952
_symmetry_Int_Tables_number   1
_chemical_formula_structural   CaLaNd5FeBr12
_chemical_formula_sum   'Ca1 La1 Nd5 Fe1 Br12'
_cell_volume   724.73637317
_cell_formula_units_Z   1
loop_
 _symmetry_equiv_pos_site_id
 _symmetry_equiv_pos_as_xyz
  1  'x, y, z'
loop_
 _atom_site_type_symbol
 _atom_site_label
 _atom_site_symmetry_multiplicity
 _atom_site_fract_x
 _atom_site_fract_y
 _atom_site_fract_z
 _atom_site_occupancy
  Ca  Ca0  1  0.500423  0.499900  0.499543  1
  La  La1  1  0.716434  0.904730  0.976856  1
  Nd  Nd2  1  0.290973  0.098454  0.024216  1
  Nd  Nd3  1  0.022220  0.317486  0.109270  1
  Nd  Nd4  1  0.110343  0.026400  0.317226  1
  Nd  Nd5  1  0.889794  0.973523  0.683220  1
  Nd  Nd6  1  0.976630  0.682626  0.890488  1
  Fe  Fe7  1  0.983603  0.994506  0.999364  1
  Br  Br8  1  0.680335  0.222400  0.072179  1
  Br  Br9  1  0.377767  0.452472  0.166095  1
  Br  Br10  1  0.072949  0.685987  0.215630  1
  Br  Br11  1  0.783623  0.929833  0.320713  1
  Br  Br12  1  0.461767  0.168498  0.375160  1
  Br  Br13  1  0.159631  0.374827  0.456834  1
  Br  Br14  1  0.841849  0.625270  0.543260  1
  Br  Br15  1  0.536230  0.829004  0.615496  1
  Br  Br16  1  0.221878  0.072723  0.689295  1
  Br  Br17  1  0.929445  0.314567  0.784503  1
  Br  Br18  1  0.621866  0.539072  0.828724  1
  Br  Br19  1  0.322240  0.787724  0.931926  1
