# generated using pymatgen
data_Nd16Hg4PtRh3
_symmetry_space_group_name_H-M   'P 1'
_cell_length_a   9.93603835
_cell_length_b   9.95952007
_cell_length_c   9.95951900
_cell_angle_alpha   60.00000023
_cell_angle_beta   59.92179247
_cell_angle_gamma   59.92179029
_symmetry_Int_Tables_number   1
_chemical_formula_structural   Nd16Hg4PtRh3
_chemical_formula_sum   'Nd16 Hg4 Pt1 Rh3'
_cell_volume   696.08237194
_cell_formula_units_Z   1
loop_
 _symmetry_equiv_pos_site_id
 _symmetry_equiv_pos_as_xyz
  1  'x, y, z'
loop_
 _atom_site_type_symbol
 _atom_site_label
 _atom_site_symmetry_multiplicity
 _atom_site_fract_x
 _atom_site_fract_y
 _atom_site_fract_z
 _atom_site_occupancy
  Nd  Nd0  1  0.597626  0.602105  0.602105  1
  Nd  Nd1  1  0.597626  0.602105  0.198164  1
  Nd  Nd2  1  0.597626  0.198164  0.602105  1
  Nd  Nd3  1  0.202437  0.599188  0.599188  1
  Nd  Nd4  1  0.063618  0.439884  0.439884  1
  Nd  Nd5  1  0.440436  0.060296  0.060296  1
  Nd  Nd6  1  0.440436  0.060296  0.438972  1
  Nd  Nd7  1  0.063618  0.439884  0.056613  1
  Nd  Nd8  1  0.440436  0.438972  0.060296  1
  Nd  Nd9  1  0.063618  0.056613  0.439884  1
  Nd  Nd10  1  0.185419  0.813315  0.813315  1
  Nd  Nd11  1  0.811223  0.187907  0.187907  1
  Nd  Nd12  1  0.811223  0.187907  0.812962  1
  Nd  Nd13  1  0.185419  0.813315  0.187952  1
  Nd  Nd14  1  0.811223  0.812962  0.187907  1
  Nd  Nd15  1  0.185419  0.187952  0.813315  1
  Hg  Hg16  1  0.833818  0.832853  0.832853  1
  Hg  Hg17  1  0.833818  0.832853  0.500476  1
  Hg  Hg18  1  0.833818  0.500476  0.832853  1
  Hg  Hg19  1  0.499814  0.833396  0.833396  1
  Pt  Pt20  1  0.820154  0.393282  0.393282  1
  Rh  Rh21  1  0.393725  0.392292  0.392292  1
  Rh  Rh22  1  0.393725  0.392292  0.821689  1
  Rh  Rh23  1  0.393725  0.821689  0.392292  1
