# generated using pymatgen
data_SmLuCuAs3O
_symmetry_space_group_name_H-M   'P 1'
_cell_length_a   34.15801317
_cell_length_b   3.92158100
_cell_length_c   3.91619000
_cell_angle_alpha   90.00000000
_cell_angle_beta   89.99534958
_cell_angle_gamma   90.00000000
_symmetry_Int_Tables_number   1
_chemical_formula_structural   SmLuCuAs3O
_chemical_formula_sum   'Sm4 Lu4 Cu4 As12 O4'
_cell_volume   524.58702435
_cell_formula_units_Z   4
loop_
 _symmetry_equiv_pos_site_id
 _symmetry_equiv_pos_as_xyz
  1  'x, y, z'
loop_
 _atom_site_type_symbol
 _atom_site_label
 _atom_site_symmetry_multiplicity
 _atom_site_fract_x
 _atom_site_fract_y
 _atom_site_fract_z
 _atom_site_occupancy
  Sm  Sm0  1  0.327891  0.250002  0.805230  1
  Sm  Sm1  1  0.172099  0.750002  0.305249  1
  Sm  Sm2  1  0.827901  0.250002  0.694753  1
  Sm  Sm3  1  0.672109  0.750002  0.194769  1
  Lu  Lu4  1  0.469938  0.750002  0.250462  1
  Lu  Lu5  1  0.030076  0.250002  0.750414  1
  Lu  Lu6  1  0.969924  0.750002  0.249587  1
  Lu  Lu7  1  0.530062  0.250002  0.749537  1
  Cu  Cu8  1  0.249958  0.250002  0.308765  1
  Cu  Cu9  1  0.250060  0.750002  0.808902  1
  Cu  Cu10  1  0.749940  0.250002  0.191097  1
  Cu  Cu11  1  0.750043  0.750002  0.691236  1
  As  As12  1  0.398359  0.250002  0.312047  1
  As  As13  1  0.101654  0.750002  0.812121  1
  As  As14  1  0.898346  0.250002  0.187881  1
  As  As15  1  0.601641  0.750002  0.687952  1
  As  As16  1  0.398258  0.750002  0.773644  1
  As  As17  1  0.101752  0.250002  0.273495  1
  As  As18  1  0.898248  0.750002  0.726504  1
  As  As19  1  0.601742  0.250002  0.226355  1
  As  As20  1  0.204303  0.250002  0.806930  1
  As  As21  1  0.295740  0.750002  0.306895  1
  As  As22  1  0.704260  0.250002  0.693107  1
  As  As23  1  0.795697  0.750002  0.193071  1
  O  O24  1  0.500034  0.750002  0.751541  1
  O  O25  1  0.999968  0.250002  0.251567  1
  O  O26  1  0.000031  0.750002  0.748432  1
  O  O27  1  0.499966  0.250002  0.248458  1
