# generated using pymatgen
data_NaLi2ErB28
_symmetry_space_group_name_H-M   'P 1'
_cell_length_a   7.26788297
_cell_length_b   7.26788283
_cell_length_c   7.26788343
_cell_angle_alpha   132.15099632
_cell_angle_beta   111.07332028
_cell_angle_gamma   88.24366166
_symmetry_Int_Tables_number   1
_chemical_formula_structural   NaLi2ErB28
_chemical_formula_sum   'Na1 Li2 Er1 B28'
_cell_volume   252.97250359
_cell_formula_units_Z   1
loop_
 _symmetry_equiv_pos_site_id
 _symmetry_equiv_pos_as_xyz
  1  'x, y, z'
loop_
 _atom_site_type_symbol
 _atom_site_label
 _atom_site_symmetry_multiplicity
 _atom_site_fract_x
 _atom_site_fract_y
 _atom_site_fract_z
 _atom_site_occupancy
  Na  Na0  1  0.111250  0.750000  0.361250  1
  Li  Li1  1  0.492844  0.505903  0.498747  1
  Li  Li2  1  0.492844  0.994097  0.986941  1
  Er  Er3  1  0.883907  0.250000  0.633907  1
  B  B4  1  0.137038  0.165462  0.971577  1
  B  B5  1  0.864179  0.833740  0.030438  1
  B  B6  1  0.696700  0.666260  0.030438  1
  B  B7  1  0.306114  0.334538  0.971577  1
  B  B8  1  0.239496  0.611797  0.627700  1
  B  B9  1  0.721236  0.348918  0.372317  1
  B  B10  1  0.523399  0.151082  0.372317  1
  B  B11  1  0.515903  0.888203  0.627700  1
  B  B12  1  0.424306  0.590420  0.833885  1
  B  B13  1  0.587531  0.412685  0.174848  1
  B  B14  1  0.262164  0.087315  0.174848  1
  B  B15  1  0.743464  0.909580  0.833885  1
  B  B16  1  0.895105  0.899989  0.680699  1
  B  B17  1  0.102663  0.781062  0.002628  1
  B  B18  1  0.721565  0.399966  0.002628  1
  B  B19  1  0.280711  0.285594  0.680699  1
  B  B20  1  0.102663  0.100034  0.321600  1
  B  B21  1  0.895105  0.214406  0.995117  1
  B  B22  1  0.280711  0.600011  0.995117  1
  B  B23  1  0.721565  0.718938  0.321600  1
  B  B24  1  0.536009  0.331005  0.703839  1
  B  B25  1  0.466825  0.178620  0.801721  1
  B  B26  1  0.123101  0.834896  0.801721  1
  B  B27  1  0.872834  0.667831  0.703839  1
  B  B28  1  0.466825  0.665104  0.288205  1
  B  B29  1  0.536009  0.832169  0.205003  1
  B  B30  1  0.872834  0.168995  0.205003  1
  B  B31  1  0.123101  0.321380  0.288205  1
