# generated using pymatgen
data_SmBeCo4P3
_symmetry_space_group_name_H-M   'P 1'
_cell_length_a   5.96446762
_cell_length_b   5.96446748
_cell_length_c   11.12514400
_cell_angle_alpha   90.00000000
_cell_angle_beta   90.00000000
_cell_angle_gamma   145.07877006
_symmetry_Int_Tables_number   1
_chemical_formula_structural   SmBeCo4P3
_chemical_formula_sum   'Sm2 Be2 Co8 P6'
_cell_volume   226.56162665
_cell_formula_units_Z   2
loop_
 _symmetry_equiv_pos_site_id
 _symmetry_equiv_pos_as_xyz
  1  'x, y, z'
loop_
 _atom_site_type_symbol
 _atom_site_label
 _atom_site_symmetry_multiplicity
 _atom_site_fract_x
 _atom_site_fract_y
 _atom_site_fract_z
 _atom_site_occupancy
  Sm  Sm0  1  0.330158  0.669842  0.250000  1
  Sm  Sm1  1  0.669842  0.330158  0.750000  1
  Be  Be2  1  0.500000  0.500000  0.500000  1
  Be  Be3  1  0.500000  0.500000  0.000000  1
  Co  Co4  1  0.045626  0.954374  0.138505  1
  Co  Co5  1  0.045626  0.954374  0.361495  1
  Co  Co6  1  0.688483  0.311517  0.438159  1
  Co  Co7  1  0.311517  0.688483  0.561841  1
  Co  Co8  1  0.311517  0.688483  0.938159  1
  Co  Co9  1  0.688483  0.311517  0.061841  1
  Co  Co10  1  0.954374  0.045626  0.638505  1
  Co  Co11  1  0.954374  0.045626  0.861495  1
  P  P12  1  0.606331  0.393669  0.250000  1
  P  P13  1  0.393669  0.606331  0.750000  1
  P  P14  1  0.123220  0.876780  0.542970  1
  P  P15  1  0.876780  0.123220  0.457030  1
  P  P16  1  0.876780  0.123220  0.042970  1
  P  P17  1  0.123220  0.876780  0.957030  1
