# generated using pymatgen
data_Dy5Ti3(Co4P3)4
_symmetry_space_group_name_H-M   'P 1'
_cell_length_a   12.11882700
_cell_length_b   12.11882621
_cell_length_c   3.67366100
_cell_angle_alpha   90.00000000
_cell_angle_beta   90.00000000
_cell_angle_gamma   119.99999397
_symmetry_Int_Tables_number   1
_chemical_formula_structural   Dy5Ti3(Co4P3)4
_chemical_formula_sum   'Dy5 Ti3 Co16 P12'
_cell_volume   467.25168824
_cell_formula_units_Z   1
loop_
 _symmetry_equiv_pos_site_id
 _symmetry_equiv_pos_as_xyz
  1  'x, y, z'
loop_
 _atom_site_type_symbol
 _atom_site_label
 _atom_site_symmetry_multiplicity
 _atom_site_fract_x
 _atom_site_fract_y
 _atom_site_fract_z
 _atom_site_occupancy
  Dy  Dy0  1  0.666667  0.333333  0.000000  1
  Dy  Dy1  1  0.333333  0.666667  0.000000  1
  Dy  Dy2  1  0.184600  0.184600  0.500000  1
  Dy  Dy3  1  0.815400  0.000000  0.500000  1
  Dy  Dy4  1  0.000000  0.815400  0.500000  1
  Ti  Ti5  1  0.559927  0.559927  0.000000  1
  Ti  Ti6  1  0.440073  0.000000  0.000000  1
  Ti  Ti7  1  0.000000  0.440073  0.000000  1
  Co  Co8  1  0.822652  0.198440  0.000000  1
  Co  Co9  1  0.801560  0.624212  0.000000  1
  Co  Co10  1  0.375788  0.177348  0.000000  1
  Co  Co11  1  0.198440  0.822652  0.000000  1
  Co  Co12  1  0.624212  0.801560  0.000000  1
  Co  Co13  1  0.177348  0.375788  0.000000  1
  Co  Co14  1  0.644508  0.124876  0.500000  1
  Co  Co15  1  0.875124  0.519632  0.500000  1
  Co  Co16  1  0.480368  0.355492  0.500000  1
  Co  Co17  1  0.124876  0.644508  0.500000  1
  Co  Co18  1  0.519632  0.875124  0.500000  1
  Co  Co19  1  0.355492  0.480368  0.500000  1
  Co  Co20  1  0.718084  0.718084  0.500000  1
  Co  Co21  1  0.281916  0.000000  0.500000  1
  Co  Co22  1  0.000000  0.281916  0.500000  1
  Co  Co23  1  0.000000  0.000000  0.000000  1
  P  P24  1  0.358733  0.358733  0.000000  1
  P  P25  1  0.641267  0.000000  0.000000  1
  P  P26  1  0.000000  0.641267  0.000000  1
  P  P27  1  0.832777  0.312921  0.500000  1
  P  P28  1  0.687079  0.519857  0.500000  1
  P  P29  1  0.480143  0.167223  0.500000  1
  P  P30  1  0.312921  0.832777  0.500000  1
  P  P31  1  0.519857  0.687079  0.500000  1
  P  P32  1  0.167223  0.480143  0.500000  1
  P  P33  1  0.820381  0.820381  0.000000  1
  P  P34  1  0.179619  0.000000  0.000000  1
  P  P35  1  0.000000  0.179619  0.000000  1
