# generated using pymatgen
data_LiCe2Dy2Zn3Rh4
_symmetry_space_group_name_H-M   'P 1'
_cell_length_a   3.94333200
_cell_length_b   7.02858842
_cell_length_c   8.38945364
_cell_angle_alpha   91.37273300
_cell_angle_beta   90.00000000
_cell_angle_gamma   90.00000000
_symmetry_Int_Tables_number   1
_chemical_formula_structural   LiCe2Dy2Zn3Rh4
_chemical_formula_sum   'Li1 Ce2 Dy2 Zn3 Rh4'
_cell_volume   232.45584766
_cell_formula_units_Z   1
loop_
 _symmetry_equiv_pos_site_id
 _symmetry_equiv_pos_as_xyz
  1  'x, y, z'
loop_
 _atom_site_type_symbol
 _atom_site_label
 _atom_site_symmetry_multiplicity
 _atom_site_fract_x
 _atom_site_fract_y
 _atom_site_fract_z
 _atom_site_occupancy
  Li  Li0  1  0.250000  0.118542  0.944132  1
  Ce  Ce1  1  0.250000  0.542935  0.189133  1
  Ce  Ce2  1  0.750000  0.459111  0.807106  1
  Dy  Dy3  1  0.250000  0.046548  0.319241  1
  Dy  Dy4  1  0.750000  0.949704  0.681048  1
  Zn  Zn5  1  0.750000  0.879009  0.061372  1
  Zn  Zn6  1  0.250000  0.635133  0.557986  1
  Zn  Zn7  1  0.750000  0.366417  0.442566  1
  Rh  Rh8  1  0.750000  0.746661  0.363966  1
  Rh  Rh9  1  0.250000  0.253675  0.630882  1
  Rh  Rh10  1  0.750000  0.267965  0.128077  1
  Rh  Rh11  1  0.250000  0.734300  0.874491  1
