# generated using pymatgen
data_Tb3Zn2B4Ir9
_symmetry_space_group_name_H-M   'P 1'
_cell_length_a   5.54466813
_cell_length_b   5.54466270
_cell_length_c   10.13210100
_cell_angle_alpha   90.00009165
_cell_angle_beta   90.00001759
_cell_angle_gamma   119.99981254
_symmetry_Int_Tables_number   1
_chemical_formula_structural   Tb3Zn2B4Ir9
_chemical_formula_sum   'Tb3 Zn2 B4 Ir9'
_cell_volume   269.76254550
_cell_formula_units_Z   1
loop_
 _symmetry_equiv_pos_site_id
 _symmetry_equiv_pos_as_xyz
  1  'x, y, z'
loop_
 _atom_site_type_symbol
 _atom_site_label
 _atom_site_symmetry_multiplicity
 _atom_site_fract_x
 _atom_site_fract_y
 _atom_site_fract_z
 _atom_site_occupancy
  Tb  Tb0  1  0.999986  0.999999  0.999954  1
  Tb  Tb1  1  0.999995  0.999999  0.340528  1
  Tb  Tb2  1  0.000000  0.999999  0.659528  1
  Zn  Zn3  1  0.333331  0.666654  0.000004  1
  Zn  Zn4  1  0.666649  0.333345  0.000004  1
  B  B5  1  0.333342  0.666665  0.346856  1
  B  B6  1  0.666645  0.333336  0.346856  1
  B  B7  1  0.666677  0.333330  0.653146  1
  B  B8  1  0.333314  0.666671  0.653147  1
  Ir  Ir9  1  0.499999  0.000001  0.499989  1
  Ir  Ir10  1  0.499997  0.500000  0.499990  1
  Ir  Ir11  1  0.999996  0.500000  0.499988  1
  Ir  Ir12  1  0.499993  0.000000  0.208093  1
  Ir  Ir13  1  0.499994  0.500001  0.208086  1
  Ir  Ir14  1  0.999993  0.500000  0.208099  1
  Ir  Ir15  1  0.499998  0.000001  0.791913  1
  Ir  Ir16  1  0.499997  0.500001  0.791903  1
  Ir  Ir17  1  0.999996  0.499998  0.791917  1
