# generated using pymatgen
data_Cs4Pa2Si8O23
_symmetry_space_group_name_H-M   'P 1'
_cell_length_a   7.11563500
_cell_length_b   8.19966376
_cell_length_c   11.71399566
_cell_angle_alpha   103.63039757
_cell_angle_beta   90.18682086
_cell_angle_gamma   106.21000118
_symmetry_Int_Tables_number   1
_chemical_formula_structural   Cs4Pa2Si8O23
_chemical_formula_sum   'Cs4 Pa2 Si8 O23'
_cell_volume   636.05962773
_cell_formula_units_Z   1
loop_
 _symmetry_equiv_pos_site_id
 _symmetry_equiv_pos_as_xyz
  1  'x, y, z'
loop_
 _atom_site_type_symbol
 _atom_site_label
 _atom_site_symmetry_multiplicity
 _atom_site_fract_x
 _atom_site_fract_y
 _atom_site_fract_z
 _atom_site_occupancy
  Cs  Cs0  1  0.798944  0.223130  0.992092  1
  Cs  Cs1  1  0.172906  0.718015  0.364473  1
  Cs  Cs2  1  0.827094  0.281985  0.635527  1
  Cs  Cs3  1  0.201056  0.776870  0.007908  1
  Pa  Pa4  1  0.703446  0.748733  0.187593  1
  Pa  Pa5  1  0.296554  0.251267  0.812407  1
  Si  Si6  1  0.333671  0.323944  0.135726  1
  Si  Si7  1  0.568264  0.149393  0.288691  1
  Si  Si8  1  0.645152  0.696013  0.505932  1
  Si  Si9  1  0.987288  0.807547  0.701869  1
  Si  Si10  1  0.431736  0.850607  0.711309  1
  Si  Si11  1  0.012712  0.192453  0.298131  1
  Si  Si12  1  0.354848  0.303987  0.494068  1
  Si  Si13  1  0.666329  0.676056  0.864274  1
  O  O14  1  0.461054  0.164834  0.413612  1
  O  O15  1  0.516220  0.749255  0.794454  1
  O  O16  1  0.873679  0.599607  0.150729  1
  O  O17  1  0.294275  0.211594  0.999625  1
  O  O18  1  0.874796  0.703906  0.797598  1
  O  O19  1  0.469409  0.056547  0.775701  1
  O  O20  1  0.422221  0.533358  0.149016  1
  O  O21  1  0.678996  0.733512  0.378456  1
  O  O22  1  0.577779  0.466642  0.850984  1
  O  O23  1  0.141641  0.280440  0.426206  1
  O  O24  1  0.530591  0.943453  0.224299  1
  O  O25  1  0.705725  0.788406  0.000375  1
  O  O26  1  0.125204  0.296094  0.202402  1
  O  O27  1  0.194320  0.754177  0.680591  1
  O  O28  1  0.974070  0.983772  0.252481  1
  O  O29  1  0.858359  0.719560  0.573794  1
  O  O30  1  0.500000  0.500000  0.500000  1
  O  O31  1  0.483780  0.250745  0.205546  1
  O  O32  1  0.126321  0.400393  0.849271  1
  O  O33  1  0.025930  0.016228  0.747519  1
  O  O34  1  0.805680  0.245823  0.319409  1
  O  O35  1  0.321004  0.266488  0.621544  1
  O  O36  1  0.538946  0.835166  0.586388  1
