# generated using pymatgen
data_SrSmDyGa8Ag3
_symmetry_space_group_name_H-M   'P 1'
_cell_length_a   4.40506278
_cell_length_b   8.52241770
_cell_length_c   8.52241725
_cell_angle_alpha   68.75333817
_cell_angle_beta   75.02250420
_cell_angle_gamma   75.02250780
_symmetry_Int_Tables_number   1
_chemical_formula_structural   SrSmDyGa8Ag3
_chemical_formula_sum   'Sr1 Sm1 Dy1 Ga8 Ag3'
_cell_volume   283.20329470
_cell_formula_units_Z   1
loop_
 _symmetry_equiv_pos_site_id
 _symmetry_equiv_pos_as_xyz
  1  'x, y, z'
loop_
 _atom_site_type_symbol
 _atom_site_label
 _atom_site_symmetry_multiplicity
 _atom_site_fract_x
 _atom_site_fract_y
 _atom_site_fract_z
 _atom_site_occupancy
  Sr  Sr0  1  0.499622  0.500378  0.500378  1
  Sm  Sm1  1  0.800844  0.199156  0.199156  1
  Dy  Dy2  1  0.198601  0.801399  0.801399  1
  Ga  Ga3  1  0.646115  0.069802  0.637969  1
  Ga  Ga4  1  0.353896  0.927869  0.364338  1
  Ga  Ga5  1  0.646115  0.637969  0.069802  1
  Ga  Ga6  1  0.353896  0.364338  0.927869  1
  Ga  Ga7  1  0.836266  0.797285  0.530184  1
  Ga  Ga8  1  0.162877  0.202666  0.471580  1
  Ga  Ga9  1  0.836266  0.530184  0.797285  1
  Ga  Ga10  1  0.162877  0.471580  0.202666  1
  Ag  Ag11  1  0.501065  0.998935  0.998935  1
  Ag  Ag12  1  0.000780  0.806438  0.192002  1
  Ag  Ag13  1  0.000780  0.192002  0.806438  1
