# generated using pymatgen
data_Nd4IrPd3O14
_symmetry_space_group_name_H-M   'P 1'
_cell_length_a   7.41028383
_cell_length_b   7.41028334
_cell_length_c   7.43801881
_cell_angle_alpha   60.12326736
_cell_angle_beta   60.12327170
_cell_angle_gamma   60.00000246
_symmetry_Int_Tables_number   1
_chemical_formula_structural   Nd4IrPd3O14
_chemical_formula_sum   'Nd4 Ir1 Pd3 O14'
_cell_volume   289.34675546
_cell_formula_units_Z   1
loop_
 _symmetry_equiv_pos_site_id
 _symmetry_equiv_pos_as_xyz
  1  'x, y, z'
loop_
 _atom_site_type_symbol
 _atom_site_label
 _atom_site_symmetry_multiplicity
 _atom_site_fract_x
 _atom_site_fract_y
 _atom_site_fract_z
 _atom_site_occupancy
  Nd  Nd0  1  0.625000  0.125000  0.125000  1
  Nd  Nd1  1  0.125000  0.625000  0.125000  1
  Nd  Nd2  1  0.125000  0.125000  0.625000  1
  Nd  Nd3  1  0.125000  0.125000  0.125000  1
  Ir  Ir4  1  0.625000  0.625000  0.125000  1
  Pd  Pd5  1  0.125000  0.625000  0.625000  1
  Pd  Pd6  1  0.625000  0.125000  0.625000  1
  Pd  Pd7  1  0.625000  0.625000  0.625000  1
  O  O8  1  0.707501  0.707501  0.287637  1
  O  O9  1  0.288732  0.288732  0.713287  1
  O  O10  1  0.709248  0.288732  0.713287  1
  O  O11  1  0.297361  0.707501  0.287637  1
  O  O12  1  0.288732  0.709248  0.713287  1
  O  O13  1  0.707501  0.297361  0.287637  1
  O  O14  1  0.542499  0.542499  0.962363  1
  O  O15  1  0.961268  0.961268  0.536713  1
  O  O16  1  0.540752  0.961268  0.536713  1
  O  O17  1  0.952639  0.542499  0.962363  1
  O  O18  1  0.961268  0.540752  0.536713  1
  O  O19  1  0.542499  0.952639  0.962363  1
  O  O20  1  0.250331  0.250331  0.249008  1
  O  O21  1  0.999669  0.999669  0.000992  1
