# generated using pymatgen
data_Lu6Al24Os5Pt3
_symmetry_space_group_name_H-M   'P 1'
_cell_length_a   8.77094886
_cell_length_b   8.79508338
_cell_length_c   9.49565972
_cell_angle_alpha   90.17000200
_cell_angle_beta   89.64261021
_cell_angle_gamma   119.50785723
_symmetry_Int_Tables_number   1
_chemical_formula_structural   Lu6Al24Os5Pt3
_chemical_formula_sum   'Lu6 Al24 Os5 Pt3'
_cell_volume   637.47962112
_cell_formula_units_Z   1
loop_
 _symmetry_equiv_pos_site_id
 _symmetry_equiv_pos_as_xyz
  1  'x, y, z'
loop_
 _atom_site_type_symbol
 _atom_site_label
 _atom_site_symmetry_multiplicity
 _atom_site_fract_x
 _atom_site_fract_y
 _atom_site_fract_z
 _atom_site_occupancy
  Lu  Lu0  1  0.188740  0.387498  0.251945  1
  Lu  Lu1  1  0.811260  0.612502  0.748055  1
  Lu  Lu2  1  0.610040  0.813855  0.252564  1
  Lu  Lu3  1  0.389960  0.186145  0.747436  1
  Lu  Lu4  1  0.198650  0.807303  0.252322  1
  Lu  Lu5  1  0.801350  0.192697  0.747678  1
  Al  Al6  1  0.335256  0.670937  0.032359  1
  Al  Al7  1  0.664744  0.329063  0.967641  1
  Al  Al8  1  0.668909  0.331490  0.529125  1
  Al  Al9  1  0.331091  0.668510  0.470875  1
  Al  Al10  1  0.157874  0.324980  0.576774  1
  Al  Al11  1  0.842126  0.675020  0.423226  1
  Al  Al12  1  0.673649  0.840410  0.576868  1
  Al  Al13  1  0.837089  0.676497  0.079191  1
  Al  Al14  1  0.326351  0.159590  0.423132  1
  Al  Al15  1  0.162911  0.323503  0.920809  1
  Al  Al16  1  0.163332  0.834964  0.576870  1
  Al  Al17  1  0.325446  0.159230  0.077486  1
  Al  Al18  1  0.836668  0.165036  0.423130  1
  Al  Al19  1  0.674554  0.840770  0.922514  1
  Al  Al20  1  0.832015  0.159711  0.078083  1
  Al  Al21  1  0.167985  0.840289  0.921917  1
  Al  Al22  1  0.561286  0.125291  0.249748  1
  Al  Al23  1  0.438714  0.874709  0.750252  1
  Al  Al24  1  0.874523  0.438048  0.252438  1
  Al  Al25  1  0.125477  0.561952  0.747562  1
  Al  Al26  1  0.562082  0.437279  0.249634  1
  Al  Al27  1  0.437918  0.562721  0.750366  1
  Al  Al28  1  0.999664  0.003247  0.250214  1
  Al  Al29  1  0.000336  0.996753  0.749786  1
  Os  Os30  1  0.500000  0.000000  0.000000  1
  Os  Os31  1  0.500000  0.000000  0.500000  1
  Os  Os32  1  0.000000  0.500000  0.500000  1
  Os  Os33  1  0.000000  0.000000  0.000000  1
  Os  Os34  1  0.000000  0.000000  0.500000  1
  Pt  Pt35  1  0.000000  0.500000  0.000000  1
  Pt  Pt36  1  0.500000  0.500000  0.000000  1
  Pt  Pt37  1  0.500000  0.500000  0.500000  1
