# generated using pymatgen
data_Sc3TiIn2(Co5B2)2
_symmetry_space_group_name_H-M   'P 1'
_cell_length_a   8.83871016
_cell_length_b   8.83870940
_cell_length_c   3.00785300
_cell_angle_alpha   90.00000000
_cell_angle_beta   90.00000000
_cell_angle_gamma   90.75411754
_symmetry_Int_Tables_number   1
_chemical_formula_structural   Sc3TiIn2(Co5B2)2
_chemical_formula_sum   'Sc3 Ti1 In2 Co10 B4'
_cell_volume   234.96151689
_cell_formula_units_Z   1
loop_
 _symmetry_equiv_pos_site_id
 _symmetry_equiv_pos_as_xyz
  1  'x, y, z'
loop_
 _atom_site_type_symbol
 _atom_site_label
 _atom_site_symmetry_multiplicity
 _atom_site_fract_x
 _atom_site_fract_y
 _atom_site_fract_z
 _atom_site_occupancy
  Sc  Sc0  1  0.824410  0.324410  0.000000  1
  Sc  Sc1  1  0.322759  0.175480  0.000000  1
  Sc  Sc2  1  0.675480  0.822759  0.000000  1
  Ti  Ti3  1  0.175074  0.675074  0.000000  1
  In  In4  1  0.998785  0.004398  0.000000  1
  In  In5  1  0.504398  0.498785  0.000000  1
  Co  Co6  1  0.495350  0.995350  0.500000  1
  Co  Co7  1  0.006029  0.506029  0.500000  1
  Co  Co8  1  0.071049  0.236981  0.500000  1
  Co  Co9  1  0.223857  0.917840  0.500000  1
  Co  Co10  1  0.766218  0.069116  0.500000  1
  Co  Co11  1  0.941878  0.769566  0.500000  1
  Co  Co12  1  0.417840  0.723857  0.500000  1
  Co  Co13  1  0.569116  0.266218  0.500000  1
  Co  Co14  1  0.736981  0.571049  0.500000  1
  Co  Co15  1  0.269566  0.441878  0.500000  1
  B  B16  1  0.615349  0.115349  0.000000  1
  B  B17  1  0.121548  0.387750  0.000000  1
  B  B18  1  0.887750  0.621548  0.000000  1
  B  B19  1  0.376564  0.876564  0.000000  1
