# generated using pymatgen
data_Yb5Er11(ZrIr3)4
_symmetry_space_group_name_H-M   'P 1'
_cell_length_a   10.80048538
_cell_length_b   10.75111434
_cell_length_c   6.25684116
_cell_angle_alpha   90.06960300
_cell_angle_beta   90.00125467
_cell_angle_gamma   89.94220333
_symmetry_Int_Tables_number   1
_chemical_formula_structural   Yb5Er11(ZrIr3)4
_chemical_formula_sum   'Yb5 Er11 Zr4 Ir12'
_cell_volume   726.52630334
_cell_formula_units_Z   1
loop_
 _symmetry_equiv_pos_site_id
 _symmetry_equiv_pos_as_xyz
  1  'x, y, z'
loop_
 _atom_site_type_symbol
 _atom_site_label
 _atom_site_symmetry_multiplicity
 _atom_site_fract_x
 _atom_site_fract_y
 _atom_site_fract_z
 _atom_site_occupancy
  Yb  Yb0  1  0.288052  0.086065  0.370539  1
  Yb  Yb1  1  0.289470  0.913635  0.870773  1
  Yb  Yb2  1  0.712225  0.083499  0.870672  1
  Yb  Yb3  1  0.711745  0.915219  0.370546  1
  Yb  Yb4  1  0.586570  0.791166  0.868919  1
  Er  Er5  1  0.582734  0.206063  0.371915  1
  Er  Er6  1  0.415217  0.794926  0.372883  1
  Er  Er7  1  0.414318  0.206832  0.872668  1
  Er  Er8  1  0.211265  0.414470  0.628929  1
  Er  Er9  1  0.211732  0.586133  0.129315  1
  Er  Er10  1  0.787834  0.414125  0.129474  1
  Er  Er11  1  0.788511  0.584917  0.628443  1
  Er  Er12  1  0.914867  0.710830  0.131759  1
  Er  Er13  1  0.913628  0.288829  0.629743  1
  Er  Er14  1  0.086076  0.710989  0.629823  1
  Er  Er15  1  0.085650  0.289320  0.129923  1
  Zr  Zr16  1  0.000782  0.000167  0.497172  1
  Zr  Zr17  1  0.001046  0.999965  0.997823  1
  Zr  Zr18  1  0.499566  0.501254  0.996971  1
  Zr  Zr19  1  0.499826  0.499359  0.496543  1
  Ir  Ir20  1  0.861160  0.150935  0.252544  1
  Ir  Ir21  1  0.865545  0.848992  0.750162  1
  Ir  Ir22  1  0.139315  0.151481  0.753150  1
  Ir  Ir23  1  0.140026  0.848116  0.251996  1
  Ir  Ir24  1  0.644711  0.358032  0.747658  1
  Ir  Ir25  1  0.644849  0.641191  0.253584  1
  Ir  Ir26  1  0.355091  0.358139  0.245241  1
  Ir  Ir27  1  0.350572  0.639151  0.742154  1
  Ir  Ir28  1  0.499116  0.003292  0.121279  1
  Ir  Ir29  1  0.499311  0.003003  0.621666  1
  Ir  Ir30  1  0.999499  0.499998  0.883066  1
  Ir  Ir31  1  0.999690  0.499908  0.382668  1
