# generated using pymatgen
data_Rb8Li4HoLu3As8
_symmetry_space_group_name_H-M   'P 1'
_cell_length_a   10.54396991
_cell_length_b   10.54397132
_cell_length_c   6.78655639
_cell_angle_alpha   90.02977924
_cell_angle_beta   89.97021764
_cell_angle_gamma   99.97373407
_symmetry_Int_Tables_number   1
_chemical_formula_structural   Rb8Li4HoLu3As8
_chemical_formula_sum   'Rb8 Li4 Ho1 Lu3 As8'
_cell_volume   743.09485272
_cell_formula_units_Z   1
loop_
 _symmetry_equiv_pos_site_id
 _symmetry_equiv_pos_as_xyz
  1  'x, y, z'
loop_
 _atom_site_type_symbol
 _atom_site_label
 _atom_site_symmetry_multiplicity
 _atom_site_fract_x
 _atom_site_fract_y
 _atom_site_fract_z
 _atom_site_occupancy
  Rb  Rb0  1  0.568710  0.931388  0.750122  1
  Rb  Rb1  1  0.931388  0.568710  0.249878  1
  Rb  Rb2  1  0.431355  0.068355  0.249886  1
  Rb  Rb3  1  0.068355  0.431355  0.750114  1
  Rb  Rb4  1  0.677703  0.322581  0.785130  1
  Rb  Rb5  1  0.822564  0.177351  0.285028  1
  Rb  Rb6  1  0.322581  0.677703  0.214870  1
  Rb  Rb7  1  0.177351  0.822564  0.714972  1
  Li  Li8  1  0.618540  0.618540  0.000000  1
  Li  Li9  1  0.881614  0.881614  0.500000  1
  Li  Li10  1  0.381613  0.381613  0.000000  1
  Li  Li11  1  0.117943  0.117943  0.500000  1
  Ho  Ho12  1  0.367987  0.367987  0.500000  1
  Lu  Lu13  1  0.868497  0.868497  0.000000  1
  Lu  Lu14  1  0.632306  0.632306  0.500000  1
  Lu  Lu15  1  0.130993  0.130993  0.000000  1
  As  As16  1  0.341314  0.156004  0.753070  1
  As  As17  1  0.156004  0.341314  0.246930  1
  As  As18  1  0.658831  0.841339  0.250095  1
  As  As19  1  0.841339  0.658831  0.749905  1
  As  As20  1  0.910574  0.089171  0.768171  1
  As  As21  1  0.591776  0.411491  0.266146  1
  As  As22  1  0.089171  0.910574  0.231829  1
  As  As23  1  0.411491  0.591776  0.733854  1
