# generated using pymatgen
data_Fe12Mo11WN2
_symmetry_space_group_name_H-M   'P 1'
_cell_length_a   7.70742679
_cell_length_b   7.70619263
_cell_length_c   7.70816901
_cell_angle_alpha   59.98722229
_cell_angle_beta   59.99252394
_cell_angle_gamma   60.02653232
_symmetry_Int_Tables_number   1
_chemical_formula_structural   Fe12Mo11WN2
_chemical_formula_sum   'Fe12 Mo11 W1 N2'
_cell_volume   323.74717381
_cell_formula_units_Z   1
loop_
 _symmetry_equiv_pos_site_id
 _symmetry_equiv_pos_as_xyz
  1  'x, y, z'
loop_
 _atom_site_type_symbol
 _atom_site_label
 _atom_site_symmetry_multiplicity
 _atom_site_fract_x
 _atom_site_fract_y
 _atom_site_fract_z
 _atom_site_occupancy
  Fe  Fe0  1  0.920317  0.238893  0.920380  1
  Fe  Fe1  1  0.328827  0.011797  0.329703  1
  Fe  Fe2  1  0.329340  0.329532  0.329593  1
  Fe  Fe3  1  0.011862  0.328933  0.329616  1
  Fe  Fe4  1  0.920618  0.920435  0.238694  1
  Fe  Fe5  1  0.238839  0.920208  0.920460  1
  Fe  Fe6  1  0.329350  0.329546  0.011526  1
  Fe  Fe7  1  0.125067  0.125062  0.624999  1
  Fe  Fe8  1  0.920632  0.920446  0.920237  1
  Fe  Fe9  1  0.124868  0.625189  0.124971  1
  Fe  Fe10  1  0.125068  0.125067  0.124873  1
  Fe  Fe11  1  0.625194  0.124864  0.124971  1
  Mo  Mo12  1  0.303250  0.696301  0.696803  1
  Mo  Mo13  1  0.302954  0.302936  0.697050  1
  Mo  Mo14  1  0.552598  0.947115  0.552940  1
  Mo  Mo15  1  0.947162  0.552610  0.552824  1
  Mo  Mo16  1  0.552608  0.947120  0.947334  1
  Mo  Mo17  1  0.696303  0.303293  0.303716  1
  Mo  Mo18  1  0.947167  0.552619  0.947394  1
  Mo  Mo19  1  0.303246  0.696293  0.303658  1
  Mo  Mo20  1  0.553475  0.553605  0.946451  1
  Mo  Mo21  1  0.696310  0.303298  0.696688  1
  Mo  Mo22  1  0.696834  0.696705  0.303238  1
  W  W23  1  0.947017  0.947033  0.552979  1
  N  N24  1  0.751085  0.751079  0.748921  1
  N  N25  1  0.500008  0.500023  0.499981  1
