# generated using pymatgen
data_Dy3ZnIn3CuPt
_symmetry_space_group_name_H-M   'P 1'
_cell_length_a   7.66440600
_cell_length_b   7.66440624
_cell_length_c   3.87422600
_cell_angle_alpha   90.00000000
_cell_angle_beta   90.00000000
_cell_angle_gamma   120.00000760
_symmetry_Int_Tables_number   1
_chemical_formula_structural   Dy3ZnIn3CuPt
_chemical_formula_sum   'Dy3 Zn1 In3 Cu1 Pt1'
_cell_volume   197.09362069
_cell_formula_units_Z   1
loop_
 _symmetry_equiv_pos_site_id
 _symmetry_equiv_pos_as_xyz
  1  'x, y, z'
loop_
 _atom_site_type_symbol
 _atom_site_label
 _atom_site_symmetry_multiplicity
 _atom_site_fract_x
 _atom_site_fract_y
 _atom_site_fract_z
 _atom_site_occupancy
  Dy  Dy0  1  0.398750  0.984527  0.500000  1
  Dy  Dy1  1  0.015473  0.414223  0.500000  1
  Dy  Dy2  1  0.585777  0.601250  0.500000  1
  Zn  Zn3  1  0.666667  0.333333  0.000000  1
  In  In4  1  0.751695  0.006120  0.000000  1
  In  In5  1  0.993880  0.745575  0.000000  1
  In  In6  1  0.254425  0.248305  0.000000  1
  Cu  Cu7  1  0.000000  0.000000  0.500000  1
  Pt  Pt8  1  0.333333  0.666667  0.000000  1
