# generated using pymatgen
data_Na3Li2YPt6
_symmetry_space_group_name_H-M   'P 1'
_cell_length_a   5.44841500
_cell_length_b   5.44841456
_cell_length_c   8.35001900
_cell_angle_alpha   90.00000000
_cell_angle_beta   90.00000000
_cell_angle_gamma   120.00000876
_symmetry_Int_Tables_number   1
_chemical_formula_structural   Na3Li2YPt6
_chemical_formula_sum   'Na3 Li2 Y1 Pt6'
_cell_volume   214.66358674
_cell_formula_units_Z   1
loop_
 _symmetry_equiv_pos_site_id
 _symmetry_equiv_pos_as_xyz
  1  'x, y, z'
loop_
 _atom_site_type_symbol
 _atom_site_label
 _atom_site_symmetry_multiplicity
 _atom_site_fract_x
 _atom_site_fract_y
 _atom_site_fract_z
 _atom_site_occupancy
  Na  Na0  1  0.333333  0.666666  0.449503  1
  Na  Na1  1  0.666667  0.333333  0.571491  1
  Na  Na2  1  0.666667  0.333333  0.918860  1
  Li  Li3  1  0.000000  0.000000  0.997351  1
  Li  Li4  1  0.000000  0.000000  0.499529  1
  Y  Y5  1  0.333333  0.666666  0.065828  1
  Pt  Pt6  1  0.335888  0.167944  0.239065  1
  Pt  Pt7  1  0.832054  0.167944  0.239065  1
  Pt  Pt8  1  0.832057  0.664113  0.239065  1
  Pt  Pt9  1  0.167184  0.334367  0.760081  1
  Pt  Pt10  1  0.167183  0.832817  0.760081  1
  Pt  Pt11  1  0.665633  0.832817  0.760081  1
