# generated using pymatgen
data_LiU3P5
_symmetry_space_group_name_H-M   'P 1'
_cell_length_a   8.20182600
_cell_length_b   8.20182578
_cell_length_c   5.38119900
_cell_angle_alpha   90.00000000
_cell_angle_beta   90.00000000
_cell_angle_gamma   119.99999281
_symmetry_Int_Tables_number   1
_chemical_formula_structural   LiU3P5
_chemical_formula_sum   'Li2 U6 P10'
_cell_volume   313.49513649
_cell_formula_units_Z   2
loop_
 _symmetry_equiv_pos_site_id
 _symmetry_equiv_pos_as_xyz
  1  'x, y, z'
loop_
 _atom_site_type_symbol
 _atom_site_label
 _atom_site_symmetry_multiplicity
 _atom_site_fract_x
 _atom_site_fract_y
 _atom_site_fract_z
 _atom_site_occupancy
  Li  Li0  1  0.000000  0.000000  0.000000  1
  Li  Li1  1  0.000000  0.000000  0.500000  1
  U  U2  1  0.380237  0.380237  0.750000  1
  U  U3  1  0.619763  0.000000  0.750000  1
  U  U4  1  0.000000  0.619763  0.750000  1
  U  U5  1  0.619763  0.619763  0.250000  1
  U  U6  1  0.380237  0.000000  0.250000  1
  U  U7  1  0.000000  0.380237  0.250000  1
  P  P8  1  0.734422  0.734422  0.750000  1
  P  P9  1  0.265578  0.000000  0.750000  1
  P  P10  1  0.000000  0.265578  0.750000  1
  P  P11  1  0.265578  0.265578  0.250000  1
  P  P12  1  0.734422  0.000000  0.250000  1
  P  P13  1  0.000000  0.734422  0.250000  1
  P  P14  1  0.666667  0.333333  0.000000  1
  P  P15  1  0.333333  0.666667  0.000000  1
  P  P16  1  0.333333  0.666667  0.500000  1
  P  P17  1  0.666667  0.333333  0.500000  1
