# generated using pymatgen
data_NdHo5Co16(TcP6)2
_symmetry_space_group_name_H-M   'P 1'
_cell_length_a   3.72002300
_cell_length_b   10.54737700
_cell_length_c   12.24973500
_cell_angle_alpha   90.00000000
_cell_angle_beta   90.00000000
_cell_angle_gamma   90.00000000
_symmetry_Int_Tables_number   1
_chemical_formula_structural   NdHo5Co16(TcP6)2
_chemical_formula_sum   'Nd1 Ho5 Co16 Tc2 P12'
_cell_volume   480.63654394
_cell_formula_units_Z   1
loop_
 _symmetry_equiv_pos_site_id
 _symmetry_equiv_pos_as_xyz
  1  'x, y, z'
loop_
 _atom_site_type_symbol
 _atom_site_label
 _atom_site_symmetry_multiplicity
 _atom_site_fract_x
 _atom_site_fract_y
 _atom_site_fract_z
 _atom_site_occupancy
  Nd  Nd0  1  0.000000  0.500000  0.524485  1
  Ho  Ho1  1  0.500000  0.000000  0.476098  1
  Ho  Ho2  1  0.500000  0.817869  0.205697  1
  Ho  Ho3  1  0.500000  0.182131  0.205697  1
  Ho  Ho4  1  0.000000  0.682906  0.795129  1
  Ho  Ho5  1  0.000000  0.317094  0.795129  1
  Co  Co6  1  0.000000  0.500000  0.987192  1
  Co  Co7  1  0.500000  0.000000  0.013171  1
  Co  Co8  1  0.500000  0.293173  0.430191  1
  Co  Co9  1  0.500000  0.706827  0.430191  1
  Co  Co10  1  0.000000  0.200785  0.569539  1
  Co  Co11  1  0.000000  0.799215  0.569539  1
  Co  Co12  1  0.500000  0.879815  0.708835  1
  Co  Co13  1  0.500000  0.120185  0.708835  1
  Co  Co14  1  0.000000  0.621519  0.290341  1
  Co  Co15  1  0.000000  0.378481  0.290341  1
  Co  Co16  1  0.500000  0.331665  0.989842  1
  Co  Co17  1  0.500000  0.668335  0.989842  1
  Co  Co18  1  0.000000  0.167497  0.010100  1
  Co  Co19  1  0.000000  0.832503  0.010100  1
  Co  Co20  1  0.500000  0.500000  0.705438  1
  Co  Co21  1  0.000000  0.000000  0.296811  1
  Tc  Tc22  1  0.500000  0.500000  0.154659  1
  Tc  Tc23  1  0.000000  0.000000  0.843671  1
  P  P24  1  0.500000  0.307961  0.617773  1
  P  P25  1  0.500000  0.692039  0.617773  1
  P  P26  1  0.000000  0.187663  0.383609  1
  P  P27  1  0.000000  0.812337  0.383609  1
  P  P28  1  0.500000  0.500000  0.881849  1
  P  P29  1  0.000000  0.000000  0.119005  1
  P  P30  1  0.500000  0.846522  0.892949  1
  P  P31  1  0.500000  0.153478  0.892949  1
  P  P32  1  0.000000  0.654519  0.106683  1
  P  P33  1  0.000000  0.345481  0.106683  1
  P  P34  1  0.500000  0.500000  0.344768  1
  P  P35  1  0.000000  0.000000  0.651479  1
