# generated using pymatgen
data_Li4Eu3ErPt4
_symmetry_space_group_name_H-M   'P 1'
_cell_length_a   4.18589800
_cell_length_b   7.21201999
_cell_length_c   8.34982000
_cell_angle_alpha   90.47991602
_cell_angle_beta   90.00000000
_cell_angle_gamma   90.00000000
_symmetry_Int_Tables_number   1
_chemical_formula_structural   Li4Eu3ErPt4
_chemical_formula_sum   'Li4 Eu3 Er1 Pt4'
_cell_volume   252.06203708
_cell_formula_units_Z   1
loop_
 _symmetry_equiv_pos_site_id
 _symmetry_equiv_pos_as_xyz
  1  'x, y, z'
loop_
 _atom_site_type_symbol
 _atom_site_label
 _atom_site_symmetry_multiplicity
 _atom_site_fract_x
 _atom_site_fract_y
 _atom_site_fract_z
 _atom_site_occupancy
  Li  Li0  1  0.250000  0.633494  0.560584  1
  Li  Li1  1  0.250000  0.130521  0.938629  1
  Li  Li2  1  0.750000  0.372880  0.443169  1
  Li  Li3  1  0.750000  0.861464  0.060512  1
  Eu  Eu4  1  0.250000  0.038619  0.317147  1
  Eu  Eu5  1  0.250000  0.532155  0.182460  1
  Eu  Eu6  1  0.750000  0.966188  0.687210  1
  Er  Er7  1  0.750000  0.462039  0.818951  1
  Pt  Pt8  1  0.250000  0.276924  0.630122  1
  Pt  Pt9  1  0.250000  0.742461  0.877119  1
  Pt  Pt10  1  0.750000  0.742319  0.376633  1
  Pt  Pt11  1  0.750000  0.240938  0.107463  1
