# generated using pymatgen
data_Lu5InSnPb
_symmetry_space_group_name_H-M   'P 1'
_cell_length_a   6.48803104
_cell_length_b   8.80856241
_cell_length_c   8.81608700
_cell_angle_alpha   120.03104061
_cell_angle_beta   90.00064162
_cell_angle_gamma   90.00308261
_symmetry_Int_Tables_number   1
_chemical_formula_structural   Lu5InSnPb
_chemical_formula_sum   'Lu10 In2 Sn2 Pb2'
_cell_volume   436.20287817
_cell_formula_units_Z   2
loop_
 _symmetry_equiv_pos_site_id
 _symmetry_equiv_pos_as_xyz
  1  'x, y, z'
loop_
 _atom_site_type_symbol
 _atom_site_label
 _atom_site_symmetry_multiplicity
 _atom_site_fract_x
 _atom_site_fract_y
 _atom_site_fract_z
 _atom_site_occupancy
  Lu  Lu0  1  0.750060  0.239599  0.005314  1
  Lu  Lu1  1  0.750127  0.760582  0.765782  1
  Lu  Lu2  1  0.750084  0.000048  0.234202  1
  Lu  Lu3  1  0.250146  0.762907  0.997180  1
  Lu  Lu4  1  0.250079  0.236963  0.234231  1
  Lu  Lu5  1  0.250025  0.999926  0.765659  1
  Lu  Lu6  1  0.502420  0.338746  0.668343  1
  Lu  Lu7  1  0.502450  0.661269  0.329512  1
  Lu  Lu8  1  0.997485  0.661287  0.329683  1
  Lu  Lu9  1  0.997496  0.338772  0.668260  1
  In  In10  1  0.750087  0.602072  0.000833  1
  In  In11  1  0.749922  0.398097  0.398891  1
  Sn  Sn12  1  0.249793  0.396558  0.997620  1
  Sn  Sn13  1  0.250168  0.603336  0.600951  1
  Pb  Pb14  1  0.749844  0.000035  0.606792  1
  Pb  Pb15  1  0.249813  0.999803  0.396749  1
