# generated using pymatgen
data_Sr4CaAc(Sn4Bi)2
_symmetry_space_group_name_H-M   'P 1'
_cell_length_a   9.03875043
_cell_length_b   9.03875004
_cell_length_c   9.03875039
_cell_angle_alpha   120.19625055
_cell_angle_beta   120.19625756
_cell_angle_gamma   89.66042097
_symmetry_Int_Tables_number   1
_chemical_formula_structural   Sr4CaAc(Sn4Bi)2
_chemical_formula_sum   'Sr4 Ca1 Ac1 Sn8 Bi2'
_cell_volume   520.60900203
_cell_formula_units_Z   1
loop_
 _symmetry_equiv_pos_site_id
 _symmetry_equiv_pos_as_xyz
  1  'x, y, z'
loop_
 _atom_site_type_symbol
 _atom_site_label
 _atom_site_symmetry_multiplicity
 _atom_site_fract_x
 _atom_site_fract_y
 _atom_site_fract_z
 _atom_site_occupancy
  Sr  Sr0  1  0.161405  0.661405  0.822810  1
  Sr  Sr1  1  0.838595  0.338595  0.177190  1
  Sr  Sr2  1  0.661405  0.838595  0.500000  1
  Sr  Sr3  1  0.338595  0.161405  0.500000  1
  Ca  Ca4  1  0.750000  0.750000  0.000000  1
  Ac  Ac5  1  0.250000  0.250000  0.000000  1
  Sn  Sn6  1  0.829751  0.333717  0.786980  1
  Sn  Sn7  1  0.166283  0.670249  0.213020  1
  Sn  Sn8  1  0.546738  0.042772  0.213020  1
  Sn  Sn9  1  0.333717  0.546738  0.503966  1
  Sn  Sn10  1  0.953262  0.166283  0.496034  1
  Sn  Sn11  1  0.457228  0.953262  0.786980  1
  Sn  Sn12  1  0.670249  0.457228  0.503966  1
  Sn  Sn13  1  0.042772  0.829751  0.496034  1
  Bi  Bi14  1  0.992795  0.992795  0.000000  1
  Bi  Bi15  1  0.507205  0.507205  0.000000  1
