# generated using pymatgen
data_YEr3(Tm2Os)4
_symmetry_space_group_name_H-M   'P 1'
_cell_length_a   7.37353118
_cell_length_b   8.91101800
_cell_length_c   6.25224509
_cell_angle_alpha   90.00000000
_cell_angle_beta   89.82810558
_cell_angle_gamma   90.00000000
_symmetry_Int_Tables_number   1
_chemical_formula_structural   YEr3(Tm2Os)4
_chemical_formula_sum   'Y1 Er3 Tm8 Os4'
_cell_volume   410.80609821
_cell_formula_units_Z   1
loop_
 _symmetry_equiv_pos_site_id
 _symmetry_equiv_pos_as_xyz
  1  'x, y, z'
loop_
 _atom_site_type_symbol
 _atom_site_label
 _atom_site_symmetry_multiplicity
 _atom_site_fract_x
 _atom_site_fract_y
 _atom_site_fract_z
 _atom_site_occupancy
  Y  Y0  1  0.539104  0.250000  0.871671  1
  Er  Er1  1  0.040121  0.250000  0.629391  1
  Er  Er2  1  0.959888  0.750000  0.370271  1
  Er  Er3  1  0.459820  0.750000  0.129569  1
  Tm  Tm4  1  0.174022  0.062363  0.166953  1
  Tm  Tm5  1  0.826090  0.936945  0.833260  1
  Tm  Tm6  1  0.325072  0.936822  0.666206  1
  Tm  Tm7  1  0.826090  0.563055  0.833260  1
  Tm  Tm8  1  0.674743  0.062376  0.333991  1
  Tm  Tm9  1  0.174022  0.437637  0.166953  1
  Tm  Tm10  1  0.674743  0.437624  0.333991  1
  Tm  Tm11  1  0.325072  0.563178  0.666206  1
  Os  Os12  1  0.381725  0.250000  0.457219  1
  Os  Os13  1  0.617407  0.750000  0.539608  1
  Os  Os14  1  0.117279  0.750000  0.960344  1
  Os  Os15  1  0.884804  0.250000  0.041108  1
