# generated using pymatgen
data_Lu8ZrScIr6
_symmetry_space_group_name_H-M   'P 1'
_cell_length_a   10.59214800
_cell_length_b   10.59214800
_cell_length_c   6.08723100
_cell_angle_alpha   90.00000000
_cell_angle_beta   90.00000000
_cell_angle_gamma   90.00000000
_symmetry_Int_Tables_number   1
_chemical_formula_structural   Lu8ZrScIr6
_chemical_formula_sum   'Lu16 Zr2 Sc2 Ir12'
_cell_volume   682.94835538
_cell_formula_units_Z   2
loop_
 _symmetry_equiv_pos_site_id
 _symmetry_equiv_pos_as_xyz
  1  'x, y, z'
loop_
 _atom_site_type_symbol
 _atom_site_label
 _atom_site_symmetry_multiplicity
 _atom_site_fract_x
 _atom_site_fract_y
 _atom_site_fract_z
 _atom_site_occupancy
  Lu  Lu0  1  0.084897  0.288390  0.127643  1
  Lu  Lu1  1  0.788390  0.415103  0.127643  1
  Lu  Lu2  1  0.211610  0.584897  0.127643  1
  Lu  Lu3  1  0.915103  0.711610  0.127643  1
  Lu  Lu4  1  0.412492  0.790112  0.373911  1
  Lu  Lu5  1  0.587508  0.209888  0.373911  1
  Lu  Lu6  1  0.290112  0.087508  0.373911  1
  Lu  Lu7  1  0.709888  0.912492  0.373911  1
  Lu  Lu8  1  0.415103  0.211610  0.872357  1
  Lu  Lu9  1  0.711610  0.084897  0.872357  1
  Lu  Lu10  1  0.288390  0.915103  0.872357  1
  Lu  Lu11  1  0.584897  0.788390  0.872357  1
  Lu  Lu12  1  0.087508  0.709888  0.626089  1
  Lu  Lu13  1  0.912492  0.290112  0.626089  1
  Lu  Lu14  1  0.209888  0.412492  0.626089  1
  Lu  Lu15  1  0.790112  0.587508  0.626089  1
  Zr  Zr16  1  0.500000  0.500000  0.500000  1
  Zr  Zr17  1  0.000000  0.000000  0.500000  1
  Sc  Sc18  1  0.000000  0.000000  0.000000  1
  Sc  Sc19  1  0.500000  0.500000  0.000000  1
  Ir  Ir20  1  0.150527  0.850747  0.251491  1
  Ir  Ir21  1  0.350747  0.349473  0.251491  1
  Ir  Ir22  1  0.649253  0.650527  0.251491  1
  Ir  Ir23  1  0.849473  0.149253  0.251491  1
  Ir  Ir24  1  0.349473  0.649253  0.748509  1
  Ir  Ir25  1  0.149253  0.150527  0.748509  1
  Ir  Ir26  1  0.850747  0.849473  0.748509  1
  Ir  Ir27  1  0.650527  0.350747  0.748509  1
  Ir  Ir28  1  0.000000  0.500000  0.376263  1
  Ir  Ir29  1  0.500000  0.000000  0.121462  1
  Ir  Ir30  1  0.500000  0.000000  0.623737  1
  Ir  Ir31  1  0.000000  0.500000  0.878538  1
