# generated using pymatgen
data_YbY2Al3Si2Ir
_symmetry_space_group_name_H-M   'P 1'
_cell_length_a   6.92784200
_cell_length_b   6.92583970
_cell_length_c   4.25874700
_cell_angle_alpha   90.00000000
_cell_angle_beta   90.00000000
_cell_angle_gamma   120.00956399
_symmetry_Int_Tables_number   1
_chemical_formula_structural   YbY2Al3Si2Ir
_chemical_formula_sum   'Yb1 Y2 Al3 Si2 Ir1'
_cell_volume   176.94611020
_cell_formula_units_Z   1
loop_
 _symmetry_equiv_pos_site_id
 _symmetry_equiv_pos_as_xyz
  1  'x, y, z'
loop_
 _atom_site_type_symbol
 _atom_site_label
 _atom_site_symmetry_multiplicity
 _atom_site_fract_x
 _atom_site_fract_y
 _atom_site_fract_z
 _atom_site_occupancy
  Yb  Yb0  1  0.420046  0.000000  0.000000  1
  Y  Y1  1  0.000710  0.420237  0.000000  1
  Y  Y2  1  0.580473  0.579763  0.000000  1
  Al  Al3  1  0.768444  0.000000  0.500001  1
  Al  Al4  1  0.230860  0.231470  0.500001  1
  Al  Al5  1  0.999390  0.768531  0.500001  1
  Si  Si6  1  0.671767  0.338493  0.500001  1
  Si  Si7  1  0.333275  0.661506  0.500001  1
  Ir  Ir8  1  0.995036  0.000000  0.000000  1
