# generated using pymatgen
data_AlZn4Ga3(AsO5)4
_symmetry_space_group_name_H-M   'P 1'
_cell_length_a   10.82166095
_cell_length_b   5.64281100
_cell_length_c   7.51860623
_cell_angle_alpha   81.02722286
_cell_angle_beta   89.88388104
_cell_angle_gamma   90.03964900
_symmetry_Int_Tables_number   1
_chemical_formula_structural   AlZn4Ga3(AsO5)4
_chemical_formula_sum   'Al1 Zn4 Ga3 As4 O20'
_cell_volume   453.50095733
_cell_formula_units_Z   1
loop_
 _symmetry_equiv_pos_site_id
 _symmetry_equiv_pos_as_xyz
  1  'x, y, z'
loop_
 _atom_site_type_symbol
 _atom_site_label
 _atom_site_symmetry_multiplicity
 _atom_site_fract_x
 _atom_site_fract_y
 _atom_site_fract_z
 _atom_site_occupancy
  Al  Al0  1  0.822968  0.545364  0.144364  1
  Zn  Zn1  1  0.642497  0.610284  0.479446  1
  Zn  Zn2  1  0.858188  0.113070  0.481416  1
  Zn  Zn3  1  0.358909  0.390859  0.515796  1
  Zn  Zn4  1  0.140147  0.890363  0.518181  1
  Ga  Ga5  1  0.324844  0.956075  0.855990  1
  Ga  Ga6  1  0.678873  0.045236  0.143744  1
  Ga  Ga7  1  0.175029  0.455419  0.855965  1
  As  As8  1  0.397193  0.937227  0.275108  1
  As  As9  1  0.895445  0.563350  0.727714  1
  As  As10  1  0.101007  0.435768  0.275651  1
  As  As11  1  0.604369  0.063998  0.723586  1
  O  O12  1  0.806637  0.613115  0.906767  1
  O  O13  1  0.544700  0.328789  0.610953  1
  O  O14  1  0.787617  0.245351  0.236367  1
  O  O15  1  0.516255  0.127288  0.195957  1
  O  O16  1  0.288811  0.268450  0.759916  1
  O  O17  1  0.185759  0.575467  0.423915  1
  O  O18  1  0.456456  0.670834  0.386416  1
  O  O19  1  0.043469  0.168449  0.388591  1
  O  O20  1  0.809713  0.426620  0.578561  1
  O  O21  1  0.486447  0.870931  0.803461  1
  O  O22  1  0.698743  0.119768  0.895122  1
  O  O23  1  0.195941  0.381429  0.103825  1
  O  O24  1  0.312017  0.074437  0.424874  1
  O  O25  1  0.978606  0.614735  0.197267  1
  O  O26  1  0.302618  0.880876  0.103745  1
  O  O27  1  0.689438  0.925866  0.573805  1
  O  O28  1  0.211335  0.768088  0.760476  1
  O  O29  1  0.717713  0.732743  0.236064  1
  O  O30  1  0.953952  0.829935  0.615890  1
  O  O31  1  0.014304  0.369816  0.801065  1
