# generated using pymatgen
data_Zn10Ir3
_symmetry_space_group_name_H-M   'P 1'
_cell_length_a   7.92498544
_cell_length_b   7.92498508
_cell_length_c   7.82983880
_cell_angle_alpha   71.02054350
_cell_angle_beta   71.02054101
_cell_angle_gamma   109.54946473
_symmetry_Int_Tables_number   1
_chemical_formula_structural   Zn10Ir3
_chemical_formula_sum   'Zn20 Ir6'
_cell_volume   382.71541726
_cell_formula_units_Z   2
loop_
 _symmetry_equiv_pos_site_id
 _symmetry_equiv_pos_as_xyz
  1  'x, y, z'
loop_
 _atom_site_type_symbol
 _atom_site_label
 _atom_site_symmetry_multiplicity
 _atom_site_fract_x
 _atom_site_fract_y
 _atom_site_fract_z
 _atom_site_occupancy
  Zn  Zn0  1  0.998930  0.998930  0.798064  1
  Zn  Zn1  1  0.763963  0.763963  0.234780  1
  Zn  Zn2  1  0.217119  0.001972  0.996278  1
  Zn  Zn3  1  0.001972  0.217119  0.996278  1
  Zn  Zn4  1  0.249120  0.249120  0.410661  1
  Zn  Zn5  1  0.017841  0.742161  0.642341  1
  Zn  Zn6  1  0.742161  0.017841  0.642341  1
  Zn  Zn7  1  0.653261  0.653261  0.625971  1
  Zn  Zn8  1  0.362192  0.641267  0.346574  1
  Zn  Zn9  1  0.641267  0.362192  0.346574  1
  Zn  Zn10  1  0.359863  0.752950  0.968371  1
  Zn  Zn11  1  0.618620  0.260882  0.723548  1
  Zn  Zn12  1  0.359590  0.011907  0.277019  1
  Zn  Zn13  1  0.752950  0.359863  0.968371  1
  Zn  Zn14  1  0.011907  0.359590  0.277019  1
  Zn  Zn15  1  0.260882  0.618620  0.723548  1
  Zn  Zn16  1  0.645001  0.645001  0.993778  1
  Zn  Zn17  1  0.001528  0.647358  0.357706  1
  Zn  Zn18  1  0.647358  0.001528  0.357706  1
  Zn  Zn19  1  0.355172  0.355172  0.007274  1
  Ir  Ir20  1  0.996446  0.355967  0.638965  1
  Ir  Ir21  1  0.355967  0.996446  0.638965  1
  Ir  Ir22  1  0.999123  0.999123  0.337260  1
  Ir  Ir23  1  0.357633  0.357633  0.657933  1
  Ir  Ir24  1  0.645496  0.984636  0.016339  1
  Ir  Ir25  1  0.984636  0.645496  0.016339  1
