# generated using pymatgen
data_Ca2Nd18Si15Os
_symmetry_space_group_name_H-M   'P 1'
_cell_length_a   7.63045400
_cell_length_b   8.00443585
_cell_length_c   15.21163500
_cell_angle_alpha   90.00000000
_cell_angle_beta   90.00000000
_cell_angle_gamma   89.73727111
_symmetry_Int_Tables_number   1
_chemical_formula_structural   Ca2Nd18Si15Os
_chemical_formula_sum   'Ca2 Nd18 Si15 Os1'
_cell_volume   929.07855822
_cell_formula_units_Z   1
loop_
 _symmetry_equiv_pos_site_id
 _symmetry_equiv_pos_as_xyz
  1  'x, y, z'
loop_
 _atom_site_type_symbol
 _atom_site_label
 _atom_site_symmetry_multiplicity
 _atom_site_fract_x
 _atom_site_fract_y
 _atom_site_fract_z
 _atom_site_occupancy
  Ca  Ca0  1  0.139847  0.514850  0.750000  1
  Ca  Ca1  1  0.640361  0.988188  0.750000  1
  Nd  Nd2  1  0.812014  0.321215  0.621198  1
  Nd  Nd3  1  0.461922  0.688843  0.900036  1
  Nd  Nd4  1  0.961499  0.812498  0.901096  1
  Nd  Nd5  1  0.198395  0.676656  0.127259  1
  Nd  Nd6  1  0.681493  0.814457  0.124153  1
  Nd  Nd7  1  0.312390  0.180916  0.877456  1
  Nd  Nd8  1  0.198395  0.676656  0.372741  1
  Nd  Nd9  1  0.034223  0.186772  0.099001  1
  Nd  Nd10  1  0.312390  0.180916  0.622544  1
  Nd  Nd11  1  0.842821  0.487406  0.250000  1
  Nd  Nd12  1  0.362839  0.015294  0.250000  1
  Nd  Nd13  1  0.529038  0.319489  0.401008  1
  Nd  Nd14  1  0.812014  0.321215  0.878802  1
  Nd  Nd15  1  0.961499  0.812498  0.598904  1
  Nd  Nd16  1  0.461922  0.688843  0.599964  1
  Nd  Nd17  1  0.034223  0.186772  0.400999  1
  Nd  Nd18  1  0.681493  0.814457  0.375847  1
  Nd  Nd19  1  0.529038  0.319489  0.098992  1
  Si  Si20  1  0.247857  0.370162  0.250000  1
  Si  Si21  1  0.867495  0.526540  0.460271  1
  Si  Si22  1  0.519340  0.409436  0.750000  1
  Si  Si23  1  0.638628  0.027486  0.961270  1
  Si  Si24  1  0.017612  0.093203  0.750000  1
  Si  Si25  1  0.750678  0.620827  0.750000  1
  Si  Si26  1  0.754597  0.119217  0.250000  1
  Si  Si27  1  0.360137  0.974748  0.460989  1
  Si  Si28  1  0.984103  0.903152  0.250000  1
  Si  Si29  1  0.360137  0.974748  0.039011  1
  Si  Si30  1  0.638628  0.027486  0.538730  1
  Si  Si31  1  0.144515  0.473716  0.963206  1
  Si  Si32  1  0.144515  0.473716  0.536794  1
  Si  Si33  1  0.867495  0.526540  0.039729  1
  Si  Si34  1  0.248002  0.880294  0.750000  1
  Os  Os35  1  0.488446  0.591306  0.250000  1
