# generated using pymatgen
data_Ho2ErGa5Pd
_symmetry_space_group_name_H-M   'P 1'
_cell_length_a   6.92394200
_cell_length_b   6.92078240
_cell_length_c   4.30018200
_cell_angle_alpha   90.00000000
_cell_angle_beta   90.00000000
_cell_angle_gamma   120.01510329
_symmetry_Int_Tables_number   1
_chemical_formula_structural   Ho2ErGa5Pd
_chemical_formula_sum   'Ho2 Er1 Ga5 Pd1'
_cell_volume   178.42675161
_cell_formula_units_Z   1
loop_
 _symmetry_equiv_pos_site_id
 _symmetry_equiv_pos_as_xyz
  1  'x, y, z'
loop_
 _atom_site_type_symbol
 _atom_site_label
 _atom_site_symmetry_multiplicity
 _atom_site_fract_x
 _atom_site_fract_y
 _atom_site_fract_z
 _atom_site_occupancy
  Ho  Ho0  1  0.415208  0.415164  0.000000  1
  Ho  Ho1  1  0.000044  0.584836  0.000000  1
  Er  Er2  1  0.585074  0.000000  0.000000  1
  Ga  Ga3  1  0.242484  0.000000  0.500000  1
  Ga  Ga4  1  0.999902  0.242310  0.500000  1
  Ga  Ga5  1  0.666544  0.333015  0.500000  1
  Ga  Ga6  1  0.333530  0.666985  0.500000  1
  Ga  Ga7  1  0.757592  0.757691  0.500000  1
  Pd  Pd8  1  0.999622  0.000000  0.000000  1
