# generated using pymatgen
data_PmSmCu4
_symmetry_space_group_name_H-M   'P 1'
_cell_length_a   5.63298165
_cell_length_b   5.63298231
_cell_length_c   5.63298196
_cell_angle_alpha   135.25825489
_cell_angle_beta   98.71017072
_cell_angle_gamma   97.94814643
_symmetry_Int_Tables_number   1
_chemical_formula_structural   PmSmCu4
_chemical_formula_sum   'Pm1 Sm1 Cu4'
_cell_volume   116.34302084
_cell_formula_units_Z   1
loop_
 _symmetry_equiv_pos_site_id
 _symmetry_equiv_pos_as_xyz
  1  'x, y, z'
loop_
 _atom_site_type_symbol
 _atom_site_label
 _atom_site_symmetry_multiplicity
 _atom_site_fract_x
 _atom_site_fract_y
 _atom_site_fract_z
 _atom_site_occupancy
  Pm  Pm0  1  0.500000  0.500000  0.000000  1
  Sm  Sm1  1  0.000000  0.000000  0.000000  1
  Cu  Cu2  1  0.581588  0.248910  0.332679  1
  Cu  Cu3  1  0.083770  0.751091  0.332680  1
  Cu  Cu4  1  0.916231  0.248910  0.667322  1
  Cu  Cu5  1  0.418412  0.751091  0.667321  1
