# generated using pymatgen
data_Tm4VZn2Os5
_symmetry_space_group_name_H-M   'P 1'
_cell_length_a   5.39014775
_cell_length_b   5.21673488
_cell_length_c   8.81647000
_cell_angle_alpha   90.00000000
_cell_angle_beta   90.00000000
_cell_angle_gamma   120.81137290
_symmetry_Int_Tables_number   1
_chemical_formula_structural   Tm4VZn2Os5
_chemical_formula_sum   'Tm4 V1 Zn2 Os5'
_cell_volume   212.91960781
_cell_formula_units_Z   1
loop_
 _symmetry_equiv_pos_site_id
 _symmetry_equiv_pos_as_xyz
  1  'x, y, z'
loop_
 _atom_site_type_symbol
 _atom_site_label
 _atom_site_symmetry_multiplicity
 _atom_site_fract_x
 _atom_site_fract_y
 _atom_site_fract_z
 _atom_site_occupancy
  Tm  Tm0  1  0.677237  0.344093  0.566183  1
  Tm  Tm1  1  0.341602  0.669069  0.442817  1
  Tm  Tm2  1  0.341602  0.669069  0.057183  1
  Tm  Tm3  1  0.677237  0.344093  0.933817  1
  V  V4  1  0.163795  0.324586  0.750000  1
  Zn  Zn5  1  0.806929  0.648094  0.250000  1
  Zn  Zn6  1  0.810110  0.160243  0.250000  1
  Os  Os7  1  0.023032  0.018810  0.498022  1
  Os  Os8  1  0.023032  0.018810  0.001978  1
  Os  Os9  1  0.177318  0.829924  0.750000  1
  Os  Os10  1  0.648865  0.822968  0.750000  1
  Os  Os11  1  0.309242  0.150241  0.250000  1
