# generated using pymatgen
data_Dy2YHo(Si2Rh)2
_symmetry_space_group_name_H-M   'P 1'
_cell_length_a   5.69875376
_cell_length_b   5.69875334
_cell_length_c   10.08103156
_cell_angle_alpha   63.56863080
_cell_angle_beta   63.56862226
_cell_angle_gamma   43.30418466
_symmetry_Int_Tables_number   1
_chemical_formula_structural   Dy2YHo(Si2Rh)2
_chemical_formula_sum   'Dy2 Y1 Ho1 Si4 Rh2'
_cell_volume   197.12093742
_cell_formula_units_Z   1
loop_
 _symmetry_equiv_pos_site_id
 _symmetry_equiv_pos_as_xyz
  1  'x, y, z'
loop_
 _atom_site_type_symbol
 _atom_site_label
 _atom_site_symmetry_multiplicity
 _atom_site_fract_x
 _atom_site_fract_y
 _atom_site_fract_z
 _atom_site_occupancy
  Dy  Dy0  1  0.185097  0.185097  0.890490  1
  Dy  Dy1  1  0.998244  0.998244  0.675012  1
  Y  Y2  1  0.814735  0.814735  0.109365  1
  Ho  Ho3  1  0.001414  0.001414  0.325280  1
  Si  Si4  1  0.360194  0.360194  0.565098  1
  Si  Si5  1  0.488984  0.488984  0.879347  1
  Si  Si6  1  0.639873  0.639873  0.434677  1
  Si  Si7  1  0.511311  0.511311  0.120771  1
  Rh  Rh8  1  0.725695  0.725695  0.627131  1
  Rh  Rh9  1  0.274455  0.274455  0.372827  1
