# generated using pymatgen
data_Sm12Cr7Re12MoN48
_symmetry_space_group_name_H-M   'P 1'
_cell_length_a   11.09955221
_cell_length_b   11.09955300
_cell_length_c   11.07068900
_cell_angle_alpha   109.41854761
_cell_angle_beta   109.41854906
_cell_angle_gamma   109.52384056
_symmetry_Int_Tables_number   1
_chemical_formula_structural   Sm12Cr7Re12MoN48
_chemical_formula_sum   'Sm12 Cr7 Re12 Mo1 N48'
_cell_volume   1050.61987342
_cell_formula_units_Z   1
loop_
 _symmetry_equiv_pos_site_id
 _symmetry_equiv_pos_as_xyz
  1  'x, y, z'
loop_
 _atom_site_type_symbol
 _atom_site_label
 _atom_site_symmetry_multiplicity
 _atom_site_fract_x
 _atom_site_fract_y
 _atom_site_fract_z
 _atom_site_occupancy
  Sm  Sm0  1  0.373047  0.748432  0.125490  1
  Sm  Sm1  1  0.249902  0.375238  0.125627  1
  Sm  Sm2  1  0.375385  0.126953  0.252444  1
  Sm  Sm3  1  0.875238  0.625336  0.249611  1
  Sm  Sm4  1  0.751568  0.124615  0.377058  1
  Sm  Sm5  1  0.125336  0.250098  0.375725  1
  Sm  Sm6  1  0.874664  0.749902  0.624275  1
  Sm  Sm7  1  0.248432  0.875385  0.622942  1
  Sm  Sm8  1  0.124762  0.374664  0.750389  1
  Sm  Sm9  1  0.624615  0.873047  0.747556  1
  Sm  Sm10  1  0.626953  0.251568  0.874510  1
  Sm  Sm11  1  0.750098  0.624762  0.874373  1
  Cr  Cr12  1  0.000000  0.000000  0.000000  1
  Cr  Cr13  1  0.000000  0.500000  0.000000  1
  Cr  Cr14  1  0.500000  0.500000  0.000000  1
  Cr  Cr15  1  0.000000  0.000000  0.500000  1
  Cr  Cr16  1  0.500000  0.000000  0.500000  1
  Cr  Cr17  1  0.000000  0.500000  0.500000  1
  Cr  Cr18  1  0.500000  0.500000  0.500000  1
  Re  Re19  1  0.878557  0.252440  0.126283  1
  Re  Re20  1  0.752440  0.873883  0.126157  1
  Re  Re21  1  0.626117  0.378557  0.252274  1
  Re  Re22  1  0.125530  0.875180  0.250204  1
  Re  Re23  1  0.250350  0.625530  0.375326  1
  Re  Re24  1  0.624820  0.750350  0.375024  1
  Re  Re25  1  0.375180  0.249650  0.624976  1
  Re  Re26  1  0.749650  0.374470  0.624674  1
  Re  Re27  1  0.874470  0.124820  0.749796  1
  Re  Re28  1  0.373883  0.621443  0.747726  1
  Re  Re29  1  0.247560  0.126117  0.873843  1
  Re  Re30  1  0.121443  0.747560  0.873717  1
  Mo  Mo31  1  0.500000  0.000000  0.000000  1
  N  N32  1  0.198285  0.116082  0.014077  1
  N  N33  1  0.312741  0.896953  0.013780  1
  N  N34  1  0.885536  0.400381  0.083699  1
  N  N35  1  0.700053  0.682973  0.083048  1
  N  N36  1  0.616083  0.417797  0.102005  1
  N  N37  1  0.987147  0.684748  0.101897  1
  N  N38  1  0.017080  0.200053  0.117004  1
  N  N39  1  0.603048  0.915789  0.116827  1
  N  N40  1  0.198391  0.582511  0.183781  1
  N  N41  1  0.486209  0.602152  0.184131  1
  N  N42  1  0.584211  0.187259  0.201039  1
  N  N43  1  0.115942  0.013791  0.197921  1
  N  N44  1  0.485155  0.385536  0.301836  1
  N  N45  1  0.316395  0.918138  0.302261  1
  N  N46  1  0.900381  0.014845  0.316680  1
  N  N47  1  0.917797  0.301715  0.315792  1
  N  N48  1  0.302399  0.487147  0.385251  1
  N  N49  1  0.581862  0.898258  0.384124  1
  N  N50  1  0.817027  0.517080  0.400076  1
  N  N51  1  0.082511  0.884120  0.398731  1
  N  N52  1  0.102151  0.615943  0.418022  1
  N  N53  1  0.815252  0.802399  0.417149  1
  N  N54  1  0.601743  0.183605  0.485866  1
  N  N55  1  0.384120  0.301609  0.485389  1
  N  N56  1  0.615881  0.698391  0.514611  1
  N  N57  1  0.398258  0.816395  0.514134  1
  N  N58  1  0.184748  0.197601  0.582851  1
  N  N59  1  0.897849  0.384058  0.581978  1
  N  N60  1  0.917489  0.115880  0.601270  1
  N  N61  1  0.182973  0.482920  0.599925  1
  N  N62  1  0.418138  0.101742  0.615877  1
  N  N63  1  0.697601  0.512853  0.614750  1
  N  N64  1  0.099619  0.985155  0.683320  1
  N  N65  1  0.082203  0.698285  0.684208  1
  N  N66  1  0.683605  0.081862  0.697739  1
  N  N67  1  0.514845  0.614465  0.698164  1
  N  N68  1  0.415789  0.812741  0.798961  1
  N  N69  1  0.884058  0.986209  0.802079  1
  N  N70  1  0.513791  0.397849  0.815869  1
  N  N71  1  0.801609  0.417489  0.816219  1
  N  N72  1  0.982920  0.799947  0.882996  1
  N  N73  1  0.396953  0.084211  0.883173  1
  N  N74  1  0.012853  0.315252  0.898103  1
  N  N75  1  0.383918  0.582203  0.897995  1
  N  N76  1  0.299947  0.317027  0.916952  1
  N  N77  1  0.114464  0.599620  0.916301  1
  N  N78  1  0.687259  0.103047  0.986220  1
  N  N79  1  0.801715  0.883918  0.985923  1
