# generated using pymatgen
data_Pr4TlOs
_symmetry_space_group_name_H-M   'P 1'
_cell_length_a   10.06687210
_cell_length_b   10.06687328
_cell_length_c   10.06687200
_cell_angle_alpha   60.00000419
_cell_angle_beta   60.00000032
_cell_angle_gamma   60.00000219
_symmetry_Int_Tables_number   1
_chemical_formula_structural   Pr4TlOs
_chemical_formula_sum   'Pr16 Tl4 Os4'
_cell_volume   721.38768345
_cell_formula_units_Z   4
loop_
 _symmetry_equiv_pos_site_id
 _symmetry_equiv_pos_as_xyz
  1  'x, y, z'
loop_
 _atom_site_type_symbol
 _atom_site_label
 _atom_site_symmetry_multiplicity
 _atom_site_fract_x
 _atom_site_fract_y
 _atom_site_fract_z
 _atom_site_occupancy
  Pr  Pr0  1  0.346366  0.346366  0.346366  1
  Pr  Pr1  1  0.346366  0.346366  0.960903  1
  Pr  Pr2  1  0.346366  0.960903  0.346366  1
  Pr  Pr3  1  0.960903  0.346366  0.346366  1
  Pr  Pr4  1  0.807447  0.192553  0.192553  1
  Pr  Pr5  1  0.192553  0.807447  0.807447  1
  Pr  Pr6  1  0.192553  0.807447  0.192553  1
  Pr  Pr7  1  0.807447  0.192553  0.807447  1
  Pr  Pr8  1  0.192553  0.192553  0.807447  1
  Pr  Pr9  1  0.807447  0.807447  0.192553  1
  Pr  Pr10  1  0.943124  0.556876  0.556876  1
  Pr  Pr11  1  0.556876  0.943124  0.943124  1
  Pr  Pr12  1  0.556876  0.943124  0.556876  1
  Pr  Pr13  1  0.943124  0.556876  0.943124  1
  Pr  Pr14  1  0.556876  0.556876  0.943124  1
  Pr  Pr15  1  0.943124  0.943124  0.556876  1
  Tl  Tl16  1  0.583365  0.583365  0.583365  1
  Tl  Tl17  1  0.583365  0.583365  0.249903  1
  Tl  Tl18  1  0.583365  0.249903  0.583365  1
  Tl  Tl19  1  0.249903  0.583365  0.583365  1
  Os  Os20  1  0.137644  0.137644  0.137644  1
  Os  Os21  1  0.137644  0.137644  0.587065  1
  Os  Os22  1  0.137644  0.587065  0.137644  1
  Os  Os23  1  0.587065  0.137644  0.137644  1
