# generated using pymatgen
data_Yb6Al16Rh7
_symmetry_space_group_name_H-M   'P 1'
_cell_length_a   8.97493947
_cell_length_b   8.97493882
_cell_length_c   8.97494000
_cell_angle_alpha   60.00000304
_cell_angle_beta   60.00000541
_cell_angle_gamma   60.00000123
_symmetry_Int_Tables_number   1
_chemical_formula_structural   Yb6Al16Rh7
_chemical_formula_sum   'Yb6 Al16 Rh7'
_cell_volume   511.18677887
_cell_formula_units_Z   1
loop_
 _symmetry_equiv_pos_site_id
 _symmetry_equiv_pos_as_xyz
  1  'x, y, z'
loop_
 _atom_site_type_symbol
 _atom_site_label
 _atom_site_symmetry_multiplicity
 _atom_site_fract_x
 _atom_site_fract_y
 _atom_site_fract_z
 _atom_site_occupancy
  Yb  Yb0  1  0.706481  0.293519  0.293519  1
  Yb  Yb1  1  0.706481  0.293519  0.706481  1
  Yb  Yb2  1  0.706481  0.706481  0.293519  1
  Yb  Yb3  1  0.293519  0.706481  0.706481  1
  Yb  Yb4  1  0.293519  0.706481  0.293519  1
  Yb  Yb5  1  0.293519  0.293519  0.706481  1
  Al  Al6  1  0.643725  0.118758  0.118758  1
  Al  Al7  1  0.118758  0.643725  0.118758  1
  Al  Al8  1  0.118758  0.118758  0.643725  1
  Al  Al9  1  0.118758  0.118758  0.118758  1
  Al  Al10  1  0.356275  0.881242  0.881242  1
  Al  Al11  1  0.881242  0.356275  0.881242  1
  Al  Al12  1  0.881242  0.881242  0.356275  1
  Al  Al13  1  0.881242  0.881242  0.881242  1
  Al  Al14  1  0.022658  0.325781  0.325781  1
  Al  Al15  1  0.325781  0.022658  0.325781  1
  Al  Al16  1  0.325781  0.325781  0.022658  1
  Al  Al17  1  0.325781  0.325781  0.325781  1
  Al  Al18  1  0.977342  0.674219  0.674219  1
  Al  Al19  1  0.674219  0.977342  0.674219  1
  Al  Al20  1  0.674219  0.674219  0.977342  1
  Al  Al21  1  0.674219  0.674219  0.674219  1
  Rh  Rh22  1  0.000000  0.000000  0.000000  1
  Rh  Rh23  1  0.500000  0.000000  0.000000  1
  Rh  Rh24  1  0.500000  0.000000  0.500000  1
  Rh  Rh25  1  0.500000  0.500000  0.000000  1
  Rh  Rh26  1  0.000000  0.500000  0.500000  1
  Rh  Rh27  1  0.000000  0.500000  0.000000  1
  Rh  Rh28  1  0.000000  0.000000  0.500000  1
