# generated using pymatgen
data_Tm5Sc3Ru4
_symmetry_space_group_name_H-M   'P 1'
_cell_length_a   4.14505500
_cell_length_b   7.30664777
_cell_length_c   8.59026259
_cell_angle_alpha   89.24288750
_cell_angle_beta   90.00000000
_cell_angle_gamma   90.00000000
_symmetry_Int_Tables_number   1
_chemical_formula_structural   Tm5Sc3Ru4
_chemical_formula_sum   'Tm5 Sc3 Ru4'
_cell_volume   260.14590336
_cell_formula_units_Z   1
loop_
 _symmetry_equiv_pos_site_id
 _symmetry_equiv_pos_as_xyz
  1  'x, y, z'
loop_
 _atom_site_type_symbol
 _atom_site_label
 _atom_site_symmetry_multiplicity
 _atom_site_fract_x
 _atom_site_fract_y
 _atom_site_fract_z
 _atom_site_occupancy
  Tm  Tm0  1  0.250000  0.985870  0.329136  1
  Tm  Tm1  1  0.750000  0.024378  0.674254  1
  Tm  Tm2  1  0.250000  0.468488  0.164692  1
  Tm  Tm3  1  0.750000  0.529805  0.829475  1
  Tm  Tm4  1  0.750000  0.647757  0.435079  1
  Sc  Sc5  1  0.250000  0.351656  0.564108  1
  Sc  Sc6  1  0.750000  0.141689  0.057641  1
  Sc  Sc7  1  0.250000  0.856876  0.940509  1
  Ru  Ru8  1  0.250000  0.236984  0.877130  1
  Ru  Ru9  1  0.750000  0.764137  0.117301  1
  Ru  Ru10  1  0.250000  0.733312  0.633461  1
  Ru  Ru11  1  0.750000  0.259048  0.377213  1
