# generated using pymatgen
data_TcW5Cl18
_symmetry_space_group_name_H-M   'P 1'
_cell_length_a   9.32993779
_cell_length_b   9.32993898
_cell_length_c   9.33349359
_cell_angle_alpha   70.43241083
_cell_angle_beta   70.43245208
_cell_angle_gamma   70.53772117
_symmetry_Int_Tables_number   1
_chemical_formula_structural   TcW5Cl18
_chemical_formula_sum   'Tc1 W5 Cl18'
_cell_volume   698.61777750
_cell_formula_units_Z   1
loop_
 _symmetry_equiv_pos_site_id
 _symmetry_equiv_pos_as_xyz
  1  'x, y, z'
loop_
 _atom_site_type_symbol
 _atom_site_label
 _atom_site_symmetry_multiplicity
 _atom_site_fract_x
 _atom_site_fract_y
 _atom_site_fract_z
 _atom_site_occupancy
  Tc  Tc0  1  0.850131  0.850131  0.624781  1
  W  W1  1  0.385239  0.146115  0.146361  1
  W  W2  1  0.146115  0.385239  0.146361  1
  W  W3  1  0.143865  0.143865  0.388272  1
  W  W4  1  0.616116  0.855967  0.850975  1
  W  W5  1  0.855967  0.616116  0.850975  1
  Cl  Cl6  1  0.370594  0.921977  0.371751  1
  Cl  Cl7  1  0.371527  0.371527  0.920676  1
  Cl  Cl8  1  0.921977  0.370594  0.371750  1
  Cl  Cl9  1  0.625667  0.078527  0.627375  1
  Cl  Cl10  1  0.629216  0.629216  0.076632  1
  Cl  Cl11  1  0.078527  0.625667  0.627375  1
  Cl  Cl12  1  0.327582  0.007489  0.006576  1
  Cl  Cl13  1  0.007489  0.327582  0.006576  1
  Cl  Cl14  1  0.009176  0.009176  0.324656  1
  Cl  Cl15  1  0.675539  0.993341  0.990461  1
  Cl  Cl16  1  0.993341  0.675539  0.990461  1
  Cl  Cl17  1  0.992875  0.992875  0.675078  1
  Cl  Cl18  1  0.545011  0.226097  0.224090  1
  Cl  Cl19  1  0.226097  0.545011  0.224090  1
  Cl  Cl20  1  0.224102  0.224102  0.546746  1
  Cl  Cl21  1  0.455491  0.775680  0.773599  1
  Cl  Cl22  1  0.775680  0.455491  0.773599  1
  Cl  Cl23  1  0.772676  0.772676  0.460785  1
