# generated using pymatgen
data_Er8Ti7Re2Si16W3
_symmetry_space_group_name_H-M   'P 1'
_cell_length_a   6.91431696
_cell_length_b   6.91183192
_cell_length_c   12.76035598
_cell_angle_alpha   89.75519372
_cell_angle_beta   90.00080178
_cell_angle_gamma   89.87484475
_symmetry_Int_Tables_number   1
_chemical_formula_structural   Er8Ti7Re2Si16W3
_chemical_formula_sum   'Er8 Ti7 Re2 Si16 W3'
_cell_volume   609.81800447
_cell_formula_units_Z   1
loop_
 _symmetry_equiv_pos_site_id
 _symmetry_equiv_pos_as_xyz
  1  'x, y, z'
loop_
 _atom_site_type_symbol
 _atom_site_label
 _atom_site_symmetry_multiplicity
 _atom_site_fract_x
 _atom_site_fract_y
 _atom_site_fract_z
 _atom_site_occupancy
  Er  Er0  1  0.340999  0.999326  0.469165  1
  Er  Er1  1  0.498685  0.841394  0.719195  1
  Er  Er2  1  0.499954  0.158930  0.217797  1
  Er  Er3  1  0.840249  0.498972  0.282141  1
  Er  Er4  1  0.159311  0.498925  0.781819  1
  Er  Er5  1  0.658340  0.999388  0.968000  1
  Er  Er6  1  0.000509  0.340458  0.532355  1
  Er  Er7  1  0.998731  0.659571  0.029655  1
  Ti  Ti8  1  0.490294  0.654905  0.125165  1
  Ti  Ti9  1  0.504921  0.346054  0.626927  1
  Ti  Ti10  1  0.654252  0.491434  0.873373  1
  Ti  Ti11  1  0.345253  0.507518  0.374976  1
  Ti  Ti12  1  0.847647  0.994223  0.375232  1
  Ti  Ti13  1  0.005484  0.152707  0.126159  1
  Ti  Ti14  1  0.995370  0.847540  0.624917  1
  Re  Re15  1  0.671908  0.671433  0.499666  1
  Re  Re16  1  0.155660  0.999943  0.875222  1
  Si  Si17  1  0.201177  0.129751  0.684257  1
  Si  Si18  1  0.370794  0.704972  0.931841  1
  Si  Si19  1  0.629818  0.298909  0.433828  1
  Si  Si20  1  0.702636  0.368738  0.066371  1
  Si  Si21  1  0.300920  0.631334  0.567874  1
  Si  Si22  1  0.798530  0.868564  0.183160  1
  Si  Si23  1  0.131671  0.201172  0.316944  1
  Si  Si24  1  0.871555  0.801957  0.817476  1
  Si  Si25  1  0.292585  0.958198  0.063135  1
  Si  Si26  1  0.545629  0.792561  0.316189  1
  Si  Si27  1  0.450218  0.208019  0.816381  1
  Si  Si28  1  0.791933  0.548620  0.682838  1
  Si  Si29  1  0.206900  0.454374  0.184688  1
  Si  Si30  1  0.709096  0.044127  0.564996  1
  Si  Si31  1  0.958868  0.287184  0.934553  1
  Si  Si32  1  0.044008  0.707910  0.434961  1
  W  W33  1  0.327961  0.331179  0.000488  1
  W  W34  1  0.171154  0.828111  0.249169  1
  W  W35  1  0.826981  0.171600  0.749086  1
