# generated using pymatgen
data_K2Hf3VSe8
_symmetry_space_group_name_H-M   'P 1'
_cell_length_a   6.55817600
_cell_length_b   7.63356900
_cell_length_c   17.01676500
_cell_angle_alpha   90.00000000
_cell_angle_beta   90.00000000
_cell_angle_gamma   90.00000000
_symmetry_Int_Tables_number   1
_chemical_formula_structural   K2Hf3VSe8
_chemical_formula_sum   'K4 Hf6 V2 Se16'
_cell_volume   851.89820745
_cell_formula_units_Z   2
loop_
 _symmetry_equiv_pos_site_id
 _symmetry_equiv_pos_as_xyz
  1  'x, y, z'
loop_
 _atom_site_type_symbol
 _atom_site_label
 _atom_site_symmetry_multiplicity
 _atom_site_fract_x
 _atom_site_fract_y
 _atom_site_fract_z
 _atom_site_occupancy
  K  K0  1  0.351611  0.000000  0.000000  1
  K  K1  1  0.656501  0.500000  0.500000  1
  K  K2  1  0.022307  0.000000  0.500000  1
  K  K3  1  0.977213  0.500000  0.000000  1
  Hf  Hf4  1  0.998833  0.500000  0.251166  1
  Hf  Hf5  1  0.998833  0.500000  0.748834  1
  Hf  Hf6  1  0.499141  0.240696  0.249542  1
  Hf  Hf7  1  0.499141  0.759304  0.750458  1
  Hf  Hf8  1  0.499141  0.759304  0.249542  1
  Hf  Hf9  1  0.499141  0.240696  0.750458  1
  V  V10  1  0.001647  0.000000  0.249774  1
  V  V11  1  0.001647  0.000000  0.750226  1
  Se  Se12  1  0.834982  0.247072  0.341347  1
  Se  Se13  1  0.834982  0.752928  0.658653  1
  Se  Se14  1  0.163167  0.751900  0.158749  1
  Se  Se15  1  0.163167  0.248100  0.841251  1
  Se  Se16  1  0.163167  0.248100  0.158749  1
  Se  Se17  1  0.163167  0.751900  0.841251  1
  Se  Se18  1  0.834982  0.752928  0.341347  1
  Se  Se19  1  0.834982  0.247072  0.658653  1
  Se  Se20  1  0.673118  0.000000  0.158083  1
  Se  Se21  1  0.673118  0.000000  0.841917  1
  Se  Se22  1  0.333251  0.500000  0.340915  1
  Se  Se23  1  0.333251  0.500000  0.659085  1
  Se  Se24  1  0.330635  0.000000  0.341574  1
  Se  Se25  1  0.330635  0.000000  0.658426  1
  Se  Se26  1  0.664118  0.500000  0.159488  1
  Se  Se27  1  0.664118  0.500000  0.840512  1
