# generated using pymatgen
data_Dy12Co4PtPb
_symmetry_space_group_name_H-M   'P 1'
_cell_length_a   8.33372045
_cell_length_b   8.33372026
_cell_length_c   8.33372105
_cell_angle_alpha   106.91263652
_cell_angle_beta   110.45670859
_cell_angle_gamma   111.07484296
_symmetry_Int_Tables_number   1
_chemical_formula_structural   Dy12Co4PtPb
_chemical_formula_sum   'Dy12 Co4 Pt1 Pb1'
_cell_volume   444.87225737
_cell_formula_units_Z   1
loop_
 _symmetry_equiv_pos_site_id
 _symmetry_equiv_pos_as_xyz
  1  'x, y, z'
loop_
 _atom_site_type_symbol
 _atom_site_label
 _atom_site_symmetry_multiplicity
 _atom_site_fract_x
 _atom_site_fract_y
 _atom_site_fract_z
 _atom_site_occupancy
  Dy  Dy0  1  0.475008  0.290651  0.184357  1
  Dy  Dy1  1  0.106294  0.290651  0.815643  1
  Dy  Dy2  1  0.893706  0.709349  0.184357  1
  Dy  Dy3  1  0.524992  0.709349  0.815643  1
  Dy  Dy4  1  0.306402  0.620480  0.314077  1
  Dy  Dy5  1  0.306402  0.992326  0.685923  1
  Dy  Dy6  1  0.693598  0.379520  0.685923  1
  Dy  Dy7  1  0.693598  0.007674  0.314077  1
  Dy  Dy8  1  0.199764  0.213071  0.412834  1
  Dy  Dy9  1  0.800236  0.786929  0.587166  1
  Dy  Dy10  1  0.199764  0.786929  0.986692  1
  Dy  Dy11  1  0.800236  0.213071  0.013308  1
  Co  Co12  1  0.500000  0.611524  0.111524  1
  Co  Co13  1  0.500000  0.388476  0.888476  1
  Co  Co14  1  0.378524  0.000000  0.378524  1
  Co  Co15  1  0.621476  0.000000  0.621476  1
  Pt  Pt16  1  0.000000  0.000000  0.000000  1
  Pb  Pb17  1  0.000000  0.500000  0.500000  1
