# generated using pymatgen
data_TbEr3(CI)2
_symmetry_space_group_name_H-M   'P 1'
_cell_length_a   3.74396100
_cell_length_b   3.74395959
_cell_length_c   14.68363000
_cell_angle_alpha   90.00000000
_cell_angle_beta   90.00000000
_cell_angle_gamma   120.00000360
_symmetry_Int_Tables_number   1
_chemical_formula_structural   TbEr3(CI)2
_chemical_formula_sum   'Tb1 Er3 C2 I2'
_cell_volume   178.24876006
_cell_formula_units_Z   1
loop_
 _symmetry_equiv_pos_site_id
 _symmetry_equiv_pos_as_xyz
  1  'x, y, z'
loop_
 _atom_site_type_symbol
 _atom_site_label
 _atom_site_symmetry_multiplicity
 _atom_site_fract_x
 _atom_site_fract_y
 _atom_site_fract_z
 _atom_site_occupancy
  Tb  Tb0  1  0.333333  0.666667  0.914094  1
  Er  Er1  1  0.333333  0.666667  0.583918  1
  Er  Er2  1  0.666667  0.333333  0.415505  1
  Er  Er3  1  0.666667  0.333333  0.085553  1
  C  C4  1  0.000000  0.000000  0.003524  1
  C  C5  1  0.000000  0.000000  0.499372  1
  I  I6  1  0.333333  0.666667  0.250696  1
  I  I7  1  0.666667  0.333333  0.747336  1
