# generated using pymatgen
data_Nb12Al5Cu3N4
_symmetry_space_group_name_H-M   'P 1'
_cell_length_a   7.02835473
_cell_length_b   7.02835473
_cell_length_c   7.02835473
_cell_angle_alpha   90.07142263
_cell_angle_beta   90.07142263
_cell_angle_gamma   90.07142263
_symmetry_Int_Tables_number   1
_chemical_formula_structural   Nb12Al5Cu3N4
_chemical_formula_sum   'Nb12 Al5 Cu3 N4'
_cell_volume   347.18424230
_cell_formula_units_Z   1
loop_
 _symmetry_equiv_pos_site_id
 _symmetry_equiv_pos_as_xyz
  1  'x, y, z'
loop_
 _atom_site_type_symbol
 _atom_site_label
 _atom_site_symmetry_multiplicity
 _atom_site_fract_x
 _atom_site_fract_y
 _atom_site_fract_z
 _atom_site_occupancy
  Nb  Nb0  1  0.791786  0.956632  0.376976  1
  Nb  Nb1  1  0.707588  0.042433  0.872680  1
  Nb  Nb2  1  0.207247  0.456051  0.126637  1
  Nb  Nb3  1  0.292967  0.543573  0.625621  1
  Nb  Nb4  1  0.956632  0.376976  0.791786  1
  Nb  Nb5  1  0.042433  0.872680  0.707588  1
  Nb  Nb6  1  0.456051  0.126637  0.207247  1
  Nb  Nb7  1  0.543573  0.625621  0.292967  1
  Nb  Nb8  1  0.376976  0.791786  0.956632  1
  Nb  Nb9  1  0.872680  0.707588  0.042433  1
  Nb  Nb10  1  0.126637  0.207247  0.456051  1
  Nb  Nb11  1  0.625621  0.292967  0.543573  1
  Al  Al12  1  0.677650  0.677650  0.677650  1
  Al  Al13  1  0.570787  0.417525  0.934254  1
  Al  Al14  1  0.417525  0.934254  0.570787  1
  Al  Al15  1  0.934254  0.570787  0.417525  1
  Al  Al16  1  0.073814  0.073814  0.073814  1
  Cu  Cu17  1  0.179113  0.820875  0.319928  1
  Cu  Cu18  1  0.319928  0.179113  0.820875  1
  Cu  Cu19  1  0.820875  0.319928  0.179113  1
  N  N20  1  0.879518  0.125734  0.623977  1
  N  N21  1  0.623977  0.879518  0.125734  1
  N  N22  1  0.125734  0.623977  0.879518  1
  N  N23  1  0.376633  0.376633  0.376633  1
