# generated using pymatgen
data_Ba2Ca(AlSb2)2
_symmetry_space_group_name_H-M   'P 1'
_cell_length_a   9.30155386
_cell_length_b   9.30155371
_cell_length_c   7.37800155
_cell_angle_alpha   89.28101259
_cell_angle_beta   89.28100669
_cell_angle_gamma   76.92290827
_symmetry_Int_Tables_number   1
_chemical_formula_structural   Ba2Ca(AlSb2)2
_chemical_formula_sum   'Ba4 Ca2 Al4 Sb8'
_cell_volume   621.70245616
_cell_formula_units_Z   2
loop_
 _symmetry_equiv_pos_site_id
 _symmetry_equiv_pos_as_xyz
  1  'x, y, z'
loop_
 _atom_site_type_symbol
 _atom_site_label
 _atom_site_symmetry_multiplicity
 _atom_site_fract_x
 _atom_site_fract_y
 _atom_site_fract_z
 _atom_site_occupancy
  Ba  Ba0  1  0.001242  0.743620  0.545079  1
  Ba  Ba1  1  0.256380  0.998758  0.954921  1
  Ba  Ba2  1  0.998758  0.256380  0.454921  1
  Ba  Ba3  1  0.743620  0.001242  0.045079  1
  Ca  Ca4  1  0.400527  0.599473  0.250000  1
  Ca  Ca5  1  0.599473  0.400527  0.750000  1
  Al  Al6  1  0.827552  0.577631  0.077800  1
  Al  Al7  1  0.422369  0.172448  0.422200  1
  Al  Al8  1  0.172448  0.422369  0.922200  1
  Al  Al9  1  0.577631  0.827552  0.577800  1
  Sb  Sb10  1  0.065906  0.705191  0.041076  1
  Sb  Sb11  1  0.294809  0.934094  0.458924  1
  Sb  Sb12  1  0.934094  0.294809  0.958924  1
  Sb  Sb13  1  0.705191  0.065906  0.541076  1
  Sb  Sb14  1  0.721951  0.571103  0.421471  1
  Sb  Sb15  1  0.428897  0.278049  0.078529  1
  Sb  Sb16  1  0.278049  0.428897  0.578529  1
  Sb  Sb17  1  0.571103  0.721951  0.921471  1
