# generated using pymatgen
data_Ta4Cr6SiAs
_symmetry_space_group_name_H-M   'P 1'
_cell_length_a   4.88251700
_cell_length_b   4.88251746
_cell_length_c   8.12668100
_cell_angle_alpha   90.00000000
_cell_angle_beta   90.00000000
_cell_angle_gamma   120.00000365
_symmetry_Int_Tables_number   1
_chemical_formula_structural   Ta4Cr6SiAs
_chemical_formula_sum   'Ta4 Cr6 Si1 As1'
_cell_volume   167.77660320
_cell_formula_units_Z   1
loop_
 _symmetry_equiv_pos_site_id
 _symmetry_equiv_pos_as_xyz
  1  'x, y, z'
loop_
 _atom_site_type_symbol
 _atom_site_label
 _atom_site_symmetry_multiplicity
 _atom_site_fract_x
 _atom_site_fract_y
 _atom_site_fract_z
 _atom_site_occupancy
  Ta  Ta0  1  0.333333  0.666667  0.432996  1
  Ta  Ta1  1  0.666667  0.333333  0.567004  1
  Ta  Ta2  1  0.666667  0.333333  0.934874  1
  Ta  Ta3  1  0.333333  0.666667  0.065126  1
  Cr  Cr4  1  0.826253  0.173747  0.248223  1
  Cr  Cr5  1  0.826253  0.652507  0.248223  1
  Cr  Cr6  1  0.347493  0.173747  0.248223  1
  Cr  Cr7  1  0.173747  0.826253  0.751777  1
  Cr  Cr8  1  0.173747  0.347493  0.751777  1
  Cr  Cr9  1  0.652507  0.826253  0.751777  1
  Si  Si10  1  0.000000  0.000000  0.000000  1
  As  As11  1  0.000000  0.000000  0.500000  1
