# generated using pymatgen
data_Pr8CoAg2Os
_symmetry_space_group_name_H-M   'P 1'
_cell_length_a   9.88585163
_cell_length_b   9.88580964
_cell_length_c   9.83446200
_cell_angle_alpha   60.16992668
_cell_angle_beta   60.17051385
_cell_angle_gamma   60.55751423
_symmetry_Int_Tables_number   1
_chemical_formula_structural   Pr8CoAg2Os
_chemical_formula_sum   'Pr16 Co2 Ag4 Os2'
_cell_volume   684.19597446
_cell_formula_units_Z   2
loop_
 _symmetry_equiv_pos_site_id
 _symmetry_equiv_pos_as_xyz
  1  'x, y, z'
loop_
 _atom_site_type_symbol
 _atom_site_label
 _atom_site_symmetry_multiplicity
 _atom_site_fract_x
 _atom_site_fract_y
 _atom_site_fract_z
 _atom_site_occupancy
  Pr  Pr0  1  0.345553  0.345544  0.353780  1
  Pr  Pr1  1  0.345551  0.345572  0.955080  1
  Pr  Pr2  1  0.342562  0.958211  0.349626  1
  Pr  Pr3  1  0.958202  0.342559  0.349641  1
  Pr  Pr4  1  0.812408  0.192155  0.189875  1
  Pr  Pr5  1  0.192157  0.812447  0.805540  1
  Pr  Pr6  1  0.192171  0.812384  0.189872  1
  Pr  Pr7  1  0.812420  0.192182  0.805552  1
  Pr  Pr8  1  0.190276  0.190274  0.809689  1
  Pr  Pr9  1  0.809200  0.809190  0.190805  1
  Pr  Pr10  1  0.940869  0.562571  0.556942  1
  Pr  Pr11  1  0.562575  0.940850  0.939631  1
  Pr  Pr12  1  0.562574  0.940848  0.556948  1
  Pr  Pr13  1  0.940851  0.562578  0.939611  1
  Pr  Pr14  1  0.556442  0.556440  0.943538  1
  Pr  Pr15  1  0.937778  0.937784  0.562241  1
  Co  Co16  1  0.138475  0.138499  0.141136  1
  Co  Co17  1  0.138493  0.138485  0.581914  1
  Ag  Ag18  1  0.580612  0.580606  0.579020  1
  Ag  Ag19  1  0.580606  0.580604  0.259770  1
  Ag  Ag20  1  0.581539  0.259578  0.579438  1
  Ag  Ag21  1  0.259586  0.581543  0.579439  1
  Os  Os22  1  0.139210  0.579873  0.140458  1
  Os  Os23  1  0.579887  0.139218  0.140452  1
