# generated using pymatgen
data_Nd4In2Ag3Pt
_symmetry_space_group_name_H-M   'P 1'
_cell_length_a   8.18026149
_cell_length_b   8.18026132
_cell_length_c   3.85128900
_cell_angle_alpha   90.00000000
_cell_angle_beta   90.00000000
_cell_angle_gamma   90.24345082
_symmetry_Int_Tables_number   1
_chemical_formula_structural   Nd4In2Ag3Pt
_chemical_formula_sum   'Nd4 In2 Ag3 Pt1'
_cell_volume   257.71313415
_cell_formula_units_Z   1
loop_
 _symmetry_equiv_pos_site_id
 _symmetry_equiv_pos_as_xyz
  1  'x, y, z'
loop_
 _atom_site_type_symbol
 _atom_site_label
 _atom_site_symmetry_multiplicity
 _atom_site_fract_x
 _atom_site_fract_y
 _atom_site_fract_z
 _atom_site_occupancy
  Nd  Nd0  1  0.682240  0.155312  0.500000  1
  Nd  Nd1  1  0.344688  0.817760  0.500000  1
  Nd  Nd2  1  0.811078  0.688922  0.500000  1
  Nd  Nd3  1  0.172180  0.327820  0.500000  1
  In  In4  1  0.499962  0.493981  0.000000  1
  In  In5  1  0.006019  0.000038  0.000000  1
  Ag  Ag6  1  0.373819  0.126181  0.000000  1
  Ag  Ag7  1  0.118376  0.629922  0.000000  1
  Ag  Ag8  1  0.870078  0.381624  0.000000  1
  Pt  Pt9  1  0.621561  0.878439  0.000000  1
