# generated using pymatgen
data_Ta4Fe2PdSe12
_symmetry_space_group_name_H-M   'P 1'
_cell_length_a   7.48567063
_cell_length_b   7.48566984
_cell_length_c   19.52202989
_cell_angle_alpha   69.45321006
_cell_angle_beta   69.45321195
_cell_angle_gamma   26.15111613
_symmetry_Int_Tables_number   1
_chemical_formula_structural   Ta4Fe2PdSe12
_chemical_formula_sum   'Ta4 Fe2 Pd1 Se12'
_cell_volume   449.75081424
_cell_formula_units_Z   1
loop_
 _symmetry_equiv_pos_site_id
 _symmetry_equiv_pos_as_xyz
  1  'x, y, z'
loop_
 _atom_site_type_symbol
 _atom_site_label
 _atom_site_symmetry_multiplicity
 _atom_site_fract_x
 _atom_site_fract_y
 _atom_site_fract_z
 _atom_site_occupancy
  Ta  Ta0  1  0.622237  0.622237  0.847823  1
  Ta  Ta1  1  0.377763  0.377763  0.152177  1
  Ta  Ta2  1  0.745859  0.745859  0.590993  1
  Ta  Ta3  1  0.254141  0.254141  0.409007  1
  Fe  Fe4  1  0.227872  0.227872  0.714569  1
  Fe  Fe5  1  0.772128  0.772128  0.285431  1
  Pd  Pd6  1  0.000000  0.000000  0.000000  1
  Se  Se7  1  0.975486  0.975486  0.881103  1
  Se  Se8  1  0.024514  0.024514  0.118897  1
  Se  Se9  1  0.629138  0.629138  0.396236  1
  Se  Se10  1  0.370862  0.370862  0.603764  1
  Se  Se11  1  0.136961  0.136961  0.550521  1
  Se  Se12  1  0.863039  0.863039  0.449479  1
  Se  Se13  1  0.802882  0.802882  0.765874  1
  Se  Se14  1  0.197118  0.197118  0.234126  1
  Se  Se15  1  0.178569  0.178569  0.926912  1
  Se  Se16  1  0.821431  0.821431  0.073088  1
  Se  Se17  1  0.606220  0.606220  0.718127  1
  Se  Se18  1  0.393780  0.393780  0.281873  1
