# generated using pymatgen
data_DyTh5NiBr15
_symmetry_space_group_name_H-M   'P 1'
_cell_length_a   10.14334550
_cell_length_b   10.14334564
_cell_length_c   10.14334534
_cell_angle_alpha   109.76503199
_cell_angle_beta   109.32451295
_cell_angle_gamma   109.32451729
_symmetry_Int_Tables_number   1
_chemical_formula_structural   DyTh5NiBr15
_chemical_formula_sum   'Dy1 Th5 Ni1 Br15'
_cell_volume   803.36552854
_cell_formula_units_Z   1
loop_
 _symmetry_equiv_pos_site_id
 _symmetry_equiv_pos_as_xyz
  1  'x, y, z'
loop_
 _atom_site_type_symbol
 _atom_site_label
 _atom_site_symmetry_multiplicity
 _atom_site_fract_x
 _atom_site_fract_y
 _atom_site_fract_z
 _atom_site_occupancy
  Dy  Dy0  1  0.000000  0.242447  0.242447  1
  Th  Th1  1  0.000000  0.756360  0.756360  1
  Th  Th2  1  0.238820  0.002960  0.241780  1
  Th  Th3  1  0.761180  0.002960  0.764140  1
  Th  Th4  1  0.238820  0.241780  0.002960  1
  Th  Th5  1  0.761180  0.764140  0.002960  1
  Ni  Ni6  1  0.000000  0.993220  0.993220  1
  Br  Br7  1  0.499415  0.249543  0.249543  1
  Br  Br8  1  0.500585  0.750128  0.750128  1
  Br  Br9  1  0.000000  0.249543  0.750128  1
  Br  Br10  1  0.000000  0.750128  0.249543  1
  Br  Br11  1  0.242998  0.493736  0.250737  1
  Br  Br12  1  0.757002  0.007739  0.250737  1
  Br  Br13  1  0.749756  0.500450  0.750694  1
  Br  Br14  1  0.250244  0.000938  0.750694  1
  Br  Br15  1  0.242998  0.250737  0.493736  1
  Br  Br16  1  0.749756  0.750694  0.500450  1
  Br  Br17  1  0.757002  0.250737  0.007739  1
  Br  Br18  1  0.250244  0.750694  0.000938  1
  Br  Br19  1  0.000000  0.496003  0.496003  1
  Br  Br20  1  0.500000  0.997531  0.497531  1
  Br  Br21  1  0.500000  0.497531  0.997531  1
