# generated using pymatgen
data_Y6TcOs
_symmetry_space_group_name_H-M   'P 1'
_cell_length_a   6.34066100
_cell_length_b   7.47297100
_cell_length_c   9.13803900
_cell_angle_alpha   90.00000000
_cell_angle_beta   90.00000000
_cell_angle_gamma   90.00000000
_symmetry_Int_Tables_number   1
_chemical_formula_structural   Y6TcOs
_chemical_formula_sum   'Y12 Tc2 Os2'
_cell_volume   432.99296338
_cell_formula_units_Z   2
loop_
 _symmetry_equiv_pos_site_id
 _symmetry_equiv_pos_as_xyz
  1  'x, y, z'
loop_
 _atom_site_type_symbol
 _atom_site_label
 _atom_site_symmetry_multiplicity
 _atom_site_fract_x
 _atom_site_fract_y
 _atom_site_fract_z
 _atom_site_occupancy
  Y  Y0  1  0.338517  0.674648  0.062659  1
  Y  Y1  1  0.161483  0.174648  0.437341  1
  Y  Y2  1  0.665215  0.324894  0.563431  1
  Y  Y3  1  0.834785  0.824894  0.936569  1
  Y  Y4  1  0.665215  0.324894  0.936569  1
  Y  Y5  1  0.834785  0.824894  0.563431  1
  Y  Y6  1  0.338517  0.674648  0.437341  1
  Y  Y7  1  0.161483  0.174648  0.062659  1
  Y  Y8  1  0.875541  0.541241  0.250000  1
  Y  Y9  1  0.624459  0.041241  0.250000  1
  Y  Y10  1  0.132545  0.457903  0.750000  1
  Y  Y11  1  0.367455  0.957903  0.750000  1
  Tc  Tc12  1  0.038470  0.884257  0.250000  1
  Tc  Tc13  1  0.461530  0.384257  0.250000  1
  Os  Os14  1  0.959841  0.117514  0.750000  1
  Os  Os15  1  0.540159  0.617514  0.750000  1
