# generated using pymatgen
data_CaTb4Ho2CoI12
_symmetry_space_group_name_H-M   'P 1'
_cell_length_a   9.71835835
_cell_length_b   9.78793471
_cell_length_c   9.78415850
_cell_angle_alpha   106.80060190
_cell_angle_beta   106.96309280
_cell_angle_gamma   106.73574594
_symmetry_Int_Tables_number   1
_chemical_formula_structural   CaTb4Ho2CoI12
_chemical_formula_sum   'Ca1 Tb4 Ho2 Co1 I12'
_cell_volume   778.59025037
_cell_formula_units_Z   1
loop_
 _symmetry_equiv_pos_site_id
 _symmetry_equiv_pos_as_xyz
  1  'x, y, z'
loop_
 _atom_site_type_symbol
 _atom_site_label
 _atom_site_symmetry_multiplicity
 _atom_site_fract_x
 _atom_site_fract_y
 _atom_site_fract_z
 _atom_site_occupancy
  Ca  Ca0  1  0.499993  0.500134  0.500080  1
  Tb  Tb1  1  0.281708  0.022685  0.091271  1
  Tb  Tb2  1  0.977063  0.904253  0.702947  1
  Tb  Tb3  1  0.904310  0.703412  0.976297  1
  Tb  Tb4  1  0.718672  0.978000  0.909768  1
  Ho  Ho5  1  0.023238  0.095975  0.294144  1
  Ho  Ho6  1  0.094831  0.293556  0.024061  1
  Co  Co7  1  0.000145  0.999883  0.000039  1
  I  I8  1  0.147510  0.454756  0.376281  1
  I  I9  1  0.455050  0.376874  0.149328  1
  I  I10  1  0.376869  0.149340  0.454976  1
  I  I11  1  0.851461  0.543340  0.622160  1
  I  I12  1  0.542849  0.623418  0.849868  1
  I  I13  1  0.621232  0.850732  0.545224  1
  I  I14  1  0.680775  0.072422  0.223537  1
  I  I15  1  0.072689  0.224974  0.679908  1
  I  I16  1  0.226115  0.679882  0.073351  1
  I  I17  1  0.321406  0.928268  0.778055  1
  I  I18  1  0.928195  0.778517  0.321525  1
  I  I19  1  0.775889  0.319576  0.927181  1
