# generated using pymatgen
data_Tm2ZrNiRu2
_symmetry_space_group_name_H-M   'P 1'
_cell_length_a   3.32774500
_cell_length_b   3.32774500
_cell_length_c   9.90734100
_cell_angle_alpha   90.00000000
_cell_angle_beta   90.00000000
_cell_angle_gamma   90.00000000
_symmetry_Int_Tables_number   1
_chemical_formula_structural   Tm2ZrNiRu2
_chemical_formula_sum   'Tm2 Zr1 Ni1 Ru2'
_cell_volume   109.71277257
_cell_formula_units_Z   1
loop_
 _symmetry_equiv_pos_site_id
 _symmetry_equiv_pos_as_xyz
  1  'x, y, z'
loop_
 _atom_site_type_symbol
 _atom_site_label
 _atom_site_symmetry_multiplicity
 _atom_site_fract_x
 _atom_site_fract_y
 _atom_site_fract_z
 _atom_site_occupancy
  Tm  Tm0  1  0.499999  0.499999  0.332633  1
  Tm  Tm1  1  0.499999  0.499999  0.667367  1
  Zr  Zr2  1  0.499999  0.499999  0.000000  1
  Ni  Ni3  1  0.000000  0.000000  0.500000  1
  Ru  Ru4  1  0.000000  0.000000  0.160938  1
  Ru  Ru5  1  0.000000  0.000000  0.839062  1
