# generated using pymatgen
data_Sc3Ti3Si2(Ge2Os3)2
_symmetry_space_group_name_H-M   'P 1'
_cell_length_a   6.74204030
_cell_length_b   7.08395007
_cell_length_c   7.60516420
_cell_angle_alpha   117.75767208
_cell_angle_beta   116.29840370
_cell_angle_gamma   89.99999908
_symmetry_Int_Tables_number   1
_chemical_formula_structural   Sc3Ti3Si2(Ge2Os3)2
_chemical_formula_sum   'Sc3 Ti3 Si2 Ge4 Os6'
_cell_volume   278.24125589
_cell_formula_units_Z   1
loop_
 _symmetry_equiv_pos_site_id
 _symmetry_equiv_pos_as_xyz
  1  'x, y, z'
loop_
 _atom_site_type_symbol
 _atom_site_label
 _atom_site_symmetry_multiplicity
 _atom_site_fract_x
 _atom_site_fract_y
 _atom_site_fract_z
 _atom_site_occupancy
  Sc  Sc0  1  0.245303  0.463764  0.427529  1
  Sc  Sc1  1  0.814001  0.536851  0.573702  1
  Sc  Sc2  1  0.651437  0.743107  0.986212  1
  Ti  Ti3  1  0.668068  0.256062  0.012124  1
  Ti  Ti4  1  0.858749  0.055679  0.611359  1
  Ti  Ti5  1  0.235112  0.940001  0.380001  1
  Si  Si6  1  0.292385  0.275517  0.051037  1
  Si  Si7  1  0.222715  0.728470  0.956939  1
  Ge  Ge8  1  0.576097  0.850555  0.664394  1
  Ge  Ge9  1  0.910951  0.158576  0.334501  1
  Ge  Ge10  1  0.910951  0.675925  0.334501  1
  Ge  Ge11  1  0.576097  0.313839  0.664394  1
  Os  Os12  1  0.000480  0.017977  0.000530  1
  Os  Os13  1  0.000480  0.482553  0.000530  1
  Os  Os14  1  0.492994  0.657846  0.248046  1
  Os  Os15  1  0.245793  0.343837  0.753078  1
  Os  Os16  1  0.245793  0.909240  0.753078  1
  Os  Os17  1  0.492994  0.090201  0.248046  1
