# generated using pymatgen
data_Sr5Tm13(ThSn8)2
_symmetry_space_group_name_H-M   'P 1'
_cell_length_a   8.05858398
_cell_length_b   8.33195681
_cell_length_c   15.73747255
_cell_angle_alpha   90.20996609
_cell_angle_beta   90.81095291
_cell_angle_gamma   89.42642556
_symmetry_Int_Tables_number   1
_chemical_formula_structural   Sr5Tm13(ThSn8)2
_chemical_formula_sum   'Sr5 Tm13 Th2 Sn16'
_cell_volume   1056.50795477
_cell_formula_units_Z   1
loop_
 _symmetry_equiv_pos_site_id
 _symmetry_equiv_pos_as_xyz
  1  'x, y, z'
loop_
 _atom_site_type_symbol
 _atom_site_label
 _atom_site_symmetry_multiplicity
 _atom_site_fract_x
 _atom_site_fract_y
 _atom_site_fract_z
 _atom_site_occupancy
  Sr  Sr0  1  0.012635  0.173994  0.598403  1
  Sr  Sr1  1  0.490336  0.676378  0.408842  1
  Sr  Sr2  1  0.993610  0.819249  0.087406  1
  Sr  Sr3  1  0.488603  0.677170  0.088440  1
  Sr  Sr4  1  0.994769  0.823022  0.411263  1
  Tm  Tm5  1  0.348193  0.836455  0.872155  1
  Tm  Tm6  1  0.840025  0.662494  0.626794  1
  Tm  Tm7  1  0.656602  0.165076  0.375197  1
  Tm  Tm8  1  0.144614  0.343128  0.117943  1
  Tm  Tm9  1  0.646372  0.159214  0.121509  1
  Tm  Tm10  1  0.154296  0.340113  0.380132  1
  Tm  Tm11  1  0.341723  0.836712  0.631632  1
  Tm  Tm12  1  0.848262  0.654927  0.877197  1
  Tm  Tm13  1  0.522990  0.321526  0.898930  1
  Tm  Tm14  1  0.182548  0.498582  0.752966  1
  Tm  Tm15  1  0.680634  0.999577  0.751343  1
  Tm  Tm16  1  0.810997  0.500041  0.248536  1
  Tm  Tm17  1  0.317347  0.001600  0.247617  1
  Th  Th18  1  0.509921  0.328891  0.600845  1
  Th  Th19  1  0.012877  0.181480  0.901846  1
  Sn  Sn20  1  0.314111  0.053608  0.033977  1
  Sn  Sn21  1  0.812145  0.451003  0.462735  1
  Sn  Sn22  1  0.668289  0.968618  0.547476  1
  Sn  Sn23  1  0.201468  0.527128  0.948400  1
  Sn  Sn24  1  0.685742  0.970770  0.950138  1
  Sn  Sn25  1  0.182736  0.539770  0.549309  1
  Sn  Sn26  1  0.335253  0.050486  0.464099  1
  Sn  Sn27  1  0.802485  0.442017  0.035638  1
  Sn  Sn28  1  0.545748  0.623586  0.750396  1
  Sn  Sn29  1  0.038337  0.869465  0.754158  1
  Sn  Sn30  1  0.446842  0.367244  0.248184  1
  Sn  Sn31  1  0.957274  0.133320  0.250561  1
  Sn  Sn32  1  0.323883  0.149140  0.754608  1
  Sn  Sn33  1  0.814341  0.355560  0.751946  1
  Sn  Sn34  1  0.689475  0.865858  0.248934  1
  Sn  Sn35  1  0.184514  0.632800  0.250442  1
