# generated using pymatgen
data_Nd5Sn2PbN
_symmetry_space_group_name_H-M   'P 1'
_cell_length_a   9.25897004
_cell_length_b   9.25745011
_cell_length_c   6.77001800
_cell_angle_alpha   90.00000000
_cell_angle_beta   90.00000000
_cell_angle_gamma   119.99457261
_symmetry_Int_Tables_number   1
_chemical_formula_structural   Nd5Sn2PbN
_chemical_formula_sum   'Nd10 Sn4 Pb2 N2'
_cell_volume   502.57197013
_cell_formula_units_Z   2
loop_
 _symmetry_equiv_pos_site_id
 _symmetry_equiv_pos_as_xyz
  1  'x, y, z'
loop_
 _atom_site_type_symbol
 _atom_site_label
 _atom_site_symmetry_multiplicity
 _atom_site_fract_x
 _atom_site_fract_y
 _atom_site_fract_z
 _atom_site_occupancy
  Nd  Nd0  1  0.668278  0.334666  0.002139  1
  Nd  Nd1  1  0.331722  0.666389  0.002139  1
  Nd  Nd2  1  0.331722  0.666389  0.497861  1
  Nd  Nd3  1  0.668278  0.334666  0.497861  1
  Nd  Nd4  1  0.786404  0.784903  0.750000  1
  Nd  Nd5  1  0.213596  0.998499  0.750000  1
  Nd  Nd6  1  0.000000  0.215339  0.750000  1
  Nd  Nd7  1  0.214583  0.214219  0.250000  1
  Nd  Nd8  1  0.785417  0.999635  0.250000  1
  Nd  Nd9  1  0.000000  0.784913  0.250000  1
  Sn  Sn10  1  0.000000  0.595951  0.750000  1
  Sn  Sn11  1  0.595993  0.596154  0.250000  1
  Sn  Sn12  1  0.404007  0.000161  0.250000  1
  Sn  Sn13  1  0.000000  0.403396  0.250000  1
  Pb  Pb14  1  0.404689  0.404561  0.750000  1
  Pb  Pb15  1  0.595311  0.999872  0.750000  1
  N  N16  1  0.000000  0.000143  0.999807  1
  N  N17  1  0.000000  0.000143  0.500193  1
