# generated using pymatgen
data_Tb2YbSmNi13C4
_symmetry_space_group_name_H-M   'P 1'
_cell_length_a   8.37388947
_cell_length_b   8.37438211
_cell_length_c   3.87363700
_cell_angle_alpha   90.00000000
_cell_angle_beta   90.00000000
_cell_angle_gamma   90.91636306
_symmetry_Int_Tables_number   1
_chemical_formula_structural   Tb2YbSmNi13C4
_chemical_formula_sum   'Tb2 Yb1 Sm1 Ni13 C4'
_cell_volume   271.60850829
_cell_formula_units_Z   1
loop_
 _symmetry_equiv_pos_site_id
 _symmetry_equiv_pos_as_xyz
  1  'x, y, z'
loop_
 _atom_site_type_symbol
 _atom_site_label
 _atom_site_symmetry_multiplicity
 _atom_site_fract_x
 _atom_site_fract_y
 _atom_site_fract_z
 _atom_site_occupancy
  Tb  Tb0  1  0.813283  0.186860  0.500000  1
  Tb  Tb1  1  0.651326  0.655020  0.500000  1
  Yb  Yb2  1  0.192794  0.807333  0.500000  1
  Sm  Sm3  1  0.344444  0.348293  0.500000  1
  Ni  Ni4  1  0.000781  0.997455  0.000000  1
  Ni  Ni5  1  0.215294  0.572569  0.000000  1
  Ni  Ni6  1  0.784768  0.431914  0.000000  1
  Ni  Ni7  1  0.429421  0.786041  0.000000  1
  Ni  Ni8  1  0.569525  0.216442  0.000000  1
  Ni  Ni9  1  0.993281  0.506176  0.500000  1
  Ni  Ni10  1  0.499502  0.000376  0.500000  1
  Ni  Ni11  1  0.070697  0.288890  0.000000  1
  Ni  Ni12  1  0.925951  0.709565  0.000000  1
  Ni  Ni13  1  0.710053  0.927050  0.000000  1
  Ni  Ni14  1  0.289358  0.071632  0.000000  1
  Ni  Ni15  1  0.123485  0.113176  0.500000  1
  Ni  Ni16  1  0.884042  0.874368  0.500000  1
  C  C17  1  0.001580  0.500605  0.000000  1
  C  C18  1  0.499496  0.000812  0.000000  1
  C  C19  1  0.443427  0.559812  0.000000  1
  C  C20  1  0.557494  0.445608  0.000000  1
