# generated using pymatgen
data_Tb2Ho4Al24Os5Pt3
_symmetry_space_group_name_H-M   'P 1'
_cell_length_a   8.83679479
_cell_length_b   8.85219320
_cell_length_c   9.52711601
_cell_angle_alpha   89.97547314
_cell_angle_beta   89.72018677
_cell_angle_gamma   119.68396235
_symmetry_Int_Tables_number   1
_chemical_formula_structural   Tb2Ho4Al24Os5Pt3
_chemical_formula_sum   'Tb2 Ho4 Al24 Os5 Pt3'
_cell_volume   647.44740586
_cell_formula_units_Z   1
loop_
 _symmetry_equiv_pos_site_id
 _symmetry_equiv_pos_as_xyz
  1  'x, y, z'
loop_
 _atom_site_type_symbol
 _atom_site_label
 _atom_site_symmetry_multiplicity
 _atom_site_fract_x
 _atom_site_fract_y
 _atom_site_fract_z
 _atom_site_occupancy
  Tb  Tb0  1  0.187949  0.382510  0.251418  1
  Tb  Tb1  1  0.812051  0.617490  0.748582  1
  Ho  Ho2  1  0.613598  0.813915  0.252137  1
  Ho  Ho3  1  0.386402  0.186085  0.747863  1
  Ho  Ho4  1  0.196036  0.809964  0.251419  1
  Ho  Ho5  1  0.803964  0.190036  0.748581  1
  Al  Al6  1  0.335934  0.671122  0.029094  1
  Al  Al7  1  0.664066  0.328878  0.970906  1
  Al  Al8  1  0.669309  0.331630  0.525782  1
  Al  Al9  1  0.330691  0.668370  0.474218  1
  Al  Al10  1  0.158110  0.324910  0.576812  1
  Al  Al11  1  0.841890  0.675090  0.423188  1
  Al  Al12  1  0.674196  0.840963  0.575832  1
  Al  Al13  1  0.837332  0.676971  0.079141  1
  Al  Al14  1  0.325804  0.159037  0.424168  1
  Al  Al15  1  0.162668  0.323029  0.920859  1
  Al  Al16  1  0.164444  0.835892  0.574784  1
  Al  Al17  1  0.325800  0.159024  0.075669  1
  Al  Al18  1  0.835556  0.164108  0.425216  1
  Al  Al19  1  0.674200  0.840976  0.924331  1
  Al  Al20  1  0.832020  0.159117  0.075825  1
  Al  Al21  1  0.167980  0.840883  0.924175  1
  Al  Al22  1  0.561048  0.124525  0.249397  1
  Al  Al23  1  0.438952  0.875475  0.750603  1
  Al  Al24  1  0.874290  0.438558  0.252875  1
  Al  Al25  1  0.125710  0.561442  0.747125  1
  Al  Al26  1  0.563010  0.437863  0.249380  1
  Al  Al27  1  0.436990  0.562137  0.750620  1
  Al  Al28  1  0.998308  0.000434  0.250190  1
  Al  Al29  1  0.001692  0.999566  0.749810  1
  Os  Os30  1  0.500000  0.000000  0.000000  1
  Os  Os31  1  0.500000  0.000000  0.500000  1
  Os  Os32  1  0.000000  0.500000  0.500000  1
  Os  Os33  1  0.000000  0.000000  0.000000  1
  Os  Os34  1  0.000000  0.000000  0.500000  1
  Pt  Pt35  1  0.000000  0.500000  0.000000  1
  Pt  Pt36  1  0.500000  0.500000  0.000000  1
  Pt  Pt37  1  0.500000  0.500000  0.500000  1
