# generated using pymatgen
data_Eu2In8Pt
_symmetry_space_group_name_H-M   'P 1'
_cell_length_a   4.84604100
_cell_length_b   4.84604100
_cell_length_c   12.40973900
_cell_angle_alpha   90.00000000
_cell_angle_beta   90.00000000
_cell_angle_gamma   90.00000000
_symmetry_Int_Tables_number   1
_chemical_formula_structural   Eu2In8Pt
_chemical_formula_sum   'Eu2 In8 Pt1'
_cell_volume   291.43171761
_cell_formula_units_Z   1
loop_
 _symmetry_equiv_pos_site_id
 _symmetry_equiv_pos_as_xyz
  1  'x, y, z'
loop_
 _atom_site_type_symbol
 _atom_site_label
 _atom_site_symmetry_multiplicity
 _atom_site_fract_x
 _atom_site_fract_y
 _atom_site_fract_z
 _atom_site_occupancy
  Eu  Eu0  1  0.000000  0.000000  0.192935  1
  Eu  Eu1  1  0.000000  0.000000  0.807065  1
  In  In2  1  0.500000  0.000000  0.000000  1
  In  In3  1  0.000000  0.500000  0.000000  1
  In  In4  1  0.500000  0.500000  0.193531  1
  In  In5  1  0.500000  0.000000  0.377615  1
  In  In6  1  0.000000  0.500000  0.377615  1
  In  In7  1  0.500000  0.000000  0.622385  1
  In  In8  1  0.000000  0.500000  0.622385  1
  In  In9  1  0.500000  0.500000  0.806469  1
  Pt  Pt10  1  0.000000  0.000000  0.500000  1
