# generated using pymatgen
data_Ba3YbSb2O9
_symmetry_space_group_name_H-M   'P 1'
_cell_length_a   6.06959606
_cell_length_b   6.06751013
_cell_length_c   15.01929169
_cell_angle_alpha   90.72665425
_cell_angle_beta   91.48633672
_cell_angle_gamma   119.87722610
_symmetry_Int_Tables_number   1
_chemical_formula_structural   Ba3YbSb2O9
_chemical_formula_sum   'Ba6 Yb2 Sb4 O18'
_cell_volume   479.23734905
_cell_formula_units_Z   2
loop_
 _symmetry_equiv_pos_site_id
 _symmetry_equiv_pos_as_xyz
  1  'x, y, z'
loop_
 _atom_site_type_symbol
 _atom_site_label
 _atom_site_symmetry_multiplicity
 _atom_site_fract_x
 _atom_site_fract_y
 _atom_site_fract_z
 _atom_site_occupancy
  Ba  Ba0  1  0.320461  0.657606  0.411354  1
  Ba  Ba1  1  0.679539  0.342394  0.588646  1
  Ba  Ba2  1  0.658043  0.326212  0.908895  1
  Ba  Ba3  1  0.989273  0.000594  0.250574  1
  Ba  Ba4  1  0.010727  0.999406  0.749426  1
  Ba  Ba5  1  0.341957  0.673788  0.091105  1
  Yb  Yb6  1  0.000000  0.000000  0.000000  1
  Yb  Yb7  1  0.000000  0.000000  0.500000  1
  Sb  Sb8  1  0.312185  0.648976  0.846282  1
  Sb  Sb9  1  0.645441  0.315191  0.345630  1
  Sb  Sb10  1  0.354559  0.684809  0.654370  1
  Sb  Sb11  1  0.687815  0.351024  0.153718  1
  O  O12  1  0.203297  0.387221  0.572573  1
  O  O13  1  0.868506  0.203360  0.093317  1
  O  O14  1  0.227758  0.877381  0.587631  1
  O  O15  1  0.796703  0.612779  0.427427  1
  O  O16  1  0.603634  0.782805  0.931095  1
  O  O17  1  0.471540  0.511778  0.752460  1
  O  O18  1  0.879274  0.686063  0.100901  1
  O  O19  1  0.396366  0.217195  0.068905  1
  O  O20  1  0.120726  0.313937  0.899099  1
  O  O21  1  0.690307  0.850152  0.602134  1
  O  O22  1  0.131494  0.796640  0.906683  1
  O  O23  1  0.044708  0.529388  0.735755  1
  O  O24  1  0.528460  0.488222  0.247540  1
  O  O25  1  0.955292  0.470612  0.264245  1
  O  O26  1  0.772242  0.122619  0.412369  1
  O  O27  1  0.309693  0.149848  0.397866  1
  O  O28  1  0.512435  0.044147  0.237696  1
  O  O29  1  0.487565  0.955853  0.762304  1
