# generated using pymatgen
data_Zr4(NiPt3)3
_symmetry_space_group_name_H-M   'P 1'
_cell_length_a   5.65568100
_cell_length_b   5.66075491
_cell_length_c   9.20617400
_cell_angle_alpha   90.00000000
_cell_angle_beta   90.00000000
_cell_angle_gamma   119.97086861
_symmetry_Int_Tables_number   1
_chemical_formula_structural   Zr4(NiPt3)3
_chemical_formula_sum   'Zr4 Ni3 Pt9'
_cell_volume   255.32684556
_cell_formula_units_Z   1
loop_
 _symmetry_equiv_pos_site_id
 _symmetry_equiv_pos_as_xyz
  1  'x, y, z'
loop_
 _atom_site_type_symbol
 _atom_site_label
 _atom_site_symmetry_multiplicity
 _atom_site_fract_x
 _atom_site_fract_y
 _atom_site_fract_z
 _atom_site_occupancy
  Zr  Zr0  1  0.999329  0.998657  0.497163  1
  Zr  Zr1  1  0.999329  0.998657  0.002837  1
  Zr  Zr2  1  0.335718  0.671436  0.250000  1
  Zr  Zr3  1  0.664828  0.329656  0.750000  1
  Ni  Ni4  1  0.500170  0.000340  0.499118  1
  Ni  Ni5  1  0.500170  0.000340  0.000882  1
  Ni  Ni6  1  0.823331  0.646662  0.250000  1
  Pt  Pt7  1  0.504187  0.503692  0.495763  1
  Pt  Pt8  1  0.999505  0.503692  0.495763  1
  Pt  Pt9  1  0.504187  0.503692  0.004237  1
  Pt  Pt10  1  0.999505  0.503692  0.004237  1
  Pt  Pt11  1  0.340701  0.162356  0.250000  1
  Pt  Pt12  1  0.821656  0.162356  0.250000  1
  Pt  Pt13  1  0.170781  0.341562  0.750000  1
  Pt  Pt14  1  0.659478  0.836605  0.750000  1
  Pt  Pt15  1  0.177127  0.836605  0.750000  1
