# generated using pymatgen
data_Ba4Ni(RuO6)2
_symmetry_space_group_name_H-M   'P 1'
_cell_length_a   5.75511625
_cell_length_b   5.75541748
_cell_length_c   9.85780985
_cell_angle_alpha   73.02773014
_cell_angle_beta   106.94298231
_cell_angle_gamma   120.00094254
_symmetry_Int_Tables_number   1
_chemical_formula_structural   Ba4Ni(RuO6)2
_chemical_formula_sum   'Ba4 Ni1 Ru2 O12'
_cell_volume   266.25393336
_cell_formula_units_Z   1
loop_
 _symmetry_equiv_pos_site_id
 _symmetry_equiv_pos_as_xyz
  1  'x, y, z'
loop_
 _atom_site_type_symbol
 _atom_site_label
 _atom_site_symmetry_multiplicity
 _atom_site_fract_x
 _atom_site_fract_y
 _atom_site_fract_z
 _atom_site_occupancy
  Ba  Ba0  1  0.708343  0.291727  0.124623  1
  Ba  Ba1  1  0.128604  0.871273  0.386018  1
  Ba  Ba2  1  0.871395  0.128725  0.613982  1
  Ba  Ba3  1  0.291656  0.708272  0.875378  1
  Ni  Ni4  1  0.000000  0.000000  0.000000  1
  Ru  Ru5  1  0.419354  0.580651  0.258117  1
  Ru  Ru6  1  0.580647  0.419348  0.741883  1
  O  O7  1  0.216830  0.302679  0.130914  1
  O  O8  1  0.697444  0.783248  0.130875  1
  O  O9  1  0.216811  0.783197  0.130851  1
  O  O10  1  0.141799  0.387481  0.367109  1
  O  O11  1  0.612533  0.387353  0.367040  1
  O  O12  1  0.612326  0.857978  0.367059  1
  O  O13  1  0.387675  0.142024  0.632941  1
  O  O14  1  0.858202  0.612519  0.632891  1
  O  O15  1  0.387468  0.612649  0.632960  1
  O  O16  1  0.783188  0.216802  0.869148  1
  O  O17  1  0.302554  0.216751  0.869124  1
  O  O18  1  0.783169  0.697320  0.869085  1
