# generated using pymatgen
data_Y6Ho10AlCd3Pd4
_symmetry_space_group_name_H-M   'P 1'
_cell_length_a   9.62782519
_cell_length_b   9.62782526
_cell_length_c   9.62782537
_cell_angle_alpha   60.30247063
_cell_angle_beta   60.30247214
_cell_angle_gamma   60.30246639
_symmetry_Int_Tables_number   1
_chemical_formula_structural   Y6Ho10AlCd3Pd4
_chemical_formula_sum   'Y6 Ho10 Al1 Cd3 Pd4'
_cell_volume   635.37778124
_cell_formula_units_Z   1
loop_
 _symmetry_equiv_pos_site_id
 _symmetry_equiv_pos_as_xyz
  1  'x, y, z'
loop_
 _atom_site_type_symbol
 _atom_site_label
 _atom_site_symmetry_multiplicity
 _atom_site_fract_x
 _atom_site_fract_y
 _atom_site_fract_z
 _atom_site_occupancy
  Y  Y0  1  0.932772  0.566575  0.566575  1
  Y  Y1  1  0.563584  0.936443  0.936443  1
  Y  Y2  1  0.566575  0.932772  0.566575  1
  Y  Y3  1  0.936443  0.563584  0.936443  1
  Y  Y4  1  0.566575  0.566575  0.932772  1
  Y  Y5  1  0.936443  0.936443  0.563584  1
  Ho  Ho6  1  0.350842  0.350842  0.350842  1
  Ho  Ho7  1  0.357739  0.357739  0.933911  1
  Ho  Ho8  1  0.357739  0.933911  0.357739  1
  Ho  Ho9  1  0.933911  0.357739  0.357739  1
  Ho  Ho10  1  0.811364  0.189595  0.189595  1
  Ho  Ho11  1  0.192210  0.808939  0.808939  1
  Ho  Ho12  1  0.189595  0.811364  0.189595  1
  Ho  Ho13  1  0.808939  0.192210  0.808939  1
  Ho  Ho14  1  0.189595  0.189595  0.811364  1
  Ho  Ho15  1  0.808939  0.808939  0.192210  1
  Al  Al16  1  0.581341  0.581341  0.581341  1
  Cd  Cd17  1  0.580196  0.580196  0.256151  1
  Cd  Cd18  1  0.580196  0.256151  0.580196  1
  Cd  Cd19  1  0.256151  0.580196  0.580196  1
  Pd  Pd20  1  0.146348  0.146348  0.146348  1
  Pd  Pd21  1  0.142183  0.142183  0.568131  1
  Pd  Pd22  1  0.142183  0.568131  0.142183  1
  Pd  Pd23  1  0.568131  0.142183  0.142183  1
