# generated using pymatgen
data_Ta8CdNiS16
_symmetry_space_group_name_H-M   'P 1'
_cell_length_a   6.69709900
_cell_length_b   6.69709850
_cell_length_c   12.84311900
_cell_angle_alpha   90.00000000
_cell_angle_beta   90.00000000
_cell_angle_gamma   120.00000741
_symmetry_Int_Tables_number   1
_chemical_formula_structural   Ta8CdNiS16
_chemical_formula_sum   'Ta8 Cd1 Ni1 S16'
_cell_volume   498.85520892
_cell_formula_units_Z   1
loop_
 _symmetry_equiv_pos_site_id
 _symmetry_equiv_pos_as_xyz
  1  'x, y, z'
loop_
 _atom_site_type_symbol
 _atom_site_label
 _atom_site_symmetry_multiplicity
 _atom_site_fract_x
 _atom_site_fract_y
 _atom_site_fract_z
 _atom_site_occupancy
  Ta  Ta0  1  0.504715  0.495285  0.768230  1
  Ta  Ta1  1  0.009430  0.504715  0.231770  1
  Ta  Ta2  1  0.495285  0.990570  0.231770  1
  Ta  Ta3  1  0.504715  0.009430  0.768230  1
  Ta  Ta4  1  0.990570  0.495285  0.768230  1
  Ta  Ta5  1  0.495285  0.504715  0.231770  1
  Ta  Ta6  1  0.000000  0.000000  0.768392  1
  Ta  Ta7  1  0.000000  0.000000  0.231608  1
  Cd  Cd8  1  0.000000  0.000000  0.500000  1
  Ni  Ni9  1  0.000000  0.000000  0.000000  1
  S  S10  1  0.831365  0.168635  0.352984  1
  S  S11  1  0.831365  0.662730  0.352984  1
  S  S12  1  0.337270  0.168635  0.352984  1
  S  S13  1  0.664909  0.832454  0.887515  1
  S  S14  1  0.168635  0.337270  0.647016  1
  S  S15  1  0.167546  0.832454  0.887515  1
  S  S16  1  0.167546  0.335091  0.887515  1
  S  S17  1  0.832454  0.167546  0.112485  1
  S  S18  1  0.335091  0.167546  0.112485  1
  S  S19  1  0.662730  0.831365  0.647016  1
  S  S20  1  0.333333  0.666667  0.108939  1
  S  S21  1  0.666667  0.333333  0.643356  1
  S  S22  1  0.666667  0.333333  0.891061  1
  S  S23  1  0.333333  0.666667  0.356644  1
  S  S24  1  0.832454  0.664909  0.112485  1
  S  S25  1  0.168635  0.831365  0.647016  1
