# generated using pymatgen
data_Ho8Si7GePt8
_symmetry_space_group_name_H-M   'P 1'
_cell_length_a   4.29788000
_cell_length_b   7.48147181
_cell_length_c   14.00413318
_cell_angle_alpha   89.98244556
_cell_angle_beta   90.00000000
_cell_angle_gamma   90.00000000
_symmetry_Int_Tables_number   1
_chemical_formula_structural   Ho8Si7GePt8
_chemical_formula_sum   'Ho8 Si7 Ge1 Pt8'
_cell_volume   450.29543191
_cell_formula_units_Z   1
loop_
 _symmetry_equiv_pos_site_id
 _symmetry_equiv_pos_as_xyz
  1  'x, y, z'
loop_
 _atom_site_type_symbol
 _atom_site_label
 _atom_site_symmetry_multiplicity
 _atom_site_fract_x
 _atom_site_fract_y
 _atom_site_fract_z
 _atom_site_occupancy
  Ho  Ho0  1  0.000000  0.204896  0.750120  1
  Ho  Ho1  1  0.000000  0.205812  0.249999  1
  Ho  Ho2  1  0.500000  0.793433  0.748377  1
  Ho  Ho3  1  0.500000  0.793519  0.251360  1
  Ho  Ho4  1  0.000000  0.293674  0.499912  1
  Ho  Ho5  1  0.500000  0.706318  0.000442  1
  Ho  Ho6  1  0.000000  0.300581  0.000988  1
  Ho  Ho7  1  0.500000  0.700352  0.499901  1
  Si  Si8  1  0.000000  0.590863  0.852400  1
  Si  Si9  1  0.000000  0.593230  0.147629  1
  Si  Si10  1  0.500000  0.406984  0.648684  1
  Si  Si11  1  0.500000  0.407167  0.352005  1
  Si  Si12  1  0.000000  0.907319  0.407740  1
  Si  Si13  1  0.000000  0.907419  0.592025  1
  Si  Si14  1  0.500000  0.093799  0.095943  1
  Ge  Ge15  1  0.500000  0.095122  0.906901  1
  Pt  Pt16  1  0.000000  0.913908  0.890193  1
  Pt  Pt17  1  0.000000  0.924458  0.108858  1
  Pt  Pt18  1  0.500000  0.076149  0.608831  1
  Pt  Pt19  1  0.500000  0.075719  0.391387  1
  Pt  Pt20  1  0.000000  0.579566  0.346895  1
  Pt  Pt21  1  0.000000  0.579390  0.651844  1
  Pt  Pt22  1  0.500000  0.420848  0.154189  1
  Pt  Pt23  1  0.500000  0.429478  0.843378  1
