# generated using pymatgen
data_Pr3Mg2CdSi2Ag
_symmetry_space_group_name_H-M   'P 1'
_cell_length_a   7.44943084
_cell_length_b   7.44943040
_cell_length_c   4.49504300
_cell_angle_alpha   90.00000000
_cell_angle_beta   90.00000000
_cell_angle_gamma   119.65144297
_symmetry_Int_Tables_number   1
_chemical_formula_structural   Pr3Mg2CdSi2Ag
_chemical_formula_sum   'Pr3 Mg2 Cd1 Si2 Ag1'
_cell_volume   216.78304939
_cell_formula_units_Z   1
loop_
 _symmetry_equiv_pos_site_id
 _symmetry_equiv_pos_as_xyz
  1  'x, y, z'
loop_
 _atom_site_type_symbol
 _atom_site_label
 _atom_site_symmetry_multiplicity
 _atom_site_fract_x
 _atom_site_fract_y
 _atom_site_fract_z
 _atom_site_occupancy
  Pr  Pr0  1  0.425205  0.425205  0.500000  1
  Pr  Pr1  1  0.577731  0.997664  0.500000  1
  Pr  Pr2  1  0.997664  0.577731  0.500000  1
  Mg  Mg3  1  0.243315  0.998314  0.000000  1
  Mg  Mg4  1  0.998314  0.243315  0.000000  1
  Cd  Cd5  1  0.753233  0.753233  0.000000  1
  Si  Si6  1  0.665915  0.329883  0.000000  1
  Si  Si7  1  0.329883  0.665915  0.000000  1
  Ag  Ag8  1  0.008739  0.008739  0.500000  1
