# generated using pymatgen
data_Tb2TcB8W
_symmetry_space_group_name_H-M   'P 1'
_cell_length_a   6.01724131
_cell_length_b   11.64332554
_cell_length_c   3.62368800
_cell_angle_alpha   90.00000000
_cell_angle_beta   90.00000000
_cell_angle_gamma   89.92438563
_symmetry_Int_Tables_number   1
_chemical_formula_structural   Tb2TcB8W
_chemical_formula_sum   'Tb4 Tc2 B16 W2'
_cell_volume   253.87789458
_cell_formula_units_Z   2
loop_
 _symmetry_equiv_pos_site_id
 _symmetry_equiv_pos_as_xyz
  1  'x, y, z'
loop_
 _atom_site_type_symbol
 _atom_site_label
 _atom_site_symmetry_multiplicity
 _atom_site_fract_x
 _atom_site_fract_y
 _atom_site_fract_z
 _atom_site_occupancy
  Tb  Tb0  1  0.626924  0.348304  0.000000  1
  Tb  Tb1  1  0.373076  0.651696  0.000000  1
  Tb  Tb2  1  0.127733  0.148560  0.000000  1
  Tb  Tb3  1  0.872267  0.851440  0.000000  1
  Tc  Tc4  1  0.633775  0.086579  0.000000  1
  Tc  Tc5  1  0.366225  0.913421  0.000000  1
  B  B6  1  0.784200  0.183946  0.500000  1
  B  B7  1  0.215800  0.816054  0.500000  1
  B  B8  1  0.288540  0.312786  0.500000  1
  B  B9  1  0.711460  0.687214  0.500000  1
  B  B10  1  0.862991  0.031017  0.500000  1
  B  B11  1  0.137009  0.968983  0.500000  1
  B  B12  1  0.366690  0.467472  0.500000  1
  B  B13  1  0.633310  0.532528  0.500000  1
  B  B14  1  0.885507  0.452801  0.500000  1
  B  B15  1  0.114493  0.547199  0.500000  1
  B  B16  1  0.387469  0.046731  0.500000  1
  B  B17  1  0.612531  0.953269  0.500000  1
  B  B18  1  0.975290  0.305940  0.500000  1
  B  B19  1  0.024710  0.694060  0.500000  1
  B  B20  1  0.476805  0.190687  0.500000  1
  B  B21  1  0.523195  0.809313  0.500000  1
  W  W22  1  0.130111  0.414574  0.000000  1
  W  W23  1  0.869889  0.585426  0.000000  1
