# generated using pymatgen
data_Er5Tm3Ti11Si16Mo
_symmetry_space_group_name_H-M   'P 1'
_cell_length_a   7.00152718
_cell_length_b   7.00107506
_cell_length_c   12.86170104
_cell_angle_alpha   89.97241375
_cell_angle_beta   90.03104371
_cell_angle_gamma   89.99930626
_symmetry_Int_Tables_number   1
_chemical_formula_structural   Er5Tm3Ti11Si16Mo
_chemical_formula_sum   'Er5 Tm3 Ti11 Si16 Mo1'
_cell_volume   630.45749109
_cell_formula_units_Z   1
loop_
 _symmetry_equiv_pos_site_id
 _symmetry_equiv_pos_as_xyz
  1  'x, y, z'
loop_
 _atom_site_type_symbol
 _atom_site_label
 _atom_site_symmetry_multiplicity
 _atom_site_fract_x
 _atom_site_fract_y
 _atom_site_fract_z
 _atom_site_occupancy
  Er  Er0  1  0.840372  0.497537  0.282590  1
  Er  Er1  1  0.159296  0.500769  0.784468  1
  Er  Er2  1  0.657403  0.999035  0.967038  1
  Er  Er3  1  0.002708  0.340903  0.532992  1
  Er  Er4  1  0.999006  0.657455  0.032912  1
  Tm  Tm5  1  0.341193  0.002476  0.466999  1
  Tm  Tm6  1  0.497732  0.840677  0.717378  1
  Tm  Tm7  1  0.500493  0.159095  0.215542  1
  Ti  Ti8  1  0.173981  0.827562  0.249564  1
  Ti  Ti9  1  0.827368  0.173769  0.750451  1
  Ti  Ti10  1  0.672860  0.673122  0.500020  1
  Ti  Ti11  1  0.153049  0.008407  0.876055  1
  Ti  Ti12  1  0.492282  0.651015  0.124184  1
  Ti  Ti13  1  0.506821  0.349202  0.625981  1
  Ti  Ti14  1  0.651014  0.492267  0.875803  1
  Ti  Ti15  1  0.349234  0.506887  0.373979  1
  Ti  Ti16  1  0.848646  0.992823  0.375417  1
  Ti  Ti17  1  0.008523  0.152940  0.123924  1
  Ti  Ti18  1  0.992805  0.848723  0.624565  1
  Si  Si19  1  0.203050  0.131048  0.683683  1
  Si  Si20  1  0.369370  0.702116  0.933563  1
  Si  Si21  1  0.631109  0.296666  0.433520  1
  Si  Si22  1  0.701881  0.369147  0.066485  1
  Si  Si23  1  0.297099  0.631693  0.566484  1
  Si  Si24  1  0.796905  0.869008  0.183702  1
  Si  Si25  1  0.131635  0.202614  0.316323  1
  Si  Si26  1  0.868584  0.797118  0.816249  1
  Si  Si27  1  0.291068  0.953510  0.064734  1
  Si  Si28  1  0.546181  0.792325  0.314739  1
  Si  Si29  1  0.452824  0.207981  0.815140  1
  Si  Si30  1  0.791785  0.546501  0.685296  1
  Si  Si31  1  0.208396  0.452595  0.184787  1
  Si  Si32  1  0.708072  0.046929  0.564822  1
  Si  Si33  1  0.953323  0.290895  0.935362  1
  Si  Si34  1  0.047281  0.708651  0.435192  1
  Mo  Mo35  1  0.326651  0.326540  0.000057  1
