# generated using pymatgen
data_CeGd(CoSi2)2
_symmetry_space_group_name_H-M   'P 1'
_cell_length_a   8.44829426
_cell_length_b   8.44829389
_cell_length_c   3.99652800
_cell_angle_alpha   90.00000000
_cell_angle_beta   90.00000000
_cell_angle_gamma   151.91612214
_symmetry_Int_Tables_number   1
_chemical_formula_structural   CeGd(CoSi2)2
_chemical_formula_sum   'Ce1 Gd1 Co2 Si4'
_cell_volume   134.28386203
_cell_formula_units_Z   1
loop_
 _symmetry_equiv_pos_site_id
 _symmetry_equiv_pos_as_xyz
  1  'x, y, z'
loop_
 _atom_site_type_symbol
 _atom_site_label
 _atom_site_symmetry_multiplicity
 _atom_site_fract_x
 _atom_site_fract_y
 _atom_site_fract_z
 _atom_site_occupancy
  Ce  Ce0  1  0.891747  0.108253  0.750000  1
  Gd  Gd1  1  0.108478  0.891522  0.250000  1
  Co  Co2  1  0.679535  0.320465  0.750000  1
  Co  Co3  1  0.321212  0.678788  0.250000  1
  Si  Si4  1  0.751064  0.248936  0.250000  1
  Si  Si5  1  0.247673  0.752327  0.750000  1
  Si  Si6  1  0.541602  0.458398  0.750000  1
  Si  Si7  1  0.458688  0.541312  0.250000  1
