# generated using pymatgen
data_Tb13Dy7Co3Bi8Ru
_symmetry_space_group_name_H-M   'P 1'
_cell_length_a   8.03225726
_cell_length_b   8.92357107
_cell_length_c   12.46455971
_cell_angle_alpha   89.99014597
_cell_angle_beta   90.18593451
_cell_angle_gamma   90.01034249
_symmetry_Int_Tables_number   1
_chemical_formula_structural   Tb13Dy7Co3Bi8Ru
_chemical_formula_sum   'Tb13 Dy7 Co3 Bi8 Ru1'
_cell_volume   893.41026616
_cell_formula_units_Z   1
loop_
 _symmetry_equiv_pos_site_id
 _symmetry_equiv_pos_as_xyz
  1  'x, y, z'
loop_
 _atom_site_type_symbol
 _atom_site_label
 _atom_site_symmetry_multiplicity
 _atom_site_fract_x
 _atom_site_fract_y
 _atom_site_fract_z
 _atom_site_occupancy
  Tb  Tb0  1  0.848052  0.750111  0.800804  1
  Tb  Tb1  1  0.150943  0.249936  0.197966  1
  Tb  Tb2  1  0.349079  0.249954  0.698253  1
  Tb  Tb3  1  0.652272  0.750024  0.297047  1
  Tb  Tb4  1  0.378737  0.749991  0.693042  1
  Tb  Tb5  1  0.618734  0.249996  0.310356  1
  Tb  Tb6  1  0.880710  0.249878  0.810808  1
  Tb  Tb7  1  0.118208  0.750206  0.187878  1
  Tb  Tb8  1  0.951658  0.750021  0.503818  1
  Tb  Tb9  1  0.047897  0.249996  0.496785  1
  Tb  Tb10  1  0.453719  0.249877  0.997290  1
  Tb  Tb11  1  0.547112  0.750099  0.002596  1
  Tb  Tb12  1  0.176458  0.533303  0.937210  1
  Dy  Dy13  1  0.676552  0.040563  0.563936  1
  Dy  Dy14  1  0.323416  0.966773  0.436698  1
  Dy  Dy15  1  0.175502  0.966633  0.937281  1
  Dy  Dy16  1  0.323395  0.533206  0.436728  1
  Dy  Dy17  1  0.823837  0.035333  0.062672  1
  Dy  Dy18  1  0.676558  0.459468  0.563933  1
  Dy  Dy19  1  0.823569  0.464702  0.062729  1
  Co  Co20  1  0.437164  0.250000  0.491247  1
  Co  Co21  1  0.058839  0.249735  0.992086  1
  Co  Co22  1  0.938890  0.750318  0.007381  1
  Bi  Bi23  1  0.571999  0.491933  0.826578  1
  Bi  Bi24  1  0.427658  0.507572  0.173666  1
  Bi  Bi25  1  0.071825  0.507370  0.674611  1
  Bi  Bi26  1  0.427721  0.992424  0.173640  1
  Bi  Bi27  1  0.929606  0.492328  0.325680  1
  Bi  Bi28  1  0.571571  0.007993  0.826681  1
  Bi  Bi29  1  0.929620  0.007672  0.325713  1
  Bi  Bi30  1  0.071908  0.992594  0.674780  1
  Ru  Ru31  1  0.566792  0.749992  0.510111  1
