# generated using pymatgen
data_Pr16Hg4Os3Pt
_symmetry_space_group_name_H-M   'P 1'
_cell_length_a   9.95933709
_cell_length_b   10.02059214
_cell_length_c   10.02059100
_cell_angle_alpha   60.00000046
_cell_angle_beta   59.79633367
_cell_angle_gamma   59.79633750
_symmetry_Int_Tables_number   1
_chemical_formula_structural   Pr16Hg4Os3Pt
_chemical_formula_sum   'Pr16 Hg4 Os3 Pt1'
_cell_volume   704.95005644
_cell_formula_units_Z   1
loop_
 _symmetry_equiv_pos_site_id
 _symmetry_equiv_pos_as_xyz
  1  'x, y, z'
loop_
 _atom_site_type_symbol
 _atom_site_label
 _atom_site_symmetry_multiplicity
 _atom_site_fract_x
 _atom_site_fract_y
 _atom_site_fract_z
 _atom_site_occupancy
  Pr  Pr0  1  0.345750  0.350898  0.350898  1
  Pr  Pr1  1  0.345750  0.350898  0.952454  1
  Pr  Pr2  1  0.345750  0.952454  0.350898  1
  Pr  Pr3  1  0.958771  0.347076  0.347076  1
  Pr  Pr4  1  0.813860  0.191611  0.191611  1
  Pr  Pr5  1  0.190179  0.809938  0.809938  1
  Pr  Pr6  1  0.190179  0.809938  0.189945  1
  Pr  Pr7  1  0.813860  0.191611  0.802917  1
  Pr  Pr8  1  0.190179  0.189945  0.809938  1
  Pr  Pr9  1  0.813860  0.802917  0.191611  1
  Pr  Pr10  1  0.938686  0.560722  0.560722  1
  Pr  Pr11  1  0.556427  0.939623  0.939623  1
  Pr  Pr12  1  0.556427  0.939623  0.564328  1
  Pr  Pr13  1  0.938686  0.560722  0.939869  1
  Pr  Pr14  1  0.556427  0.564328  0.939623  1
  Pr  Pr15  1  0.938686  0.939869  0.560722  1
  Hg  Hg16  1  0.583305  0.583570  0.583570  1
  Hg  Hg17  1  0.583305  0.583570  0.249553  1
  Hg  Hg18  1  0.583305  0.249553  0.583570  1
  Hg  Hg19  1  0.249778  0.583407  0.583407  1
  Os  Os20  1  0.143289  0.138126  0.138126  1
  Os  Os21  1  0.143289  0.138126  0.580458  1
  Os  Os22  1  0.143289  0.580458  0.138126  1
  Pt  Pt23  1  0.576959  0.141014  0.141014  1
