# generated using pymatgen
data_LiB4Ru2W
_symmetry_space_group_name_H-M   'P 1'
_cell_length_a   2.97840100
_cell_length_b   4.33410566
_cell_length_c   6.01424453
_cell_angle_alpha   90.34768230
_cell_angle_beta   90.00000000
_cell_angle_gamma   90.00000000
_symmetry_Int_Tables_number   1
_chemical_formula_structural   LiB4Ru2W
_chemical_formula_sum   'Li1 B4 Ru2 W1'
_cell_volume   77.63467685
_cell_formula_units_Z   1
loop_
 _symmetry_equiv_pos_site_id
 _symmetry_equiv_pos_as_xyz
  1  'x, y, z'
loop_
 _atom_site_type_symbol
 _atom_site_label
 _atom_site_symmetry_multiplicity
 _atom_site_fract_x
 _atom_site_fract_y
 _atom_site_fract_z
 _atom_site_occupancy
  Li  Li0  1  0.500000  0.362780  0.319257  1
  B  B1  1  0.000000  0.646496  0.530698  1
  B  B2  1  0.000000  0.350449  0.027438  1
  B  B3  1  0.500000  0.844562  0.469841  1
  B  B4  1  0.500000  0.142242  0.973496  1
  Ru  Ru5  1  0.000000  0.148138  0.655995  1
  Ru  Ru6  1  0.000000  0.868977  0.198198  1
  W  W7  1  0.500000  0.636356  0.825074  1
