# generated using pymatgen
data_Sr2Ca3Si6Sn
_symmetry_space_group_name_H-M   'P 1'
_cell_length_a   9.21760100
_cell_length_b   9.24457362
_cell_length_c   4.10046200
_cell_angle_alpha   90.00000000
_cell_angle_beta   90.00000000
_cell_angle_gamma   120.09684848
_symmetry_Int_Tables_number   1
_chemical_formula_structural   Sr2Ca3Si6Sn
_chemical_formula_sum   'Sr2 Ca3 Si6 Sn1'
_cell_volume   302.30376325
_cell_formula_units_Z   1
loop_
 _symmetry_equiv_pos_site_id
 _symmetry_equiv_pos_as_xyz
  1  'x, y, z'
loop_
 _atom_site_type_symbol
 _atom_site_label
 _atom_site_symmetry_multiplicity
 _atom_site_fract_x
 _atom_site_fract_y
 _atom_site_fract_z
 _atom_site_occupancy
  Sr  Sr0  1  0.344204  0.675520  0.000000  1
  Sr  Sr1  1  0.655796  0.331315  0.000000  1
  Ca  Ca2  1  0.000000  0.760341  0.500000  1
  Ca  Ca3  1  0.253061  0.247454  0.500000  1
  Ca  Ca4  1  0.746939  0.994394  0.500000  1
  Si  Si5  1  0.000000  0.992960  0.000000  1
  Si  Si6  1  0.000000  0.249078  0.000000  1
  Si  Si7  1  0.732126  0.735832  0.000000  1
  Si  Si8  1  0.267874  0.003707  0.000000  1
  Si  Si9  1  0.588265  0.586172  0.500000  1
  Si  Si10  1  0.411735  0.997907  0.500000  1
  Sn  Sn11  1  0.000000  0.425320  0.500000  1
