# generated using pymatgen
data_Pr10Si4HgPb
_symmetry_space_group_name_H-M   'P 1'
_cell_length_a   7.93491228
_cell_length_b   7.93491157
_cell_length_c   9.29506658
_cell_angle_alpha   115.26685054
_cell_angle_beta   115.26685397
_cell_angle_gamma   89.99999707
_symmetry_Int_Tables_number   1
_chemical_formula_structural   Pr10Si4HgPb
_chemical_formula_sum   'Pr10 Si4 Hg1 Pb1'
_cell_volume   466.59162975
_cell_formula_units_Z   1
loop_
 _symmetry_equiv_pos_site_id
 _symmetry_equiv_pos_as_xyz
  1  'x, y, z'
loop_
 _atom_site_type_symbol
 _atom_site_label
 _atom_site_symmetry_multiplicity
 _atom_site_fract_x
 _atom_site_fract_y
 _atom_site_fract_z
 _atom_site_occupancy
  Pr  Pr0  1  0.517181  0.517181  0.034362  1
  Pr  Pr1  1  0.982819  0.982819  0.965638  1
  Pr  Pr2  1  0.970022  0.820773  0.277316  1
  Pr  Pr3  1  0.307294  0.456543  0.277316  1
  Pr  Pr4  1  0.820773  0.307294  0.277316  1
  Pr  Pr5  1  0.456543  0.970022  0.277316  1
  Pr  Pr6  1  0.043457  0.192706  0.722684  1
  Pr  Pr7  1  0.679227  0.529978  0.722684  1
  Pr  Pr8  1  0.192706  0.679227  0.722684  1
  Pr  Pr9  1  0.529978  0.043457  0.722684  1
  Si  Si10  1  0.614747  0.885253  0.000000  1
  Si  Si11  1  0.385253  0.114747  0.000000  1
  Si  Si12  1  0.885253  0.385253  0.000000  1
  Si  Si13  1  0.114747  0.614747  0.000000  1
  Hg  Hg14  1  0.250000  0.250000  0.500000  1
  Pb  Pb15  1  0.750000  0.750000  0.500000  1
