# generated using pymatgen
data_Tb3Dy2Tm3(CdIr)2
_symmetry_space_group_name_H-M   'P 1'
_cell_length_a   9.60506053
_cell_length_b   9.60506050
_cell_length_c   9.60506000
_cell_angle_alpha   59.99999484
_cell_angle_beta   59.99999494
_cell_angle_gamma   60.00000249
_symmetry_Int_Tables_number   1
_chemical_formula_structural   Tb3Dy2Tm3(CdIr)2
_chemical_formula_sum   'Tb6 Dy4 Tm6 Cd4 Ir4'
_cell_volume   626.59261177
_cell_formula_units_Z   2
loop_
 _symmetry_equiv_pos_site_id
 _symmetry_equiv_pos_as_xyz
  1  'x, y, z'
loop_
 _atom_site_type_symbol
 _atom_site_label
 _atom_site_symmetry_multiplicity
 _atom_site_fract_x
 _atom_site_fract_y
 _atom_site_fract_z
 _atom_site_occupancy
  Tb  Tb0  1  0.188737  0.811263  0.811263  1
  Tb  Tb1  1  0.811263  0.188737  0.188737  1
  Tb  Tb2  1  0.811263  0.188737  0.811263  1
  Tb  Tb3  1  0.188737  0.811263  0.188737  1
  Tb  Tb4  1  0.811263  0.811263  0.188737  1
  Tb  Tb5  1  0.188737  0.188737  0.811263  1
  Dy  Dy6  1  0.599281  0.599281  0.599281  1
  Dy  Dy7  1  0.599281  0.599281  0.202158  1
  Dy  Dy8  1  0.599281  0.202158  0.599281  1
  Dy  Dy9  1  0.202158  0.599281  0.599281  1
  Tm  Tm10  1  0.062300  0.437700  0.437700  1
  Tm  Tm11  1  0.437700  0.062300  0.062300  1
  Tm  Tm12  1  0.437700  0.062300  0.437700  1
  Tm  Tm13  1  0.062300  0.437700  0.062300  1
  Tm  Tm14  1  0.437700  0.437700  0.062300  1
  Tm  Tm15  1  0.062300  0.062300  0.437700  1
  Cd  Cd16  1  0.830605  0.830605  0.830605  1
  Cd  Cd17  1  0.830605  0.830605  0.508186  1
  Cd  Cd18  1  0.830605  0.508186  0.830605  1
  Cd  Cd19  1  0.508186  0.830605  0.830605  1
  Ir  Ir20  1  0.391034  0.391034  0.391034  1
  Ir  Ir21  1  0.391034  0.391034  0.826897  1
  Ir  Ir22  1  0.391034  0.826897  0.391034  1
  Ir  Ir23  1  0.826897  0.391034  0.391034  1
