# generated using pymatgen
data_Ca5Yb(SmBi3)2
_symmetry_space_group_name_H-M   'P 1'
_cell_length_a   8.26712467
_cell_length_b   8.42521123
_cell_length_c   8.42578121
_cell_angle_alpha   109.84248976
_cell_angle_beta   109.08927869
_cell_angle_gamma   109.09033715
_symmetry_Int_Tables_number   1
_chemical_formula_structural   Ca5Yb(SmBi3)2
_chemical_formula_sum   'Ca5 Yb1 Sm2 Bi6'
_cell_volume   453.92678325
_cell_formula_units_Z   1
loop_
 _symmetry_equiv_pos_site_id
 _symmetry_equiv_pos_as_xyz
  1  'x, y, z'
loop_
 _atom_site_type_symbol
 _atom_site_label
 _atom_site_symmetry_multiplicity
 _atom_site_fract_x
 _atom_site_fract_y
 _atom_site_fract_z
 _atom_site_occupancy
  Ca  Ca0  1  0.501024  0.998556  0.645824  1
  Ca  Ca1  1  0.355121  0.352703  0.354302  1
  Ca  Ca2  1  0.502634  0.001520  0.147368  1
  Ca  Ca3  1  0.002460  0.647256  0.501482  1
  Ca  Ca4  1  0.855143  0.854188  0.852745  1
  Yb  Yb5  1  0.000997  0.145874  0.498582  1
  Sm  Sm6  1  0.139253  0.499836  0.999775  1
  Sm  Sm7  1  0.639378  0.499968  0.999938  1
  Bi  Bi8  1  0.376227  0.623773  0.753144  1
  Bi  Bi9  1  0.876535  0.253269  0.124271  1
  Bi  Bi10  1  0.623397  0.747019  0.370827  1
  Bi  Bi11  1  0.123072  0.870915  0.246852  1
  Bi  Bi12  1  0.252268  0.129259  0.875715  1
  Bi  Bi13  1  0.752492  0.375863  0.629176  1
