# generated using pymatgen
data_Eu5SnRh2
_symmetry_space_group_name_H-M   'P 1'
_cell_length_a   9.27706271
_cell_length_b   9.27706209
_cell_length_c   9.27706255
_cell_angle_alpha   128.41999934
_cell_angle_beta   128.41999900
_cell_angle_gamma   75.94563022
_symmetry_Int_Tables_number   1
_chemical_formula_structural   Eu5SnRh2
_chemical_formula_sum   'Eu10 Sn2 Rh4'
_cell_volume   476.55241735
_cell_formula_units_Z   2
loop_
 _symmetry_equiv_pos_site_id
 _symmetry_equiv_pos_as_xyz
  1  'x, y, z'
loop_
 _atom_site_type_symbol
 _atom_site_label
 _atom_site_symmetry_multiplicity
 _atom_site_fract_x
 _atom_site_fract_y
 _atom_site_fract_z
 _atom_site_occupancy
  Eu  Eu0  1  0.536103  0.036103  0.836833  1
  Eu  Eu1  1  0.199269  0.699269  0.163167  1
  Eu  Eu2  1  0.036103  0.199269  0.500000  1
  Eu  Eu3  1  0.699269  0.536103  0.500000  1
  Eu  Eu4  1  0.463897  0.963897  0.163167  1
  Eu  Eu5  1  0.800731  0.300731  0.836833  1
  Eu  Eu6  1  0.963897  0.800731  0.500000  1
  Eu  Eu7  1  0.300731  0.463897  0.500000  1
  Eu  Eu8  1  0.500000  0.500000  0.000000  1
  Eu  Eu9  1  0.000000  0.000000  0.000000  1
  Sn  Sn10  1  0.250000  0.250000  0.000000  1
  Sn  Sn11  1  0.750000  0.750000  0.000000  1
  Rh  Rh12  1  0.872502  0.372502  0.245003  1
  Rh  Rh13  1  0.127498  0.627498  0.754997  1
  Rh  Rh14  1  0.372502  0.127498  0.500000  1
  Rh  Rh15  1  0.627498  0.872502  0.500000  1
