# generated using pymatgen
data_Ac5Bi2Ru
_symmetry_space_group_name_H-M   'P 1'
_cell_length_a   8.96501500
_cell_length_b   9.62274100
_cell_length_c   13.61672600
_cell_angle_alpha   90.00000000
_cell_angle_beta   90.00000000
_cell_angle_gamma   90.00000000
_symmetry_Int_Tables_number   1
_chemical_formula_structural   Ac5Bi2Ru
_chemical_formula_sum   'Ac20 Bi8 Ru4'
_cell_volume   1174.68795558
_cell_formula_units_Z   4
loop_
 _symmetry_equiv_pos_site_id
 _symmetry_equiv_pos_as_xyz
  1  'x, y, z'
loop_
 _atom_site_type_symbol
 _atom_site_label
 _atom_site_symmetry_multiplicity
 _atom_site_fract_x
 _atom_site_fract_y
 _atom_site_fract_z
 _atom_site_occupancy
  Ac  Ac0  1  0.656453  0.750000  0.703794  1
  Ac  Ac1  1  0.343547  0.250000  0.296206  1
  Ac  Ac2  1  0.156453  0.250000  0.796206  1
  Ac  Ac3  1  0.843547  0.750000  0.203794  1
  Ac  Ac4  1  0.129161  0.750000  0.809449  1
  Ac  Ac5  1  0.870839  0.250000  0.190551  1
  Ac  Ac6  1  0.629161  0.250000  0.690551  1
  Ac  Ac7  1  0.370839  0.750000  0.309449  1
  Ac  Ac8  1  0.558849  0.750000  0.995361  1
  Ac  Ac9  1  0.441151  0.250000  0.004639  1
  Ac  Ac10  1  0.058849  0.250000  0.504639  1
  Ac  Ac11  1  0.941151  0.750000  0.495361  1
  Ac  Ac12  1  0.826687  0.462330  0.929846  1
  Ac  Ac13  1  0.173313  0.537670  0.070154  1
  Ac  Ac14  1  0.326687  0.537670  0.570154  1
  Ac  Ac15  1  0.173313  0.962330  0.070154  1
  Ac  Ac16  1  0.673313  0.462330  0.429846  1
  Ac  Ac17  1  0.826687  0.037670  0.929846  1
  Ac  Ac18  1  0.673313  0.037670  0.429846  1
  Ac  Ac19  1  0.326687  0.962330  0.570154  1
  Bi  Bi20  1  0.932436  0.004773  0.671342  1
  Bi  Bi21  1  0.067564  0.995227  0.328658  1
  Bi  Bi22  1  0.432436  0.995227  0.828658  1
  Bi  Bi23  1  0.067564  0.504773  0.328658  1
  Bi  Bi24  1  0.567564  0.004773  0.171342  1
  Bi  Bi25  1  0.932436  0.495227  0.671342  1
  Bi  Bi26  1  0.567564  0.495227  0.171342  1
  Bi  Bi27  1  0.432436  0.504773  0.828658  1
  Ru  Ru28  1  0.924981  0.750000  0.991612  1
  Ru  Ru29  1  0.075019  0.250000  0.008388  1
  Ru  Ru30  1  0.424981  0.250000  0.508388  1
  Ru  Ru31  1  0.575019  0.750000  0.491612  1
