# generated using pymatgen
data_NaEu(BIr)4
_symmetry_space_group_name_H-M   'P 1'
_cell_length_a   7.05743239
_cell_length_b   6.12264499
_cell_length_c   5.53500946
_cell_angle_alpha   74.32188765
_cell_angle_beta   56.64382483
_cell_angle_gamma   49.03427992
_symmetry_Int_Tables_number   1
_chemical_formula_structural   NaEu(BIr)4
_chemical_formula_sum   'Na1 Eu1 B4 Ir4'
_cell_volume   149.29452316
_cell_formula_units_Z   1
loop_
 _symmetry_equiv_pos_site_id
 _symmetry_equiv_pos_as_xyz
  1  'x, y, z'
loop_
 _atom_site_type_symbol
 _atom_site_label
 _atom_site_symmetry_multiplicity
 _atom_site_fract_x
 _atom_site_fract_y
 _atom_site_fract_z
 _atom_site_occupancy
  Na  Na0  1  0.750000  0.750000  0.750000  1
  Eu  Eu1  1  0.500000  0.500000  0.500000  1
  B  B2  1  0.069900  0.430100  0.069900  1
  B  B3  1  0.823175  0.176825  0.823175  1
  B  B4  1  0.430100  0.069900  0.430100  1
  B  B5  1  0.176825  0.823175  0.176825  1
  Ir  Ir6  1  0.379989  0.379989  0.120011  1
  Ir  Ir7  1  0.132187  0.132187  0.867813  1
  Ir  Ir8  1  0.867813  0.867813  0.132187  1
  Ir  Ir9  1  0.120011  0.120011  0.379989  1
