# generated using pymatgen
data_Tb4Ga18OsRu3Rh2
_symmetry_space_group_name_H-M   'P 1'
_cell_length_a   7.54124449
_cell_length_b   7.54124413
_cell_length_c   9.68121804
_cell_angle_alpha   90.02074839
_cell_angle_beta   90.02075069
_cell_angle_gamma   119.87390819
_symmetry_Int_Tables_number   1
_chemical_formula_structural   Tb4Ga18OsRu3Rh2
_chemical_formula_sum   'Tb4 Ga18 Os1 Ru3 Rh2'
_cell_volume   477.41597627
_cell_formula_units_Z   1
loop_
 _symmetry_equiv_pos_site_id
 _symmetry_equiv_pos_as_xyz
  1  'x, y, z'
loop_
 _atom_site_type_symbol
 _atom_site_label
 _atom_site_symmetry_multiplicity
 _atom_site_fract_x
 _atom_site_fract_y
 _atom_site_fract_z
 _atom_site_occupancy
  Tb  Tb0  1  0.995576  0.666176  0.249045  1
  Tb  Tb1  1  0.002058  0.331832  0.750462  1
  Tb  Tb2  1  0.668168  0.997942  0.249538  1
  Tb  Tb3  1  0.333824  0.004424  0.750955  1
  Ga  Ga4  1  0.128010  0.128236  0.250253  1
  Ga  Ga5  1  0.871764  0.871990  0.749747  1
  Ga  Ga6  1  0.004471  0.334977  0.075895  1
  Ga  Ga7  1  0.997639  0.665120  0.923166  1
  Ga  Ga8  1  0.997132  0.664777  0.576473  1
  Ga  Ga9  1  0.335223  0.002868  0.423527  1
  Ga  Ga10  1  0.003528  0.335478  0.424392  1
  Ga  Ga11  1  0.664522  0.996472  0.575608  1
  Ga  Ga12  1  0.665023  0.995529  0.924105  1
  Ga  Ga13  1  0.334880  0.002361  0.076834  1
  Ga  Ga14  1  0.337770  0.337995  0.561684  1
  Ga  Ga15  1  0.662005  0.662230  0.438316  1
  Ga  Ga16  1  0.661433  0.662363  0.061495  1
  Ga  Ga17  1  0.337637  0.338567  0.938505  1
  Ga  Ga18  1  0.335998  0.548084  0.250182  1
  Ga  Ga19  1  0.664131  0.453708  0.749157  1
  Ga  Ga20  1  0.546292  0.335869  0.250843  1
  Ga  Ga21  1  0.451916  0.664002  0.749818  1
  Os  Os22  1  0.673911  0.326089  0.000000  1
  Ru  Ru23  1  0.326348  0.673652  0.000000  1
  Ru  Ru24  1  0.326332  0.673668  0.500000  1
  Ru  Ru25  1  0.673696  0.326304  0.500000  1
  Rh  Rh26  1  0.000371  0.999629  0.000000  1
  Rh  Rh27  1  0.000345  0.999655  0.500000  1
