# generated using pymatgen
data_TbTm3Lu4In3Co
_symmetry_space_group_name_H-M   'P 1'
_cell_length_a   10.18963900
_cell_length_b   10.18964042
_cell_length_c   6.96966600
_cell_angle_alpha   90.00000000
_cell_angle_beta   90.00000000
_cell_angle_gamma   120.00000514
_symmetry_Int_Tables_number   1
_chemical_formula_structural   TbTm3Lu4In3Co
_chemical_formula_sum   'Tb2 Tm6 Lu8 In6 Co2'
_cell_volume   626.70077540
_cell_formula_units_Z   2
loop_
 _symmetry_equiv_pos_site_id
 _symmetry_equiv_pos_as_xyz
  1  'x, y, z'
loop_
 _atom_site_type_symbol
 _atom_site_label
 _atom_site_symmetry_multiplicity
 _atom_site_fract_x
 _atom_site_fract_y
 _atom_site_fract_z
 _atom_site_occupancy
  Tb  Tb0  1  0.000000  0.000000  0.495326  1
  Tb  Tb1  1  0.000000  0.000000  0.995326  1
  Tm  Tm2  1  0.464899  0.535101  0.482009  1
  Tm  Tm3  1  0.070203  0.535101  0.482009  1
  Tm  Tm4  1  0.464899  0.929797  0.482009  1
  Tm  Tm5  1  0.535101  0.464899  0.982009  1
  Tm  Tm6  1  0.929797  0.464899  0.982009  1
  Tm  Tm7  1  0.535101  0.070203  0.982009  1
  Lu  Lu8  1  0.820211  0.179789  0.276877  1
  Lu  Lu9  1  0.359579  0.179789  0.276877  1
  Lu  Lu10  1  0.820211  0.640421  0.276877  1
  Lu  Lu11  1  0.179789  0.820211  0.776877  1
  Lu  Lu12  1  0.640421  0.820211  0.776877  1
  Lu  Lu13  1  0.179789  0.359579  0.776877  1
  Lu  Lu14  1  0.333333  0.666667  0.090436  1
  Lu  Lu15  1  0.666667  0.333333  0.590436  1
  In  In16  1  0.163507  0.836493  0.234224  1
  In  In17  1  0.672985  0.836493  0.234224  1
  In  In18  1  0.163507  0.327015  0.234224  1
  In  In19  1  0.836493  0.163507  0.734224  1
  In  In20  1  0.327015  0.163507  0.734224  1
  In  In21  1  0.836493  0.672985  0.734224  1
  Co  Co22  1  0.333333  0.666667  0.707184  1
  Co  Co23  1  0.666667  0.333333  0.207184  1
