# generated using pymatgen
data_Nd8Sc12Ga11Ge5
_symmetry_space_group_name_H-M   'P 1'
_cell_length_a   7.37600406
_cell_length_b   7.68780575
_cell_length_c   14.52522479
_cell_angle_alpha   89.98509366
_cell_angle_beta   90.05368156
_cell_angle_gamma   90.07598699
_symmetry_Int_Tables_number   1
_chemical_formula_structural   Nd8Sc12Ga11Ge5
_chemical_formula_sum   'Nd8 Sc12 Ga11 Ge5'
_cell_volume   823.65591865
_cell_formula_units_Z   1
loop_
 _symmetry_equiv_pos_site_id
 _symmetry_equiv_pos_as_xyz
  1  'x, y, z'
loop_
 _atom_site_type_symbol
 _atom_site_label
 _atom_site_symmetry_multiplicity
 _atom_site_fract_x
 _atom_site_fract_y
 _atom_site_fract_z
 _atom_site_occupancy
  Nd  Nd0  1  0.012994  0.175262  0.404555  1
  Nd  Nd1  1  0.513182  0.325143  0.405395  1
  Nd  Nd2  1  0.487380  0.675663  0.904677  1
  Nd  Nd3  1  0.488174  0.678022  0.594212  1
  Nd  Nd4  1  0.988727  0.821301  0.594746  1
  Nd  Nd5  1  0.987798  0.824699  0.904296  1
  Nd  Nd6  1  0.511299  0.323908  0.095562  1
  Nd  Nd7  1  0.010887  0.177644  0.095959  1
  Sc  Sc8  1  0.328491  0.171494  0.622682  1
  Sc  Sc9  1  0.671636  0.825863  0.377101  1
  Sc  Sc10  1  0.664458  0.996385  0.750937  1
  Sc  Sc11  1  0.173568  0.674107  0.376464  1
  Sc  Sc12  1  0.824726  0.326612  0.876354  1
  Sc  Sc13  1  0.826947  0.328476  0.623117  1
  Sc  Sc14  1  0.838106  0.498340  0.250786  1
  Sc  Sc15  1  0.337040  0.002729  0.251068  1
  Sc  Sc16  1  0.330652  0.173824  0.875635  1
  Sc  Sc17  1  0.171477  0.671243  0.124546  1
  Sc  Sc18  1  0.671464  0.827207  0.123430  1
  Sc  Sc19  1  0.160826  0.501315  0.750566  1
  Ga  Ga20  1  0.286300  0.880297  0.749379  1
  Ga  Ga21  1  0.470223  0.622329  0.250982  1
  Ga  Ga22  1  0.031094  0.123977  0.749025  1
  Ga  Ga23  1  0.529210  0.379105  0.749031  1
  Ga  Ga24  1  0.157603  0.463283  0.542018  1
  Ga  Ga25  1  0.968379  0.876890  0.250156  1
  Ga  Ga26  1  0.713053  0.120101  0.250853  1
  Ga  Ga27  1  0.844210  0.536605  0.042210  1
  Ga  Ga28  1  0.340317  0.961392  0.041958  1
  Ga  Ga29  1  0.155123  0.462598  0.957417  1
  Ga  Ga30  1  0.659404  0.037934  0.541825  1
  Ge  Ge31  1  0.343054  0.962638  0.457520  1
  Ge  Ge32  1  0.845340  0.536181  0.456801  1
  Ge  Ge33  1  0.786629  0.620024  0.749255  1
  Ge  Ge34  1  0.213657  0.379787  0.251008  1
  Ge  Ge35  1  0.656576  0.037623  0.958473  1
