# generated using pymatgen
data_Ca5Eu5Au8
_symmetry_space_group_name_H-M   'P 1'
_cell_length_a   8.24334252
_cell_length_b   7.96697066
_cell_length_c   8.21203775
_cell_angle_alpha   70.54354952
_cell_angle_beta   90.03434304
_cell_angle_gamma   90.03193622
_symmetry_Int_Tables_number   1
_chemical_formula_structural   Ca5Eu5Au8
_chemical_formula_sum   'Ca5 Eu5 Au8'
_cell_volume   508.52311205
_cell_formula_units_Z   1
loop_
 _symmetry_equiv_pos_site_id
 _symmetry_equiv_pos_as_xyz
  1  'x, y, z'
loop_
 _atom_site_type_symbol
 _atom_site_label
 _atom_site_symmetry_multiplicity
 _atom_site_fract_x
 _atom_site_fract_y
 _atom_site_fract_z
 _atom_site_occupancy
  Ca  Ca0  1  0.998614  0.998721  0.001203  1
  Ca  Ca1  1  0.830831  0.247245  0.253831  1
  Ca  Ca2  1  0.169180  0.752433  0.745899  1
  Ca  Ca3  1  0.669920  0.747389  0.254399  1
  Ca  Ca4  1  0.500865  0.501121  0.000810  1
  Eu  Eu5  1  0.321341  0.067271  0.306965  1
  Eu  Eu6  1  0.177692  0.567926  0.306468  1
  Eu  Eu7  1  0.821677  0.432744  0.692448  1
  Eu  Eu8  1  0.331004  0.252719  0.744881  1
  Eu  Eu9  1  0.679371  0.932219  0.692893  1
  Au  Au10  1  0.868170  0.629935  0.989803  1
  Au  Au11  1  0.965344  0.856268  0.416915  1
  Au  Au12  1  0.130498  0.370757  0.011720  1
  Au  Au13  1  0.536927  0.357068  0.414108  1
  Au  Au14  1  0.367925  0.867950  0.012325  1
  Au  Au15  1  0.466103  0.646530  0.581972  1
  Au  Au16  1  0.031645  0.142081  0.581755  1
  Au  Au17  1  0.632893  0.129624  0.991605  1
