# generated using pymatgen
data_Dy15Th(InRu)4
_symmetry_space_group_name_H-M   'P 1'
_cell_length_a   9.68496702
_cell_length_b   9.68496737
_cell_length_c   9.68496637
_cell_angle_alpha   59.81210914
_cell_angle_beta   59.81211511
_cell_angle_gamma   59.81210262
_symmetry_Int_Tables_number   1
_chemical_formula_structural   Dy15Th(InRu)4
_chemical_formula_sum   'Dy15 Th1 In4 Ru4'
_cell_volume   639.62173674
_cell_formula_units_Z   1
loop_
 _symmetry_equiv_pos_site_id
 _symmetry_equiv_pos_as_xyz
  1  'x, y, z'
loop_
 _atom_site_type_symbol
 _atom_site_label
 _atom_site_symmetry_multiplicity
 _atom_site_fract_x
 _atom_site_fract_y
 _atom_site_fract_z
 _atom_site_occupancy
  Dy  Dy0  1  0.600468  0.600468  0.201952  1
  Dy  Dy1  1  0.600468  0.201952  0.600468  1
  Dy  Dy2  1  0.201952  0.600468  0.600468  1
  Dy  Dy3  1  0.059827  0.441122  0.441122  1
  Dy  Dy4  1  0.440666  0.057576  0.057576  1
  Dy  Dy5  1  0.441122  0.059827  0.441122  1
  Dy  Dy6  1  0.057576  0.440666  0.057576  1
  Dy  Dy7  1  0.441122  0.441122  0.059827  1
  Dy  Dy8  1  0.057576  0.057576  0.440666  1
  Dy  Dy9  1  0.187244  0.812004  0.812004  1
  Dy  Dy10  1  0.806692  0.194210  0.194210  1
  Dy  Dy11  1  0.812004  0.187244  0.812004  1
  Dy  Dy12  1  0.194210  0.806692  0.194210  1
  Dy  Dy13  1  0.812004  0.812004  0.187244  1
  Dy  Dy14  1  0.194210  0.194210  0.806692  1
  Th  Th15  1  0.593375  0.593375  0.593375  1
  In  In16  1  0.831737  0.831737  0.831737  1
  In  In17  1  0.832425  0.832425  0.500562  1
  In  In18  1  0.832425  0.500562  0.832425  1
  In  In19  1  0.500562  0.832425  0.832425  1
  Ru  Ru20  1  0.389633  0.389633  0.389633  1
  Ru  Ru21  1  0.391495  0.391495  0.829717  1
  Ru  Ru22  1  0.391495  0.829717  0.391495  1
  Ru  Ru23  1  0.829717  0.391495  0.391495  1
