# generated using pymatgen
data_Ba6AgAsPb8
_symmetry_space_group_name_H-M   'P 1'
_cell_length_a   9.43953791
_cell_length_b   9.43953808
_cell_length_c   9.55356100
_cell_angle_alpha   119.60597532
_cell_angle_beta   119.60597591
_cell_angle_gamma   90.00000282
_symmetry_Int_Tables_number   1
_chemical_formula_structural   Ba6AgAsPb8
_chemical_formula_sum   'Ba6 Ag1 As1 Pb8'
_cell_volume   609.03732311
_cell_formula_units_Z   1
loop_
 _symmetry_equiv_pos_site_id
 _symmetry_equiv_pos_as_xyz
  1  'x, y, z'
loop_
 _atom_site_type_symbol
 _atom_site_label
 _atom_site_symmetry_multiplicity
 _atom_site_fract_x
 _atom_site_fract_y
 _atom_site_fract_z
 _atom_site_occupancy
  Ba  Ba0  1  0.237451  0.237451  0.474904  1
  Ba  Ba1  1  0.762549  0.762549  0.525096  1
  Ba  Ba2  1  0.681353  0.153815  0.000000  1
  Ba  Ba3  1  0.318647  0.846185  0.000000  1
  Ba  Ba4  1  0.846185  0.681353  0.000000  1
  Ba  Ba5  1  0.153815  0.318647  0.000000  1
  Ag  Ag6  1  0.500000  0.500000  0.000000  1
  As  As7  1  0.000000  0.000000  0.000000  1
  Pb  Pb8  1  0.336621  0.829789  0.381835  1
  Pb  Pb9  1  0.663379  0.170211  0.618165  1
  Pb  Pb10  1  0.045215  0.552047  0.381835  1
  Pb  Pb11  1  0.552047  0.336621  0.381835  1
  Pb  Pb12  1  0.170211  0.954785  0.618165  1
  Pb  Pb13  1  0.954785  0.447953  0.618165  1
  Pb  Pb14  1  0.447953  0.663379  0.618165  1
  Pb  Pb15  1  0.829789  0.045215  0.381835  1
