# generated using pymatgen
data_Y12Co4BiIr
_symmetry_space_group_name_H-M   'P 1'
_cell_length_a   8.39318327
_cell_length_b   8.39318332
_cell_length_c   8.39318272
_cell_angle_alpha   110.55595419
_cell_angle_beta   111.15375412
_cell_angle_gamma   106.73862444
_symmetry_Int_Tables_number   1
_chemical_formula_structural   Y12Co4BiIr
_chemical_formula_sum   'Y12 Co4 Bi1 Ir1'
_cell_volume   454.36900519
_cell_formula_units_Z   1
loop_
 _symmetry_equiv_pos_site_id
 _symmetry_equiv_pos_as_xyz
  1  'x, y, z'
loop_
 _atom_site_type_symbol
 _atom_site_label
 _atom_site_symmetry_multiplicity
 _atom_site_fract_x
 _atom_site_fract_y
 _atom_site_fract_z
 _atom_site_occupancy
  Y  Y0  1  0.287211  0.182495  0.469705  1
  Y  Y1  1  0.712789  0.817505  0.530295  1
  Y  Y2  1  0.287211  0.817505  0.104717  1
  Y  Y3  1  0.712789  0.182495  0.895283  1
  Y  Y4  1  0.619899  0.311569  0.308330  1
  Y  Y5  1  0.380101  0.688431  0.691670  1
  Y  Y6  1  0.003240  0.311569  0.691670  1
  Y  Y7  1  0.996760  0.688431  0.308330  1
  Y  Y8  1  0.209925  0.407438  0.197513  1
  Y  Y9  1  0.790075  0.592562  0.802487  1
  Y  Y10  1  0.209925  0.012412  0.802487  1
  Y  Y11  1  0.790075  0.987588  0.197513  1
  Co  Co12  1  0.000000  0.380106  0.380106  1
  Co  Co13  1  0.000000  0.619894  0.619894  1
  Co  Co14  1  0.390328  0.890328  0.500000  1
  Co  Co15  1  0.609672  0.109672  0.500000  1
  Bi  Bi16  1  0.500000  0.500000  0.000000  1
  Ir  Ir17  1  0.000000  0.000000  0.000000  1
