# generated using pymatgen
data_Tb7Y12Lu(Cd3Fe)2
_symmetry_space_group_name_H-M   'P 1'
_cell_length_a   9.56954252
_cell_length_b   9.56954184
_cell_length_c   9.84147411
_cell_angle_alpha   89.92084210
_cell_angle_beta   90.07915472
_cell_angle_gamma   120.01500206
_symmetry_Int_Tables_number   1
_chemical_formula_structural   Tb7Y12Lu(Cd3Fe)2
_chemical_formula_sum   'Tb7 Y12 Lu1 Cd6 Fe2'
_cell_volume   780.38135172
_cell_formula_units_Z   1
loop_
 _symmetry_equiv_pos_site_id
 _symmetry_equiv_pos_as_xyz
  1  'x, y, z'
loop_
 _atom_site_type_symbol
 _atom_site_label
 _atom_site_symmetry_multiplicity
 _atom_site_fract_x
 _atom_site_fract_y
 _atom_site_fract_z
 _atom_site_occupancy
  Tb  Tb0  1  0.211187  0.788813  0.436646  1
  Tb  Tb1  1  0.211164  0.422371  0.436778  1
  Tb  Tb2  1  0.577629  0.788836  0.436778  1
  Tb  Tb3  1  0.789100  0.210900  0.562991  1
  Tb  Tb4  1  0.788683  0.577494  0.563324  1
  Tb  Tb5  1  0.422506  0.211317  0.563324  1
  Tb  Tb6  1  0.787649  0.212351  0.936290  1
  Y  Y7  1  0.999857  0.000143  0.999858  1
  Y  Y8  1  0.788248  0.576720  0.937450  1
  Y  Y9  1  0.423280  0.211752  0.937450  1
  Y  Y10  1  0.211792  0.788208  0.062854  1
  Y  Y11  1  0.211713  0.423691  0.062776  1
  Y  Y12  1  0.576309  0.788287  0.062776  1
  Y  Y13  1  0.540827  0.459173  0.250400  1
  Y  Y14  1  0.540806  0.081754  0.250283  1
  Y  Y15  1  0.918246  0.459194  0.250283  1
  Y  Y16  1  0.459066  0.540934  0.749716  1
  Y  Y17  1  0.459133  0.918330  0.749682  1
  Y  Y18  1  0.081670  0.540867  0.749682  1
  Lu  Lu19  1  0.000077  0.999923  0.500071  1
  Cd  Cd20  1  0.886539  0.113461  0.251292  1
  Cd  Cd21  1  0.886494  0.772900  0.251125  1
  Cd  Cd22  1  0.227100  0.113506  0.251125  1
  Cd  Cd23  1  0.113520  0.886480  0.749014  1
  Cd  Cd24  1  0.113750  0.227115  0.748726  1
  Cd  Cd25  1  0.772885  0.886250  0.748726  1
  Fe  Fe26  1  0.333364  0.666636  0.252230  1
  Fe  Fe27  1  0.667406  0.332594  0.748350  1
