# generated using pymatgen
data_Mn15Cr5Co(WC3)2
_symmetry_space_group_name_H-M   'P 1'
_cell_length_a   7.42284253
_cell_length_b   7.42918854
_cell_length_c   7.42174893
_cell_angle_alpha   60.13492760
_cell_angle_beta   60.04670893
_cell_angle_gamma   60.02376280
_symmetry_Int_Tables_number   1
_chemical_formula_structural   Mn15Cr5Co(WC3)2
_chemical_formula_sum   'Mn15 Cr5 Co1 W2 C6'
_cell_volume   289.85134659
_cell_formula_units_Z   1
loop_
 _symmetry_equiv_pos_site_id
 _symmetry_equiv_pos_as_xyz
  1  'x, y, z'
loop_
 _atom_site_type_symbol
 _atom_site_label
 _atom_site_symmetry_multiplicity
 _atom_site_fract_x
 _atom_site_fract_y
 _atom_site_fract_z
 _atom_site_occupancy
  Mn  Mn0  1  0.615638  0.615306  0.152416  1
  Mn  Mn1  1  0.616828  0.152139  0.615189  1
  Mn  Mn2  1  0.152651  0.617016  0.615271  1
  Mn  Mn3  1  0.614926  0.615787  0.616201  1
  Mn  Mn4  1  0.383972  0.382885  0.848360  1
  Mn  Mn5  1  0.383703  0.848941  0.382808  1
  Mn  Mn6  1  0.848868  0.383360  0.383288  1
  Mn  Mn7  1  0.384720  0.383366  0.383891  1
  Mn  Mn8  1  0.001230  0.999026  0.335440  1
  Mn  Mn9  1  0.665539  0.998960  0.335598  1
  Mn  Mn10  1  0.998184  0.666569  0.335360  1
  Mn  Mn11  1  0.665310  0.334208  0.999397  1
  Mn  Mn12  1  0.999995  0.335507  0.999638  1
  Mn  Mn13  1  0.998356  0.336312  0.666253  1
  Mn  Mn14  1  0.335227  0.663476  0.000840  1
  Cr  Cr15  1  0.335264  0.000147  0.665281  1
  Cr  Cr16  1  0.333275  0.001323  0.999207  1
  Cr  Cr17  1  0.000552  0.999729  0.664297  1
  Cr  Cr18  1  0.000338  0.664960  0.001249  1
  Cr  Cr19  1  0.665446  0.000882  0.000282  1
  Co  Co20  1  0.999638  0.000353  0.000357  1
  W  W21  1  0.750270  0.749127  0.749751  1
  W  W22  1  0.250315  0.250394  0.249740  1
  C  C23  1  0.721444  0.722148  0.280646  1
  C  C24  1  0.275420  0.721683  0.277876  1
  C  C25  1  0.725069  0.275055  0.274993  1
  C  C26  1  0.275455  0.280606  0.721631  1
  C  C27  1  0.722411  0.280126  0.722197  1
  C  C28  1  0.279958  0.720609  0.722540  1
