# generated using pymatgen
data_Nd3Lu(Si5Os3)2
_symmetry_space_group_name_H-M   'P 1'
_cell_length_a   8.17615013
_cell_length_b   8.20697055
_cell_length_c   5.85383774
_cell_angle_alpha   70.37521748
_cell_angle_beta   70.39667996
_cell_angle_gamma   93.72095507
_symmetry_Int_Tables_number   1
_chemical_formula_structural   Nd3Lu(Si5Os3)2
_chemical_formula_sum   'Nd3 Lu1 Si10 Os6'
_cell_volume   341.48766119
_cell_formula_units_Z   1
loop_
 _symmetry_equiv_pos_site_id
 _symmetry_equiv_pos_as_xyz
  1  'x, y, z'
loop_
 _atom_site_type_symbol
 _atom_site_label
 _atom_site_symmetry_multiplicity
 _atom_site_fract_x
 _atom_site_fract_y
 _atom_site_fract_z
 _atom_site_occupancy
  Nd  Nd0  1  0.398301  0.132562  0.744955  1
  Nd  Nd1  1  0.132593  0.397409  0.245663  1
  Nd  Nd2  1  0.601540  0.868257  0.254655  1
  Lu  Lu3  1  0.868154  0.602270  0.754008  1
  Si  Si4  1  0.061327  0.259215  0.837771  1
  Si  Si5  1  0.739606  0.931670  0.665740  1
  Si  Si6  1  0.935932  0.739458  0.164756  1
  Si  Si7  1  0.263000  0.064063  0.335306  1
  Si  Si8  1  0.205692  0.790478  0.748028  1
  Si  Si9  1  0.790976  0.206248  0.255885  1
  Si  Si10  1  0.515899  0.491022  0.745255  1
  Si  Si11  1  0.488895  0.512975  0.250266  1
  Si  Si12  1  0.773835  0.230144  0.747241  1
  Si  Si13  1  0.224367  0.773425  0.254029  1
  Os  Os14  1  0.252423  0.541347  0.632743  1
  Os  Os15  1  0.455506  0.742459  0.870459  1
  Os  Os16  1  0.745730  0.460346  0.363330  1
  Os  Os17  1  0.546449  0.260608  0.127719  1
  Os  Os18  1  0.002153  0.995304  0.750560  1
  Os  Os19  1  0.997621  0.000738  0.251629  1
