# generated using pymatgen
data_Ca3Lu4Th(B6Ru)4
_symmetry_space_group_name_H-M   'P 1'
_cell_length_a   3.64250100
_cell_length_b   9.12918467
_cell_length_c   11.55038216
_cell_angle_alpha   89.83349359
_cell_angle_beta   90.00000000
_cell_angle_gamma   90.00000000
_symmetry_Int_Tables_number   1
_chemical_formula_structural   Ca3Lu4Th(B6Ru)4
_chemical_formula_sum   'Ca3 Lu4 Th1 B24 Ru4'
_cell_volume   384.08397841
_cell_formula_units_Z   1
loop_
 _symmetry_equiv_pos_site_id
 _symmetry_equiv_pos_as_xyz
  1  'x, y, z'
loop_
 _atom_site_type_symbol
 _atom_site_label
 _atom_site_symmetry_multiplicity
 _atom_site_fract_x
 _atom_site_fract_y
 _atom_site_fract_z
 _atom_site_occupancy
  Ca  Ca0  1  0.000000  0.324707  0.414484  1
  Ca  Ca1  1  0.000000  0.676292  0.583285  1
  Ca  Ca2  1  0.000000  0.820620  0.087431  1
  Lu  Lu3  1  0.000000  0.941104  0.369158  1
  Lu  Lu4  1  0.000000  0.056356  0.627686  1
  Lu  Lu5  1  0.000000  0.445956  0.132613  1
  Lu  Lu6  1  0.000000  0.558758  0.869455  1
  Th  Th7  1  0.000000  0.175823  0.915536  1
  B  B8  1  0.500000  0.554888  0.432384  1
  B  B9  1  0.500000  0.445149  0.567813  1
  B  B10  1  0.500000  0.054524  0.070635  1
  B  B11  1  0.500000  0.942286  0.931179  1
  B  B12  1  0.500000  0.749540  0.417134  1
  B  B13  1  0.500000  0.250589  0.581798  1
  B  B14  1  0.500000  0.250854  0.084879  1
  B  B15  1  0.500000  0.749182  0.917145  1
  B  B16  1  0.500000  0.792031  0.265334  1
  B  B17  1  0.500000  0.208797  0.732953  1
  B  B18  1  0.500000  0.292331  0.236333  1
  B  B19  1  0.500000  0.708385  0.764644  1
  B  B20  1  0.500000  0.631118  0.185709  1
  B  B21  1  0.500000  0.370456  0.814199  1
  B  B22  1  0.500000  0.130436  0.315040  1
  B  B23  1  0.500000  0.868739  0.683668  1
  B  B24  1  0.500000  0.983528  0.213863  1
  B  B25  1  0.500000  0.013573  0.785662  1
  B  B26  1  0.500000  0.484347  0.288130  1
  B  B27  1  0.500000  0.516474  0.711933  1
  B  B28  1  0.500000  0.600297  0.027294  1
  B  B29  1  0.500000  0.403638  0.973960  1
  B  B30  1  0.500000  0.097784  0.472581  1
  B  B31  1  0.500000  0.901686  0.525981  1
  Ru  Ru32  1  0.000000  0.640309  0.318774  1
  Ru  Ru33  1  0.000000  0.358180  0.682883  1
  Ru  Ru34  1  0.000000  0.140412  0.180111  1
  Ru  Ru35  1  0.000000  0.860849  0.818333  1
