# generated using pymatgen
data_CsAlCoF6
_symmetry_space_group_name_H-M   'P 1'
_cell_length_a   7.18017300
_cell_length_b   7.30994000
_cell_length_c   10.29401000
_cell_angle_alpha   90.00000000
_cell_angle_beta   90.00000000
_cell_angle_gamma   90.00000000
_symmetry_Int_Tables_number   1
_chemical_formula_structural   CsAlCoF6
_chemical_formula_sum   'Cs4 Al4 Co4 F24'
_cell_volume   540.29793341
_cell_formula_units_Z   4
loop_
 _symmetry_equiv_pos_site_id
 _symmetry_equiv_pos_as_xyz
  1  'x, y, z'
loop_
 _atom_site_type_symbol
 _atom_site_label
 _atom_site_symmetry_multiplicity
 _atom_site_fract_x
 _atom_site_fract_y
 _atom_site_fract_z
 _atom_site_occupancy
  Cs  Cs0  1  0.250000  0.514622  0.127343  1
  Cs  Cs1  1  0.750000  0.485378  0.872657  1
  Cs  Cs2  1  0.750000  0.985378  0.627343  1
  Cs  Cs3  1  0.250000  0.014622  0.372657  1
  Al  Al4  1  0.000000  0.500000  0.500000  1
  Al  Al5  1  0.000000  0.000000  0.000000  1
  Al  Al6  1  0.500000  0.500000  0.500000  1
  Al  Al7  1  0.500000  0.000000  0.000000  1
  Co  Co8  1  0.250000  0.722755  0.761587  1
  Co  Co9  1  0.750000  0.277245  0.238413  1
  Co  Co10  1  0.750000  0.777245  0.261587  1
  Co  Co11  1  0.250000  0.222755  0.738413  1
  F  F12  1  0.053468  0.797494  0.903301  1
  F  F13  1  0.946532  0.202506  0.096699  1
  F  F14  1  0.946532  0.702506  0.403301  1
  F  F15  1  0.553468  0.202506  0.096699  1
  F  F16  1  0.053468  0.297494  0.596699  1
  F  F17  1  0.446532  0.797494  0.903301  1
  F  F18  1  0.446532  0.297494  0.596699  1
  F  F19  1  0.553468  0.702506  0.403301  1
  F  F20  1  0.250000  0.033017  0.040723  1
  F  F21  1  0.750000  0.966983  0.959277  1
  F  F22  1  0.750000  0.466983  0.540723  1
  F  F23  1  0.250000  0.533017  0.459277  1
  F  F24  1  0.474524  0.643333  0.642937  1
  F  F25  1  0.525476  0.356667  0.357063  1
  F  F26  1  0.525476  0.856667  0.142937  1
  F  F27  1  0.974524  0.356667  0.357063  1
  F  F28  1  0.474524  0.143333  0.857063  1
  F  F29  1  0.025476  0.643333  0.642937  1
  F  F30  1  0.025476  0.143333  0.857063  1
  F  F31  1  0.974524  0.856667  0.142937  1
  F  F32  1  0.250000  0.965331  0.668023  1
  F  F33  1  0.750000  0.034669  0.331977  1
  F  F34  1  0.750000  0.534669  0.168023  1
  F  F35  1  0.250000  0.465331  0.831977  1
