# generated using pymatgen
data_Nb3Mo(PO4)6
_symmetry_space_group_name_H-M   'P 1'
_cell_length_a   8.85446236
_cell_length_b   9.07918122
_cell_length_c   8.85440408
_cell_angle_alpha   89.99689002
_cell_angle_beta   59.99762751
_cell_angle_gamma   119.17898908
_symmetry_Int_Tables_number   1
_chemical_formula_structural   Nb3Mo(PO4)6
_chemical_formula_sum   'Nb3 Mo1 P6 O24'
_cell_volume   509.45542073
_cell_formula_units_Z   1
loop_
 _symmetry_equiv_pos_site_id
 _symmetry_equiv_pos_as_xyz
  1  'x, y, z'
loop_
 _atom_site_type_symbol
 _atom_site_label
 _atom_site_symmetry_multiplicity
 _atom_site_fract_x
 _atom_site_fract_y
 _atom_site_fract_z
 _atom_site_occupancy
  Nb  Nb0  1  0.281531  0.922154  0.359253  1
  Nb  Nb1  1  0.281654  0.422338  0.859194  1
  Nb  Nb2  1  0.716060  0.574027  0.141894  1
  Mo  Mo3  1  0.717020  0.075510  0.641382  1
  P  P4  1  0.784290  0.750735  0.748822  1
  P  P5  1  0.496768  0.249314  0.534202  1
  P  P6  1  0.499796  0.750854  0.466762  1
  P  P7  1  0.218497  0.249464  0.247325  1
  P  P8  1  0.783648  0.249372  0.968962  1
  P  P9  1  0.217734  0.750787  0.033379  1
  O  O10  1  0.649819  0.917308  0.479299  1
  O  O11  1  0.006408  0.714855  0.078175  1
  O  O12  1  0.221799  0.584085  0.003006  1
  O  O13  1  0.214328  0.773765  0.209891  1
  O  O14  1  0.982653  0.274848  0.947335  1
  O  O15  1  0.785074  0.415503  0.010108  1
  O  O16  1  0.795102  0.239492  0.795014  1
  O  O17  1  0.793409  0.715189  0.915287  1
  O  O18  1  0.983710  0.773598  0.575705  1
  O  O19  1  0.649719  0.239860  0.555356  1
  O  O20  1  0.787668  0.916949  0.732519  1
  O  O21  1  0.587141  0.583863  0.775448  1
  O  O22  1  0.585925  0.082150  0.140049  1
  O  O23  1  0.619919  0.415300  0.369507  1
  O  O24  1  0.222014  0.274543  0.070074  1
  O  O25  1  0.344765  0.274677  0.707787  1
  O  O26  1  0.630596  0.715049  0.291352  1
  O  O27  1  0.356335  0.081899  0.503823  1
  O  O28  1  0.396604  0.917076  0.870547  1
  O  O29  1  0.359692  0.584209  0.637518  1
  O  O30  1  0.222438  0.082322  0.274197  1
  O  O31  1  0.425854  0.415758  0.204376  1
  O  O32  1  0.349407  0.773450  0.440450  1
  O  O33  1  0.034755  0.239693  0.409871  1
