# generated using pymatgen
data_K2Nd3Ho(CuSe4)2
_symmetry_space_group_name_H-M   'P 1'
_cell_length_a   7.46383771
_cell_length_b   4.21343547
_cell_length_c   14.58189331
_cell_angle_alpha   90.00000042
_cell_angle_beta   89.77392360
_cell_angle_gamma   106.39492891
_symmetry_Int_Tables_number   1
_chemical_formula_structural   K2Nd3Ho(CuSe4)2
_chemical_formula_sum   'K2 Nd3 Ho1 Cu2 Se8'
_cell_volume   439.92724553
_cell_formula_units_Z   1
loop_
 _symmetry_equiv_pos_site_id
 _symmetry_equiv_pos_as_xyz
  1  'x, y, z'
loop_
 _atom_site_type_symbol
 _atom_site_label
 _atom_site_symmetry_multiplicity
 _atom_site_fract_x
 _atom_site_fract_y
 _atom_site_fract_z
 _atom_site_occupancy
  K  K0  1  0.222467  0.111233  0.248750  1
  K  K1  1  0.778040  0.889021  0.751929  1
  Nd  Nd2  1  0.734984  0.367492  0.061685  1
  Nd  Nd3  1  0.729843  0.364922  0.435240  1
  Nd  Nd4  1  0.268209  0.634106  0.567399  1
  Ho  Ho5  1  0.272559  0.636281  0.935682  1
  Cu  Cu6  1  0.677185  0.838594  0.248823  1
  Cu  Cu7  1  0.318357  0.159179  0.749035  1
  Se  Se8  1  0.011236  0.005618  0.996609  1
  Se  Se9  1  0.468312  0.734157  0.111649  1
  Se  Se10  1  0.870006  0.435003  0.248472  1
  Se  Se11  1  0.466790  0.733396  0.384495  1
  Se  Se12  1  0.000019  0.000010  0.500870  1
  Se  Se13  1  0.532824  0.266412  0.616748  1
  Se  Se14  1  0.129435  0.564718  0.755924  1
  Se  Se15  1  0.519734  0.259867  0.886691  1
