# generated using pymatgen
data_Hf14Ga8Ir7
_symmetry_space_group_name_H-M   'P 1'
_cell_length_a   9.08514990
_cell_length_b   9.08515060
_cell_length_c   9.08515000
_cell_angle_alpha   59.99999491
_cell_angle_beta   59.99999234
_cell_angle_gamma   59.99999536
_symmetry_Int_Tables_number   1
_chemical_formula_structural   Hf14Ga8Ir7
_chemical_formula_sum   'Hf14 Ga8 Ir7'
_cell_volume   530.25073006
_cell_formula_units_Z   1
loop_
 _symmetry_equiv_pos_site_id
 _symmetry_equiv_pos_as_xyz
  1  'x, y, z'
loop_
 _atom_site_type_symbol
 _atom_site_label
 _atom_site_symmetry_multiplicity
 _atom_site_fract_x
 _atom_site_fract_y
 _atom_site_fract_z
 _atom_site_occupancy
  Hf  Hf0  1  0.875247  0.875247  0.374259  1
  Hf  Hf1  1  0.875247  0.374259  0.875247  1
  Hf  Hf2  1  0.374259  0.875247  0.875247  1
  Hf  Hf3  1  0.875247  0.875247  0.875247  1
  Hf  Hf4  1  0.124753  0.124753  0.625741  1
  Hf  Hf5  1  0.124753  0.625741  0.124753  1
  Hf  Hf6  1  0.625741  0.124753  0.124753  1
  Hf  Hf7  1  0.124753  0.124753  0.124753  1
  Hf  Hf8  1  0.686061  0.686061  0.313939  1
  Hf  Hf9  1  0.313939  0.686061  0.313939  1
  Hf  Hf10  1  0.686061  0.313939  0.313939  1
  Hf  Hf11  1  0.313939  0.313939  0.686061  1
  Hf  Hf12  1  0.686061  0.313939  0.686061  1
  Hf  Hf13  1  0.313939  0.686061  0.686061  1
  Ga  Ga14  1  0.652507  0.652507  0.042481  1
  Ga  Ga15  1  0.652507  0.042481  0.652507  1
  Ga  Ga16  1  0.042481  0.652507  0.652507  1
  Ga  Ga17  1  0.652507  0.652507  0.652507  1
  Ga  Ga18  1  0.347493  0.347493  0.957519  1
  Ga  Ga19  1  0.347493  0.957519  0.347493  1
  Ga  Ga20  1  0.957519  0.347493  0.347493  1
  Ga  Ga21  1  0.347493  0.347493  0.347493  1
  Ir  Ir22  1  0.000000  0.000000  0.000000  1
  Ir  Ir23  1  0.000000  0.000000  0.500000  1
  Ir  Ir24  1  0.500000  0.000000  0.500000  1
  Ir  Ir25  1  0.000000  0.500000  0.500000  1
  Ir  Ir26  1  0.500000  0.500000  0.000000  1
  Ir  Ir27  1  0.000000  0.500000  0.000000  1
  Ir  Ir28  1  0.500000  0.000000  0.000000  1
