# generated using pymatgen
data_Hf3NpN4
_symmetry_space_group_name_H-M   'P 1'
_cell_length_a   10.99075787
_cell_length_b   10.99075832
_cell_length_c   10.99075993
_cell_angle_alpha   16.93511257
_cell_angle_beta   16.93510297
_cell_angle_gamma   16.93509665
_symmetry_Int_Tables_number   1
_chemical_formula_structural   Hf3NpN4
_chemical_formula_sum   'Hf3 Np1 N4'
_cell_volume   98.26747854
_cell_formula_units_Z   1
loop_
 _symmetry_equiv_pos_site_id
 _symmetry_equiv_pos_as_xyz
  1  'x, y, z'
loop_
 _atom_site_type_symbol
 _atom_site_label
 _atom_site_symmetry_multiplicity
 _atom_site_fract_x
 _atom_site_fract_y
 _atom_site_fract_z
 _atom_site_occupancy
  Hf  Hf0  1  0.123160  0.123160  0.123160  1
  Hf  Hf1  1  0.375026  0.375026  0.375026  1
  Hf  Hf2  1  0.626838  0.626838  0.626838  1
  Np  Np3  1  0.874941  0.874941  0.874941  1
  N  N4  1  0.002070  0.002070  0.002070  1
  N  N5  1  0.256751  0.256751  0.256751  1
  N  N6  1  0.493240  0.493240  0.493240  1
  N  N7  1  0.747975  0.747975  0.747975  1
