# generated using pymatgen
data_MnCo(TcP)2
_symmetry_space_group_name_H-M   'P 1'
_cell_length_a   3.75869000
_cell_length_b   5.76936900
_cell_length_c   6.61834600
_cell_angle_alpha   90.00000000
_cell_angle_beta   90.00000000
_cell_angle_gamma   90.00000000
_symmetry_Int_Tables_number   1
_chemical_formula_structural   MnCo(TcP)2
_chemical_formula_sum   'Mn2 Co2 Tc4 P4'
_cell_volume   143.52061710
_cell_formula_units_Z   2
loop_
 _symmetry_equiv_pos_site_id
 _symmetry_equiv_pos_as_xyz
  1  'x, y, z'
loop_
 _atom_site_type_symbol
 _atom_site_label
 _atom_site_symmetry_multiplicity
 _atom_site_fract_x
 _atom_site_fract_y
 _atom_site_fract_z
 _atom_site_occupancy
  Mn  Mn0  1  0.750000  0.636181  0.434285  1
  Mn  Mn1  1  0.250000  0.863819  0.934285  1
  Co  Co2  1  0.750000  0.142726  0.065780  1
  Co  Co3  1  0.250000  0.357274  0.565780  1
  Tc  Tc4  1  0.250000  0.472976  0.168981  1
  Tc  Tc5  1  0.250000  0.969101  0.330898  1
  Tc  Tc6  1  0.750000  0.027024  0.668981  1
  Tc  Tc7  1  0.750000  0.530899  0.830898  1
  P  P8  1  0.250000  0.736050  0.619339  1
  P  P9  1  0.250000  0.239177  0.880718  1
  P  P10  1  0.750000  0.260823  0.380718  1
  P  P11  1  0.750000  0.763950  0.119339  1
