# generated using pymatgen
data_Ba3(CdSn)4
_symmetry_space_group_name_H-M   'P 1'
_cell_length_a   5.29921671
_cell_length_b   7.77399998
_cell_length_c   9.63218859
_cell_angle_alpha   113.79984817
_cell_angle_beta   105.96668702
_cell_angle_gamma   90.00000096
_symmetry_Int_Tables_number   1
_chemical_formula_structural   Ba3(CdSn)4
_chemical_formula_sum   'Ba3 Cd4 Sn4'
_cell_volume   346.26761286
_cell_formula_units_Z   1
loop_
 _symmetry_equiv_pos_site_id
 _symmetry_equiv_pos_as_xyz
  1  'x, y, z'
loop_
 _atom_site_type_symbol
 _atom_site_label
 _atom_site_symmetry_multiplicity
 _atom_site_fract_x
 _atom_site_fract_y
 _atom_site_fract_z
 _atom_site_occupancy
  Ba  Ba0  1  0.000000  0.500000  0.000000  1
  Ba  Ba1  1  0.872169  0.872169  0.744340  1
  Ba  Ba2  1  0.127831  0.127831  0.255660  1
  Cd  Cd3  1  0.666687  0.474029  0.333373  1
  Cd  Cd4  1  0.666687  0.859344  0.333373  1
  Cd  Cd5  1  0.333313  0.140656  0.666627  1
  Cd  Cd6  1  0.333313  0.525971  0.666627  1
  Sn  Sn7  1  0.782778  0.282778  0.565555  1
  Sn  Sn8  1  0.217222  0.717222  0.434445  1
  Sn  Sn9  1  0.500000  0.812820  0.000000  1
  Sn  Sn10  1  0.500000  0.187180  0.000000  1
