# generated using pymatgen
data_Ba4Sr4Co4O15
_symmetry_space_group_name_H-M   'P 1'
_cell_length_a   11.99711813
_cell_length_b   11.99711792
_cell_length_c   7.06257000
_cell_angle_alpha   89.81560622
_cell_angle_beta   89.81561100
_cell_angle_gamma   119.75808653
_symmetry_Int_Tables_number   1
_chemical_formula_structural   Ba4Sr4Co4O15
_chemical_formula_sum   'Ba8 Sr8 Co8 O30'
_cell_volume   882.45353436
_cell_formula_units_Z   2
loop_
 _symmetry_equiv_pos_site_id
 _symmetry_equiv_pos_as_xyz
  1  'x, y, z'
loop_
 _atom_site_type_symbol
 _atom_site_label
 _atom_site_symmetry_multiplicity
 _atom_site_fract_x
 _atom_site_fract_y
 _atom_site_fract_z
 _atom_site_occupancy
  Ba  Ba0  1  0.674860  0.338424  0.984992  1
  Ba  Ba1  1  0.338424  0.674860  0.484992  1
  Ba  Ba2  1  0.347970  0.169835  0.662232  1
  Ba  Ba3  1  0.824398  0.649139  0.660943  1
  Ba  Ba4  1  0.821080  0.172454  0.664183  1
  Ba  Ba5  1  0.649139  0.824398  0.160943  1
  Ba  Ba6  1  0.169835  0.347970  0.162232  1
  Ba  Ba7  1  0.172454  0.821080  0.164183  1
  Sr  Sr8  1  0.997064  0.996751  0.473420  1
  Sr  Sr9  1  0.996751  0.997064  0.973420  1
  Sr  Sr10  1  0.952924  0.477653  0.328755  1
  Sr  Sr11  1  0.477653  0.952924  0.828755  1
  Sr  Sr12  1  0.524853  0.047509  0.331234  1
  Sr  Sr13  1  0.525954  0.479054  0.329305  1
  Sr  Sr14  1  0.047509  0.524853  0.831234  1
  Sr  Sr15  1  0.479054  0.525954  0.829305  1
  Co  Co16  1  0.353556  0.177229  0.157164  1
  Co  Co17  1  0.823957  0.647461  0.159798  1
  Co  Co18  1  0.824022  0.177005  0.161959  1
  Co  Co19  1  0.647461  0.823957  0.659798  1
  Co  Co20  1  0.177229  0.353556  0.657164  1
  Co  Co21  1  0.177005  0.824022  0.661959  1
  Co  Co22  1  0.672268  0.335644  0.515747  1
  Co  Co23  1  0.335644  0.672268  0.015747  1
  O  O24  1  0.606325  0.672853  0.534244  1
  O  O25  1  0.068005  0.383472  0.520756  1
  O  O26  1  0.327928  0.934265  0.535587  1
  O  O27  1  0.316028  0.384896  0.518804  1
  O  O28  1  0.609353  0.935780  0.533886  1
  O  O29  1  0.066780  0.674927  0.535582  1
  O  O30  1  0.384896  0.316028  0.018804  1
  O  O31  1  0.935780  0.609353  0.033886  1
  O  O32  1  0.674927  0.066780  0.035582  1
  O  O33  1  0.672853  0.606325  0.034244  1
  O  O34  1  0.383472  0.068005  0.020756  1
  O  O35  1  0.934265  0.327928  0.035587  1
  O  O36  1  0.820485  0.409403  0.659017  1
  O  O37  1  0.594655  0.185894  0.656521  1
  O  O38  1  0.593359  0.408966  0.652828  1
  O  O39  1  0.185894  0.594655  0.156521  1
  O  O40  1  0.409403  0.820485  0.159017  1
  O  O41  1  0.408966  0.593359  0.152828  1
  O  O42  1  0.483225  0.241980  0.331068  1
  O  O43  1  0.748340  0.496442  0.335492  1
  O  O44  1  0.746710  0.253751  0.336967  1
  O  O45  1  0.496442  0.748340  0.835492  1
  O  O46  1  0.241980  0.483225  0.831068  1
  O  O47  1  0.253751  0.746710  0.836967  1
  O  O48  1  0.818634  0.909686  0.735494  1
  O  O49  1  0.096215  0.190575  0.748793  1
  O  O50  1  0.095267  0.913561  0.737019  1
  O  O51  1  0.190575  0.096215  0.248793  1
  O  O52  1  0.909686  0.818634  0.235494  1
  O  O53  1  0.913561  0.095267  0.237019  1
