# generated using pymatgen
data_Tm4MgZn2Bi
_symmetry_space_group_name_H-M   'P 1'
_cell_length_a   8.51380734
_cell_length_b   8.51380663
_cell_length_c   8.51380809
_cell_angle_alpha   125.70248154
_cell_angle_beta   125.70247653
_cell_angle_gamma   80.37768464
_symmetry_Int_Tables_number   1
_chemical_formula_structural   Tm4MgZn2Bi
_chemical_formula_sum   'Tm8 Mg2 Zn4 Bi2'
_cell_volume   392.63200096
_cell_formula_units_Z   2
loop_
 _symmetry_equiv_pos_site_id
 _symmetry_equiv_pos_as_xyz
  1  'x, y, z'
loop_
 _atom_site_type_symbol
 _atom_site_label
 _atom_site_symmetry_multiplicity
 _atom_site_fract_x
 _atom_site_fract_y
 _atom_site_fract_z
 _atom_site_occupancy
  Tm  Tm0  1  0.799052  0.299052  0.813422  1
  Tm  Tm1  1  0.200948  0.700948  0.186578  1
  Tm  Tm2  1  0.485630  0.985630  0.186578  1
  Tm  Tm3  1  0.299052  0.485630  0.500000  1
  Tm  Tm4  1  0.014370  0.200948  0.500000  1
  Tm  Tm5  1  0.514370  0.014370  0.813422  1
  Tm  Tm6  1  0.700948  0.514370  0.500000  1
  Tm  Tm7  1  0.985630  0.799052  0.500000  1
  Mg  Mg8  1  0.000000  0.000000  0.000000  1
  Mg  Mg9  1  0.500000  0.500000  0.000000  1
  Zn  Zn10  1  0.135868  0.635868  0.771737  1
  Zn  Zn11  1  0.864132  0.364132  0.228263  1
  Zn  Zn12  1  0.635868  0.864132  0.500000  1
  Zn  Zn13  1  0.364132  0.135868  0.500000  1
  Bi  Bi14  1  0.250000  0.250000  0.000000  1
  Bi  Bi15  1  0.750000  0.750000  0.000000  1
