# generated using pymatgen
data_Tm9Mg(Pb3S)2
_symmetry_space_group_name_H-M   'P 1'
_cell_length_a   8.96556200
_cell_length_b   8.96556161
_cell_length_c   6.57956600
_cell_angle_alpha   90.00000000
_cell_angle_beta   90.00000000
_cell_angle_gamma   120.00000144
_symmetry_Int_Tables_number   1
_chemical_formula_structural   Tm9Mg(Pb3S)2
_chemical_formula_sum   'Tm9 Mg1 Pb6 S2'
_cell_volume   458.01836338
_cell_formula_units_Z   1
loop_
 _symmetry_equiv_pos_site_id
 _symmetry_equiv_pos_as_xyz
  1  'x, y, z'
loop_
 _atom_site_type_symbol
 _atom_site_label
 _atom_site_symmetry_multiplicity
 _atom_site_fract_x
 _atom_site_fract_y
 _atom_site_fract_z
 _atom_site_occupancy
  Tm  Tm0  1  0.333333  0.666667  0.000000  1
  Tm  Tm1  1  0.333333  0.666667  0.500000  1
  Tm  Tm2  1  0.666667  0.333333  0.500000  1
  Tm  Tm3  1  0.756287  0.754611  0.752477  1
  Tm  Tm4  1  0.245389  0.001676  0.752477  1
  Tm  Tm5  1  0.998324  0.243713  0.752477  1
  Tm  Tm6  1  0.245389  0.243713  0.247523  1
  Tm  Tm7  1  0.756287  0.001676  0.247523  1
  Tm  Tm8  1  0.998324  0.754611  0.247523  1
  Mg  Mg9  1  0.666667  0.333333  0.000000  1
  Pb  Pb10  1  0.398216  0.397440  0.752291  1
  Pb  Pb11  1  0.602560  0.000777  0.752291  1
  Pb  Pb12  1  0.999223  0.601784  0.752291  1
  Pb  Pb13  1  0.602560  0.601784  0.247709  1
  Pb  Pb14  1  0.398216  0.000777  0.247709  1
  Pb  Pb15  1  0.999223  0.397440  0.247709  1
  S  S16  1  0.000000  0.000000  0.000000  1
  S  S17  1  0.000000  0.000000  0.500000  1
