# generated using pymatgen
data_Ho6Tm2Os3WC8
_symmetry_space_group_name_H-M   'P 1'
_cell_length_a   5.07704100
_cell_length_b   6.51961994
_cell_length_c   9.76277341
_cell_angle_alpha   89.68411923
_cell_angle_beta   90.00000000
_cell_angle_gamma   90.00000000
_symmetry_Int_Tables_number   1
_chemical_formula_structural   Ho6Tm2Os3WC8
_chemical_formula_sum   'Ho6 Tm2 Os3 W1 C8'
_cell_volume   323.14657673
_cell_formula_units_Z   1
loop_
 _symmetry_equiv_pos_site_id
 _symmetry_equiv_pos_as_xyz
  1  'x, y, z'
loop_
 _atom_site_type_symbol
 _atom_site_label
 _atom_site_symmetry_multiplicity
 _atom_site_fract_x
 _atom_site_fract_y
 _atom_site_fract_z
 _atom_site_occupancy
  Ho  Ho0  1  0.250000  0.678910  0.554336  1
  Ho  Ho1  1  0.250000  0.180700  0.944269  1
  Ho  Ho2  1  0.250000  0.531606  0.213581  1
  Ho  Ho3  1  0.750000  0.466457  0.780472  1
  Ho  Ho4  1  0.750000  0.970107  0.716432  1
  Ho  Ho5  1  0.250000  0.029750  0.285464  1
  Tm  Tm6  1  0.750000  0.324337  0.443345  1
  Tm  Tm7  1  0.750000  0.825750  0.056726  1
  Os  Os8  1  0.750000  0.279243  0.135219  1
  Os  Os9  1  0.750000  0.777827  0.364286  1
  Os  Os10  1  0.250000  0.223014  0.631278  1
  W  W11  1  0.250000  0.720302  0.868654  1
  C  C12  1  0.250000  0.452638  0.759186  1
  C  C13  1  0.750000  0.543456  0.241902  1
  C  C14  1  0.750000  0.044529  0.259459  1
  C  C15  1  0.250000  0.957413  0.740039  1
  C  C16  1  0.250000  0.825656  0.058505  1
  C  C17  1  0.750000  0.172228  0.949742  1
  C  C18  1  0.750000  0.671075  0.551102  1
  C  C19  1  0.250000  0.325002  0.446001  1
