# generated using pymatgen
data_TmLu2Sc3FeSb2
_symmetry_space_group_name_H-M   'P 1'
_cell_length_a   7.78148443
_cell_length_b   7.78595144
_cell_length_c   4.07353000
_cell_angle_alpha   90.00000000
_cell_angle_beta   90.00000000
_cell_angle_gamma   120.01900029
_symmetry_Int_Tables_number   1
_chemical_formula_structural   TmLu2Sc3FeSb2
_chemical_formula_sum   'Tm1 Lu2 Sc3 Fe1 Sb2'
_cell_volume   213.69409057
_cell_formula_units_Z   1
loop_
 _symmetry_equiv_pos_site_id
 _symmetry_equiv_pos_as_xyz
  1  'x, y, z'
loop_
 _atom_site_type_symbol
 _atom_site_label
 _atom_site_symmetry_multiplicity
 _atom_site_fract_x
 _atom_site_fract_y
 _atom_site_fract_z
 _atom_site_occupancy
  Tm  Tm0  1  0.000000  0.610261  0.500000  1
  Lu  Lu1  1  0.610826  0.999858  0.500000  1
  Lu  Lu2  1  0.389174  0.389032  0.500000  1
  Sc  Sc3  1  0.228046  0.000439  0.000000  1
  Sc  Sc4  1  0.771954  0.772393  0.000000  1
  Sc  Sc5  1  0.000000  0.227780  0.000000  1
  Fe  Fe6  1  0.000000  0.000777  0.500000  1
  Sb  Sb7  1  0.333925  0.666693  0.000000  1
  Sb  Sb8  1  0.666075  0.332767  0.000000  1
