# generated using pymatgen
data_Yb3ThAlOs7
_symmetry_space_group_name_H-M   'P 1'
_cell_length_a   5.34676700
_cell_length_b   5.34676534
_cell_length_c   8.77827500
_cell_angle_alpha   90.00000000
_cell_angle_beta   90.00000000
_cell_angle_gamma   119.99999171
_symmetry_Int_Tables_number   1
_chemical_formula_structural   Yb3ThAlOs7
_chemical_formula_sum   'Yb3 Th1 Al1 Os7'
_cell_volume   217.33127763
_cell_formula_units_Z   1
loop_
 _symmetry_equiv_pos_site_id
 _symmetry_equiv_pos_as_xyz
  1  'x, y, z'
loop_
 _atom_site_type_symbol
 _atom_site_label
 _atom_site_symmetry_multiplicity
 _atom_site_fract_x
 _atom_site_fract_y
 _atom_site_fract_z
 _atom_site_occupancy
  Yb  Yb0  1  0.666667  0.333333  0.575416  1
  Yb  Yb1  1  0.666667  0.333333  0.934959  1
  Yb  Yb2  1  0.333333  0.666667  0.058320  1
  Th  Th3  1  0.333333  0.666667  0.426211  1
  Al  Al4  1  0.000000  0.000000  0.502140  1
  Os  Os5  1  0.000000  0.000000  0.001344  1
  Os  Os6  1  0.828780  0.171220  0.249625  1
  Os  Os7  1  0.828780  0.657559  0.249625  1
  Os  Os8  1  0.342441  0.171220  0.249625  1
  Os  Os9  1  0.171138  0.828862  0.750911  1
  Os  Os10  1  0.171138  0.342277  0.750911  1
  Os  Os11  1  0.657723  0.828862  0.750911  1
