# generated using pymatgen
data_YHf2F11
_symmetry_space_group_name_H-M   'P 1'
_cell_length_a   8.27573509
_cell_length_b   8.27573627
_cell_length_c   8.27573629
_cell_angle_alpha   124.21656453
_cell_angle_beta   106.38836712
_cell_angle_gamma   98.94758322
_symmetry_Int_Tables_number   1
_chemical_formula_structural   YHf2F11
_chemical_formula_sum   'Y2 Hf4 F22'
_cell_volume   412.87800614
_cell_formula_units_Z   2
loop_
 _symmetry_equiv_pos_site_id
 _symmetry_equiv_pos_as_xyz
  1  'x, y, z'
loop_
 _atom_site_type_symbol
 _atom_site_label
 _atom_site_symmetry_multiplicity
 _atom_site_fract_x
 _atom_site_fract_y
 _atom_site_fract_z
 _atom_site_occupancy
  Y  Y0  1  0.750000  0.250000  0.500000  1
  Y  Y1  1  0.250000  0.750000  0.500000  1
  Hf  Hf2  1  0.681408  0.636297  0.317705  1
  Hf  Hf3  1  0.318592  0.363703  0.682295  1
  Hf  Hf4  1  0.181408  0.863703  0.045111  1
  Hf  Hf5  1  0.818592  0.136297  0.954889  1
  F  F6  1  0.707100  0.899805  0.342587  1
  F  F7  1  0.292900  0.100195  0.657413  1
  F  F8  1  0.557219  0.364513  0.657413  1
  F  F9  1  0.942781  0.600195  0.807294  1
  F  F10  1  0.442781  0.635487  0.342587  1
  F  F11  1  0.057219  0.399805  0.192706  1
  F  F12  1  0.792900  0.135487  0.192706  1
  F  F13  1  0.207100  0.864513  0.807294  1
  F  F14  1  0.500000  0.500000  0.000000  1
  F  F15  1  0.000000  0.000000  0.000000  1
  F  F16  1  0.781576  0.870477  0.652053  1
  F  F17  1  0.218424  0.129523  0.347947  1
  F  F18  1  0.281576  0.629523  0.911099  1
  F  F19  1  0.718424  0.370477  0.088901  1
  F  F20  1  0.957242  0.738952  0.418632  1
  F  F21  1  0.042758  0.261048  0.581368  1
  F  F22  1  0.320319  0.538610  0.581368  1
  F  F23  1  0.179681  0.761048  0.218290  1
  F  F24  1  0.679681  0.461390  0.418632  1
  F  F25  1  0.820319  0.238952  0.781710  1
  F  F26  1  0.542758  0.961390  0.781710  1
  F  F27  1  0.457242  0.038610  0.218290  1
