# generated using pymatgen
data_Tm8Mn(Si4Pt)3
_symmetry_space_group_name_H-M   'P 1'
_cell_length_a   8.13477200
_cell_length_b   8.13477132
_cell_length_c   7.78490300
_cell_angle_alpha   90.00000000
_cell_angle_beta   90.00000000
_cell_angle_gamma   119.99999463
_symmetry_Int_Tables_number   1
_chemical_formula_structural   Tm8Mn(Si4Pt)3
_chemical_formula_sum   'Tm8 Mn1 Si12 Pt3'
_cell_volume   446.14352552
_cell_formula_units_Z   1
loop_
 _symmetry_equiv_pos_site_id
 _symmetry_equiv_pos_as_xyz
  1  'x, y, z'
loop_
 _atom_site_type_symbol
 _atom_site_label
 _atom_site_symmetry_multiplicity
 _atom_site_fract_x
 _atom_site_fract_y
 _atom_site_fract_z
 _atom_site_occupancy
  Tm  Tm0  1  0.510610  0.021220  0.245206  1
  Tm  Tm1  1  0.486591  0.973184  0.753965  1
  Tm  Tm2  1  0.978780  0.489390  0.245206  1
  Tm  Tm3  1  0.026816  0.513409  0.753965  1
  Tm  Tm4  1  0.510610  0.489390  0.245206  1
  Tm  Tm5  1  0.486591  0.513409  0.753965  1
  Tm  Tm6  1  0.000000  0.000000  0.249016  1
  Tm  Tm7  1  0.000000  0.000000  0.753111  1
  Mn  Mn8  1  0.333333  0.666667  0.047056  1
  Si  Si9  1  0.171773  0.343545  0.003200  1
  Si  Si10  1  0.836664  0.673329  0.995792  1
  Si  Si11  1  0.656455  0.828227  0.003200  1
  Si  Si12  1  0.834838  0.669678  0.503267  1
  Si  Si13  1  0.326671  0.163336  0.995792  1
  Si  Si14  1  0.165251  0.330501  0.497914  1
  Si  Si15  1  0.171773  0.828227  0.003200  1
  Si  Si16  1  0.330322  0.165162  0.503267  1
  Si  Si17  1  0.836664  0.163336  0.995792  1
  Si  Si18  1  0.669499  0.834749  0.497914  1
  Si  Si19  1  0.834838  0.165162  0.503267  1
  Si  Si20  1  0.165251  0.834749  0.497914  1
  Pt  Pt21  1  0.666667  0.333333  0.963342  1
  Pt  Pt22  1  0.666667  0.333333  0.534973  1
  Pt  Pt23  1  0.333333  0.666667  0.454467  1
