# generated using pymatgen
data_Ho7Er3In8RuPt3
_symmetry_space_group_name_H-M   'P 1'
_cell_length_a   3.61708400
_cell_length_b   8.11148538
_cell_length_c   18.17573504
_cell_angle_alpha   90.01404570
_cell_angle_beta   90.00000000
_cell_angle_gamma   90.00000000
_symmetry_Int_Tables_number   1
_chemical_formula_structural   Ho7Er3In8RuPt3
_chemical_formula_sum   'Ho7 Er3 In8 Ru1 Pt3'
_cell_volume   533.27466853
_cell_formula_units_Z   1
loop_
 _symmetry_equiv_pos_site_id
 _symmetry_equiv_pos_as_xyz
  1  'x, y, z'
loop_
 _atom_site_type_symbol
 _atom_site_label
 _atom_site_symmetry_multiplicity
 _atom_site_fract_x
 _atom_site_fract_y
 _atom_site_fract_z
 _atom_site_occupancy
  Ho  Ho0  1  0.000000  0.618351  0.086874  1
  Ho  Ho1  1  0.000000  0.233733  0.222786  1
  Ho  Ho2  1  0.000000  0.757193  0.778806  1
  Ho  Ho3  1  0.000000  0.257273  0.721475  1
  Ho  Ho4  1  0.000000  0.750562  0.278587  1
  Ho  Ho5  1  0.000000  0.999731  0.000470  1
  Ho  Ho6  1  0.000000  0.500764  0.499215  1
  Er  Er7  1  0.000000  0.115745  0.411873  1
  Er  Er8  1  0.000000  0.884033  0.585420  1
  Er  Er9  1  0.000000  0.384092  0.914460  1
  In  In10  1  0.500000  0.423324  0.351112  1
  In  In11  1  0.500000  0.574847  0.647835  1
  In  In12  1  0.500000  0.074960  0.852127  1
  In  In13  1  0.500000  0.930940  0.149841  1
  In  In14  1  0.500000  0.292553  0.066327  1
  In  In15  1  0.500000  0.707954  0.933639  1
  In  In16  1  0.500000  0.208845  0.566795  1
  In  In17  1  0.500000  0.794565  0.431123  1
  Ru  Ru18  1  0.500000  0.018512  0.304435  1
  Pt  Pt19  1  0.500000  0.976558  0.695976  1
  Pt  Pt20  1  0.500000  0.477098  0.804276  1
  Pt  Pt21  1  0.500000  0.518366  0.196548  1
