# generated using pymatgen
data_Hf2InNiPd
_symmetry_space_group_name_H-M   'P 1'
_cell_length_a   7.39922192
_cell_length_b   7.39922192
_cell_length_c   3.32462100
_cell_angle_alpha   90.00000000
_cell_angle_beta   90.00000000
_cell_angle_gamma   91.59519438
_symmetry_Int_Tables_number   1
_chemical_formula_structural   Hf2InNiPd
_chemical_formula_sum   'Hf4 In2 Ni2 Pd2'
_cell_volume   181.94742261
_cell_formula_units_Z   2
loop_
 _symmetry_equiv_pos_site_id
 _symmetry_equiv_pos_as_xyz
  1  'x, y, z'
loop_
 _atom_site_type_symbol
 _atom_site_label
 _atom_site_symmetry_multiplicity
 _atom_site_fract_x
 _atom_site_fract_y
 _atom_site_fract_z
 _atom_site_occupancy
  Hf  Hf0  1  0.155965  0.344035  0.000000  1
  Hf  Hf1  1  0.844035  0.655965  0.000000  1
  Hf  Hf2  1  0.678481  0.178481  0.000000  1
  Hf  Hf3  1  0.321519  0.821519  0.000000  1
  In  In4  1  0.000000  0.000000  0.500000  1
  In  In5  1  0.500000  0.500000  0.500000  1
  Ni  Ni6  1  0.876101  0.376101  0.500000  1
  Ni  Ni7  1  0.123899  0.623899  0.500000  1
  Pd  Pd8  1  0.369255  0.130745  0.500000  1
  Pd  Pd9  1  0.630745  0.869255  0.500000  1
