# generated using pymatgen
data_Nd3Tm3ReBi2
_symmetry_space_group_name_H-M   'P 1'
_cell_length_a   8.36315200
_cell_length_b   8.36315192
_cell_length_c   4.41019500
_cell_angle_alpha   90.00000000
_cell_angle_beta   90.00000000
_cell_angle_gamma   120.00000030
_symmetry_Int_Tables_number   1
_chemical_formula_structural   Nd3Tm3ReBi2
_chemical_formula_sum   'Nd3 Tm3 Re1 Bi2'
_cell_volume   267.13352764
_cell_formula_units_Z   1
loop_
 _symmetry_equiv_pos_site_id
 _symmetry_equiv_pos_as_xyz
  1  'x, y, z'
loop_
 _atom_site_type_symbol
 _atom_site_label
 _atom_site_symmetry_multiplicity
 _atom_site_fract_x
 _atom_site_fract_y
 _atom_site_fract_z
 _atom_site_occupancy
  Nd  Nd0  1  0.608725  0.000000  0.000000  1
  Nd  Nd1  1  0.000000  0.608725  0.000000  1
  Nd  Nd2  1  0.391275  0.391275  0.000000  1
  Tm  Tm3  1  0.226225  0.000000  0.500000  1
  Tm  Tm4  1  0.000000  0.226225  0.500000  1
  Tm  Tm5  1  0.773775  0.773775  0.500000  1
  Re  Re6  1  0.000000  0.000000  0.000000  1
  Bi  Bi7  1  0.333333  0.666667  0.500000  1
  Bi  Bi8  1  0.666667  0.333333  0.500000  1
