# generated using pymatgen
data_Zr4Co7P12Ru13
_symmetry_space_group_name_H-M   'P 1'
_cell_length_a   3.78066700
_cell_length_b   10.53735705
_cell_length_c   12.03717284
_cell_angle_alpha   90.04662974
_cell_angle_beta   90.00000000
_cell_angle_gamma   90.00000000
_symmetry_Int_Tables_number   1
_chemical_formula_structural   Zr4Co7P12Ru13
_chemical_formula_sum   'Zr4 Co7 P12 Ru13'
_cell_volume   479.53959872
_cell_formula_units_Z   1
loop_
 _symmetry_equiv_pos_site_id
 _symmetry_equiv_pos_as_xyz
  1  'x, y, z'
loop_
 _atom_site_type_symbol
 _atom_site_label
 _atom_site_symmetry_multiplicity
 _atom_site_fract_x
 _atom_site_fract_y
 _atom_site_fract_z
 _atom_site_occupancy
  Zr  Zr0  1  0.250000  0.583205  0.707470  1
  Zr  Zr1  1  0.250000  0.914732  0.205992  1
  Zr  Zr2  1  0.750000  0.416895  0.293954  1
  Zr  Zr3  1  0.750000  0.084915  0.795608  1
  Co  Co4  1  0.250000  0.609071  0.200269  1
  Co  Co5  1  0.750000  0.111476  0.299953  1
  Co  Co6  1  0.750000  0.387369  0.800914  1
  Co  Co7  1  0.250000  0.460869  0.932396  1
  Co  Co8  1  0.250000  0.039147  0.429522  1
  Co  Co9  1  0.750000  0.536205  0.069430  1
  Co  Co10  1  0.750000  0.964314  0.560213  1
  P  P11  1  0.250000  0.426792  0.113244  1
  P  P12  1  0.250000  0.078616  0.609019  1
  P  P13  1  0.750000  0.568897  0.888385  1
  P  P14  1  0.750000  0.927025  0.383232  1
  P  P15  1  0.250000  0.268352  0.870698  1
  P  P16  1  0.250000  0.232271  0.370101  1
  P  P17  1  0.750000  0.729323  0.129264  1
  P  P18  1  0.750000  0.769946  0.630834  1
  P  P19  1  0.250000  0.598603  0.384781  1
  P  P20  1  0.250000  0.900024  0.890420  1
  P  P21  1  0.750000  0.402555  0.614873  1
  P  P22  1  0.750000  0.099348  0.115153  1
  Ru  Ru23  1  0.250000  0.709481  0.993474  1
  Ru  Ru24  1  0.250000  0.790928  0.482932  1
  Ru  Ru25  1  0.750000  0.289001  0.011113  1
  Ru  Ru26  1  0.750000  0.211712  0.510224  1
  Ru  Ru27  1  0.250000  0.407841  0.482713  1
  Ru  Ru28  1  0.250000  0.093705  0.984692  1
  Ru  Ru29  1  0.750000  0.595189  0.517674  1
  Ru  Ru30  1  0.750000  0.906436  0.019040  1
  Ru  Ru31  1  0.250000  0.227242  0.181411  1
  Ru  Ru32  1  0.250000  0.275919  0.680691  1
  Ru  Ru33  1  0.750000  0.767277  0.823756  1
  Ru  Ru34  1  0.750000  0.725785  0.317699  1
  Ru  Ru35  1  0.250000  0.889535  0.698858  1
