# generated using pymatgen
data_LiTb16In3IrRu3
_symmetry_space_group_name_H-M   'P 1'
_cell_length_a   9.71527310
_cell_length_b   9.72113496
_cell_length_c   9.71527193
_cell_angle_alpha   59.50181362
_cell_angle_beta   59.47116116
_cell_angle_gamma   59.50181322
_symmetry_Int_Tables_number   1
_chemical_formula_structural   LiTb16In3IrRu3
_chemical_formula_sum   'Li1 Tb16 In3 Ir1 Ru3'
_cell_volume   641.29939803
_cell_formula_units_Z   1
loop_
 _symmetry_equiv_pos_site_id
 _symmetry_equiv_pos_as_xyz
  1  'x, y, z'
loop_
 _atom_site_type_symbol
 _atom_site_label
 _atom_site_symmetry_multiplicity
 _atom_site_fract_x
 _atom_site_fract_y
 _atom_site_fract_z
 _atom_site_occupancy
  Li  Li0  1  0.321254  0.321759  0.321254  1
  Tb  Tb1  1  0.096478  0.710691  0.096478  1
  Tb  Tb2  1  0.941743  0.941488  0.558930  1
  Tb  Tb3  1  0.942028  0.560065  0.942028  1
  Tb  Tb4  1  0.308566  0.690822  0.308566  1
  Tb  Tb5  1  0.937056  0.562268  0.559283  1
  Tb  Tb6  1  0.309611  0.307508  0.691210  1
  Tb  Tb7  1  0.099901  0.097750  0.099901  1
  Tb  Tb8  1  0.559283  0.562268  0.937056  1
  Tb  Tb9  1  0.097830  0.096272  0.709384  1
  Tb  Tb10  1  0.689326  0.309479  0.689326  1
  Tb  Tb11  1  0.690057  0.690055  0.310028  1
  Tb  Tb12  1  0.691210  0.307508  0.309611  1
  Tb  Tb13  1  0.310028  0.690055  0.690057  1
  Tb  Tb14  1  0.561419  0.935701  0.561419  1
  Tb  Tb15  1  0.709384  0.096272  0.097830  1
  Tb  Tb16  1  0.558930  0.941488  0.941743  1
  In  In17  1  0.005497  0.332335  0.331992  1
  In  In18  1  0.332154  0.005223  0.332154  1
  In  In19  1  0.331992  0.332335  0.005497  1
  Ir  Ir20  1  0.892697  0.329752  0.892697  1
  Ru  Ru21  1  0.889751  0.892565  0.889751  1
  Ru  Ru22  1  0.891515  0.893168  0.332292  1
  Ru  Ru23  1  0.332292  0.893168  0.891515  1
