# generated using pymatgen
data_NdY4(Th3Ir2)3
_symmetry_space_group_name_H-M   'P 1'
_cell_length_a   9.95876009
_cell_length_b   10.06829450
_cell_length_c   6.36165934
_cell_angle_alpha   90.07613981
_cell_angle_beta   90.10951103
_cell_angle_gamma   120.40946573
_symmetry_Int_Tables_number   1
_chemical_formula_structural   NdY4(Th3Ir2)3
_chemical_formula_sum   'Nd1 Y4 Th9 Ir6'
_cell_volume   550.11456137
_cell_formula_units_Z   1
loop_
 _symmetry_equiv_pos_site_id
 _symmetry_equiv_pos_as_xyz
  1  'x, y, z'
loop_
 _atom_site_type_symbol
 _atom_site_label
 _atom_site_symmetry_multiplicity
 _atom_site_fract_x
 _atom_site_fract_y
 _atom_site_fract_z
 _atom_site_occupancy
  Nd  Nd0  1  0.458456  0.534938  0.297684  1
  Y  Y1  1  0.072819  0.536019  0.301939  1
  Y  Y2  1  0.924383  0.461848  0.799499  1
  Y  Y3  1  0.254423  0.126725  0.500492  1
  Y  Y4  1  0.540475  0.077970  0.794541  1
  Th  Th5  1  0.746100  0.875934  0.003443  1
  Th  Th6  1  0.665219  0.330878  0.278136  1
  Th  Th7  1  0.130452  0.873307  0.998228  1
  Th  Th8  1  0.456082  0.918376  0.299958  1
  Th  Th9  1  0.539142  0.459777  0.797572  1
  Th  Th10  1  0.877348  0.131605  0.503538  1
  Th  Th11  1  0.126394  0.252475  0.997040  1
  Th  Th12  1  0.874766  0.744619  0.500914  1
  Th  Th13  1  0.334813  0.667986  0.783929  1
  Ir  Ir14  1  0.812526  0.626406  0.051758  1
  Ir  Ir15  1  0.814796  0.188690  0.059086  1
  Ir  Ir16  1  0.628708  0.819895  0.553104  1
  Ir  Ir17  1  0.374701  0.188533  0.041597  1
  Ir  Ir18  1  0.181350  0.375302  0.565294  1
  Ir  Ir19  1  0.187047  0.808714  0.556247  1
