# generated using pymatgen
data_Pr16Cd3HgPd3Ru
_symmetry_space_group_name_H-M   'P 1'
_cell_length_a   10.09916881
_cell_length_b   10.09917003
_cell_length_c   10.09916811
_cell_angle_alpha   59.54494779
_cell_angle_beta   59.54494429
_cell_angle_gamma   59.54494376
_symmetry_Int_Tables_number   1
_chemical_formula_structural   Pr16Cd3HgPd3Ru
_chemical_formula_sum   'Pr16 Cd3 Hg1 Pd3 Ru1'
_cell_volume   720.81722290
_cell_formula_units_Z   1
loop_
 _symmetry_equiv_pos_site_id
 _symmetry_equiv_pos_as_xyz
  1  'x, y, z'
loop_
 _atom_site_type_symbol
 _atom_site_label
 _atom_site_symmetry_multiplicity
 _atom_site_fract_x
 _atom_site_fract_y
 _atom_site_fract_z
 _atom_site_occupancy
  Pr  Pr0  1  0.352517  0.352517  0.352517  1
  Pr  Pr1  1  0.348769  0.348769  0.948726  1
  Pr  Pr2  1  0.348769  0.948726  0.348769  1
  Pr  Pr3  1  0.948726  0.348769  0.348769  1
  Pr  Pr4  1  0.817170  0.188682  0.188682  1
  Pr  Pr5  1  0.189276  0.806829  0.806829  1
  Pr  Pr6  1  0.188682  0.817170  0.188682  1
  Pr  Pr7  1  0.806829  0.189276  0.806829  1
  Pr  Pr8  1  0.188682  0.188682  0.817170  1
  Pr  Pr9  1  0.806829  0.806829  0.189276  1
  Pr  Pr10  1  0.936642  0.564077  0.564077  1
  Pr  Pr11  1  0.558634  0.936470  0.936470  1
  Pr  Pr12  1  0.564077  0.936642  0.564077  1
  Pr  Pr13  1  0.936470  0.558634  0.936470  1
  Pr  Pr14  1  0.564077  0.564077  0.936642  1
  Pr  Pr15  1  0.936470  0.936470  0.558634  1
  Cd  Cd16  1  0.580090  0.580090  0.258677  1
  Cd  Cd17  1  0.580090  0.258677  0.580090  1
  Cd  Cd18  1  0.258677  0.580090  0.580090  1
  Hg  Hg19  1  0.583570  0.583570  0.583570  1
  Pd  Pd20  1  0.145424  0.145424  0.570922  1
  Pd  Pd21  1  0.145424  0.570922  0.145424  1
  Pd  Pd22  1  0.570922  0.145424  0.145424  1
  Ru  Ru23  1  0.143187  0.143187  0.143187  1
