# generated using pymatgen
data_Pr20Tl4Si7Ir
_symmetry_space_group_name_H-M   'P 1'
_cell_length_a   8.07029240
_cell_length_b   8.07029174
_cell_length_c   14.87513300
_cell_angle_alpha   89.92781843
_cell_angle_beta   90.07218157
_cell_angle_gamma   89.78410680
_symmetry_Int_Tables_number   1
_chemical_formula_structural   Pr20Tl4Si7Ir
_chemical_formula_sum   'Pr20 Tl4 Si7 Ir1'
_cell_volume   968.80325184
_cell_formula_units_Z   1
loop_
 _symmetry_equiv_pos_site_id
 _symmetry_equiv_pos_as_xyz
  1  'x, y, z'
loop_
 _atom_site_type_symbol
 _atom_site_label
 _atom_site_symmetry_multiplicity
 _atom_site_fract_x
 _atom_site_fract_y
 _atom_site_fract_z
 _atom_site_occupancy
  Pr  Pr0  1  0.818906  0.832396  0.612028  1
  Pr  Pr1  1  0.171983  0.840122  0.115145  1
  Pr  Pr2  1  0.162580  0.827053  0.382922  1
  Pr  Pr3  1  0.000312  0.501326  0.728982  1
  Pr  Pr4  1  0.840122  0.171983  0.384855  1
  Pr  Pr5  1  0.680954  0.669100  0.389677  1
  Pr  Pr6  1  0.666294  0.317506  0.612175  1
  Pr  Pr7  1  0.332632  0.682745  0.611907  1
  Pr  Pr8  1  0.007810  0.498255  0.229756  1
  Pr  Pr9  1  0.669100  0.680954  0.110323  1
  Pr  Pr10  1  0.682745  0.332632  0.888093  1
  Pr  Pr11  1  0.832396  0.818906  0.887972  1
  Pr  Pr12  1  0.311093  0.331928  0.383304  1
  Pr  Pr13  1  0.180154  0.168404  0.613785  1
  Pr  Pr14  1  0.827053  0.162580  0.117078  1
  Pr  Pr15  1  0.317506  0.666294  0.887825  1
  Pr  Pr16  1  0.331928  0.311093  0.116696  1
  Pr  Pr17  1  0.498255  0.007810  0.270244  1
  Pr  Pr18  1  0.168404  0.180154  0.886215  1
  Pr  Pr19  1  0.501326  0.000312  0.771018  1
  Tl  Tl20  1  0.999718  0.499328  0.502939  1
  Tl  Tl21  1  0.498759  0.999890  0.496914  1
  Tl  Tl22  1  0.499328  0.999718  0.997061  1
  Tl  Tl23  1  0.999890  0.498759  0.003086  1
  Si  Si24  1  0.619643  0.386983  0.251640  1
  Si  Si25  1  0.116807  0.883156  0.750057  1
  Si  Si26  1  0.383640  0.383640  0.750000  1
  Si  Si27  1  0.386983  0.619643  0.248360  1
  Si  Si28  1  0.876761  0.876761  0.250000  1
  Si  Si29  1  0.616991  0.616991  0.750000  1
  Si  Si30  1  0.883156  0.116807  0.749943  1
  Ir  Ir31  1  0.116768  0.116768  0.250000  1
