# generated using pymatgen
data_Hf10AlSn6Ge
_symmetry_space_group_name_H-M   'P 1'
_cell_length_a   8.66906900
_cell_length_b   8.66906927
_cell_length_c   5.82717900
_cell_angle_alpha   90.00000000
_cell_angle_beta   90.00000000
_cell_angle_gamma   120.00000280
_symmetry_Int_Tables_number   1
_chemical_formula_structural   Hf10AlSn6Ge
_chemical_formula_sum   'Hf10 Al1 Sn6 Ge1'
_cell_volume   379.25726700
_cell_formula_units_Z   1
loop_
 _symmetry_equiv_pos_site_id
 _symmetry_equiv_pos_as_xyz
  1  'x, y, z'
loop_
 _atom_site_type_symbol
 _atom_site_label
 _atom_site_symmetry_multiplicity
 _atom_site_fract_x
 _atom_site_fract_y
 _atom_site_fract_z
 _atom_site_occupancy
  Hf  Hf0  1  0.731934  0.731934  0.753991  1
  Hf  Hf1  1  0.268066  0.000000  0.753991  1
  Hf  Hf2  1  0.000000  0.268066  0.753991  1
  Hf  Hf3  1  0.268066  0.268066  0.246009  1
  Hf  Hf4  1  0.731934  0.000000  0.246009  1
  Hf  Hf5  1  0.000000  0.731934  0.246009  1
  Hf  Hf6  1  0.666667  0.333333  0.000000  1
  Hf  Hf7  1  0.333333  0.666667  0.000000  1
  Hf  Hf8  1  0.333333  0.666667  0.500000  1
  Hf  Hf9  1  0.666667  0.333333  0.500000  1
  Al  Al10  1  0.000000  0.000000  0.500000  1
  Sn  Sn11  1  0.389840  0.389840  0.747258  1
  Sn  Sn12  1  0.610160  0.000000  0.747258  1
  Sn  Sn13  1  0.000000  0.610160  0.747258  1
  Sn  Sn14  1  0.610160  0.610160  0.252742  1
  Sn  Sn15  1  0.389840  0.000000  0.252742  1
  Sn  Sn16  1  0.000000  0.389840  0.252742  1
  Ge  Ge17  1  0.000000  0.000000  0.000000  1
