# generated using pymatgen
data_BaHoCu(H6Ir)2
_symmetry_space_group_name_H-M   'P 1'
_cell_length_a   4.92266200
_cell_length_b   4.92266170
_cell_length_c   8.33796900
_cell_angle_alpha   90.00000000
_cell_angle_beta   90.00000000
_cell_angle_gamma   120.00000202
_symmetry_Int_Tables_number   1
_chemical_formula_structural   BaHoCu(H6Ir)2
_chemical_formula_sum   'Ba1 Ho1 Cu1 H12 Ir2'
_cell_volume   174.98100519
_cell_formula_units_Z   1
loop_
 _symmetry_equiv_pos_site_id
 _symmetry_equiv_pos_as_xyz
  1  'x, y, z'
loop_
 _atom_site_type_symbol
 _atom_site_label
 _atom_site_symmetry_multiplicity
 _atom_site_fract_x
 _atom_site_fract_y
 _atom_site_fract_z
 _atom_site_occupancy
  Ba  Ba0  1  0.000000  0.000000  0.027573  1
  Ho  Ho1  1  0.333333  0.666667  0.622514  1
  Cu  Cu2  1  0.666667  0.333333  0.277761  1
  H  H3  1  0.169304  0.830696  0.388070  1
  H  H4  1  0.661392  0.830696  0.388070  1
  H  H5  1  0.169304  0.338608  0.388070  1
  H  H6  1  0.827716  0.172284  0.619581  1
  H  H7  1  0.344568  0.172284  0.619581  1
  H  H8  1  0.827716  0.655432  0.619581  1
  H  H9  1  0.505557  0.011113  0.851777  1
  H  H10  1  0.505557  0.494443  0.851777  1
  H  H11  1  0.988887  0.494443  0.851777  1
  H  H12  1  0.495577  0.991154  0.158862  1
  H  H13  1  0.495577  0.504423  0.158862  1
  H  H14  1  0.008846  0.504423  0.158862  1
  Ir  Ir15  1  0.666667  0.333333  0.734752  1
  Ir  Ir16  1  0.333333  0.666667  0.282533  1
