# generated using pymatgen
data_Be8OsRu2W
_symmetry_space_group_name_H-M   'P 1'
_cell_length_a   4.37897600
_cell_length_b   4.37897474
_cell_length_c   7.14351200
_cell_angle_alpha   90.00000000
_cell_angle_beta   90.00000000
_cell_angle_gamma   120.00000954
_symmetry_Int_Tables_number   1
_chemical_formula_structural   Be8OsRu2W
_chemical_formula_sum   'Be8 Os1 Ru2 W1'
_cell_volume   118.62804498
_cell_formula_units_Z   1
loop_
 _symmetry_equiv_pos_site_id
 _symmetry_equiv_pos_as_xyz
  1  'x, y, z'
loop_
 _atom_site_type_symbol
 _atom_site_label
 _atom_site_symmetry_multiplicity
 _atom_site_fract_x
 _atom_site_fract_y
 _atom_site_fract_z
 _atom_site_occupancy
  Be  Be0  1  0.000000  0.000000  0.502011  1
  Be  Be1  1  0.000000  0.000000  0.998675  1
  Be  Be2  1  0.830724  0.169276  0.256733  1
  Be  Be3  1  0.830724  0.661450  0.256733  1
  Be  Be4  1  0.338550  0.169276  0.256733  1
  Be  Be5  1  0.168429  0.831571  0.743572  1
  Be  Be6  1  0.168429  0.336855  0.743572  1
  Be  Be7  1  0.663145  0.831571  0.743572  1
  Os  Os8  1  0.333333  0.666667  0.426522  1
  Ru  Ru9  1  0.666667  0.333333  0.560447  1
  Ru  Ru10  1  0.666667  0.333333  0.948177  1
  W  W11  1  0.333333  0.666667  0.063252  1
