# generated using pymatgen
data_La3Sn3PdRh2
_symmetry_space_group_name_H-M   'P 1'
_cell_length_a   7.65145600
_cell_length_b   7.65145440
_cell_length_c   4.21578800
_cell_angle_alpha   90.00000000
_cell_angle_beta   90.00000000
_cell_angle_gamma   119.99999828
_symmetry_Int_Tables_number   1
_chemical_formula_structural   La3Sn3PdRh2
_chemical_formula_sum   'La3 Sn3 Pd1 Rh2'
_cell_volume   213.74574693
_cell_formula_units_Z   1
loop_
 _symmetry_equiv_pos_site_id
 _symmetry_equiv_pos_as_xyz
  1  'x, y, z'
loop_
 _atom_site_type_symbol
 _atom_site_label
 _atom_site_symmetry_multiplicity
 _atom_site_fract_x
 _atom_site_fract_y
 _atom_site_fract_z
 _atom_site_occupancy
  La  La0  1  0.991996  0.582501  0.000000  1
  La  La1  1  0.417499  0.409495  0.000000  1
  La  La2  1  0.590505  0.008004  0.000000  1
  Sn  Sn3  1  0.754775  0.752526  0.500000  1
  Sn  Sn4  1  0.997751  0.245225  0.500000  1
  Sn  Sn5  1  0.247474  0.002249  0.500000  1
  Pd  Pd6  1  0.333333  0.666667  0.500000  1
  Rh  Rh7  1  0.666667  0.333333  0.500000  1
  Rh  Rh8  1  0.000000  0.000000  0.000000  1
