# generated using pymatgen
data_DyEr3(Si3Rh)2
_symmetry_space_group_name_H-M   'P 1'
_cell_length_a   8.14568800
_cell_length_b   8.14568823
_cell_length_c   7.84263900
_cell_angle_alpha   90.00000000
_cell_angle_beta   90.00000000
_cell_angle_gamma   119.99999908
_symmetry_Int_Tables_number   1
_chemical_formula_structural   DyEr3(Si3Rh)2
_chemical_formula_sum   'Dy2 Er6 Si12 Rh4'
_cell_volume   450.65938063
_cell_formula_units_Z   2
loop_
 _symmetry_equiv_pos_site_id
 _symmetry_equiv_pos_as_xyz
  1  'x, y, z'
loop_
 _atom_site_type_symbol
 _atom_site_label
 _atom_site_symmetry_multiplicity
 _atom_site_fract_x
 _atom_site_fract_y
 _atom_site_fract_z
 _atom_site_occupancy
  Dy  Dy0  1  0.000000  0.000000  0.250000  1
  Dy  Dy1  1  0.000000  0.000000  0.750000  1
  Er  Er2  1  0.492413  0.507587  0.250000  1
  Er  Er3  1  0.492413  0.984825  0.250000  1
  Er  Er4  1  0.015175  0.507587  0.250000  1
  Er  Er5  1  0.507587  0.492413  0.750000  1
  Er  Er6  1  0.984825  0.492413  0.750000  1
  Er  Er7  1  0.507587  0.015175  0.750000  1
  Si  Si8  1  0.832981  0.167019  0.501027  1
  Si  Si9  1  0.832981  0.665963  0.501027  1
  Si  Si10  1  0.334037  0.167019  0.501027  1
  Si  Si11  1  0.832981  0.167019  0.998973  1
  Si  Si12  1  0.832981  0.665963  0.998973  1
  Si  Si13  1  0.334037  0.167019  0.998973  1
  Si  Si14  1  0.167019  0.832981  0.001027  1
  Si  Si15  1  0.665963  0.832981  0.001027  1
  Si  Si16  1  0.167019  0.334037  0.001027  1
  Si  Si17  1  0.167019  0.832981  0.498973  1
  Si  Si18  1  0.665963  0.832981  0.498973  1
  Si  Si19  1  0.167019  0.334037  0.498973  1
  Rh  Rh20  1  0.666667  0.333333  0.469131  1
  Rh  Rh21  1  0.666667  0.333333  0.030869  1
  Rh  Rh22  1  0.333333  0.666667  0.969131  1
  Rh  Rh23  1  0.333333  0.666667  0.530869  1
