# generated using pymatgen
data_Y5Pd9
_symmetry_space_group_name_H-M   'P 1'
_cell_length_a   9.82964800
_cell_length_b   9.82964800
_cell_length_c   5.78212100
_cell_angle_alpha   90.00000000
_cell_angle_beta   90.00000000
_cell_angle_gamma   90.00000000
_symmetry_Int_Tables_number   1
_chemical_formula_structural   Y5Pd9
_chemical_formula_sum   'Y10 Pd18'
_cell_volume   558.67997849
_cell_formula_units_Z   2
loop_
 _symmetry_equiv_pos_site_id
 _symmetry_equiv_pos_as_xyz
  1  'x, y, z'
loop_
 _atom_site_type_symbol
 _atom_site_label
 _atom_site_symmetry_multiplicity
 _atom_site_fract_x
 _atom_site_fract_y
 _atom_site_fract_z
 _atom_site_occupancy
  Y  Y0  1  0.453314  0.808307  0.000000  1
  Y  Y1  1  0.546686  0.191693  0.000000  1
  Y  Y2  1  0.191693  0.546686  0.000000  1
  Y  Y3  1  0.808307  0.453314  0.000000  1
  Y  Y4  1  0.500000  0.500000  0.500000  1
  Y  Y5  1  0.308307  0.046686  0.500000  1
  Y  Y6  1  0.691693  0.953314  0.500000  1
  Y  Y7  1  0.953314  0.691693  0.500000  1
  Y  Y8  1  0.046686  0.308307  0.500000  1
  Y  Y9  1  0.000000  0.000000  0.000000  1
  Pd  Pd10  1  0.190992  0.809008  0.250356  1
  Pd  Pd11  1  0.809008  0.190992  0.749644  1
  Pd  Pd12  1  0.809008  0.190992  0.250356  1
  Pd  Pd13  1  0.190992  0.809008  0.749644  1
  Pd  Pd14  1  0.439259  0.780564  0.500000  1
  Pd  Pd15  1  0.560741  0.219436  0.500000  1
  Pd  Pd16  1  0.219436  0.560741  0.500000  1
  Pd  Pd17  1  0.780564  0.439259  0.500000  1
  Pd  Pd18  1  0.309008  0.309008  0.249644  1
  Pd  Pd19  1  0.690992  0.690992  0.750356  1
  Pd  Pd20  1  0.690992  0.690992  0.249644  1
  Pd  Pd21  1  0.309008  0.309008  0.750356  1
  Pd  Pd22  1  0.280564  0.060741  0.000000  1
  Pd  Pd23  1  0.719436  0.939259  0.000000  1
  Pd  Pd24  1  0.939259  0.719436  0.000000  1
  Pd  Pd25  1  0.060741  0.280564  0.000000  1
  Pd  Pd26  1  0.000000  0.000000  0.500000  1
  Pd  Pd27  1  0.500000  0.500000  0.000000  1
