# generated using pymatgen
data_Yb3DyAl12(SiIr)6
_symmetry_space_group_name_H-M   'P 1'
_cell_length_a   7.47072623
_cell_length_b   7.44960000
_cell_length_c   9.38495818
_cell_angle_alpha   89.94586099
_cell_angle_beta   90.05660134
_cell_angle_gamma   119.94915394
_symmetry_Int_Tables_number   1
_chemical_formula_structural   Yb3DyAl12(SiIr)6
_chemical_formula_sum   'Yb3 Dy1 Al12 Si6 Ir6'
_cell_volume   452.56479258
_cell_formula_units_Z   1
loop_
 _symmetry_equiv_pos_site_id
 _symmetry_equiv_pos_as_xyz
  1  'x, y, z'
loop_
 _atom_site_type_symbol
 _atom_site_label
 _atom_site_symmetry_multiplicity
 _atom_site_fract_x
 _atom_site_fract_y
 _atom_site_fract_z
 _atom_site_occupancy
  Yb  Yb0  1  0.000209  0.337091  0.747035  1
  Yb  Yb1  1  0.674125  0.007619  0.256439  1
  Yb  Yb2  1  0.326227  0.992176  0.743296  1
  Dy  Dy3  1  0.998887  0.662812  0.253204  1
  Al  Al4  1  0.128059  0.128086  0.249297  1
  Al  Al5  1  0.872489  0.872418  0.750442  1
  Al  Al6  1  0.662323  0.998009  0.929061  1
  Al  Al7  1  0.339205  0.003968  0.070113  1
  Al  Al8  1  0.335286  0.333687  0.562557  1
  Al  Al9  1  0.663321  0.665859  0.438877  1
  Al  Al10  1  0.663402  0.668336  0.060644  1
  Al  Al11  1  0.335123  0.331414  0.938195  1
  Al  Al12  1  0.338035  0.547747  0.249625  1
  Al  Al13  1  0.661065  0.451294  0.750483  1
  Al  Al14  1  0.546539  0.342974  0.250460  1
  Al  Al15  1  0.452734  0.657051  0.749638  1
  Si  Si16  1  0.001101  0.326562  0.065486  1
  Si  Si17  1  0.999452  0.672555  0.932021  1
  Si  Si18  1  0.992133  0.666146  0.574187  1
  Si  Si19  1  0.334445  0.007253  0.421009  1
  Si  Si20  1  0.008436  0.333150  0.427828  1
  Si  Si21  1  0.665953  0.993489  0.579800  1
  Ir  Ir22  1  0.689082  0.338707  0.003177  1
  Ir  Ir23  1  0.311849  0.662491  0.998543  1
  Ir  Ir24  1  0.319957  0.679469  0.499277  1
  Ir  Ir25  1  0.681074  0.321536  0.499290  1
  Ir  Ir26  1  0.999629  0.998865  0.000865  1
  Ir  Ir27  1  0.999861  0.999236  0.499151  1
