# generated using pymatgen
data_Nb(BiO2)7
_symmetry_space_group_name_H-M   'P 1'
_cell_length_a   6.74431322
_cell_length_b   6.94268500
_cell_length_c   7.82200123
_cell_angle_alpha   106.91267147
_cell_angle_beta   89.49074166
_cell_angle_gamma   101.90659683
_symmetry_Int_Tables_number   1
_chemical_formula_structural   Nb(BiO2)7
_chemical_formula_sum   'Nb1 Bi7 O14'
_cell_volume   342.36292052
_cell_formula_units_Z   1
loop_
 _symmetry_equiv_pos_site_id
 _symmetry_equiv_pos_as_xyz
  1  'x, y, z'
loop_
 _atom_site_type_symbol
 _atom_site_label
 _atom_site_symmetry_multiplicity
 _atom_site_fract_x
 _atom_site_fract_y
 _atom_site_fract_z
 _atom_site_occupancy
  Nb  Nb0  1  0.000000  0.000000  0.000000  1
  Bi  Bi1  1  0.000000  0.000000  0.500000  1
  Bi  Bi2  1  0.477732  0.995585  0.251247  1
  Bi  Bi3  1  0.522268  0.004415  0.748753  1
  Bi  Bi4  1  0.260341  0.516855  0.885282  1
  Bi  Bi5  1  0.739659  0.483145  0.114718  1
  Bi  Bi6  1  0.730685  0.508419  0.619741  1
  Bi  Bi7  1  0.269315  0.491581  0.380259  1
  O  O8  1  0.469136  0.628385  0.182076  1
  O  O9  1  0.530864  0.371615  0.817924  1
  O  O10  1  0.275983  0.947899  0.936404  1
  O  O11  1  0.724017  0.052101  0.063596  1
  O  O12  1  0.289490  0.922307  0.517214  1
  O  O13  1  0.710510  0.077693  0.482786  1
  O  O14  1  0.531948  0.345010  0.363012  1
  O  O15  1  0.468052  0.654990  0.636988  1
  O  O16  1  0.908668  0.696996  0.977328  1
  O  O17  1  0.091332  0.303004  0.022672  1
  O  O18  1  0.104316  0.326953  0.622058  1
  O  O19  1  0.895684  0.673047  0.377942  1
  O  O20  1  0.895453  0.920663  0.737628  1
  O  O21  1  0.104547  0.079337  0.262372  1
