# generated using pymatgen
data_KMn(CO3)2
_symmetry_space_group_name_H-M   'P 1'
_cell_length_a   12.59734814
_cell_length_b   12.63210684
_cell_length_c   12.59878143
_cell_angle_alpha   22.83443924
_cell_angle_beta   21.86927839
_cell_angle_gamma   22.80677526
_symmetry_Int_Tables_number   1
_chemical_formula_structural   KMn(CO3)2
_chemical_formula_sum   'K2 Mn2 C4 O12'
_cell_volume   257.30657233
_cell_formula_units_Z   2
loop_
 _symmetry_equiv_pos_site_id
 _symmetry_equiv_pos_as_xyz
  1  'x, y, z'
loop_
 _atom_site_type_symbol
 _atom_site_label
 _atom_site_symmetry_multiplicity
 _atom_site_fract_x
 _atom_site_fract_y
 _atom_site_fract_z
 _atom_site_occupancy
  K  K0  1  0.238513  0.249055  0.262263  1
  K  K1  1  0.761487  0.750945  0.737737  1
  Mn  Mn2  1  0.500000  0.500000  0.500000  1
  Mn  Mn3  1  0.000000  0.000000  0.000000  1
  C  C4  1  0.373338  0.345777  0.374674  1
  C  C5  1  0.875074  0.844503  0.874193  1
  C  C6  1  0.626662  0.654223  0.625326  1
  C  C7  1  0.124926  0.155497  0.125807  1
  O  O8  1  0.330832  0.620153  0.151218  1
  O  O9  1  0.131340  0.293544  0.673058  1
  O  O10  1  0.657246  0.107415  0.325465  1
  O  O11  1  0.651445  0.119008  0.831428  1
  O  O12  1  0.825999  0.606710  0.157574  1
  O  O13  1  0.173534  0.792714  0.631828  1
  O  O14  1  0.669168  0.379847  0.848782  1
  O  O15  1  0.868660  0.706456  0.326942  1
  O  O16  1  0.342754  0.892585  0.674535  1
  O  O17  1  0.348555  0.880992  0.168572  1
  O  O18  1  0.174001  0.393290  0.842426  1
  O  O19  1  0.826466  0.207286  0.368172  1
