# generated using pymatgen
data_Tm2Zr5WF30
_symmetry_space_group_name_H-M   'P 1'
_cell_length_a   8.14449554
_cell_length_b   8.14449498
_cell_length_c   8.14834800
_cell_angle_alpha   79.74424009
_cell_angle_beta   79.74422651
_cell_angle_gamma   100.03274146
_symmetry_Int_Tables_number   1
_chemical_formula_structural   Tm2Zr5WF30
_chemical_formula_sum   'Tm2 Zr5 W1 F30'
_cell_volume   511.39889733
_cell_formula_units_Z   1
loop_
 _symmetry_equiv_pos_site_id
 _symmetry_equiv_pos_as_xyz
  1  'x, y, z'
loop_
 _atom_site_type_symbol
 _atom_site_label
 _atom_site_symmetry_multiplicity
 _atom_site_fract_x
 _atom_site_fract_y
 _atom_site_fract_z
 _atom_site_occupancy
  Tm  Tm0  1  0.177858  0.822142  0.250000  1
  Tm  Tm1  1  0.821876  0.178124  0.750000  1
  Zr  Zr2  1  0.248174  0.751826  0.750000  1
  Zr  Zr3  1  0.748917  0.678525  0.674145  1
  Zr  Zr4  1  0.321475  0.251083  0.825855  1
  Zr  Zr5  1  0.250794  0.321544  0.325635  1
  Zr  Zr6  1  0.678456  0.749206  0.174365  1
  W  W7  1  0.750585  0.249415  0.250000  1
  F  F8  1  0.316961  0.350192  0.053577  1
  F  F9  1  0.939219  0.814508  0.151572  1
  F  F10  1  0.843859  0.457715  0.683136  1
  F  F11  1  0.458008  0.842306  0.183341  1
  F  F12  1  0.814377  0.939146  0.653612  1
  F  F13  1  0.349607  0.318292  0.552769  1
  F  F14  1  0.681708  0.650393  0.947230  1
  F  F15  1  0.060854  0.185623  0.846388  1
  F  F16  1  0.157694  0.541992  0.316659  1
  F  F17  1  0.542285  0.156141  0.816864  1
  F  F18  1  0.185492  0.060781  0.348428  1
  F  F19  1  0.649808  0.683039  0.446423  1
  F  F20  1  0.776745  0.283821  0.996564  1
  F  F21  1  0.007646  0.277061  0.214284  1
  F  F22  1  0.784378  0.507044  0.221533  1
  F  F23  1  0.507685  0.778263  0.721994  1
  F  F24  1  0.276494  0.010239  0.718635  1
  F  F25  1  0.279128  0.774770  0.494670  1
  F  F26  1  0.225230  0.720872  0.005330  1
  F  F27  1  0.989761  0.723506  0.781365  1
  F  F28  1  0.221737  0.492315  0.778006  1
  F  F29  1  0.492956  0.215622  0.278467  1
  F  F30  1  0.722939  0.992354  0.285716  1
  F  F31  1  0.716179  0.223255  0.503436  1
  F  F32  1  0.470840  0.529160  0.250000  1
  F  F33  1  0.748120  0.958977  0.971561  1
  F  F34  1  0.041023  0.251880  0.528439  1
  F  F35  1  0.252115  0.043110  0.030335  1
  F  F36  1  0.956890  0.747885  0.469665  1
  F  F37  1  0.532126  0.467874  0.750000  1
