# generated using pymatgen
data_HoCoMo(PIr)3
_symmetry_space_group_name_H-M   'P 1'
_cell_length_a   3.93312700
_cell_length_b   10.72342600
_cell_length_c   12.38935900
_cell_angle_alpha   90.00000000
_cell_angle_beta   90.00000000
_cell_angle_gamma   90.00000000
_symmetry_Int_Tables_number   1
_chemical_formula_structural   HoCoMo(PIr)3
_chemical_formula_sum   'Ho4 Co4 Mo4 P12 Ir12'
_cell_volume   522.54099337
_cell_formula_units_Z   4
loop_
 _symmetry_equiv_pos_site_id
 _symmetry_equiv_pos_as_xyz
  1  'x, y, z'
loop_
 _atom_site_type_symbol
 _atom_site_label
 _atom_site_symmetry_multiplicity
 _atom_site_fract_x
 _atom_site_fract_y
 _atom_site_fract_z
 _atom_site_occupancy
  Ho  Ho0  1  0.250000  0.583062  0.708598  1
  Ho  Ho1  1  0.250000  0.916938  0.208598  1
  Ho  Ho2  1  0.750000  0.416938  0.291402  1
  Ho  Ho3  1  0.750000  0.083062  0.791402  1
  Co  Co4  1  0.250000  0.461243  0.935684  1
  Co  Co5  1  0.250000  0.038757  0.435684  1
  Co  Co6  1  0.750000  0.538757  0.064316  1
  Co  Co7  1  0.750000  0.961243  0.564316  1
  Mo  Mo8  1  0.250000  0.708563  0.983169  1
  Mo  Mo9  1  0.250000  0.791437  0.483169  1
  Mo  Mo10  1  0.750000  0.291437  0.016831  1
  Mo  Mo11  1  0.750000  0.208563  0.516831  1
  P  P12  1  0.250000  0.425359  0.107694  1
  P  P13  1  0.250000  0.074641  0.607694  1
  P  P14  1  0.750000  0.574641  0.892306  1
  P  P15  1  0.750000  0.925359  0.392306  1
  P  P16  1  0.250000  0.269065  0.870904  1
  P  P17  1  0.250000  0.230935  0.370904  1
  P  P18  1  0.750000  0.730935  0.129096  1
  P  P19  1  0.750000  0.769065  0.629096  1
  P  P20  1  0.250000  0.597674  0.390160  1
  P  P21  1  0.250000  0.902326  0.890160  1
  P  P22  1  0.750000  0.402326  0.609840  1
  P  P23  1  0.750000  0.097674  0.109840  1
  Ir  Ir24  1  0.250000  0.404714  0.482949  1
  Ir  Ir25  1  0.250000  0.095286  0.982949  1
  Ir  Ir26  1  0.750000  0.595286  0.517051  1
  Ir  Ir27  1  0.750000  0.904714  0.017051  1
  Ir  Ir28  1  0.250000  0.232675  0.180933  1
  Ir  Ir29  1  0.250000  0.267325  0.680933  1
  Ir  Ir30  1  0.750000  0.767325  0.819067  1
  Ir  Ir31  1  0.750000  0.732675  0.319067  1
  Ir  Ir32  1  0.250000  0.888690  0.700054  1
  Ir  Ir33  1  0.250000  0.611310  0.200054  1
  Ir  Ir34  1  0.750000  0.111310  0.299946  1
  Ir  Ir35  1  0.750000  0.388690  0.799946  1
