# generated using pymatgen
data_Er4Hf4IrRh3
_symmetry_space_group_name_H-M   'P 1'
_cell_length_a   4.53852600
_cell_length_b   7.00979600
_cell_length_c   8.25255373
_cell_angle_alpha   89.67374456
_cell_angle_beta   90.00000000
_cell_angle_gamma   90.00000000
_symmetry_Int_Tables_number   1
_chemical_formula_structural   Er4Hf4IrRh3
_chemical_formula_sum   'Er4 Hf4 Ir1 Rh3'
_cell_volume   262.54365481
_cell_formula_units_Z   1
loop_
 _symmetry_equiv_pos_site_id
 _symmetry_equiv_pos_as_xyz
  1  'x, y, z'
loop_
 _atom_site_type_symbol
 _atom_site_label
 _atom_site_symmetry_multiplicity
 _atom_site_fract_x
 _atom_site_fract_y
 _atom_site_fract_z
 _atom_site_occupancy
  Er  Er0  1  0.250000  0.984079  0.323455  1
  Er  Er1  1  0.250000  0.478474  0.178704  1
  Er  Er2  1  0.750000  0.019121  0.677900  1
  Er  Er3  1  0.750000  0.519437  0.822781  1
  Hf  Hf4  1  0.250000  0.358315  0.569324  1
  Hf  Hf5  1  0.250000  0.857967  0.930093  1
  Hf  Hf6  1  0.750000  0.643237  0.428155  1
  Hf  Hf7  1  0.750000  0.140129  0.072357  1
  Ir  Ir8  1  0.750000  0.268569  0.402973  1
  Rh  Rh9  1  0.250000  0.231441  0.906868  1
  Rh  Rh10  1  0.250000  0.732625  0.594502  1
  Rh  Rh11  1  0.750000  0.766606  0.092890  1
