# generated using pymatgen
data_PdI9
_symmetry_space_group_name_H-M   'P 1'
_cell_length_a   10.10986819
_cell_length_b   10.17215512
_cell_length_c   10.08226200
_cell_angle_alpha   94.37687311
_cell_angle_beta   94.37755248
_cell_angle_gamma   94.23960933
_symmetry_Int_Tables_number   1
_chemical_formula_structural   PdI9
_chemical_formula_sum   'Pd2 I18'
_cell_volume   1027.48932275
_cell_formula_units_Z   2
loop_
 _symmetry_equiv_pos_site_id
 _symmetry_equiv_pos_as_xyz
  1  'x, y, z'
loop_
 _atom_site_type_symbol
 _atom_site_label
 _atom_site_symmetry_multiplicity
 _atom_site_fract_x
 _atom_site_fract_y
 _atom_site_fract_z
 _atom_site_occupancy
  Pd  Pd0  1  0.500000  0.500000  0.500000  1
  Pd  Pd1  1  0.000000  0.000000  0.000000  1
  I  I2  1  0.777093  0.477773  0.526464  1
  I  I3  1  0.526264  0.774973  0.477343  1
  I  I4  1  0.478181  0.527113  0.777698  1
  I  I5  1  0.222907  0.522227  0.473536  1
  I  I6  1  0.473736  0.225027  0.522657  1
  I  I7  1  0.521819  0.472887  0.222302  1
  I  I8  1  0.894699  0.366961  0.760037  1
  I  I9  1  0.759542  0.892967  0.367757  1
  I  I10  1  0.367750  0.759816  0.894634  1
  I  I11  1  0.105301  0.633039  0.239963  1
  I  I12  1  0.240458  0.107033  0.632243  1
  I  I13  1  0.632250  0.240184  0.105366  1
  I  I14  1  0.000639  0.965167  0.727762  1
  I  I15  1  0.728386  0.001025  0.964227  1
  I  I16  1  0.964074  0.729795  0.999495  1
  I  I17  1  0.999361  0.034833  0.272238  1
  I  I18  1  0.271614  0.998975  0.035773  1
  I  I19  1  0.035926  0.270205  0.000505  1
