# generated using pymatgen
data_U2Ti3Co9P7
_symmetry_space_group_name_H-M   'P 1'
_cell_length_a   9.17299327
_cell_length_b   9.17112126
_cell_length_c   3.65993500
_cell_angle_alpha   90.00000000
_cell_angle_beta   90.00000000
_cell_angle_gamma   119.99745806
_symmetry_Int_Tables_number   1
_chemical_formula_structural   U2Ti3Co9P7
_chemical_formula_sum   'U2 Ti3 Co9 P7'
_cell_volume   266.65432888
_cell_formula_units_Z   1
loop_
 _symmetry_equiv_pos_site_id
 _symmetry_equiv_pos_as_xyz
  1  'x, y, z'
loop_
 _atom_site_type_symbol
 _atom_site_label
 _atom_site_symmetry_multiplicity
 _atom_site_fract_x
 _atom_site_fract_y
 _atom_site_fract_z
 _atom_site_occupancy
  U  U0  1  0.333254  0.666653  0.000000  1
  U  U1  1  0.666772  0.333396  0.500000  1
  Ti  Ti2  1  0.118082  0.895318  0.000000  1
  Ti  Ti3  1  0.104803  0.222774  0.000000  1
  Ti  Ti4  1  0.777204  0.881923  0.000000  1
  Co  Co5  1  0.440050  0.388805  0.000000  1
  Co  Co6  1  0.611171  0.051272  0.000000  1
  Co  Co7  1  0.948736  0.559885  0.000000  1
  Co  Co8  1  0.368633  0.936744  0.500000  1
  Co  Co9  1  0.063279  0.431910  0.500000  1
  Co  Co10  1  0.568038  0.631325  0.500000  1
  Co  Co11  1  0.283304  0.160608  0.500000  1
  Co  Co12  1  0.839405  0.122730  0.500000  1
  Co  Co13  1  0.877317  0.716665  0.500000  1
  P  P14  1  0.000020  0.000012  0.500000  1
  P  P15  1  0.305912  0.414983  0.500000  1
  P  P16  1  0.584934  0.890923  0.500000  1
  P  P17  1  0.109122  0.694090  0.500000  1
  P  P18  1  0.409428  0.121255  0.000000  1
  P  P19  1  0.878750  0.288165  0.000000  1
  P  P20  1  0.711787  0.590562  0.000000  1
