# generated using pymatgen
data_Dy2TmLu17Bi12
_symmetry_space_group_name_H-M   'P 1'
_cell_length_a   8.15248239
_cell_length_b   9.39844000
_cell_length_c   11.81659000
_cell_angle_alpha   90.00000000
_cell_angle_beta   90.03342525
_cell_angle_gamma   90.00000000
_symmetry_Int_Tables_number   1
_chemical_formula_structural   Dy2TmLu17Bi12
_chemical_formula_sum   'Dy2 Tm1 Lu17 Bi12'
_cell_volume   905.39425746
_cell_formula_units_Z   1
loop_
 _symmetry_equiv_pos_site_id
 _symmetry_equiv_pos_as_xyz
  1  'x, y, z'
loop_
 _atom_site_type_symbol
 _atom_site_label
 _atom_site_symmetry_multiplicity
 _atom_site_fract_x
 _atom_site_fract_y
 _atom_site_fract_z
 _atom_site_occupancy
  Dy  Dy0  1  0.812836  0.250000  0.282742  1
  Dy  Dy1  1  0.687021  0.750000  0.782632  1
  Tm  Tm2  1  0.187007  0.750000  0.716927  1
  Lu  Lu3  1  0.352423  0.750000  0.218311  1
  Lu  Lu4  1  0.852551  0.750000  0.281761  1
  Lu  Lu5  1  0.647358  0.250000  0.781974  1
  Lu  Lu6  1  0.147806  0.250000  0.718338  1
  Lu  Lu7  1  0.692024  0.567346  0.059467  1
  Lu  Lu8  1  0.191706  0.932558  0.440569  1
  Lu  Lu9  1  0.308096  0.067368  0.940716  1
  Lu  Lu10  1  0.808303  0.432611  0.559379  1
  Lu  Lu11  1  0.308096  0.432632  0.940716  1
  Lu  Lu12  1  0.808303  0.067389  0.559379  1
  Lu  Lu13  1  0.692024  0.932654  0.059467  1
  Lu  Lu14  1  0.191706  0.567442  0.440569  1
  Lu  Lu15  1  0.477385  0.250000  0.489130  1
  Lu  Lu16  1  0.977972  0.250000  0.010860  1
  Lu  Lu17  1  0.522000  0.750000  0.510524  1
  Lu  Lu18  1  0.022611  0.750000  0.989589  1
  Lu  Lu19  1  0.312601  0.250000  0.216374  1
  Bi  Bi20  1  0.401891  0.750000  0.958431  1
  Bi  Bi21  1  0.902634  0.750000  0.541891  1
  Bi  Bi22  1  0.596810  0.250000  0.042476  1
  Bi  Bi23  1  0.098642  0.250000  0.458177  1
  Bi  Bi24  1  0.564302  0.995325  0.325064  1
  Bi  Bi25  1  0.066513  0.504442  0.174633  1
  Bi  Bi26  1  0.434242  0.495185  0.674605  1
  Bi  Bi27  1  0.935041  0.005066  0.825500  1
  Bi  Bi28  1  0.434242  0.004815  0.674605  1
  Bi  Bi29  1  0.935041  0.494934  0.825500  1
  Bi  Bi30  1  0.564302  0.504675  0.325064  1
  Bi  Bi31  1  0.066513  0.995558  0.174633  1
