# generated using pymatgen
data_Tb3Er3Tm2(CdPt)2
_symmetry_space_group_name_H-M   'P 1'
_cell_length_a   9.63707012
_cell_length_b   9.63285393
_cell_length_c   9.63285392
_cell_angle_alpha   60.02895020
_cell_angle_beta   59.98551239
_cell_angle_gamma   59.98551615
_symmetry_Int_Tables_number   1
_chemical_formula_structural   Tb3Er3Tm2(CdPt)2
_chemical_formula_sum   'Tb6 Er6 Tm4 Cd4 Pt4'
_cell_volume   632.32409987
_cell_formula_units_Z   2
loop_
 _symmetry_equiv_pos_site_id
 _symmetry_equiv_pos_as_xyz
  1  'x, y, z'
loop_
 _atom_site_type_symbol
 _atom_site_label
 _atom_site_symmetry_multiplicity
 _atom_site_fract_x
 _atom_site_fract_y
 _atom_site_fract_z
 _atom_site_occupancy
  Tb  Tb0  1  0.936056  0.563944  0.563944  1
  Tb  Tb1  1  0.563944  0.936056  0.936056  1
  Tb  Tb2  1  0.564011  0.935989  0.564011  1
  Tb  Tb3  1  0.935989  0.564011  0.935989  1
  Tb  Tb4  1  0.564011  0.564011  0.935989  1
  Tb  Tb5  1  0.935989  0.935989  0.564011  1
  Er  Er6  1  0.351488  0.351744  0.351744  1
  Er  Er7  1  0.351744  0.351488  0.945024  1
  Er  Er8  1  0.351744  0.945024  0.351488  1
  Er  Er9  1  0.945024  0.351744  0.351744  1
  Er  Er10  1  0.811261  0.188739  0.188739  1
  Er  Er11  1  0.188739  0.811261  0.811261  1
  Tm  Tm12  1  0.188997  0.811003  0.188997  1
  Tm  Tm13  1  0.811003  0.188997  0.811003  1
  Tm  Tm14  1  0.188997  0.188997  0.811003  1
  Tm  Tm15  1  0.811003  0.811003  0.188997  1
  Cd  Cd16  1  0.581531  0.581284  0.581284  1
  Cd  Cd17  1  0.581284  0.581531  0.255900  1
  Cd  Cd18  1  0.581284  0.255900  0.581531  1
  Cd  Cd19  1  0.255900  0.581284  0.581284  1
  Pt  Pt20  1  0.143009  0.142686  0.142686  1
  Pt  Pt21  1  0.142686  0.143009  0.571621  1
  Pt  Pt22  1  0.142686  0.571621  0.143009  1
  Pt  Pt23  1  0.571621  0.142686  0.142686  1
