# generated using pymatgen
data_Y15PaCd3HgIr4
_symmetry_space_group_name_H-M   'P 1'
_cell_length_a   9.69868562
_cell_length_b   9.69867917
_cell_length_c   9.69876151
_cell_angle_alpha   59.64149174
_cell_angle_beta   59.64026178
_cell_angle_gamma   59.64022463
_symmetry_Int_Tables_number   1
_chemical_formula_structural   Y15PaCd3HgIr4
_chemical_formula_sum   'Y15 Pa1 Cd3 Hg1 Ir4'
_cell_volume   639.83210641
_cell_formula_units_Z   1
loop_
 _symmetry_equiv_pos_site_id
 _symmetry_equiv_pos_as_xyz
  1  'x, y, z'
loop_
 _atom_site_type_symbol
 _atom_site_label
 _atom_site_symmetry_multiplicity
 _atom_site_fract_x
 _atom_site_fract_y
 _atom_site_fract_z
 _atom_site_occupancy
  Y  Y0  1  0.352044  0.352036  0.945246  1
  Y  Y1  1  0.352038  0.945247  0.352042  1
  Y  Y2  1  0.945246  0.352030  0.352045  1
  Y  Y3  1  0.811167  0.190197  0.190191  1
  Y  Y4  1  0.190101  0.810531  0.810529  1
  Y  Y5  1  0.190191  0.811171  0.190201  1
  Y  Y6  1  0.810534  0.190104  0.810535  1
  Y  Y7  1  0.190187  0.190196  0.811180  1
  Y  Y8  1  0.810536  0.810540  0.190097  1
  Y  Y9  1  0.939615  0.562555  0.562562  1
  Y  Y10  1  0.561948  0.938483  0.938481  1
  Y  Y11  1  0.562558  0.939616  0.562553  1
  Y  Y12  1  0.938483  0.561944  0.938477  1
  Y  Y13  1  0.562553  0.562551  0.939613  1
  Y  Y14  1  0.938491  0.938476  0.561937  1
  Pa  Pa15  1  0.341793  0.341807  0.341803  1
  Cd  Cd16  1  0.578299  0.578295  0.255704  1
  Cd  Cd17  1  0.578298  0.255703  0.578296  1
  Cd  Cd18  1  0.255696  0.578295  0.578299  1
  Hg  Hg19  1  0.582762  0.582754  0.582753  1
  Ir  Ir20  1  0.142987  0.142969  0.142985  1
  Ir  Ir21  1  0.147511  0.147514  0.569464  1
  Ir  Ir22  1  0.147513  0.569467  0.147500  1
  Ir  Ir23  1  0.569450  0.147521  0.147507  1
