# generated using pymatgen
data_CsSr2(NiH6)2
_symmetry_space_group_name_H-M   'P 1'
_cell_length_a   5.25218900
_cell_length_b   5.25219003
_cell_length_c   9.37411600
_cell_angle_alpha   90.00000000
_cell_angle_beta   90.00000000
_cell_angle_gamma   119.99999981
_symmetry_Int_Tables_number   1
_chemical_formula_structural   CsSr2(NiH6)2
_chemical_formula_sum   'Cs1 Sr2 Ni2 H12'
_cell_volume   223.94518677
_cell_formula_units_Z   1
loop_
 _symmetry_equiv_pos_site_id
 _symmetry_equiv_pos_as_xyz
  1  'x, y, z'
loop_
 _atom_site_type_symbol
 _atom_site_label
 _atom_site_symmetry_multiplicity
 _atom_site_fract_x
 _atom_site_fract_y
 _atom_site_fract_z
 _atom_site_occupancy
  Cs  Cs0  1  0.000000  0.000000  0.000000  1
  Sr  Sr1  1  0.666667  0.333333  0.369343  1
  Sr  Sr2  1  0.333333  0.666667  0.630657  1
  Ni  Ni3  1  0.666667  0.333333  0.713275  1
  Ni  Ni4  1  0.333333  0.666667  0.286725  1
  H  H5  1  0.193056  0.806944  0.381018  1
  H  H6  1  0.613889  0.806944  0.381018  1
  H  H7  1  0.193056  0.386111  0.381018  1
  H  H8  1  0.806944  0.193056  0.618982  1
  H  H9  1  0.386111  0.193056  0.618982  1
  H  H10  1  0.806944  0.613889  0.618982  1
  H  H11  1  0.533602  0.067203  0.812416  1
  H  H12  1  0.533602  0.466398  0.812416  1
  H  H13  1  0.932797  0.466398  0.812416  1
  H  H14  1  0.466398  0.932797  0.187584  1
  H  H15  1  0.466398  0.533602  0.187584  1
  H  H16  1  0.067203  0.533602  0.187584  1
