# generated using pymatgen
data_Hf15Ta(Ir2N)4
_symmetry_space_group_name_H-M   'P 1'
_cell_length_a   8.68423561
_cell_length_b   8.72747045
_cell_length_c   8.68423800
_cell_angle_alpha   60.16380127
_cell_angle_beta   60.00003762
_cell_angle_gamma   60.16373896
_symmetry_Int_Tables_number   1
_chemical_formula_structural   Hf15Ta(Ir2N)4
_chemical_formula_sum   'Hf15 Ta1 Ir8 N4'
_cell_volume   466.55994398
_cell_formula_units_Z   1
loop_
 _symmetry_equiv_pos_site_id
 _symmetry_equiv_pos_as_xyz
  1  'x, y, z'
loop_
 _atom_site_type_symbol
 _atom_site_label
 _atom_site_symmetry_multiplicity
 _atom_site_fract_x
 _atom_site_fract_y
 _atom_site_fract_z
 _atom_site_occupancy
  Hf  Hf0  1  0.124994  0.625004  0.625001  1
  Hf  Hf1  1  0.625002  0.625004  0.124991  1
  Hf  Hf2  1  0.625000  0.625004  0.625001  1
  Hf  Hf3  1  0.816206  0.816338  0.183728  1
  Hf  Hf4  1  0.185560  0.184290  0.815075  1
  Hf  Hf5  1  0.815075  0.184290  0.815074  1
  Hf  Hf6  1  0.183728  0.816338  0.183728  1
  Hf  Hf7  1  0.183727  0.816338  0.816207  1
  Hf  Hf8  1  0.815075  0.184288  0.185561  1
  Hf  Hf9  1  0.433785  0.433674  0.066271  1
  Hf  Hf10  1  0.064430  0.065701  0.434934  1
  Hf  Hf11  1  0.434935  0.065701  0.434935  1
  Hf  Hf12  1  0.066271  0.433674  0.066271  1
  Hf  Hf13  1  0.066271  0.433675  0.433784  1
  Hf  Hf14  1  0.434935  0.065700  0.064429  1
  Ta  Ta15  1  0.624999  0.125002  0.625001  1
  Ir  Ir16  1  0.766453  0.405071  0.414237  1
  Ir  Ir17  1  0.408794  0.773626  0.408788  1
  Ir  Ir18  1  0.414237  0.405068  0.766458  1
  Ir  Ir19  1  0.414239  0.405070  0.414237  1
  Ir  Ir20  1  0.483544  0.844929  0.835762  1
  Ir  Ir21  1  0.841214  0.476360  0.841211  1
  Ir  Ir22  1  0.835763  0.844929  0.483545  1
  Ir  Ir23  1  0.835764  0.844931  0.835763  1
  N  N24  1  0.625000  0.124997  0.125002  1
  N  N25  1  0.125000  0.625001  0.125000  1
  N  N26  1  0.125002  0.124999  0.624997  1
  N  N27  1  0.125001  0.124997  0.125002  1
