# generated using pymatgen
data_Nd4HoSi2Sn
_symmetry_space_group_name_H-M   'P 1'
_cell_length_a   7.78941300
_cell_length_b   9.32491315
_cell_length_c   7.78941300
_cell_angle_alpha   114.68737267
_cell_angle_beta   90.00000000
_cell_angle_gamma   114.68737267
_symmetry_Int_Tables_number   1
_chemical_formula_structural   Nd4HoSi2Sn
_chemical_formula_sum   'Nd8 Ho2 Si4 Sn2'
_cell_volume   456.54232716
_cell_formula_units_Z   2
loop_
 _symmetry_equiv_pos_site_id
 _symmetry_equiv_pos_as_xyz
  1  'x, y, z'
loop_
 _atom_site_type_symbol
 _atom_site_label
 _atom_site_symmetry_multiplicity
 _atom_site_fract_x
 _atom_site_fract_y
 _atom_site_fract_z
 _atom_site_occupancy
  Nd  Nd0  1  0.537415  0.724852  0.687524  1
  Nd  Nd1  1  0.187519  0.724849  0.037406  1
  Nd  Nd2  1  0.687322  0.724757  0.187316  1
  Nd  Nd3  1  0.037498  0.724735  0.537508  1
  Nd  Nd4  1  0.462581  0.275148  0.312469  1
  Nd  Nd5  1  0.812483  0.275151  0.962590  1
  Nd  Nd6  1  0.312674  0.275244  0.812681  1
  Nd  Nd7  1  0.962502  0.275265  0.462485  1
  Ho  Ho8  1  0.999991  0.999986  0.000013  1
  Ho  Ho9  1  0.500010  0.000009  0.500017  1
  Si  Si10  1  0.878872  0.000000  0.621136  1
  Si  Si11  1  0.121127  0.000000  0.378859  1
  Si  Si12  1  0.621074  0.000005  0.121061  1
  Si  Si13  1  0.378926  0.999996  0.878935  1
  Sn  Sn14  1  0.749468  0.500006  0.750539  1
  Sn  Sn15  1  0.250538  0.499997  0.249461  1
