# generated using pymatgen
data_LaTh3(MgSi2)2
_symmetry_space_group_name_H-M   'P 1'
_cell_length_a   7.34789190
_cell_length_b   7.34789190
_cell_length_c   4.42948100
_cell_angle_alpha   90.00000000
_cell_angle_beta   90.00000000
_cell_angle_gamma   90.48900336
_symmetry_Int_Tables_number   1
_chemical_formula_structural   LaTh3(MgSi2)2
_chemical_formula_sum   'La1 Th3 Mg2 Si4'
_cell_volume   239.14568164
_cell_formula_units_Z   1
loop_
 _symmetry_equiv_pos_site_id
 _symmetry_equiv_pos_as_xyz
  1  'x, y, z'
loop_
 _atom_site_type_symbol
 _atom_site_label
 _atom_site_symmetry_multiplicity
 _atom_site_fract_x
 _atom_site_fract_y
 _atom_site_fract_z
 _atom_site_occupancy
  La  La0  1  0.820879  0.679121  0.500000  1
  Th  Th1  1  0.677368  0.179128  0.500000  1
  Th  Th2  1  0.320872  0.822632  0.500000  1
  Th  Th3  1  0.179603  0.320397  0.500000  1
  Mg  Mg4  1  0.000118  0.000393  0.000000  1
  Mg  Mg5  1  0.499607  0.499882  0.000000  1
  Si  Si6  1  0.121564  0.613767  0.000000  1
  Si  Si7  1  0.886233  0.378436  0.000000  1
  Si  Si8  1  0.611868  0.888132  0.000000  1
  Si  Si9  1  0.381887  0.118113  0.000000  1
