# generated using pymatgen
data_Lu4MgP12Ru19
_symmetry_space_group_name_H-M   'P 1'
_cell_length_a   12.45019789
_cell_length_b   12.46442593
_cell_length_c   3.97269400
_cell_angle_alpha   90.00000000
_cell_angle_beta   90.00000000
_cell_angle_gamma   120.03780681
_symmetry_Int_Tables_number   1
_chemical_formula_structural   Lu4MgP12Ru19
_chemical_formula_sum   'Lu4 Mg1 P12 Ru19'
_cell_volume   533.70184486
_cell_formula_units_Z   1
loop_
 _symmetry_equiv_pos_site_id
 _symmetry_equiv_pos_as_xyz
  1  'x, y, z'
loop_
 _atom_site_type_symbol
 _atom_site_label
 _atom_site_symmetry_multiplicity
 _atom_site_fract_x
 _atom_site_fract_y
 _atom_site_fract_z
 _atom_site_occupancy
  Lu  Lu0  1  0.181294  0.183649  0.500000  1
  Lu  Lu1  1  0.818706  0.002356  0.500000  1
  Lu  Lu2  1  0.332315  0.667039  0.000000  1
  Lu  Lu3  1  0.667685  0.334724  0.000000  1
  Mg  Mg4  1  0.000000  0.814888  0.500000  1
  P  P5  1  0.810055  0.818248  0.000000  1
  P  P6  1  0.189945  0.008193  0.000000  1
  P  P7  1  0.000000  0.176398  0.000000  1
  P  P8  1  0.170281  0.477303  0.500000  1
  P  P9  1  0.521672  0.693382  0.500000  1
  P  P10  1  0.304740  0.829825  0.500000  1
  P  P11  1  0.695260  0.525085  0.500000  1
  P  P12  1  0.829719  0.307021  0.500000  1
  P  P13  1  0.478328  0.171711  0.500000  1
  P  P14  1  0.371636  0.371963  0.000000  1
  P  P15  1  0.628364  0.000326  0.000000  1
  P  P16  1  0.000000  0.621681  0.000000  1
  Ru  Ru17  1  0.556247  0.553505  0.000000  1
  Ru  Ru18  1  0.443753  0.997258  0.000000  1
  Ru  Ru19  1  0.000000  0.441988  0.000000  1
  Ru  Ru20  1  0.719354  0.720512  0.500000  1
  Ru  Ru21  1  0.280646  0.001158  0.500000  1
  Ru  Ru22  1  0.000000  0.280343  0.500000  1
  Ru  Ru23  1  0.184683  0.373581  0.000000  1
  Ru  Ru24  1  0.620548  0.808017  0.000000  1
  Ru  Ru25  1  0.181820  0.815272  0.000000  1
  Ru  Ru26  1  0.818180  0.633452  0.000000  1
  Ru  Ru27  1  0.815317  0.188898  0.000000  1
  Ru  Ru28  1  0.379452  0.187469  0.000000  1
  Ru  Ru29  1  0.365308  0.493238  0.500000  1
  Ru  Ru30  1  0.506134  0.872814  0.500000  1
  Ru  Ru31  1  0.127697  0.635502  0.500000  1
  Ru  Ru32  1  0.872303  0.507804  0.500000  1
  Ru  Ru33  1  0.634692  0.127929  0.500000  1
  Ru  Ru34  1  0.493866  0.366679  0.500000  1
  Ru  Ru35  1  0.000000  0.990788  0.000000  1
