# generated using pymatgen
data_Ho16ZnIn6Ag
_symmetry_space_group_name_H-M   'P 1'
_cell_length_a   10.62182100
_cell_length_b   10.62182091
_cell_length_c   6.79031900
_cell_angle_alpha   90.00000000
_cell_angle_beta   90.00000000
_cell_angle_gamma   119.99999718
_symmetry_Int_Tables_number   1
_chemical_formula_structural   Ho16ZnIn6Ag
_chemical_formula_sum   'Ho16 Zn1 In6 Ag1'
_cell_volume   663.46615634
_cell_formula_units_Z   1
loop_
 _symmetry_equiv_pos_site_id
 _symmetry_equiv_pos_as_xyz
  1  'x, y, z'
loop_
 _atom_site_type_symbol
 _atom_site_label
 _atom_site_symmetry_multiplicity
 _atom_site_fract_x
 _atom_site_fract_y
 _atom_site_fract_z
 _atom_site_occupancy
  Ho  Ho0  1  0.520800  0.041602  0.519135  1
  Ho  Ho1  1  0.958398  0.479200  0.519135  1
  Ho  Ho2  1  0.520800  0.479200  0.519135  1
  Ho  Ho3  1  0.477519  0.955036  0.019496  1
  Ho  Ho4  1  0.044964  0.522481  0.019496  1
  Ho  Ho5  1  0.477519  0.522481  0.019496  1
  Ho  Ho6  1  0.172373  0.344748  0.735458  1
  Ho  Ho7  1  0.655252  0.827627  0.735458  1
  Ho  Ho8  1  0.172373  0.827627  0.735458  1
  Ho  Ho9  1  0.827624  0.655249  0.231278  1
  Ho  Ho10  1  0.344751  0.172376  0.231278  1
  Ho  Ho11  1  0.827624  0.172376  0.231278  1
  Ho  Ho12  1  0.666667  0.333333  0.868195  1
  Ho  Ho13  1  0.333333  0.666667  0.371536  1
  Ho  Ho14  1  0.000000  0.000000  0.499370  1
  Ho  Ho15  1  0.000000  0.000000  0.997697  1
  Zn  Zn16  1  0.333333  0.666667  0.800724  1
  In  In17  1  0.835836  0.671672  0.750683  1
  In  In18  1  0.328328  0.164164  0.750683  1
  In  In19  1  0.835836  0.164164  0.750683  1
  In  In20  1  0.164741  0.329481  0.253987  1
  In  In21  1  0.670519  0.835259  0.253987  1
  In  In22  1  0.164741  0.835259  0.253987  1
  Ag  Ag23  1  0.666667  0.333333  0.290370  1
