# generated using pymatgen
data_Yb10InSi4Sb
_symmetry_space_group_name_H-M   'P 1'
_cell_length_a   9.19742911
_cell_length_b   9.19742837
_cell_length_c   9.19742900
_cell_angle_alpha   130.20157539
_cell_angle_beta   130.20157148
_cell_angle_gamma   73.08472194
_symmetry_Int_Tables_number   1
_chemical_formula_structural   Yb10InSi4Sb
_chemical_formula_sum   'Yb10 In1 Si4 Sb1'
_cell_volume   443.21313863
_cell_formula_units_Z   1
loop_
 _symmetry_equiv_pos_site_id
 _symmetry_equiv_pos_as_xyz
  1  'x, y, z'
loop_
 _atom_site_type_symbol
 _atom_site_label
 _atom_site_symmetry_multiplicity
 _atom_site_fract_x
 _atom_site_fract_y
 _atom_site_fract_z
 _atom_site_occupancy
  Yb  Yb0  1  0.998530  0.998530  0.000000  1
  Yb  Yb1  1  0.501470  0.501470  0.000000  1
  Yb  Yb2  1  0.810707  0.312931  0.848928  1
  Yb  Yb3  1  0.187069  0.689293  0.151072  1
  Yb  Yb4  1  0.464002  0.961777  0.151072  1
  Yb  Yb5  1  0.312931  0.464002  0.502223  1
  Yb  Yb6  1  0.035998  0.187069  0.497777  1
  Yb  Yb7  1  0.538223  0.035998  0.848928  1
  Yb  Yb8  1  0.689293  0.538223  0.502223  1
  Yb  Yb9  1  0.961777  0.810707  0.497777  1
  In  In10  1  0.750000  0.750000  0.000000  1
  Si  Si11  1  0.113155  0.613155  0.726309  1
  Si  Si12  1  0.886845  0.386845  0.273691  1
  Si  Si13  1  0.613155  0.886845  0.500000  1
  Si  Si14  1  0.386845  0.113155  0.500000  1
  Sb  Sb15  1  0.250000  0.250000  0.000000  1
