# generated using pymatgen
data_Li3Lu(TaRh3)2
_symmetry_space_group_name_H-M   'P 1'
_cell_length_a   4.40562900
_cell_length_b   6.15526000
_cell_length_c   13.25830500
_cell_angle_alpha   90.00000000
_cell_angle_beta   90.00283933
_cell_angle_gamma   90.00000000
_symmetry_Int_Tables_number   1
_chemical_formula_structural   Li3Lu(TaRh3)2
_chemical_formula_sum   'Li6 Lu2 Ta4 Rh12'
_cell_volume   359.53595649
_cell_formula_units_Z   2
loop_
 _symmetry_equiv_pos_site_id
 _symmetry_equiv_pos_as_xyz
  1  'x, y, z'
loop_
 _atom_site_type_symbol
 _atom_site_label
 _atom_site_symmetry_multiplicity
 _atom_site_fract_x
 _atom_site_fract_y
 _atom_site_fract_z
 _atom_site_occupancy
  Li  Li0  1  0.000028  0.499999  0.997280  1
  Li  Li1  1  0.499913  0.000000  0.169649  1
  Li  Li2  1  0.999922  0.499999  0.336491  1
  Li  Li3  1  0.500025  0.000000  0.502099  1
  Li  Li4  1  0.000095  0.499999  0.664596  1
  Li  Li5  1  0.500141  0.000000  0.829895  1
  Lu  Lu6  1  0.000013  0.000000  0.000273  1
  Lu  Lu7  1  0.499906  0.499999  0.166217  1
  Ta  Ta8  1  0.999938  0.000000  0.335803  1
  Ta  Ta9  1  0.500013  0.499999  0.501985  1
  Ta  Ta10  1  0.000093  0.000000  0.664674  1
  Ta  Ta11  1  0.500125  0.499999  0.830925  1
  Rh  Rh12  1  0.499609  0.255822  0.989655  1
  Rh  Rh13  1  0.499609  0.744179  0.989655  1
  Rh  Rh14  1  0.000043  0.243627  0.176841  1
  Rh  Rh15  1  0.000043  0.756374  0.176841  1
  Rh  Rh16  1  0.499982  0.244278  0.343117  1
  Rh  Rh17  1  0.499982  0.755723  0.343117  1
  Rh  Rh18  1  0.000044  0.252249  0.502050  1
  Rh  Rh19  1  0.000044  0.747751  0.502050  1
  Rh  Rh20  1  0.500126  0.247870  0.664911  1
  Rh  Rh21  1  0.500126  0.752131  0.664911  1
  Rh  Rh22  1  0.000093  0.255779  0.823482  1
  Rh  Rh23  1  0.000093  0.744222  0.823482  1
