# generated using pymatgen
data_Ac2(SeO4)3
_symmetry_space_group_name_H-M   'P 1'
_cell_length_a   10.66582221
_cell_length_b   10.66582207
_cell_length_c   10.66582245
_cell_angle_alpha   57.81087793
_cell_angle_beta   57.81087763
_cell_angle_gamma   57.81087918
_symmetry_Int_Tables_number   1
_chemical_formula_structural   Ac2(SeO4)3
_chemical_formula_sum   'Ac4 Se6 O24'
_cell_volume   814.83498764
_cell_formula_units_Z   2
loop_
 _symmetry_equiv_pos_site_id
 _symmetry_equiv_pos_as_xyz
  1  'x, y, z'
loop_
 _atom_site_type_symbol
 _atom_site_label
 _atom_site_symmetry_multiplicity
 _atom_site_fract_x
 _atom_site_fract_y
 _atom_site_fract_z
 _atom_site_occupancy
  Ac  Ac0  1  0.642954  0.642954  0.642954  1
  Ac  Ac1  1  0.357046  0.357046  0.357046  1
  Ac  Ac2  1  0.142954  0.142954  0.142954  1
  Ac  Ac3  1  0.857046  0.857046  0.857046  1
  Se  Se4  1  0.750000  0.034486  0.465514  1
  Se  Se5  1  0.965513  0.534487  0.250000  1
  Se  Se6  1  0.534487  0.250000  0.965514  1
  Se  Se7  1  0.465513  0.750000  0.034487  1
  Se  Se8  1  0.034487  0.465513  0.750000  1
  Se  Se9  1  0.250000  0.965513  0.534487  1
  O  O10  1  0.908340  0.059865  0.304395  1
  O  O11  1  0.776572  0.004860  0.621285  1
  O  O12  1  0.995140  0.378715  0.223428  1
  O  O13  1  0.695605  0.091660  0.940135  1
  O  O14  1  0.591660  0.195605  0.440135  1
  O  O15  1  0.878715  0.495140  0.723428  1
  O  O16  1  0.504860  0.276572  0.121285  1
  O  O17  1  0.804395  0.559865  0.408340  1
  O  O18  1  0.940135  0.695605  0.091660  1
  O  O19  1  0.559865  0.408340  0.804395  1
  O  O20  1  0.378715  0.223428  0.995140  1
  O  O21  1  0.276572  0.121285  0.504860  1
  O  O22  1  0.723428  0.878715  0.495140  1
  O  O23  1  0.621285  0.776572  0.004860  1
  O  O24  1  0.440135  0.591660  0.195605  1
  O  O25  1  0.059865  0.304395  0.908340  1
  O  O26  1  0.195605  0.440135  0.591660  1
  O  O27  1  0.495140  0.723428  0.878715  1
  O  O28  1  0.121285  0.504860  0.276572  1
  O  O29  1  0.408340  0.804395  0.559865  1
  O  O30  1  0.304395  0.908340  0.059865  1
  O  O31  1  0.004860  0.621285  0.776572  1
  O  O32  1  0.223428  0.995140  0.378715  1
  O  O33  1  0.091660  0.940135  0.695605  1
