# generated using pymatgen
data_Dy4PaNbOs6
_symmetry_space_group_name_H-M   'P 1'
_cell_length_a   5.33480725
_cell_length_b   5.33480918
_cell_length_c   9.23285600
_cell_angle_alpha   90.00000000
_cell_angle_beta   90.00000000
_cell_angle_gamma   116.15121828
_symmetry_Int_Tables_number   1
_chemical_formula_structural   Dy4PaNbOs6
_chemical_formula_sum   'Dy4 Pa1 Nb1 Os6'
_cell_volume   235.87013284
_cell_formula_units_Z   1
loop_
 _symmetry_equiv_pos_site_id
 _symmetry_equiv_pos_as_xyz
  1  'x, y, z'
loop_
 _atom_site_type_symbol
 _atom_site_label
 _atom_site_symmetry_multiplicity
 _atom_site_fract_x
 _atom_site_fract_y
 _atom_site_fract_z
 _atom_site_occupancy
  Dy  Dy0  1  0.331380  0.668620  0.442870  1
  Dy  Dy1  1  0.666932  0.333068  0.570585  1
  Dy  Dy2  1  0.666932  0.333068  0.929415  1
  Dy  Dy3  1  0.331380  0.668620  0.057130  1
  Pa  Pa4  1  0.844456  0.155544  0.250000  1
  Nb  Nb5  1  0.151479  0.848521  0.750000  1
  Os  Os6  1  0.002856  0.997144  0.502140  1
  Os  Os7  1  0.002856  0.997144  0.997860  1
  Os  Os8  1  0.828342  0.644655  0.250000  1
  Os  Os9  1  0.355345  0.171658  0.250000  1
  Os  Os10  1  0.174998  0.356955  0.750000  1
  Os  Os11  1  0.643045  0.825002  0.750000  1
