# generated using pymatgen
data_Ba3Gd2Lu2O9
_symmetry_space_group_name_H-M   'P 1'
_cell_length_a   6.13606151
_cell_length_b   6.13606021
_cell_length_c   9.15181872
_cell_angle_alpha   109.58696123
_cell_angle_beta   70.41303234
_cell_angle_gamma   120.00000276
_symmetry_Int_Tables_number   1
_chemical_formula_structural   Ba3Gd2Lu2O9
_chemical_formula_sum   'Ba3 Gd2 Lu2 O9'
_cell_volume   275.14797283
_cell_formula_units_Z   1
loop_
 _symmetry_equiv_pos_site_id
 _symmetry_equiv_pos_as_xyz
  1  'x, y, z'
loop_
 _atom_site_type_symbol
 _atom_site_label
 _atom_site_symmetry_multiplicity
 _atom_site_fract_x
 _atom_site_fract_y
 _atom_site_fract_z
 _atom_site_occupancy
  Ba  Ba0  1  0.995316  0.004684  0.014051  1
  Ba  Ba1  1  0.827937  0.172062  0.516188  1
  Ba  Ba2  1  0.411600  0.588398  0.765196  1
  Gd  Gd3  1  0.255656  0.744344  0.233030  1
  Gd  Gd4  1  0.567586  0.432413  0.297239  1
  Lu  Lu5  1  0.128881  0.871119  0.613357  1
  Lu  Lu6  1  0.694432  0.305568  0.916703  1
  O  O7  1  0.530132  0.046487  0.089208  1
  O  O8  1  0.427147  0.469869  0.089208  1
  O  O9  1  0.953512  0.572852  0.089208  1
  O  O10  1  0.399954  0.130047  0.440728  1
  O  O11  1  0.289365  0.600046  0.440728  1
  O  O12  1  0.869953  0.710634  0.440728  1
  O  O13  1  0.411292  0.038464  0.765175  1
  O  O14  1  0.961536  0.138002  0.765175  1
  O  O15  1  0.861999  0.588709  0.765175  1
