# generated using pymatgen
data_Tb8CoAg2Rh
_symmetry_space_group_name_H-M   'P 1'
_cell_length_a   9.51027080
_cell_length_b   9.43734112
_cell_length_c   9.51027121
_cell_angle_alpha   60.25335101
_cell_angle_beta   60.45011745
_cell_angle_gamma   60.25334865
_symmetry_Int_Tables_number   1
_chemical_formula_structural   Tb8CoAg2Rh
_chemical_formula_sum   'Tb16 Co2 Ag4 Rh2'
_cell_volume   607.91081416
_cell_formula_units_Z   2
loop_
 _symmetry_equiv_pos_site_id
 _symmetry_equiv_pos_as_xyz
  1  'x, y, z'
loop_
 _atom_site_type_symbol
 _atom_site_label
 _atom_site_symmetry_multiplicity
 _atom_site_fract_x
 _atom_site_fract_y
 _atom_site_fract_z
 _atom_site_occupancy
  Tb  Tb0  1  0.812955  0.812069  0.182495  1
  Tb  Tb1  1  0.814045  0.185955  0.814045  1
  Tb  Tb2  1  0.182495  0.192480  0.812955  1
  Tb  Tb3  1  0.651953  0.055355  0.651953  1
  Tb  Tb4  1  0.064257  0.062817  0.436107  1
  Tb  Tb5  1  0.436107  0.436818  0.064257  1
  Tb  Tb6  1  0.651953  0.640738  0.651953  1
  Tb  Tb7  1  0.812955  0.192480  0.182495  1
  Tb  Tb8  1  0.182495  0.812069  0.812955  1
  Tb  Tb9  1  0.046133  0.648256  0.657353  1
  Tb  Tb10  1  0.436107  0.062817  0.064257  1
  Tb  Tb11  1  0.437765  0.062235  0.437765  1
  Tb  Tb12  1  0.064687  0.435313  0.064687  1
  Tb  Tb13  1  0.657353  0.648256  0.046133  1
  Tb  Tb14  1  0.188904  0.811096  0.188904  1
  Tb  Tb15  1  0.064257  0.436818  0.436107  1
  Co  Co16  1  0.857855  0.425051  0.857855  1
  Co  Co17  1  0.857855  0.859238  0.857855  1
  Ag  Ag18  1  0.417536  0.419399  0.417536  1
  Ag  Ag19  1  0.417292  0.419165  0.744379  1
  Ag  Ag20  1  0.417536  0.745529  0.417536  1
  Ag  Ag21  1  0.744379  0.419165  0.417292  1
  Rh  Rh22  1  0.854969  0.858440  0.428151  1
  Rh  Rh23  1  0.428151  0.858440  0.854969  1
