# generated using pymatgen
data_Tb4Sn4BRh12C
_symmetry_space_group_name_H-M   'P 1'
_cell_length_a   5.79827200
_cell_length_b   5.79827076
_cell_length_c   13.59492800
_cell_angle_alpha   90.00000000
_cell_angle_beta   90.00000000
_cell_angle_gamma   119.99999564
_symmetry_Int_Tables_number   1
_chemical_formula_structural   Tb4Sn4BRh12C
_chemical_formula_sum   'Tb4 Sn4 B1 Rh12 C1'
_cell_volume   395.82629291
_cell_formula_units_Z   1
loop_
 _symmetry_equiv_pos_site_id
 _symmetry_equiv_pos_as_xyz
  1  'x, y, z'
loop_
 _atom_site_type_symbol
 _atom_site_label
 _atom_site_symmetry_multiplicity
 _atom_site_fract_x
 _atom_site_fract_y
 _atom_site_fract_z
 _atom_site_occupancy
  Tb  Tb0  1  0.333333  0.666667  0.406306  1
  Tb  Tb1  1  0.666667  0.333333  0.911953  1
  Tb  Tb2  1  0.666667  0.333333  0.593694  1
  Tb  Tb3  1  0.333333  0.666667  0.088047  1
  Sn  Sn4  1  0.000000  0.000000  0.750452  1
  Sn  Sn5  1  0.000000  0.000000  0.249548  1
  Sn  Sn6  1  0.333333  0.666667  0.748353  1
  Sn  Sn7  1  0.666667  0.333333  0.251647  1
  B  B8  1  0.000000  0.000000  0.000000  1
  Rh  Rh9  1  0.335165  0.167583  0.411174  1
  Rh  Rh10  1  0.832417  0.167583  0.411174  1
  Rh  Rh11  1  0.832417  0.664835  0.411174  1
  Rh  Rh12  1  0.169346  0.338691  0.907486  1
  Rh  Rh13  1  0.664835  0.832417  0.588826  1
  Rh  Rh14  1  0.661309  0.830654  0.907486  1
  Rh  Rh15  1  0.338691  0.169346  0.092514  1
  Rh  Rh16  1  0.167583  0.335165  0.588826  1
  Rh  Rh17  1  0.167583  0.832417  0.588826  1
  Rh  Rh18  1  0.830654  0.169346  0.092514  1
  Rh  Rh19  1  0.830654  0.661309  0.092514  1
  Rh  Rh20  1  0.169346  0.830654  0.907486  1
  C  C21  1  0.000000  0.000000  0.500000  1
