# generated using pymatgen
data_HoHg4S2Cl5
_symmetry_space_group_name_H-M   'P 1'
_cell_length_a   8.25877938
_cell_length_b   10.47361100
_cell_length_c   9.04229992
_cell_angle_alpha   90.00000000
_cell_angle_beta   112.98157092
_cell_angle_gamma   90.00000000
_symmetry_Int_Tables_number   1
_chemical_formula_structural   HoHg4S2Cl5
_chemical_formula_sum   'Ho2 Hg8 S4 Cl10'
_cell_volume   720.07306090
_cell_formula_units_Z   2
loop_
 _symmetry_equiv_pos_site_id
 _symmetry_equiv_pos_as_xyz
  1  'x, y, z'
loop_
 _atom_site_type_symbol
 _atom_site_label
 _atom_site_symmetry_multiplicity
 _atom_site_fract_x
 _atom_site_fract_y
 _atom_site_fract_z
 _atom_site_occupancy
  Ho  Ho0  1  0.501280  0.431680  0.505724  1
  Ho  Ho1  1  0.498720  0.931680  0.494276  1
  Hg  Hg2  1  0.925985  0.182948  0.329625  1
  Hg  Hg3  1  0.074015  0.682948  0.670375  1
  Hg  Hg4  1  0.950403  0.667512  0.356699  1
  Hg  Hg5  1  0.049597  0.167512  0.643301  1
  Hg  Hg6  1  0.497243  0.181425  0.985549  1
  Hg  Hg7  1  0.502757  0.681425  0.014451  1
  Hg  Hg8  1  0.807709  0.432120  0.018073  1
  Hg  Hg9  1  0.192291  0.932120  0.981927  1
  S  S10  1  0.802564  0.199994  0.027971  1
  S  S11  1  0.197436  0.699994  0.972029  1
  S  S12  1  0.192514  0.162207  0.944370  1
  S  S13  1  0.807486  0.662207  0.055630  1
  Cl  Cl14  1  0.832574  0.924834  0.682602  1
  Cl  Cl15  1  0.167426  0.424834  0.317398  1
  Cl  Cl16  1  0.837611  0.438215  0.702525  1
  Cl  Cl17  1  0.162389  0.938215  0.297475  1
  Cl  Cl18  1  0.409871  0.456278  0.755624  1
  Cl  Cl19  1  0.590129  0.956278  0.244376  1
  Cl  Cl20  1  0.593114  0.395940  0.263603  1
  Cl  Cl21  1  0.406886  0.895940  0.736397  1
  Cl  Cl22  1  0.497104  0.180449  0.553927  1
  Cl  Cl23  1  0.502896  0.680449  0.446073  1
