# generated using pymatgen
data_HoTmCo7(P2Ru)3
_symmetry_space_group_name_H-M   'P 1'
_cell_length_a   3.71220700
_cell_length_b   10.41561800
_cell_length_c   11.81796000
_cell_angle_alpha   90.00000000
_cell_angle_beta   90.00000000
_cell_angle_gamma   90.00000000
_symmetry_Int_Tables_number   1
_chemical_formula_structural   HoTmCo7(P2Ru)3
_chemical_formula_sum   'Ho2 Tm2 Co14 P12 Ru6'
_cell_volume   456.94059672
_cell_formula_units_Z   2
loop_
 _symmetry_equiv_pos_site_id
 _symmetry_equiv_pos_as_xyz
  1  'x, y, z'
loop_
 _atom_site_type_symbol
 _atom_site_label
 _atom_site_symmetry_multiplicity
 _atom_site_fract_x
 _atom_site_fract_y
 _atom_site_fract_z
 _atom_site_occupancy
  Ho  Ho0  1  0.250000  0.586587  0.705309  1
  Ho  Ho1  1  0.250000  0.913413  0.205309  1
  Tm  Tm2  1  0.750000  0.414554  0.292265  1
  Tm  Tm3  1  0.750000  0.085446  0.792265  1
  Co  Co4  1  0.750000  0.597069  0.512809  1
  Co  Co5  1  0.750000  0.902931  0.012809  1
  Co  Co6  1  0.250000  0.225636  0.179561  1
  Co  Co7  1  0.250000  0.274364  0.679561  1
  Co  Co8  1  0.750000  0.777125  0.822074  1
  Co  Co9  1  0.750000  0.722875  0.322074  1
  Co  Co10  1  0.250000  0.884993  0.700664  1
  Co  Co11  1  0.250000  0.615007  0.200664  1
  Co  Co12  1  0.750000  0.113965  0.298512  1
  Co  Co13  1  0.750000  0.386035  0.798512  1
  Co  Co14  1  0.250000  0.464809  0.931194  1
  Co  Co15  1  0.250000  0.035191  0.431194  1
  Co  Co16  1  0.750000  0.537343  0.068528  1
  Co  Co17  1  0.750000  0.962657  0.568528  1
  P  P18  1  0.250000  0.422520  0.112961  1
  P  P19  1  0.250000  0.077480  0.612961  1
  P  P20  1  0.750000  0.579027  0.887043  1
  P  P21  1  0.750000  0.920973  0.387043  1
  P  P22  1  0.250000  0.272001  0.866295  1
  P  P23  1  0.250000  0.227999  0.366295  1
  P  P24  1  0.750000  0.730210  0.132487  1
  P  P25  1  0.750000  0.769790  0.632487  1
  P  P26  1  0.250000  0.599735  0.386550  1
  P  P27  1  0.250000  0.900265  0.886550  1
  P  P28  1  0.750000  0.402720  0.612689  1
  P  P29  1  0.750000  0.097280  0.112689  1
  Ru  Ru30  1  0.250000  0.714401  0.989367  1
  Ru  Ru31  1  0.250000  0.785599  0.489367  1
  Ru  Ru32  1  0.750000  0.289996  0.013471  1
  Ru  Ru33  1  0.750000  0.210004  0.513471  1
  Ru  Ru34  1  0.250000  0.408692  0.488219  1
  Ru  Ru35  1  0.250000  0.091308  0.988219  1
