# generated using pymatgen
data_LiTb16In3(IrRu)2
_symmetry_space_group_name_H-M   'P 1'
_cell_length_a   9.73415400
_cell_length_b   9.73415287
_cell_length_c   9.72052756
_cell_angle_alpha   59.55076604
_cell_angle_beta   59.55076337
_cell_angle_gamma   59.60564561
_symmetry_Int_Tables_number   1
_chemical_formula_structural   LiTb16In3(IrRu)2
_chemical_formula_sum   'Li1 Tb16 In3 Ir2 Ru2'
_cell_volume   644.90439047
_cell_formula_units_Z   1
loop_
 _symmetry_equiv_pos_site_id
 _symmetry_equiv_pos_as_xyz
  1  'x, y, z'
loop_
 _atom_site_type_symbol
 _atom_site_label
 _atom_site_symmetry_multiplicity
 _atom_site_fract_x
 _atom_site_fract_y
 _atom_site_fract_z
 _atom_site_occupancy
  Li  Li0  1  0.320843  0.320843  0.320485  1
  Tb  Tb1  1  0.096211  0.709252  0.097740  1
  Tb  Tb2  1  0.941332  0.941332  0.558916  1
  Tb  Tb3  1  0.941943  0.559884  0.941702  1
  Tb  Tb4  1  0.308257  0.690906  0.310572  1
  Tb  Tb5  1  0.936126  0.562827  0.559728  1
  Tb  Tb6  1  0.309831  0.309831  0.690691  1
  Tb  Tb7  1  0.098939  0.098939  0.100482  1
  Tb  Tb8  1  0.560535  0.560535  0.937536  1
  Tb  Tb9  1  0.097558  0.097558  0.708136  1
  Tb  Tb10  1  0.689921  0.309435  0.690073  1
  Tb  Tb11  1  0.690571  0.690571  0.310518  1
  Tb  Tb12  1  0.690906  0.308257  0.310572  1
  Tb  Tb13  1  0.309435  0.689921  0.690073  1
  Tb  Tb14  1  0.562827  0.936126  0.559728  1
  Tb  Tb15  1  0.709252  0.096211  0.097740  1
  Tb  Tb16  1  0.559884  0.941943  0.941702  1
  In  In17  1  0.004308  0.332169  0.331908  1
  In  In18  1  0.332169  0.004308  0.331908  1
  In  In19  1  0.331806  0.331806  0.004932  1
  Ir  Ir20  1  0.328563  0.893274  0.892594  1
  Ir  Ir21  1  0.893274  0.328563  0.892594  1
  Ru  Ru22  1  0.892378  0.892378  0.889269  1
  Ru  Ru23  1  0.893132  0.893132  0.330403  1
