# generated using pymatgen
data_Tb3YCo8(PIr)12
_symmetry_space_group_name_H-M   'P 1'
_cell_length_a   3.87490000
_cell_length_b   10.61138600
_cell_length_c   12.20849100
_cell_angle_alpha   89.99808690
_cell_angle_beta   90.00000000
_cell_angle_gamma   90.00000000
_symmetry_Int_Tables_number   1
_chemical_formula_structural   Tb3YCo8(PIr)12
_chemical_formula_sum   'Tb3 Y1 Co8 P12 Ir12'
_cell_volume   501.98946056
_cell_formula_units_Z   1
loop_
 _symmetry_equiv_pos_site_id
 _symmetry_equiv_pos_as_xyz
  1  'x, y, z'
loop_
 _atom_site_type_symbol
 _atom_site_label
 _atom_site_symmetry_multiplicity
 _atom_site_fract_x
 _atom_site_fract_y
 _atom_site_fract_z
 _atom_site_occupancy
  Tb  Tb0  1  0.250000  0.915218  0.210557  1
  Tb  Tb1  1  0.750000  0.415287  0.289414  1
  Tb  Tb2  1  0.750000  0.084798  0.789496  1
  Y  Y3  1  0.250000  0.584741  0.710520  1
  Co  Co4  1  0.250000  0.883757  0.697149  1
  Co  Co5  1  0.250000  0.616227  0.197110  1
  Co  Co6  1  0.750000  0.116234  0.302870  1
  Co  Co7  1  0.750000  0.383809  0.802754  1
  Co  Co8  1  0.250000  0.464123  0.933766  1
  Co  Co9  1  0.250000  0.036001  0.433830  1
  Co  Co10  1  0.750000  0.535994  0.066167  1
  Co  Co11  1  0.750000  0.963973  0.566197  1
  P  P12  1  0.250000  0.432422  0.110642  1
  P  P13  1  0.250000  0.067562  0.610644  1
  P  P14  1  0.750000  0.567650  0.889203  1
  P  P15  1  0.750000  0.932449  0.389345  1
  P  P16  1  0.250000  0.274942  0.870377  1
  P  P17  1  0.250000  0.224953  0.370325  1
  P  P18  1  0.750000  0.724959  0.129614  1
  P  P19  1  0.750000  0.774943  0.629669  1
  P  P20  1  0.250000  0.597948  0.377289  1
  P  P21  1  0.250000  0.901983  0.877351  1
  P  P22  1  0.750000  0.402135  0.622722  1
  P  P23  1  0.750000  0.097981  0.122694  1
  Ir  Ir24  1  0.250000  0.723223  0.990522  1
  Ir  Ir25  1  0.250000  0.776919  0.490352  1
  Ir  Ir26  1  0.750000  0.276874  0.009632  1
  Ir  Ir27  1  0.750000  0.223149  0.509628  1
  Ir  Ir28  1  0.250000  0.410091  0.477288  1
  Ir  Ir29  1  0.250000  0.089967  0.977366  1
  Ir  Ir30  1  0.750000  0.589858  0.522911  1
  Ir  Ir31  1  0.750000  0.910072  0.022661  1
  Ir  Ir32  1  0.250000  0.227268  0.178443  1
  Ir  Ir33  1  0.250000  0.272775  0.678493  1
  Ir  Ir34  1  0.750000  0.772519  0.821454  1
  Ir  Ir35  1  0.750000  0.727197  0.321545  1
