# generated using pymatgen
data_La2Th(MgIr)3
_symmetry_space_group_name_H-M   'P 1'
_cell_length_a   7.57554600
_cell_length_b   7.49920618
_cell_length_c   4.15408000
_cell_angle_alpha   90.00000000
_cell_angle_beta   90.00000000
_cell_angle_gamma   120.33732651
_symmetry_Int_Tables_number   1
_chemical_formula_structural   La2Th(MgIr)3
_chemical_formula_sum   'La2 Th1 Mg3 Ir3'
_cell_volume   203.68002582
_cell_formula_units_Z   1
loop_
 _symmetry_equiv_pos_site_id
 _symmetry_equiv_pos_as_xyz
  1  'x, y, z'
loop_
 _atom_site_type_symbol
 _atom_site_label
 _atom_site_symmetry_multiplicity
 _atom_site_fract_x
 _atom_site_fract_y
 _atom_site_fract_z
 _atom_site_occupancy
  La  La0  1  0.000013  0.589309  0.000000  1
  La  La1  1  0.410703  0.410691  0.000000  1
  Th  Th2  1  0.590609  0.000000  0.000000  1
  Mg  Mg3  1  0.234407  0.000000  0.500000  1
  Mg  Mg4  1  0.001471  0.241680  0.500000  1
  Mg  Mg5  1  0.759790  0.758320  0.500000  1
  Ir  Ir6  1  0.349942  0.685783  0.500000  1
  Ir  Ir7  1  0.664160  0.314217  0.500000  1
  Ir  Ir8  1  0.988904  0.000000  0.000000  1
