# generated using pymatgen
data_HfFe4MoP3
_symmetry_space_group_name_H-M   'P 1'
_cell_length_a   3.63722300
_cell_length_b   10.22794400
_cell_length_c   11.84775400
_cell_angle_alpha   90.00000000
_cell_angle_beta   90.00000000
_cell_angle_gamma   90.00000000
_symmetry_Int_Tables_number   1
_chemical_formula_structural   HfFe4MoP3
_chemical_formula_sum   'Hf4 Fe16 Mo4 P12'
_cell_volume   440.75200679
_cell_formula_units_Z   4
loop_
 _symmetry_equiv_pos_site_id
 _symmetry_equiv_pos_as_xyz
  1  'x, y, z'
loop_
 _atom_site_type_symbol
 _atom_site_label
 _atom_site_symmetry_multiplicity
 _atom_site_fract_x
 _atom_site_fract_y
 _atom_site_fract_z
 _atom_site_occupancy
  Hf  Hf0  1  0.250000  0.580951  0.707610  1
  Hf  Hf1  1  0.250000  0.919049  0.207610  1
  Hf  Hf2  1  0.750000  0.419049  0.292390  1
  Hf  Hf3  1  0.750000  0.080951  0.792390  1
  Fe  Fe4  1  0.250000  0.409545  0.486415  1
  Fe  Fe5  1  0.250000  0.090456  0.986415  1
  Fe  Fe6  1  0.750000  0.590455  0.513585  1
  Fe  Fe7  1  0.750000  0.909545  0.013585  1
  Fe  Fe8  1  0.250000  0.220591  0.175980  1
  Fe  Fe9  1  0.250000  0.279409  0.675980  1
  Fe  Fe10  1  0.750000  0.779409  0.824020  1
  Fe  Fe11  1  0.750000  0.720591  0.324020  1
  Fe  Fe12  1  0.250000  0.883082  0.700938  1
  Fe  Fe13  1  0.250000  0.616918  0.200938  1
  Fe  Fe14  1  0.750000  0.116918  0.299062  1
  Fe  Fe15  1  0.750000  0.383082  0.799062  1
  Fe  Fe16  1  0.250000  0.463996  0.932392  1
  Fe  Fe17  1  0.250000  0.036004  0.432392  1
  Fe  Fe18  1  0.750000  0.536004  0.067608  1
  Fe  Fe19  1  0.750000  0.963996  0.567608  1
  Mo  Mo20  1  0.250000  0.705576  0.991132  1
  Mo  Mo21  1  0.250000  0.794424  0.491132  1
  Mo  Mo22  1  0.750000  0.294424  0.008868  1
  Mo  Mo23  1  0.750000  0.205576  0.508868  1
  P  P24  1  0.250000  0.422978  0.117774  1
  P  P25  1  0.250000  0.077022  0.617774  1
  P  P26  1  0.750000  0.577022  0.882226  1
  P  P27  1  0.750000  0.922978  0.382226  1
  P  P28  1  0.250000  0.263411  0.860972  1
  P  P29  1  0.250000  0.236589  0.360972  1
  P  P30  1  0.750000  0.736589  0.139028  1
  P  P31  1  0.750000  0.763411  0.639028  1
  P  P32  1  0.250000  0.592822  0.386334  1
  P  P33  1  0.250000  0.907178  0.886334  1
  P  P34  1  0.750000  0.407178  0.613666  1
  P  P35  1  0.750000  0.092822  0.113666  1
