# generated using pymatgen
data_La2Nd2TlCdIrAu3
_symmetry_space_group_name_H-M   'P 1'
_cell_length_a   3.93029300
_cell_length_b   8.11447961
_cell_length_c   8.11448000
_cell_angle_alpha   90.29507761
_cell_angle_beta   90.00000000
_cell_angle_gamma   90.00000000
_symmetry_Int_Tables_number   1
_chemical_formula_structural   La2Nd2TlCdIrAu3
_chemical_formula_sum   'La2 Nd2 Tl1 Cd1 Ir1 Au3'
_cell_volume   258.78585584
_cell_formula_units_Z   1
loop_
 _symmetry_equiv_pos_site_id
 _symmetry_equiv_pos_as_xyz
  1  'x, y, z'
loop_
 _atom_site_type_symbol
 _atom_site_label
 _atom_site_symmetry_multiplicity
 _atom_site_fract_x
 _atom_site_fract_y
 _atom_site_fract_z
 _atom_site_occupancy
  La  La0  1  0.500000  0.170822  0.669790  1
  La  La1  1  0.500000  0.810139  0.311078  1
  Nd  Nd2  1  0.500000  0.348758  0.178939  1
  Nd  Nd3  1  0.500000  0.677849  0.847709  1
  Tl  Tl4  1  0.000000  0.999737  0.001478  1
  Cd  Cd5  1  0.000000  0.501066  0.499922  1
  Ir  Ir6  1  0.000000  0.624247  0.126727  1
  Au  Au7  1  0.000000  0.375889  0.871910  1
  Au  Au8  1  0.000000  0.865042  0.622315  1
  Au  Au9  1  0.000000  0.126452  0.370134  1
