# generated using pymatgen
data_Er3Lu5(InIr)2
_symmetry_space_group_name_H-M   'P 1'
_cell_length_a   9.52011437
_cell_length_b   9.52011462
_cell_length_c   9.52011500
_cell_angle_alpha   60.00000214
_cell_angle_beta   60.00000129
_cell_angle_gamma   59.99999770
_symmetry_Int_Tables_number   1
_chemical_formula_structural   Er3Lu5(InIr)2
_chemical_formula_sum   'Er6 Lu10 In4 Ir4'
_cell_volume   610.11477652
_cell_formula_units_Z   2
loop_
 _symmetry_equiv_pos_site_id
 _symmetry_equiv_pos_as_xyz
  1  'x, y, z'
loop_
 _atom_site_type_symbol
 _atom_site_label
 _atom_site_symmetry_multiplicity
 _atom_site_fract_x
 _atom_site_fract_y
 _atom_site_fract_z
 _atom_site_occupancy
  Er  Er0  1  0.190441  0.809559  0.809559  1
  Er  Er1  1  0.809559  0.190441  0.190441  1
  Er  Er2  1  0.809559  0.190441  0.809559  1
  Er  Er3  1  0.190441  0.809559  0.190441  1
  Er  Er4  1  0.809559  0.809559  0.190441  1
  Er  Er5  1  0.190441  0.190441  0.809559  1
  Lu  Lu6  1  0.598403  0.598403  0.598403  1
  Lu  Lu7  1  0.598403  0.598403  0.204789  1
  Lu  Lu8  1  0.598403  0.204789  0.598403  1
  Lu  Lu9  1  0.204789  0.598403  0.598403  1
  Lu  Lu10  1  0.060347  0.439653  0.439653  1
  Lu  Lu11  1  0.439653  0.060347  0.060347  1
  Lu  Lu12  1  0.439653  0.060347  0.439653  1
  Lu  Lu13  1  0.060347  0.439653  0.060347  1
  Lu  Lu14  1  0.439653  0.439653  0.060347  1
  Lu  Lu15  1  0.060347  0.060347  0.439653  1
  In  In16  1  0.833145  0.833145  0.833145  1
  In  In17  1  0.833145  0.833145  0.500566  1
  In  In18  1  0.833145  0.500566  0.833145  1
  In  In19  1  0.500566  0.833145  0.833145  1
  Ir  Ir20  1  0.391083  0.391083  0.391083  1
  Ir  Ir21  1  0.391083  0.391083  0.826751  1
  Ir  Ir22  1  0.391083  0.826751  0.391083  1
  Ir  Ir23  1  0.826751  0.391083  0.391083  1
