# generated using pymatgen
data_Zr10Sn5BiSb
_symmetry_space_group_name_H-M   'P 1'
_cell_length_a   5.95908949
_cell_length_b   8.71535202
_cell_length_c   8.70883837
_cell_angle_alpha   120.02475438
_cell_angle_beta   89.99986768
_cell_angle_gamma   90.00025073
_symmetry_Int_Tables_number   1
_chemical_formula_structural   Zr10Sn5BiSb
_chemical_formula_sum   'Zr10 Sn5 Bi1 Sb1'
_cell_volume   391.60417967
_cell_formula_units_Z   1
loop_
 _symmetry_equiv_pos_site_id
 _symmetry_equiv_pos_as_xyz
  1  'x, y, z'
loop_
 _atom_site_type_symbol
 _atom_site_label
 _atom_site_symmetry_multiplicity
 _atom_site_fract_x
 _atom_site_fract_y
 _atom_site_fract_z
 _atom_site_occupancy
  Zr  Zr0  1  0.498722  0.331558  0.664448  1
  Zr  Zr1  1  0.498722  0.667110  0.335552  1
  Zr  Zr2  1  0.001813  0.667164  0.336270  1
  Zr  Zr3  1  0.001813  0.330894  0.663730  1
  Zr  Zr4  1  0.773640  0.262583  0.000000  1
  Zr  Zr5  1  0.772073  0.736168  0.730941  1
  Zr  Zr6  1  0.772073  0.005226  0.269059  1
  Zr  Zr7  1  0.230542  0.734086  0.000000  1
  Zr  Zr8  1  0.226990  0.266179  0.266763  1
  Zr  Zr9  1  0.226990  0.999416  0.733237  1
  Sn  Sn10  1  0.743140  0.389714  0.389161  1
  Sn  Sn11  1  0.743140  0.000551  0.610839  1
  Sn  Sn12  1  0.255388  0.386824  0.000000  1
  Sn  Sn13  1  0.255944  0.611222  0.611811  1
  Sn  Sn14  1  0.255944  0.999411  0.388189  1
  Bi  Bi15  1  0.744174  0.611737  0.000000  1
  Sb  Sb16  1  0.498890  0.000159  0.000000  1
