# generated using pymatgen
data_Ho12GaCo4Sn
_symmetry_space_group_name_H-M   'P 1'
_cell_length_a   8.29722679
_cell_length_b   8.29722675
_cell_length_c   8.29722641
_cell_angle_alpha   112.11383812
_cell_angle_beta   109.21921183
_cell_angle_gamma   107.11968494
_symmetry_Int_Tables_number   1
_chemical_formula_structural   Ho12GaCo4Sn
_chemical_formula_sum   'Ho12 Ga1 Co4 Sn1'
_cell_volume   438.87520654
_cell_formula_units_Z   1
loop_
 _symmetry_equiv_pos_site_id
 _symmetry_equiv_pos_as_xyz
  1  'x, y, z'
loop_
 _atom_site_type_symbol
 _atom_site_label
 _atom_site_symmetry_multiplicity
 _atom_site_fract_x
 _atom_site_fract_y
 _atom_site_fract_z
 _atom_site_occupancy
  Ho  Ho0  1  0.967008  0.266269  0.700739  1
  Ho  Ho1  1  0.032992  0.733731  0.299261  1
  Ho  Ho2  1  0.674770  0.860208  0.185438  1
  Ho  Ho3  1  0.325230  0.510669  0.185438  1
  Ho  Ho4  1  0.325230  0.139792  0.814562  1
  Ho  Ho5  1  0.674770  0.489331  0.814562  1
  Ho  Ho6  1  0.565529  0.266269  0.299261  1
  Ho  Ho7  1  0.434471  0.733731  0.700739  1
  Ho  Ho8  1  0.179776  0.780436  0.960212  1
  Ho  Ho9  1  0.820224  0.780436  0.600661  1
  Ho  Ho10  1  0.179776  0.219564  0.399339  1
  Ho  Ho11  1  0.820224  0.219564  0.039788  1
  Ga  Ga12  1  0.000000  0.500000  0.500000  1
  Co  Co13  1  0.114485  0.114485  0.000000  1
  Co  Co14  1  0.885515  0.885515  0.000000  1
  Co  Co15  1  0.662660  0.500000  0.162660  1
  Co  Co16  1  0.337340  0.500000  0.837340  1
  Sn  Sn17  1  0.500000  0.000000  0.500000  1
