# generated using pymatgen
data_Sc12InNi4Pb
_symmetry_space_group_name_H-M   'P 1'
_cell_length_a   7.87904491
_cell_length_b   7.87904613
_cell_length_c   7.87904586
_cell_angle_alpha   111.24028763
_cell_angle_beta   110.42656092
_cell_angle_gamma   106.78095059
_symmetry_Int_Tables_number   1
_chemical_formula_structural   Sc12InNi4Pb
_chemical_formula_sum   'Sc12 In1 Ni4 Pb1'
_cell_volume   375.89059125
_cell_formula_units_Z   1
loop_
 _symmetry_equiv_pos_site_id
 _symmetry_equiv_pos_as_xyz
  1  'x, y, z'
loop_
 _atom_site_type_symbol
 _atom_site_label
 _atom_site_symmetry_multiplicity
 _atom_site_fract_x
 _atom_site_fract_y
 _atom_site_fract_z
 _atom_site_occupancy
  Sc  Sc0  1  0.447578  0.232074  0.215504  1
  Sc  Sc1  1  0.552422  0.767926  0.784496  1
  Sc  Sc2  1  0.016570  0.232074  0.784496  1
  Sc  Sc3  1  0.983430  0.767926  0.215504  1
  Sc  Sc4  1  0.185802  0.287964  0.473765  1
  Sc  Sc5  1  0.814198  0.712036  0.526235  1
  Sc  Sc6  1  0.185802  0.712036  0.897839  1
  Sc  Sc7  1  0.814198  0.287964  0.102161  1
  Sc  Sc8  1  0.319894  0.617963  0.298069  1
  Sc  Sc9  1  0.680106  0.382037  0.701931  1
  Sc  Sc10  1  0.319894  0.021825  0.701931  1
  Sc  Sc11  1  0.680106  0.978175  0.298069  1
  In  In12  1  0.000000  0.000000  0.000000  1
  Ni  Ni13  1  0.356176  0.000000  0.356176  1
  Ni  Ni14  1  0.643824  0.000000  0.643824  1
  Ni  Ni15  1  0.127969  0.627969  0.500000  1
  Ni  Ni16  1  0.872031  0.372031  0.500000  1
  Pb  Pb17  1  0.500000  0.500000  0.000000  1
