# generated using pymatgen
data_MnNiRhS4
_symmetry_space_group_name_H-M   'P 1'
_cell_length_a   6.86188550
_cell_length_b   6.86188511
_cell_length_c   6.97948100
_cell_angle_alpha   59.43145170
_cell_angle_beta   59.43145359
_cell_angle_gamma   58.91963185
_symmetry_Int_Tables_number   1
_chemical_formula_structural   MnNiRhS4
_chemical_formula_sum   'Mn2 Ni2 Rh2 S8'
_cell_volume   228.45365239
_cell_formula_units_Z   2
loop_
 _symmetry_equiv_pos_site_id
 _symmetry_equiv_pos_as_xyz
  1  'x, y, z'
loop_
 _atom_site_type_symbol
 _atom_site_label
 _atom_site_symmetry_multiplicity
 _atom_site_fract_x
 _atom_site_fract_y
 _atom_site_fract_z
 _atom_site_occupancy
  Mn  Mn0  1  0.000000  0.500000  0.000000  1
  Mn  Mn1  1  0.500000  0.000000  0.000000  1
  Ni  Ni2  1  0.373603  0.373603  0.376397  1
  Ni  Ni3  1  0.626397  0.626397  0.623603  1
  Rh  Rh4  1  0.000000  0.000000  0.500000  1
  Rh  Rh5  1  0.000000  0.000000  0.000000  1
  S  S6  1  0.247074  0.247074  0.764397  1
  S  S7  1  0.247619  0.767610  0.242385  1
  S  S8  1  0.767610  0.247619  0.242385  1
  S  S9  1  0.247074  0.247074  0.241454  1
  S  S10  1  0.752926  0.752926  0.235603  1
  S  S11  1  0.752381  0.232390  0.757615  1
  S  S12  1  0.232390  0.752381  0.757615  1
  S  S13  1  0.752926  0.752926  0.758546  1
