# generated using pymatgen
data_Dy4Al13Ga11Pt9
_symmetry_space_group_name_H-M   'P 1'
_cell_length_a   7.48477970
_cell_length_b   7.51272663
_cell_length_c   13.32190959
_cell_angle_alpha   84.65162637
_cell_angle_beta   100.64707939
_cell_angle_gamma   119.69895051
_symmetry_Int_Tables_number   1
_chemical_formula_structural   Dy4Al13Ga11Pt9
_chemical_formula_sum   'Dy4 Al13 Ga11 Pt9'
_cell_volume   639.49977082
_cell_formula_units_Z   1
loop_
 _symmetry_equiv_pos_site_id
 _symmetry_equiv_pos_as_xyz
  1  'x, y, z'
loop_
 _atom_site_type_symbol
 _atom_site_label
 _atom_site_symmetry_multiplicity
 _atom_site_fract_x
 _atom_site_fract_y
 _atom_site_fract_z
 _atom_site_occupancy
  Dy  Dy0  1  0.735350  0.002267  0.192161  1
  Dy  Dy1  1  0.264515  0.999377  0.807213  1
  Dy  Dy2  1  0.062810  0.663630  0.190459  1
  Dy  Dy3  1  0.938655  0.336536  0.808913  1
  Al  Al4  1  0.770800  0.661046  0.331618  1
  Al  Al5  1  0.853257  0.331843  0.557497  1
  Al  Al6  1  0.186629  0.999630  0.557387  1
  Al  Al7  1  0.812224  0.998966  0.441235  1
  Al  Al8  1  0.352351  0.000300  0.054270  1
  Al  Al9  1  0.648151  0.000782  0.945777  1
  Al  Al10  1  0.556829  0.994986  0.669172  1
  Al  Al11  1  0.442810  0.004486  0.331074  1
  Al  Al12  1  0.519539  0.666088  0.559923  1
  Al  Al13  1  0.478223  0.332053  0.439842  1
  Al  Al14  1  0.685858  0.667800  0.049351  1
  Al  Al15  1  0.316418  0.334432  0.951535  1
  Al  Al16  1  0.145275  0.667291  0.441473  1
  Ga  Ga17  1  0.803831  0.873576  0.814762  1
  Ga  Ga18  1  0.195846  0.126026  0.185040  1
  Ga  Ga19  1  0.981418  0.667312  0.939583  1
  Ga  Ga20  1  0.019941  0.333411  0.060699  1
  Ga  Ga21  1  0.400567  0.665868  0.816192  1
  Ga  Ga22  1  0.600345  0.336844  0.184126  1
  Ga  Ga23  1  0.884504  0.665494  0.671043  1
  Ga  Ga24  1  0.115219  0.333926  0.329293  1
  Ga  Ga25  1  0.600335  0.459059  0.814947  1
  Ga  Ga26  1  0.402563  0.542339  0.185485  1
  Ga  Ga27  1  0.228050  0.336401  0.672069  1
  Pt  Pt28  1  0.335744  0.673949  0.001241  1
  Pt  Pt29  1  0.545710  0.322980  0.634196  1
  Pt  Pt30  1  0.456416  0.676038  0.365839  1
  Pt  Pt31  1  0.881907  0.005619  0.634633  1
  Pt  Pt32  1  0.112485  0.989325  0.363805  1
  Pt  Pt33  1  0.665172  0.326830  0.999211  1
  Pt  Pt34  1  0.209190  0.669698  0.635443  1
  Pt  Pt35  1  0.790523  0.332809  0.364066  1
  Pt  Pt36  1  0.000543  0.000981  0.999424  1
