# generated using pymatgen
data_NaCdAsO4
_symmetry_space_group_name_H-M   'P 1'
_cell_length_a   11.37187700
_cell_length_b   6.66712200
_cell_length_c   5.32496100
_cell_angle_alpha   90.00000000
_cell_angle_beta   90.00000000
_cell_angle_gamma   90.00000000
_symmetry_Int_Tables_number   1
_chemical_formula_structural   NaCdAsO4
_chemical_formula_sum   'Na4 Cd4 As4 O16'
_cell_volume   403.72624943
_cell_formula_units_Z   4
loop_
 _symmetry_equiv_pos_site_id
 _symmetry_equiv_pos_as_xyz
  1  'x, y, z'
loop_
 _atom_site_type_symbol
 _atom_site_label
 _atom_site_symmetry_multiplicity
 _atom_site_fract_x
 _atom_site_fract_y
 _atom_site_fract_z
 _atom_site_occupancy
  Na  Na0  1  0.499297  0.996955  0.999402  1
  Na  Na1  1  0.999297  0.996955  0.500599  1
  Na  Na2  1  0.000703  0.496955  0.499401  1
  Na  Na3  1  0.500702  0.496955  0.000597  1
  Cd  Cd4  1  0.217701  0.247874  0.008536  1
  Cd  Cd5  1  0.717701  0.247874  0.491465  1
  Cd  Cd6  1  0.282300  0.747875  0.508534  1
  Cd  Cd7  1  0.782300  0.747875  0.991465  1
  As  As8  1  0.101177  0.747870  0.064123  1
  As  As9  1  0.601177  0.747870  0.435878  1
  As  As10  1  0.398823  0.247869  0.564122  1
  As  As11  1  0.898823  0.247869  0.935878  1
  O  O12  1  0.960491  0.747156  0.186198  1
  O  O13  1  0.171867  0.949589  0.207647  1
  O  O14  1  0.172479  0.546490  0.207177  1
  O  O15  1  0.895748  0.247567  0.256984  1
  O  O16  1  0.395748  0.247567  0.243014  1
  O  O17  1  0.672479  0.546490  0.292821  1
  O  O18  1  0.671867  0.949589  0.292354  1
  O  O19  1  0.460491  0.747156  0.313802  1
  O  O20  1  0.539509  0.247155  0.686199  1
  O  O21  1  0.328133  0.449588  0.707645  1
  O  O22  1  0.327521  0.046489  0.707178  1
  O  O23  1  0.604251  0.747567  0.756985  1
  O  O24  1  0.104251  0.747567  0.743015  1
  O  O25  1  0.827521  0.046489  0.792822  1
  O  O26  1  0.828133  0.449588  0.792355  1
  O  O27  1  0.039509  0.247155  0.813801  1
