# generated using pymatgen
data_DyTm5Al19Si5Os8
_symmetry_space_group_name_H-M   'P 1'
_cell_length_a   8.67374500
_cell_length_b   8.65881832
_cell_length_c   9.55126600
_cell_angle_alpha   90.00000000
_cell_angle_beta   90.00000000
_cell_angle_gamma   120.05703777
_symmetry_Int_Tables_number   1
_chemical_formula_structural   DyTm5Al19Si5Os8
_chemical_formula_sum   'Dy1 Tm5 Al19 Si5 Os8'
_cell_volume   620.87897180
_cell_formula_units_Z   1
loop_
 _symmetry_equiv_pos_site_id
 _symmetry_equiv_pos_as_xyz
  1  'x, y, z'
loop_
 _atom_site_type_symbol
 _atom_site_label
 _atom_site_symmetry_multiplicity
 _atom_site_fract_x
 _atom_site_fract_y
 _atom_site_fract_z
 _atom_site_occupancy
  Dy  Dy0  1  0.805831  0.611663  0.750000  1
  Tm  Tm1  1  0.195509  0.391019  0.250000  1
  Tm  Tm2  1  0.606466  0.805639  0.250000  1
  Tm  Tm3  1  0.391130  0.195963  0.750000  1
  Tm  Tm4  1  0.199173  0.805639  0.250000  1
  Tm  Tm5  1  0.804832  0.195963  0.750000  1
  Al  Al6  1  0.164538  0.329076  0.578803  1
  Al  Al7  1  0.834808  0.669616  0.421053  1
  Al  Al8  1  0.669890  0.835571  0.577282  1
  Al  Al9  1  0.834808  0.669616  0.078947  1
  Al  Al10  1  0.328868  0.165349  0.421465  1
  Al  Al11  1  0.164538  0.329076  0.921197  1
  Al  Al12  1  0.165681  0.835571  0.577282  1
  Al  Al13  1  0.328868  0.165349  0.078535  1
  Al  Al14  1  0.836481  0.165349  0.421465  1
  Al  Al15  1  0.669890  0.835571  0.922718  1
  Al  Al16  1  0.836481  0.165349  0.078535  1
  Al  Al17  1  0.165681  0.835571  0.922718  1
  Al  Al18  1  0.437529  0.875058  0.750000  1
  Al  Al19  1  0.873366  0.433850  0.250000  1
  Al  Al20  1  0.127728  0.564244  0.750000  1
  Al  Al21  1  0.560485  0.433850  0.250000  1
  Al  Al22  1  0.436515  0.564244  0.750000  1
  Al  Al23  1  0.999763  0.999525  0.250000  1
  Al  Al24  1  0.000860  0.001719  0.750000  1
  Si  Si25  1  0.332501  0.665003  0.039149  1
  Si  Si26  1  0.666936  0.333872  0.960108  1
  Si  Si27  1  0.666936  0.333872  0.539892  1
  Si  Si28  1  0.332501  0.665003  0.460851  1
  Si  Si29  1  0.563541  0.127082  0.250000  1
  Os  Os30  1  0.500567  0.001133  0.006460  1
  Os  Os31  1  0.999312  0.498793  0.000812  1
  Os  Os32  1  0.500567  0.001133  0.493540  1
  Os  Os33  1  0.499481  0.498793  0.000812  1
  Os  Os34  1  0.999312  0.498793  0.499188  1
  Os  Os35  1  0.499481  0.498793  0.499188  1
  Os  Os36  1  0.999572  0.999144  0.000042  1
  Os  Os37  1  0.999572  0.999144  0.499958  1
