# generated using pymatgen
data_Tb2NiPRh5
_symmetry_space_group_name_H-M   'P 1'
_cell_length_a   5.96631444
_cell_length_b   5.91071011
_cell_length_c   5.91071004
_cell_angle_alpha   60.62336692
_cell_angle_beta   59.68832362
_cell_angle_gamma   59.68831748
_symmetry_Int_Tables_number   1
_chemical_formula_structural   Tb2NiPRh5
_chemical_formula_sum   'Tb2 Ni1 P1 Rh5'
_cell_volume   147.36449980
_cell_formula_units_Z   1
loop_
 _symmetry_equiv_pos_site_id
 _symmetry_equiv_pos_as_xyz
  1  'x, y, z'
loop_
 _atom_site_type_symbol
 _atom_site_label
 _atom_site_symmetry_multiplicity
 _atom_site_fract_x
 _atom_site_fract_y
 _atom_site_fract_z
 _atom_site_occupancy
  Tb  Tb0  1  0.251858  0.248142  0.248142  1
  Tb  Tb1  1  0.751858  0.748142  0.748142  1
  Ni  Ni2  1  0.727711  0.272290  0.272290  1
  P  P3  1  0.987682  0.012318  0.012318  1
  Rh  Rh4  1  0.270663  0.729338  0.262233  1
  Rh  Rh5  1  0.737767  0.729337  0.262234  1
  Rh  Rh6  1  0.270663  0.262233  0.729338  1
  Rh  Rh7  1  0.737767  0.262234  0.729337  1
  Rh  Rh8  1  0.264035  0.735966  0.735966  1
