# generated using pymatgen
data_Y4Ti4AlCr3O20
_symmetry_space_group_name_H-M   'P 1'
_cell_length_a   5.82253200
_cell_length_b   7.46101550
_cell_length_c   8.57612502
_cell_angle_alpha   90.12490287
_cell_angle_beta   90.00000000
_cell_angle_gamma   90.00000000
_symmetry_Int_Tables_number   1
_chemical_formula_structural   Y4Ti4AlCr3O20
_chemical_formula_sum   'Y4 Ti4 Al1 Cr3 O20'
_cell_volume   372.56315060
_cell_formula_units_Z   1
loop_
 _symmetry_equiv_pos_site_id
 _symmetry_equiv_pos_as_xyz
  1  'x, y, z'
loop_
 _atom_site_type_symbol
 _atom_site_label
 _atom_site_symmetry_multiplicity
 _atom_site_fract_x
 _atom_site_fract_y
 _atom_site_fract_z
 _atom_site_occupancy
  Y  Y0  1  0.498703  0.357803  0.331116  1
  Y  Y1  1  0.498703  0.642197  0.668884  1
  Y  Y2  1  0.499769  0.139408  0.828817  1
  Y  Y3  1  0.499769  0.860592  0.171183  1
  Ti  Ti4  1  0.001625  0.117560  0.147806  1
  Ti  Ti5  1  0.001625  0.882440  0.852194  1
  Ti  Ti6  1  0.001173  0.377809  0.644930  1
  Ti  Ti7  1  0.001173  0.622191  0.355070  1
  Al  Al8  1  0.256852  0.000000  0.500000  1
  Cr  Cr9  1  0.744986  0.000000  0.500000  1
  Cr  Cr10  1  0.746318  0.500000  0.000000  1
  Cr  Cr11  1  0.253631  0.500000  0.000000  1
  O  O12  1  0.248420  0.106149  0.294888  1
  O  O13  1  0.745478  0.890340  0.712349  1
  O  O14  1  0.248420  0.893851  0.705112  1
  O  O15  1  0.748706  0.386311  0.787286  1
  O  O16  1  0.745478  0.109660  0.287651  1
  O  O17  1  0.251850  0.611579  0.212518  1
  O  O18  1  0.748706  0.613689  0.212714  1
  O  O19  1  0.251850  0.388421  0.787482  1
  O  O20  1  0.000367  0.342019  0.078699  1
  O  O21  1  0.000367  0.657981  0.921301  1
  O  O22  1  0.010874  0.152907  0.572924  1
  O  O23  1  0.010874  0.847093  0.427076  1
  O  O24  1  0.499716  0.332579  0.060979  1
  O  O25  1  0.499716  0.667421  0.939021  1
  O  O26  1  0.490419  0.162833  0.558090  1
  O  O27  1  0.490419  0.837167  0.441910  1
  O  O28  1  0.223337  0.000000  0.000000  1
  O  O29  1  0.781032  0.000000  0.000000  1
  O  O30  1  0.779205  0.500000  0.500000  1
  O  O31  1  0.220439  0.500000  0.500000  1
