# generated using pymatgen
data_CaYb11Cu12Si11Hg
_symmetry_space_group_name_H-M   'P 1'
_cell_length_a   4.27129700
_cell_length_b   7.28028102
_cell_length_c   21.06537556
_cell_angle_alpha   90.08073116
_cell_angle_beta   90.00000000
_cell_angle_gamma   90.00000000
_symmetry_Int_Tables_number   1
_chemical_formula_structural   CaYb11Cu12Si11Hg
_chemical_formula_sum   'Ca1 Yb11 Cu12 Si11 Hg1'
_cell_volume   655.05337634
_cell_formula_units_Z   1
loop_
 _symmetry_equiv_pos_site_id
 _symmetry_equiv_pos_as_xyz
  1  'x, y, z'
loop_
 _atom_site_type_symbol
 _atom_site_label
 _atom_site_symmetry_multiplicity
 _atom_site_fract_x
 _atom_site_fract_y
 _atom_site_fract_z
 _atom_site_occupancy
  Ca  Ca0  1  0.250000  0.798986  0.833143  1
  Yb  Yb1  1  0.250000  0.710926  0.000038  1
  Yb  Yb2  1  0.750000  0.291897  0.994589  1
  Yb  Yb3  1  0.750000  0.210451  0.497203  1
  Yb  Yb4  1  0.250000  0.790370  0.502311  1
  Yb  Yb5  1  0.250000  0.800566  0.170600  1
  Yb  Yb6  1  0.750000  0.204525  0.832961  1
  Yb  Yb7  1  0.750000  0.296933  0.334602  1
  Yb  Yb8  1  0.250000  0.702464  0.666016  1
  Yb  Yb9  1  0.250000  0.700576  0.334205  1
  Yb  Yb10  1  0.750000  0.298223  0.666414  1
  Yb  Yb11  1  0.750000  0.199992  0.170029  1
  Cu  Cu12  1  0.250000  0.378752  0.097582  1
  Cu  Cu13  1  0.750000  0.583697  0.904263  1
  Cu  Cu14  1  0.750000  0.914010  0.403811  1
  Cu  Cu15  1  0.250000  0.086922  0.596336  1
  Cu  Cu16  1  0.250000  0.414535  0.235784  1
  Cu  Cu17  1  0.750000  0.584695  0.762034  1
  Cu  Cu18  1  0.750000  0.912146  0.264915  1
  Cu  Cu19  1  0.250000  0.091327  0.733762  1
  Cu  Cu20  1  0.250000  0.417355  0.438176  1
  Cu  Cu21  1  0.750000  0.582668  0.561895  1
  Cu  Cu22  1  0.750000  0.943581  0.056628  1
  Cu  Cu23  1  0.250000  0.084349  0.938906  1
  Si  Si24  1  0.250000  0.080149  0.065084  1
  Si  Si25  1  0.750000  0.910490  0.932230  1
  Si  Si26  1  0.750000  0.589385  0.435329  1
  Si  Si27  1  0.250000  0.410103  0.565869  1
  Si  Si28  1  0.250000  0.082927  0.274410  1
  Si  Si29  1  0.750000  0.919835  0.725843  1
  Si  Si30  1  0.750000  0.582931  0.236489  1
  Si  Si31  1  0.250000  0.419775  0.773124  1
  Si  Si32  1  0.250000  0.083764  0.394272  1
  Si  Si33  1  0.750000  0.915637  0.605241  1
  Si  Si34  1  0.250000  0.415770  0.894524  1
  Hg  Hg35  1  0.750000  0.589289  0.101382  1
