# generated using pymatgen
data_BaHf2(H6Os)2
_symmetry_space_group_name_H-M   'P 1'
_cell_length_a   4.83937500
_cell_length_b   4.83937639
_cell_length_c   8.17561500
_cell_angle_alpha   90.00000000
_cell_angle_beta   90.00000000
_cell_angle_gamma   119.99999736
_symmetry_Int_Tables_number   1
_chemical_formula_structural   BaHf2(H6Os)2
_chemical_formula_sum   'Ba1 Hf2 H12 Os2'
_cell_volume   165.81726692
_cell_formula_units_Z   1
loop_
 _symmetry_equiv_pos_site_id
 _symmetry_equiv_pos_as_xyz
  1  'x, y, z'
loop_
 _atom_site_type_symbol
 _atom_site_label
 _atom_site_symmetry_multiplicity
 _atom_site_fract_x
 _atom_site_fract_y
 _atom_site_fract_z
 _atom_site_occupancy
  Ba  Ba0  1  0.000000  0.000000  0.000000  1
  Hf  Hf1  1  0.666667  0.333333  0.359644  1
  Hf  Hf2  1  0.333333  0.666667  0.640356  1
  H  H3  1  0.154080  0.845920  0.395028  1
  H  H4  1  0.691841  0.845920  0.395028  1
  H  H5  1  0.154080  0.308159  0.395028  1
  H  H6  1  0.845920  0.154080  0.604972  1
  H  H7  1  0.308159  0.154080  0.604972  1
  H  H8  1  0.845920  0.691841  0.604972  1
  H  H9  1  0.497100  0.994202  0.833109  1
  H  H10  1  0.497100  0.502900  0.833109  1
  H  H11  1  0.005798  0.502900  0.833109  1
  H  H12  1  0.502900  0.005798  0.166891  1
  H  H13  1  0.502900  0.497100  0.166891  1
  H  H14  1  0.994202  0.497100  0.166891  1
  Os  Os15  1  0.666667  0.333333  0.702568  1
  Os  Os16  1  0.333333  0.666667  0.297432  1
