# generated using pymatgen
data_Ho5Zr3(As3Rh4)4
_symmetry_space_group_name_H-M   'P 1'
_cell_length_a   13.33399400
_cell_length_b   13.33399353
_cell_length_c   4.00982300
_cell_angle_alpha   90.00000000
_cell_angle_beta   90.00000000
_cell_angle_gamma   120.00000116
_symmetry_Int_Tables_number   1
_chemical_formula_structural   Ho5Zr3(As3Rh4)4
_chemical_formula_sum   'Ho5 Zr3 As12 Rh16'
_cell_volume   617.41378932
_cell_formula_units_Z   1
loop_
 _symmetry_equiv_pos_site_id
 _symmetry_equiv_pos_as_xyz
  1  'x, y, z'
loop_
 _atom_site_type_symbol
 _atom_site_label
 _atom_site_symmetry_multiplicity
 _atom_site_fract_x
 _atom_site_fract_y
 _atom_site_fract_z
 _atom_site_occupancy
  Ho  Ho0  1  0.187593  0.187593  0.500000  1
  Ho  Ho1  1  0.812407  0.000000  0.500000  1
  Ho  Ho2  1  0.000000  0.812407  0.500000  1
  Ho  Ho3  1  0.333333  0.666667  0.000000  1
  Ho  Ho4  1  0.666667  0.333333  0.000000  1
  Zr  Zr5  1  0.556385  0.556385  0.000000  1
  Zr  Zr6  1  0.443615  0.000000  0.000000  1
  Zr  Zr7  1  0.000000  0.443615  0.000000  1
  As  As8  1  0.824900  0.824900  0.000000  1
  As  As9  1  0.175100  0.000000  0.000000  1
  As  As10  1  0.000000  0.175100  0.000000  1
  As  As11  1  0.170867  0.486007  0.500000  1
  As  As12  1  0.513993  0.684859  0.500000  1
  As  As13  1  0.315141  0.829133  0.500000  1
  As  As14  1  0.684859  0.513993  0.500000  1
  As  As15  1  0.829133  0.315141  0.500000  1
  As  As16  1  0.486007  0.170867  0.500000  1
  As  As17  1  0.354039  0.354039  0.000000  1
  As  As18  1  0.645961  0.000000  0.000000  1
  As  As19  1  0.000000  0.645961  0.000000  1
  Rh  Rh20  1  0.719460  0.719460  0.500000  1
  Rh  Rh21  1  0.280540  0.000000  0.500000  1
  Rh  Rh22  1  0.000000  0.280540  0.500000  1
  Rh  Rh23  1  0.176543  0.373723  0.000000  1
  Rh  Rh24  1  0.626277  0.802820  0.000000  1
  Rh  Rh25  1  0.197180  0.823457  0.000000  1
  Rh  Rh26  1  0.802820  0.626277  0.000000  1
  Rh  Rh27  1  0.823457  0.197180  0.000000  1
  Rh  Rh28  1  0.373723  0.176543  0.000000  1
  Rh  Rh29  1  0.354822  0.482407  0.500000  1
  Rh  Rh30  1  0.517593  0.872416  0.500000  1
  Rh  Rh31  1  0.127584  0.645178  0.500000  1
  Rh  Rh32  1  0.872416  0.517593  0.500000  1
  Rh  Rh33  1  0.645178  0.127584  0.500000  1
  Rh  Rh34  1  0.482407  0.354822  0.500000  1
  Rh  Rh35  1  0.000000  0.000000  0.000000  1
