# generated using pymatgen
data_Mn(CrAs)4
_symmetry_space_group_name_H-M   'P 1'
_cell_length_a   6.64709834
_cell_length_b   6.64709711
_cell_length_c   6.64716293
_cell_angle_alpha   93.22881227
_cell_angle_beta   93.22338676
_cell_angle_gamma   152.55380648
_symmetry_Int_Tables_number   1
_chemical_formula_structural   Mn(CrAs)4
_chemical_formula_sum   'Mn1 Cr4 As4'
_cell_volume   131.50567509
_cell_formula_units_Z   1
loop_
 _symmetry_equiv_pos_site_id
 _symmetry_equiv_pos_as_xyz
  1  'x, y, z'
loop_
 _atom_site_type_symbol
 _atom_site_label
 _atom_site_symmetry_multiplicity
 _atom_site_fract_x
 _atom_site_fract_y
 _atom_site_fract_z
 _atom_site_occupancy
  Mn  Mn0  1  0.999999  0.000006  0.999996  1
  Cr  Cr1  1  0.696651  0.382215  0.078892  1
  Cr  Cr2  1  0.617762  0.696678  0.314427  1
  Cr  Cr3  1  0.382253  0.303341  0.685605  1
  Cr  Cr4  1  0.303352  0.617758  0.921091  1
  As  As5  1  0.937321  0.281923  0.219244  1
  As  As6  1  0.281923  0.062669  0.344593  1
  As  As7  1  0.718069  0.937333  0.655399  1
  As  As8  1  0.062673  0.718081  0.780751  1
