# generated using pymatgen
data_V4Ga(SeS)4
_symmetry_space_group_name_H-M   'P 1'
_cell_length_a   7.13528469
_cell_length_b   7.13528428
_cell_length_c   7.13528400
_cell_angle_alpha   60.00000128
_cell_angle_beta   60.00000318
_cell_angle_gamma   59.99999487
_symmetry_Int_Tables_number   1
_chemical_formula_structural   V4Ga(SeS)4
_chemical_formula_sum   'V4 Ga1 Se4 S4'
_cell_volume   256.87323174
_cell_formula_units_Z   1
loop_
 _symmetry_equiv_pos_site_id
 _symmetry_equiv_pos_as_xyz
  1  'x, y, z'
loop_
 _atom_site_type_symbol
 _atom_site_label
 _atom_site_symmetry_multiplicity
 _atom_site_fract_x
 _atom_site_fract_y
 _atom_site_fract_z
 _atom_site_occupancy
  V  V0  1  0.398476  0.398476  0.804570  1
  V  V1  1  0.398476  0.804570  0.398476  1
  V  V2  1  0.804570  0.398476  0.398476  1
  V  V3  1  0.398476  0.398476  0.398476  1
  Ga  Ga4  1  0.000000  0.000000  0.000000  1
  Se  Se5  1  0.137636  0.137636  0.587094  1
  Se  Se6  1  0.137636  0.587094  0.137636  1
  Se  Se7  1  0.587094  0.137636  0.137636  1
  Se  Se8  1  0.137636  0.137636  0.137636  1
  S  S9  1  0.625322  0.625322  0.124034  1
  S  S10  1  0.625322  0.124034  0.625322  1
  S  S11  1  0.124034  0.625322  0.625322  1
  S  S12  1  0.625322  0.625322  0.625322  1
