# generated using pymatgen
data_Sc3Al3CuAu2
_symmetry_space_group_name_H-M   'P 1'
_cell_length_a   7.16126000
_cell_length_b   7.16126079
_cell_length_c   7.31519500
_cell_angle_alpha   90.00000000
_cell_angle_beta   90.00000000
_cell_angle_gamma   119.99999633
_symmetry_Int_Tables_number   1
_chemical_formula_structural   Sc3Al3CuAu2
_chemical_formula_sum   'Sc6 Al6 Cu2 Au4'
_cell_volume   324.88935869
_cell_formula_units_Z   2
loop_
 _symmetry_equiv_pos_site_id
 _symmetry_equiv_pos_as_xyz
  1  'x, y, z'
loop_
 _atom_site_type_symbol
 _atom_site_label
 _atom_site_symmetry_multiplicity
 _atom_site_fract_x
 _atom_site_fract_y
 _atom_site_fract_z
 _atom_site_occupancy
  Sc  Sc0  1  0.592147  0.984792  0.750000  1
  Sc  Sc1  1  0.015208  0.607354  0.750000  1
  Sc  Sc2  1  0.392646  0.407853  0.750000  1
  Sc  Sc3  1  0.984792  0.592147  0.250000  1
  Sc  Sc4  1  0.607354  0.015208  0.250000  1
  Sc  Sc5  1  0.407853  0.392646  0.250000  1
  Al  Al6  1  0.755964  0.755964  0.000000  1
  Al  Al7  1  0.244036  0.000000  0.000000  1
  Al  Al8  1  0.000000  0.244036  0.000000  1
  Al  Al9  1  0.755964  0.755964  0.500000  1
  Al  Al10  1  0.244036  0.000000  0.500000  1
  Al  Al11  1  0.000000  0.244036  0.500000  1
  Cu  Cu12  1  0.000000  0.000000  0.750000  1
  Cu  Cu13  1  0.000000  0.000000  0.250000  1
  Au  Au14  1  0.666667  0.333333  0.979558  1
  Au  Au15  1  0.666667  0.333333  0.520442  1
  Au  Au16  1  0.333333  0.666667  0.479558  1
  Au  Au17  1  0.333333  0.666667  0.020442  1
