# generated using pymatgen
data_AcDy(Ni2B)12
_symmetry_space_group_name_H-M   'P 1'
_cell_length_a   6.05714444
_cell_length_b   6.05714453
_cell_length_c   11.05202065
_cell_angle_alpha   90.19947158
_cell_angle_beta   90.19947239
_cell_angle_gamma   104.65653592
_symmetry_Int_Tables_number   1
_chemical_formula_structural   AcDy(Ni2B)12
_chemical_formula_sum   'Ac1 Dy1 Ni24 B12'
_cell_volume   392.28663600
_cell_formula_units_Z   1
loop_
 _symmetry_equiv_pos_site_id
 _symmetry_equiv_pos_as_xyz
  1  'x, y, z'
loop_
 _atom_site_type_symbol
 _atom_site_label
 _atom_site_symmetry_multiplicity
 _atom_site_fract_x
 _atom_site_fract_y
 _atom_site_fract_z
 _atom_site_occupancy
  Ac  Ac0  1  0.832625  0.832625  0.501595  1
  Dy  Dy1  1  0.165876  0.165876  0.995552  1
  Ni  Ni2  1  0.564444  0.564444  0.919366  1
  Ni  Ni3  1  0.426958  0.426958  0.414064  1
  Ni  Ni4  1  0.782426  0.782426  0.097894  1
  Ni  Ni5  1  0.225858  0.225858  0.600695  1
  Ni  Ni6  1  0.539207  0.805153  0.737824  1
  Ni  Ni7  1  0.805153  0.539207  0.737824  1
  Ni  Ni8  1  0.457869  0.195555  0.231455  1
  Ni  Ni9  1  0.195555  0.457869  0.231455  1
  Ni  Ni10  1  0.146302  0.881984  0.758782  1
  Ni  Ni11  1  0.881984  0.146302  0.758782  1
  Ni  Ni12  1  0.854308  0.121497  0.253551  1
  Ni  Ni13  1  0.121497  0.854308  0.253551  1
  Ni  Ni14  1  0.655005  0.275872  0.567806  1
  Ni  Ni15  1  0.275872  0.655005  0.567806  1
  Ni  Ni16  1  0.340516  0.729401  0.066616  1
  Ni  Ni17  1  0.729401  0.340516  0.066616  1
  Ni  Ni18  1  0.630127  0.994990  0.937830  1
  Ni  Ni19  1  0.994990  0.630127  0.937830  1
  Ni  Ni20  1  0.371805  0.006076  0.436522  1
  Ni  Ni21  1  0.006076  0.371805  0.436522  1
  Ni  Ni22  1  0.473706  0.209242  0.777858  1
  Ni  Ni23  1  0.209242  0.473706  0.777858  1
  Ni  Ni24  1  0.524526  0.787951  0.271423  1
  Ni  Ni25  1  0.787951  0.524526  0.271423  1
  B  B26  1  0.835959  0.835959  0.837793  1
  B  B27  1  0.165613  0.165613  0.330148  1
  B  B28  1  0.485070  0.485070  0.666597  1
  B  B29  1  0.512269  0.512269  0.152098  1
  B  B30  1  0.324699  0.755678  0.886906  1
  B  B31  1  0.755678  0.324699  0.886906  1
  B  B32  1  0.675826  0.252500  0.383810  1
  B  B33  1  0.252500  0.675826  0.383810  1
  B  B34  1  0.396114  0.985958  0.623293  1
  B  B35  1  0.985958  0.396114  0.623293  1
  B  B36  1  0.599292  0.011741  0.121421  1
  B  B37  1  0.011741  0.599292  0.121421  1
