# generated using pymatgen
data_Cs2CoRh3Se8
_symmetry_space_group_name_H-M   'P 1'
_cell_length_a   6.24164019
_cell_length_b   7.45408964
_cell_length_c   17.02058453
_cell_angle_alpha   90.32972669
_cell_angle_beta   90.52883423
_cell_angle_gamma   86.40607402
_symmetry_Int_Tables_number   1
_chemical_formula_structural   Cs2CoRh3Se8
_chemical_formula_sum   'Cs4 Co2 Rh6 Se16'
_cell_volume   790.29373137
_cell_formula_units_Z   2
loop_
 _symmetry_equiv_pos_site_id
 _symmetry_equiv_pos_as_xyz
  1  'x, y, z'
loop_
 _atom_site_type_symbol
 _atom_site_label
 _atom_site_symmetry_multiplicity
 _atom_site_fract_x
 _atom_site_fract_y
 _atom_site_fract_z
 _atom_site_occupancy
  Cs  Cs0  1  0.374105  0.985154  0.996303  1
  Cs  Cs1  1  0.611077  0.509593  0.502412  1
  Cs  Cs2  1  0.014325  0.000208  0.503837  1
  Cs  Cs3  1  0.973417  0.492087  0.999870  1
  Co  Co4  1  0.995469  0.497024  0.753989  1
  Co  Co5  1  0.510920  0.258235  0.746540  1
  Rh  Rh6  1  0.007467  0.001081  0.256273  1
  Rh  Rh7  1  0.036045  0.987984  0.747491  1
  Rh  Rh8  1  0.965217  0.515683  0.246348  1
  Rh  Rh9  1  0.492072  0.244726  0.248210  1
  Rh  Rh10  1  0.474046  0.767312  0.749949  1
  Rh  Rh11  1  0.527603  0.731483  0.249838  1
  Se  Se12  1  0.828621  0.265432  0.328478  1
  Se  Se13  1  0.836259  0.739493  0.677420  1
  Se  Se14  1  0.168179  0.751608  0.173979  1
  Se  Se15  1  0.186609  0.249361  0.822393  1
  Se  Se16  1  0.147716  0.244827  0.174689  1
  Se  Se17  1  0.151204  0.725329  0.829585  1
  Se  Se18  1  0.845847  0.765955  0.333675  1
  Se  Se19  1  0.844411  0.260437  0.678858  1
  Se  Se20  1  0.677750  0.986421  0.173345  1
  Se  Se21  1  0.677805  0.014087  0.820701  1
  Se  Se22  1  0.319568  0.501371  0.323456  1
  Se  Se23  1  0.315535  0.504097  0.677467  1
  Se  Se24  1  0.357408  0.996990  0.329749  1
  Se  Se25  1  0.364338  0.032006  0.668699  1
  Se  Se26  1  0.638184  0.475583  0.164968  1
  Se  Se27  1  0.658802  0.496434  0.821478  1
