# generated using pymatgen
data_Zr18VCo2Re6Mo
_symmetry_space_group_name_H-M   'P 1'
_cell_length_a   8.69978100
_cell_length_b   8.69977958
_cell_length_c   8.49171000
_cell_angle_alpha   90.00000000
_cell_angle_beta   90.00000000
_cell_angle_gamma   120.00000160
_symmetry_Int_Tables_number   1
_chemical_formula_structural   Zr18VCo2Re6Mo
_chemical_formula_sum   'Zr18 V1 Co2 Re6 Mo1'
_cell_volume   556.59890594
_cell_formula_units_Z   1
loop_
 _symmetry_equiv_pos_site_id
 _symmetry_equiv_pos_as_xyz
  1  'x, y, z'
loop_
 _atom_site_type_symbol
 _atom_site_label
 _atom_site_symmetry_multiplicity
 _atom_site_fract_x
 _atom_site_fract_y
 _atom_site_fract_z
 _atom_site_occupancy
  Zr  Zr0  1  0.542230  0.084460  0.249939  1
  Zr  Zr1  1  0.457770  0.915540  0.750061  1
  Zr  Zr2  1  0.915540  0.457770  0.249939  1
  Zr  Zr3  1  0.542230  0.457770  0.249939  1
  Zr  Zr4  1  0.457770  0.542230  0.750061  1
  Zr  Zr5  1  0.084460  0.542230  0.750061  1
  Zr  Zr6  1  0.198751  0.397502  0.057567  1
  Zr  Zr7  1  0.799685  0.599370  0.558732  1
  Zr  Zr8  1  0.602498  0.801249  0.057567  1
  Zr  Zr9  1  0.198751  0.801249  0.057567  1
  Zr  Zr10  1  0.799685  0.200315  0.558732  1
  Zr  Zr11  1  0.400630  0.200315  0.558732  1
  Zr  Zr12  1  0.801249  0.602498  0.942433  1
  Zr  Zr13  1  0.801249  0.198751  0.942433  1
  Zr  Zr14  1  0.397502  0.198751  0.942433  1
  Zr  Zr15  1  0.599370  0.799685  0.441268  1
  Zr  Zr16  1  0.200315  0.799685  0.441268  1
  Zr  Zr17  1  0.200315  0.400630  0.441268  1
  V  V18  1  0.000000  0.000000  0.000000  1
  Co  Co19  1  0.333333  0.666667  0.250309  1
  Co  Co20  1  0.666667  0.333333  0.749691  1
  Re  Re21  1  0.891336  0.782672  0.247029  1
  Re  Re22  1  0.108664  0.217328  0.752971  1
  Re  Re23  1  0.217328  0.108664  0.247029  1
  Re  Re24  1  0.891336  0.108664  0.247029  1
  Re  Re25  1  0.108664  0.891336  0.752971  1
  Re  Re26  1  0.782672  0.891336  0.752971  1
  Mo  Mo27  1  0.000000  0.000000  0.500000  1
