# generated using pymatgen
data_LiHo16In3Co4
_symmetry_space_group_name_H-M   'P 1'
_cell_length_a   9.48148664
_cell_length_b   9.44203781
_cell_length_c   9.44203800
_cell_angle_alpha   59.99999932
_cell_angle_beta   60.13753625
_cell_angle_gamma   60.13753935
_symmetry_Int_Tables_number   1
_chemical_formula_structural   LiHo16In3Co4
_chemical_formula_sum   'Li1 Ho16 In3 Co4'
_cell_volume   598.95285920
_cell_formula_units_Z   1
loop_
 _symmetry_equiv_pos_site_id
 _symmetry_equiv_pos_as_xyz
  1  'x, y, z'
loop_
 _atom_site_type_symbol
 _atom_site_label
 _atom_site_symmetry_multiplicity
 _atom_site_fract_x
 _atom_site_fract_y
 _atom_site_fract_z
 _atom_site_occupancy
  Li  Li0  1  0.286773  0.571075  0.571075  1
  Ho  Ho1  1  0.346918  0.345256  0.345256  1
  Ho  Ho2  1  0.346918  0.345256  0.962573  1
  Ho  Ho3  1  0.346918  0.962573  0.345256  1
  Ho  Ho4  1  0.957779  0.347407  0.347407  1
  Ho  Ho5  1  0.809595  0.189260  0.189260  1
  Ho  Ho6  1  0.185262  0.814208  0.814208  1
  Ho  Ho7  1  0.185262  0.814208  0.186322  1
  Ho  Ho8  1  0.809595  0.189260  0.811886  1
  Ho  Ho9  1  0.185262  0.186322  0.814208  1
  Ho  Ho10  1  0.809595  0.811886  0.189260  1
  Ho  Ho11  1  0.940535  0.560769  0.560769  1
  Ho  Ho12  1  0.561815  0.938253  0.938253  1
  Ho  Ho13  1  0.561815  0.938253  0.561679  1
  Ho  Ho14  1  0.940535  0.560769  0.937925  1
  Ho  Ho15  1  0.561815  0.561679  0.938253  1
  Ho  Ho16  1  0.940535  0.937925  0.560769  1
  In  In17  1  0.578582  0.583339  0.583339  1
  In  In18  1  0.578582  0.583339  0.254740  1
  In  In19  1  0.578582  0.254740  0.583339  1
  Co  Co20  1  0.137161  0.141965  0.141965  1
  Co  Co21  1  0.137161  0.141965  0.578908  1
  Co  Co22  1  0.137161  0.578908  0.141965  1
  Co  Co23  1  0.575845  0.141385  0.141385  1
