# generated using pymatgen
data_Sm2Y3ErTa2O14
_symmetry_space_group_name_H-M   'P 1'
_cell_length_a   6.49109304
_cell_length_b   6.48288204
_cell_length_c   7.58170600
_cell_angle_alpha   90.00000000
_cell_angle_beta   90.00000000
_cell_angle_gamma   109.47228530
_symmetry_Int_Tables_number   1
_chemical_formula_structural   Sm2Y3ErTa2O14
_chemical_formula_sum   'Sm2 Y3 Er1 Ta2 O14'
_cell_volume   300.79719268
_cell_formula_units_Z   1
loop_
 _symmetry_equiv_pos_site_id
 _symmetry_equiv_pos_as_xyz
  1  'x, y, z'
loop_
 _atom_site_type_symbol
 _atom_site_label
 _atom_site_symmetry_multiplicity
 _atom_site_fract_x
 _atom_site_fract_y
 _atom_site_fract_z
 _atom_site_occupancy
  Sm  Sm0  1  0.497864  0.498444  0.500562  1
  Sm  Sm1  1  0.497864  0.498444  0.999438  1
  Y  Y2  1  0.533669  0.000325  0.750000  1
  Y  Y3  1  0.000392  0.533118  0.250000  1
  Y  Y4  1  0.466401  0.999418  0.250000  1
  Er  Er5  1  0.998683  0.466238  0.750000  1
  Ta  Ta6  1  0.999826  0.999734  0.500597  1
  Ta  Ta7  1  0.999826  0.999734  0.999403  1
  O  O8  1  0.679485  0.927731  0.468234  1
  O  O9  1  0.933059  0.680343  0.535425  1
  O  O10  1  0.679485  0.927731  0.031766  1
  O  O11  1  0.933059  0.680343  0.964575  1
  O  O12  1  0.321371  0.072531  0.531117  1
  O  O13  1  0.070016  0.321548  0.469767  1
  O  O14  1  0.321371  0.072531  0.968883  1
  O  O15  1  0.070016  0.321548  0.030233  1
  O  O16  1  0.935709  0.066530  0.750000  1
  O  O17  1  0.062430  0.935006  0.250000  1
  O  O18  1  0.363413  0.631512  0.750000  1
  O  O19  1  0.633702  0.367438  0.250000  1
  O  O20  1  0.643123  0.360325  0.750000  1
  O  O21  1  0.359233  0.639427  0.250000  1
