# generated using pymatgen
data_Pr5(In2Ir)2
_symmetry_space_group_name_H-M   'P 1'
_cell_length_a   3.85612000
_cell_length_b   8.27404000
_cell_length_c   18.73424100
_cell_angle_alpha   90.00000000
_cell_angle_beta   90.00000000
_cell_angle_gamma   90.00000000
_symmetry_Int_Tables_number   1
_chemical_formula_structural   Pr5(In2Ir)2
_chemical_formula_sum   'Pr10 In8 Ir4'
_cell_volume   597.72890680
_cell_formula_units_Z   2
loop_
 _symmetry_equiv_pos_site_id
 _symmetry_equiv_pos_as_xyz
  1  'x, y, z'
loop_
 _atom_site_type_symbol
 _atom_site_label
 _atom_site_symmetry_multiplicity
 _atom_site_fract_x
 _atom_site_fract_y
 _atom_site_fract_z
 _atom_site_occupancy
  Pr  Pr0  1  0.000000  0.115892  0.410618  1
  Pr  Pr1  1  0.000000  0.884108  0.589382  1
  Pr  Pr2  1  0.000000  0.384108  0.910618  1
  Pr  Pr3  1  0.000000  0.615892  0.089382  1
  Pr  Pr4  1  0.000000  0.242274  0.219717  1
  Pr  Pr5  1  0.000000  0.757726  0.780283  1
  Pr  Pr6  1  0.000000  0.257726  0.719717  1
  Pr  Pr7  1  0.000000  0.742274  0.280283  1
  Pr  Pr8  1  0.000000  0.000000  0.000000  1
  Pr  Pr9  1  0.000000  0.500000  0.500000  1
  In  In10  1  0.500000  0.429772  0.349110  1
  In  In11  1  0.500000  0.570228  0.650890  1
  In  In12  1  0.500000  0.070228  0.849110  1
  In  In13  1  0.500000  0.929772  0.150890  1
  In  In14  1  0.500000  0.292814  0.068643  1
  In  In15  1  0.500000  0.707186  0.931357  1
  In  In16  1  0.500000  0.207186  0.568643  1
  In  In17  1  0.500000  0.792814  0.431357  1
  Ir  Ir18  1  0.500000  0.013890  0.303686  1
  Ir  Ir19  1  0.500000  0.986110  0.696314  1
  Ir  Ir20  1  0.500000  0.486110  0.803686  1
  Ir  Ir21  1  0.500000  0.513890  0.196314  1
