# generated using pymatgen
data_Pr19SmSi15Os
_symmetry_space_group_name_H-M   'P 1'
_cell_length_a   7.92821728
_cell_length_b   7.93326475
_cell_length_c   15.29515812
_cell_angle_alpha   90.19917142
_cell_angle_beta   89.88869551
_cell_angle_gamma   90.01394952
_symmetry_Int_Tables_number   1
_chemical_formula_structural   Pr19SmSi15Os
_chemical_formula_sum   'Pr19 Sm1 Si15 Os1'
_cell_volume   962.00650137
_cell_formula_units_Z   1
loop_
 _symmetry_equiv_pos_site_id
 _symmetry_equiv_pos_as_xyz
  1  'x, y, z'
loop_
 _atom_site_type_symbol
 _atom_site_label
 _atom_site_symmetry_multiplicity
 _atom_site_fract_x
 _atom_site_fract_y
 _atom_site_fract_z
 _atom_site_occupancy
  Pr  Pr0  1  0.191807  0.808832  0.249645  1
  Pr  Pr1  1  0.825038  0.188937  0.749010  1
  Pr  Pr2  1  0.695199  0.688847  0.501844  1
  Pr  Pr3  1  0.371680  0.011924  0.450158  1
  Pr  Pr4  1  0.485366  0.880890  0.697069  1
  Pr  Pr5  1  0.510568  0.123824  0.198106  1
  Pr  Pr6  1  0.876245  0.488514  0.300579  1
  Pr  Pr7  1  0.127341  0.503918  0.799112  1
  Pr  Pr8  1  0.625439  0.988494  0.948449  1
  Pr  Pr9  1  0.008501  0.375142  0.552092  1
  Pr  Pr10  1  0.988032  0.624909  0.050782  1
  Pr  Pr11  1  0.133426  0.984404  0.872710  1
  Pr  Pr12  1  0.516863  0.630296  0.125961  1
  Pr  Pr13  1  0.472059  0.360735  0.628933  1
  Pr  Pr14  1  0.627042  0.514745  0.874086  1
  Pr  Pr15  1  0.374872  0.483381  0.373299  1
  Pr  Pr16  1  0.872894  0.020412  0.376317  1
  Pr  Pr17  1  0.982192  0.127098  0.124227  1
  Pr  Pr18  1  0.026220  0.881251  0.626445  1
  Sm  Sm19  1  0.307171  0.307222  0.998740  1
  Si  Si20  1  0.332812  0.693352  0.951540  1
  Si  Si21  1  0.664177  0.302340  0.451692  1
  Si  Si22  1  0.695065  0.333540  0.049305  1
  Si  Si23  1  0.304235  0.668226  0.547217  1
  Si  Si24  1  0.805243  0.832167  0.202961  1
  Si  Si25  1  0.167974  0.197906  0.298061  1
  Si  Si26  1  0.831977  0.801721  0.800135  1
  Si  Si27  1  0.288489  0.924075  0.057952  1
  Si  Si28  1  0.580029  0.787419  0.310608  1
  Si  Si29  1  0.421254  0.209306  0.813300  1
  Si  Si30  1  0.779181  0.583349  0.691424  1
  Si  Si31  1  0.212575  0.420617  0.188781  1
  Si  Si32  1  0.704462  0.074095  0.558319  1
  Si  Si33  1  0.921688  0.288170  0.942228  1
  Si  Si34  1  0.079586  0.715231  0.440823  1
  Os  Os35  1  0.193298  0.174712  0.698088  1
