# generated using pymatgen
data_Ba3ScInWO9
_symmetry_space_group_name_H-M   'P 1'
_cell_length_a   5.93623200
_cell_length_b   5.93623261
_cell_length_c   7.28901200
_cell_angle_alpha   90.00000000
_cell_angle_beta   90.00000000
_cell_angle_gamma   119.99998544
_symmetry_Int_Tables_number   1
_chemical_formula_structural   Ba3ScInWO9
_chemical_formula_sum   'Ba3 Sc1 In1 W1 O9'
_cell_volume   222.44422584
_cell_formula_units_Z   1
loop_
 _symmetry_equiv_pos_site_id
 _symmetry_equiv_pos_as_xyz
  1  'x, y, z'
loop_
 _atom_site_type_symbol
 _atom_site_label
 _atom_site_symmetry_multiplicity
 _atom_site_fract_x
 _atom_site_fract_y
 _atom_site_fract_z
 _atom_site_occupancy
  Ba  Ba0  1  0.000000  0.000000  0.499628  1
  Ba  Ba1  1  0.666667  0.333333  0.819248  1
  Ba  Ba2  1  0.333333  0.666667  0.178306  1
  Sc  Sc3  1  0.333333  0.666667  0.655586  1
  In  In4  1  0.666667  0.333333  0.336997  1
  W  W5  1  0.000000  0.000000  0.996462  1
  O  O6  1  0.686627  0.843313  0.845466  1
  O  O7  1  0.313550  0.156775  0.153657  1
  O  O8  1  0.006075  0.503037  0.505468  1
  O  O9  1  0.496963  0.993925  0.505468  1
  O  O10  1  0.156687  0.313373  0.845466  1
  O  O11  1  0.843225  0.686450  0.153657  1
  O  O12  1  0.496963  0.503037  0.505468  1
  O  O13  1  0.156687  0.843313  0.845466  1
  O  O14  1  0.843225  0.156775  0.153657  1
