# generated using pymatgen
data_EuCu3(NiO3)4
_symmetry_space_group_name_H-M   'P 1'
_cell_length_a   6.36397050
_cell_length_b   6.37480450
_cell_length_c   6.35870985
_cell_angle_alpha   70.53356925
_cell_angle_beta   70.37382156
_cell_angle_gamma   109.58959979
_symmetry_Int_Tables_number   1
_chemical_formula_structural   EuCu3(NiO3)4
_chemical_formula_sum   'Eu1 Cu3 Ni4 O12'
_cell_volume   197.92183413
_cell_formula_units_Z   1
loop_
 _symmetry_equiv_pos_site_id
 _symmetry_equiv_pos_as_xyz
  1  'x, y, z'
loop_
 _atom_site_type_symbol
 _atom_site_label
 _atom_site_symmetry_multiplicity
 _atom_site_fract_x
 _atom_site_fract_y
 _atom_site_fract_z
 _atom_site_occupancy
  Eu  Eu0  1  0.000067  0.000054  0.999856  1
  Cu  Cu1  1  0.499854  0.000086  0.500152  1
  Cu  Cu2  1  0.499813  0.499848  0.999910  1
  Cu  Cu3  1  0.999823  0.499589  0.500144  1
  Ni  Ni4  1  0.000191  0.500243  0.999975  1
  Ni  Ni5  1  0.499855  0.499655  0.500301  1
  Ni  Ni6  1  0.500110  0.000053  0.999674  1
  Ni  Ni7  1  0.000060  0.000229  0.500170  1
  O  O8  1  0.858541  0.690020  0.831278  1
  O  O9  1  0.479014  0.310559  0.831387  1
  O  O10  1  0.520892  0.689577  0.168709  1
  O  O11  1  0.141320  0.309965  0.168836  1
  O  O12  1  0.831477  0.142138  0.689893  1
  O  O13  1  0.831797  0.521370  0.310365  1
  O  O14  1  0.168292  0.478727  0.689523  1
  O  O15  1  0.168605  0.857967  0.309997  1
  O  O16  1  0.310169  0.168098  0.521617  1
  O  O17  1  0.690209  0.168421  0.141476  1
  O  O18  1  0.309901  0.831570  0.858492  1
  O  O19  1  0.690009  0.831830  0.478247  1
