# generated using pymatgen
data_UCrO6
_symmetry_space_group_name_H-M   'P 1'
_cell_length_a   5.99638100
_cell_length_b   7.11234692
_cell_length_c   13.51408083
_cell_angle_alpha   75.09801939
_cell_angle_beta   90.00000000
_cell_angle_gamma   90.00000000
_symmetry_Int_Tables_number   1
_chemical_formula_structural   UCrO6
_chemical_formula_sum   'U4 Cr4 O24'
_cell_volume   556.96876477
_cell_formula_units_Z   4
loop_
 _symmetry_equiv_pos_site_id
 _symmetry_equiv_pos_as_xyz
  1  'x, y, z'
loop_
 _atom_site_type_symbol
 _atom_site_label
 _atom_site_symmetry_multiplicity
 _atom_site_fract_x
 _atom_site_fract_y
 _atom_site_fract_z
 _atom_site_occupancy
  U  U0  1  0.223490  0.332674  0.846722  1
  U  U1  1  0.723490  0.667326  0.653278  1
  U  U2  1  0.776510  0.667326  0.153278  1
  U  U3  1  0.276510  0.332674  0.346722  1
  Cr  Cr4  1  0.054201  0.792450  0.390641  1
  Cr  Cr5  1  0.445799  0.792450  0.890641  1
  Cr  Cr6  1  0.945799  0.207550  0.609359  1
  Cr  Cr7  1  0.554201  0.207550  0.109359  1
  O  O8  1  0.477080  0.426960  0.772505  1
  O  O9  1  0.261697  0.639380  0.387432  1
  O  O10  1  0.030530  0.746997  0.085470  1
  O  O11  1  0.469470  0.746997  0.585470  1
  O  O12  1  0.530530  0.253003  0.414530  1
  O  O13  1  0.612259  0.790391  0.792908  1
  O  O14  1  0.522920  0.573040  0.227495  1
  O  O15  1  0.348375  0.016738  0.878595  1
  O  O16  1  0.112259  0.209609  0.707092  1
  O  O17  1  0.761697  0.360620  0.112568  1
  O  O18  1  0.969470  0.253003  0.914530  1
  O  O19  1  0.848375  0.983262  0.621405  1
  O  O20  1  0.977080  0.573040  0.727495  1
  O  O21  1  0.651625  0.983262  0.121405  1
  O  O22  1  0.387741  0.209609  0.207092  1
  O  O23  1  0.912681  0.716516  0.500106  1
  O  O24  1  0.151625  0.016738  0.378595  1
  O  O25  1  0.087319  0.283484  0.499894  1
  O  O26  1  0.238303  0.639380  0.887432  1
  O  O27  1  0.587319  0.716516  0.000106  1
  O  O28  1  0.887741  0.790391  0.292908  1
  O  O29  1  0.412681  0.283484  0.999894  1
  O  O30  1  0.022920  0.426960  0.272505  1
  O  O31  1  0.738303  0.360620  0.612568  1
