# generated using pymatgen
data_Sc2Si3PbO10
_symmetry_space_group_name_H-M   'P 1'
_cell_length_a   11.97377500
_cell_length_b   5.31658647
_cell_length_c   6.65810038
_cell_angle_alpha   72.79308946
_cell_angle_beta   90.00000000
_cell_angle_gamma   90.00000000
_symmetry_Int_Tables_number   1
_chemical_formula_structural   Sc2Si3PbO10
_chemical_formula_sum   'Sc4 Si6 Pb2 O20'
_cell_volume   404.88159557
_cell_formula_units_Z   2
loop_
 _symmetry_equiv_pos_site_id
 _symmetry_equiv_pos_as_xyz
  1  'x, y, z'
loop_
 _atom_site_type_symbol
 _atom_site_label
 _atom_site_symmetry_multiplicity
 _atom_site_fract_x
 _atom_site_fract_y
 _atom_site_fract_z
 _atom_site_occupancy
  Sc  Sc0  1  0.100085  0.840699  0.677872  1
  Sc  Sc1  1  0.600085  0.159301  0.322128  1
  Sc  Sc2  1  0.899915  0.159301  0.322128  1
  Sc  Sc3  1  0.399915  0.840699  0.677872  1
  Si  Si4  1  0.250000  0.430487  0.480992  1
  Si  Si5  1  0.750000  0.569513  0.519008  1
  Si  Si6  1  0.053939  0.700035  0.208959  1
  Si  Si7  1  0.553939  0.299965  0.791041  1
  Si  Si8  1  0.946061  0.299965  0.791041  1
  Si  Si9  1  0.446061  0.700035  0.208959  1
  Pb  Pb10  1  0.250000  0.210490  0.988307  1
  Pb  Pb11  1  0.750000  0.789510  0.011693  1
  O  O12  1  0.250000  0.660190  0.600115  1
  O  O13  1  0.750000  0.339810  0.399885  1
  O  O14  1  0.250000  0.130131  0.646021  1
  O  O15  1  0.750000  0.869869  0.353979  1
  O  O16  1  0.140410  0.457530  0.330494  1
  O  O17  1  0.640410  0.542470  0.669506  1
  O  O18  1  0.859590  0.542470  0.669506  1
  O  O19  1  0.359590  0.457530  0.330494  1
  O  O20  1  0.938197  0.547803  0.190951  1
  O  O21  1  0.438197  0.452197  0.809049  1
  O  O22  1  0.061803  0.452197  0.809049  1
  O  O23  1  0.561803  0.547803  0.190951  1
  O  O24  1  0.113032  0.862423  0.985798  1
  O  O25  1  0.613032  0.137577  0.014202  1
  O  O26  1  0.886968  0.137577  0.014202  1
  O  O27  1  0.386968  0.862423  0.985798  1
  O  O28  1  0.039741  0.894626  0.360800  1
  O  O29  1  0.539741  0.105374  0.639200  1
  O  O30  1  0.960259  0.105374  0.639200  1
  O  O31  1  0.460259  0.894626  0.360800  1
