# generated using pymatgen
data_Tb3Cd2SnPdPt2
_symmetry_space_group_name_H-M   'P 1'
_cell_length_a   7.77091400
_cell_length_b   7.79886958
_cell_length_c   3.78630300
_cell_angle_alpha   90.00000000
_cell_angle_beta   90.00000000
_cell_angle_gamma   119.88149409
_symmetry_Int_Tables_number   1
_chemical_formula_structural   Tb3Cd2SnPdPt2
_chemical_formula_sum   'Tb3 Cd2 Sn1 Pd1 Pt2'
_cell_volume   198.96062222
_cell_formula_units_Z   1
loop_
 _symmetry_equiv_pos_site_id
 _symmetry_equiv_pos_as_xyz
  1  'x, y, z'
loop_
 _atom_site_type_symbol
 _atom_site_label
 _atom_site_symmetry_multiplicity
 _atom_site_fract_x
 _atom_site_fract_y
 _atom_site_fract_z
 _atom_site_occupancy
  Tb  Tb0  1  0.592476  0.000000  0.000000  1
  Tb  Tb1  1  0.998307  0.588694  0.000000  1
  Tb  Tb2  1  0.409613  0.411306  0.000000  1
  Cd  Cd3  1  0.000057  0.260481  0.500000  1
  Cd  Cd4  1  0.739577  0.739519  0.500000  1
  Sn  Sn5  1  0.256532  0.000000  0.500000  1
  Pd  Pd6  1  0.008191  0.000000  0.000000  1
  Pt  Pt7  1  0.332621  0.669995  0.500000  1
  Pt  Pt8  1  0.662626  0.330005  0.500000  1
