# generated using pymatgen
data_Tm3Zn2In3Rh
_symmetry_space_group_name_H-M   'P 1'
_cell_length_a   7.70455300
_cell_length_b   7.70455308
_cell_length_c   3.79450000
_cell_angle_alpha   90.00000000
_cell_angle_beta   90.00000000
_cell_angle_gamma   120.00000281
_symmetry_Int_Tables_number   1
_chemical_formula_structural   Tm3Zn2In3Rh
_chemical_formula_sum   'Tm3 Zn2 In3 Rh1'
_cell_volume   195.06532469
_cell_formula_units_Z   1
loop_
 _symmetry_equiv_pos_site_id
 _symmetry_equiv_pos_as_xyz
  1  'x, y, z'
loop_
 _atom_site_type_symbol
 _atom_site_label
 _atom_site_symmetry_multiplicity
 _atom_site_fract_x
 _atom_site_fract_y
 _atom_site_fract_z
 _atom_site_occupancy
  Tm  Tm0  1  0.973136  0.388564  0.500000  1
  Tm  Tm1  1  0.611436  0.584572  0.500000  1
  Tm  Tm2  1  0.415428  0.026864  0.500000  1
  Zn  Zn3  1  0.333333  0.666667  0.000000  1
  Zn  Zn4  1  0.000000  0.000000  0.500000  1
  In  In5  1  0.261451  0.269043  0.000000  1
  In  In6  1  0.007591  0.738549  0.000000  1
  In  In7  1  0.730957  0.992409  0.000000  1
  Rh  Rh8  1  0.666667  0.333333  0.000000  1
