# generated using pymatgen
data_HoMnSbO6
_symmetry_space_group_name_H-M   'P 1'
_cell_length_a   5.13683045
_cell_length_b   5.13679396
_cell_length_c   4.89926904
_cell_angle_alpha   90.02997355
_cell_angle_beta   90.02941151
_cell_angle_gamma   119.97122363
_symmetry_Int_Tables_number   1
_chemical_formula_structural   HoMnSbO6
_chemical_formula_sum   'Ho1 Mn1 Sb1 O6'
_cell_volume   111.98888615
_cell_formula_units_Z   1
loop_
 _symmetry_equiv_pos_site_id
 _symmetry_equiv_pos_as_xyz
  1  'x, y, z'
loop_
 _atom_site_type_symbol
 _atom_site_label
 _atom_site_symmetry_multiplicity
 _atom_site_fract_x
 _atom_site_fract_y
 _atom_site_fract_z
 _atom_site_occupancy
  Ho  Ho0  1  0.517536  0.482467  0.500005  1
  Mn  Mn1  1  0.850548  0.149459  0.000001  1
  Sb  Sb2  1  0.184279  0.815720  0.000002  1
  O  O3  1  0.152019  0.127488  0.221146  1
  O  O4  1  0.528230  0.849686  0.222156  1
  O  O5  1  0.874269  0.473000  0.221936  1
  O  O6  1  0.527005  0.125736  0.778071  1
  O  O7  1  0.150313  0.471772  0.777851  1
  O  O8  1  0.872515  0.847979  0.778861  1
