# generated using pymatgen
data_Ho7Th(CoHg)2
_symmetry_space_group_name_H-M   'P 1'
_cell_length_a   9.45965364
_cell_length_b   9.45965300
_cell_length_c   9.48747200
_cell_angle_alpha   59.90267117
_cell_angle_beta   59.90267340
_cell_angle_gamma   60.05227649
_symmetry_Int_Tables_number   1
_chemical_formula_structural   Ho7Th(CoHg)2
_chemical_formula_sum   'Ho14 Th2 Co4 Hg4'
_cell_volume   599.67544666
_cell_formula_units_Z   2
loop_
 _symmetry_equiv_pos_site_id
 _symmetry_equiv_pos_as_xyz
  1  'x, y, z'
loop_
 _atom_site_type_symbol
 _atom_site_label
 _atom_site_symmetry_multiplicity
 _atom_site_fract_x
 _atom_site_fract_y
 _atom_site_fract_z
 _atom_site_occupancy
  Ho  Ho0  1  0.350347  0.949021  0.350316  1
  Ho  Ho1  1  0.949021  0.350347  0.350316  1
  Ho  Ho2  1  0.812763  0.188486  0.187971  1
  Ho  Ho3  1  0.188486  0.812763  0.810779  1
  Ho  Ho4  1  0.188486  0.812763  0.187971  1
  Ho  Ho5  1  0.812763  0.188486  0.810779  1
  Ho  Ho6  1  0.186877  0.186877  0.813123  1
  Ho  Ho7  1  0.813009  0.813009  0.186991  1
  Ho  Ho8  1  0.938397  0.563005  0.563112  1
  Ho  Ho9  1  0.563005  0.938397  0.935486  1
  Ho  Ho10  1  0.563005  0.938397  0.563112  1
  Ho  Ho11  1  0.938397  0.563005  0.935486  1
  Ho  Ho12  1  0.563099  0.563099  0.936901  1
  Ho  Ho13  1  0.939815  0.939815  0.560185  1
  Th  Th14  1  0.342289  0.342289  0.347858  1
  Th  Th15  1  0.342289  0.342289  0.967563  1
  Co  Co16  1  0.143912  0.143912  0.140152  1
  Co  Co17  1  0.143912  0.143912  0.572022  1
  Co  Co18  1  0.148204  0.570332  0.140731  1
  Co  Co19  1  0.570332  0.148204  0.140731  1
  Hg  Hg20  1  0.585404  0.585404  0.582100  1
  Hg  Hg21  1  0.585404  0.585404  0.247094  1
  Hg  Hg22  1  0.587272  0.243512  0.584609  1
  Hg  Hg23  1  0.243512  0.587272  0.584609  1
