# generated using pymatgen
data_Dy4Ho2Al24GaOs7
_symmetry_space_group_name_H-M   'P 1'
_cell_length_a   8.86587276
_cell_length_b   8.86587281
_cell_length_c   9.54952498
_cell_angle_alpha   90.14938585
_cell_angle_beta   89.85061487
_cell_angle_gamma   119.91135835
_symmetry_Int_Tables_number   1
_chemical_formula_structural   Dy4Ho2Al24GaOs7
_chemical_formula_sum   'Dy4 Ho2 Al24 Ga1 Os7'
_cell_volume   650.63983098
_cell_formula_units_Z   1
loop_
 _symmetry_equiv_pos_site_id
 _symmetry_equiv_pos_as_xyz
  1  'x, y, z'
loop_
 _atom_site_type_symbol
 _atom_site_label
 _atom_site_symmetry_multiplicity
 _atom_site_fract_x
 _atom_site_fract_y
 _atom_site_fract_z
 _atom_site_occupancy
  Dy  Dy0  1  0.191512  0.385150  0.246033  1
  Dy  Dy1  1  0.808488  0.614850  0.753967  1
  Dy  Dy2  1  0.614850  0.808488  0.246033  1
  Dy  Dy3  1  0.385150  0.191512  0.753967  1
  Ho  Ho4  1  0.194664  0.805336  0.255162  1
  Ho  Ho5  1  0.805336  0.194664  0.744838  1
  Al  Al6  1  0.327172  0.672828  0.021911  1
  Al  Al7  1  0.672828  0.327172  0.978089  1
  Al  Al8  1  0.666064  0.333936  0.518290  1
  Al  Al9  1  0.333936  0.666064  0.481710  1
  Al  Al10  1  0.162488  0.325514  0.572229  1
  Al  Al11  1  0.837512  0.674486  0.427771  1
  Al  Al12  1  0.674486  0.837512  0.572229  1
  Al  Al13  1  0.852479  0.678823  0.081861  1
  Al  Al14  1  0.325514  0.162488  0.427771  1
  Al  Al15  1  0.147521  0.321177  0.918139  1
  Al  Al16  1  0.162940  0.837060  0.576013  1
  Al  Al17  1  0.321177  0.147521  0.081861  1
  Al  Al18  1  0.837060  0.162940  0.423987  1
  Al  Al19  1  0.678823  0.852479  0.918139  1
  Al  Al20  1  0.836759  0.163241  0.077002  1
  Al  Al21  1  0.163241  0.836759  0.922998  1
  Al  Al22  1  0.561682  0.121311  0.249391  1
  Al  Al23  1  0.438318  0.878689  0.750609  1
  Al  Al24  1  0.878689  0.438318  0.249391  1
  Al  Al25  1  0.121311  0.561682  0.750609  1
  Al  Al26  1  0.565496  0.434504  0.257904  1
  Al  Al27  1  0.434504  0.565496  0.742096  1
  Al  Al28  1  0.998971  0.001029  0.250718  1
  Al  Al29  1  0.001029  0.998971  0.749282  1
  Ga  Ga30  1  0.500000  0.500000  0.000000  1
  Os  Os31  1  0.500000  0.000000  0.000000  1
  Os  Os32  1  0.000000  0.500000  0.000000  1
  Os  Os33  1  0.500000  0.000000  0.500000  1
  Os  Os34  1  0.000000  0.500000  0.500000  1
  Os  Os35  1  0.500000  0.500000  0.500000  1
  Os  Os36  1  0.000000  0.000000  0.000000  1
  Os  Os37  1  0.000000  0.000000  0.500000  1
