# generated using pymatgen
data_Zr4P4IrRu3
_symmetry_space_group_name_H-M   'P 1'
_cell_length_a   3.88305200
_cell_length_b   6.50418093
_cell_length_c   7.37040486
_cell_angle_alpha   89.84448233
_cell_angle_beta   90.00000000
_cell_angle_gamma   90.00000000
_symmetry_Int_Tables_number   1
_chemical_formula_structural   Zr4P4IrRu3
_chemical_formula_sum   'Zr4 P4 Ir1 Ru3'
_cell_volume   186.14679566
_cell_formula_units_Z   1
loop_
 _symmetry_equiv_pos_site_id
 _symmetry_equiv_pos_as_xyz
  1  'x, y, z'
loop_
 _atom_site_type_symbol
 _atom_site_label
 _atom_site_symmetry_multiplicity
 _atom_site_fract_x
 _atom_site_fract_y
 _atom_site_fract_z
 _atom_site_occupancy
  Zr  Zr0  1  0.750000  0.523308  0.320435  1
  Zr  Zr1  1  0.250000  0.976938  0.820113  1
  Zr  Zr2  1  0.750000  0.021130  0.179009  1
  Zr  Zr3  1  0.250000  0.479971  0.679220  1
  P  P4  1  0.250000  0.729494  0.121091  1
  P  P5  1  0.250000  0.224965  0.383133  1
  P  P6  1  0.750000  0.272912  0.874276  1
  P  P7  1  0.750000  0.775638  0.620846  1
  Ir  Ir8  1  0.250000  0.347605  0.061415  1
  Ru  Ru9  1  0.250000  0.849087  0.440210  1
  Ru  Ru10  1  0.750000  0.150767  0.559206  1
  Ru  Ru11  1  0.750000  0.648185  0.941046  1
