# generated using pymatgen
data_Yb4Si10GePt5
_symmetry_space_group_name_H-M   'P 1'
_cell_length_a   8.27755897
_cell_length_b   8.27755798
_cell_length_c   8.27755927
_cell_angle_alpha   137.78565919
_cell_angle_beta   104.32440016
_cell_angle_gamma   90.68481018
_symmetry_Int_Tables_number   1
_chemical_formula_structural   Yb4Si10GePt5
_chemical_formula_sum   'Yb4 Si10 Ge1 Pt5'
_cell_volume   352.24437962
_cell_formula_units_Z   1
loop_
 _symmetry_equiv_pos_site_id
 _symmetry_equiv_pos_as_xyz
  1  'x, y, z'
loop_
 _atom_site_type_symbol
 _atom_site_label
 _atom_site_symmetry_multiplicity
 _atom_site_fract_x
 _atom_site_fract_y
 _atom_site_fract_z
 _atom_site_occupancy
  Yb  Yb0  1  0.115119  0.876959  0.239608  1
  Yb  Yb1  1  0.884881  0.124489  0.761840  1
  Yb  Yb2  1  0.637350  0.375511  0.260392  1
  Yb  Yb3  1  0.362650  0.623041  0.738160  1
  Si  Si4  1  0.000000  0.750000  0.750000  1
  Si  Si5  1  0.000000  0.250000  0.250000  1
  Si  Si6  1  0.260353  0.010353  0.750000  1
  Si  Si7  1  0.739647  0.489647  0.750000  1
  Si  Si8  1  0.745507  0.995507  0.250000  1
  Si  Si9  1  0.254493  0.504493  0.250000  1
  Si  Si10  1  0.766487  0.615729  0.137208  1
  Si  Si11  1  0.233513  0.370720  0.849241  1
  Si  Si12  1  0.478521  0.129280  0.362792  1
  Si  Si13  1  0.521479  0.884271  0.650759  1
  Ge  Ge14  1  0.500000  0.750000  0.250000  1
  Pt  Pt15  1  0.500000  0.250000  0.750000  1
  Pt  Pt16  1  0.008861  0.634050  0.380637  1
  Pt  Pt17  1  0.991139  0.371776  0.625189  1
  Pt  Pt18  1  0.253413  0.128224  0.119363  1
  Pt  Pt19  1  0.746587  0.865950  0.874811  1
