# generated using pymatgen
data_Rb2CoBr4
_symmetry_space_group_name_H-M   'P 1'
_cell_length_a   7.64060100
_cell_length_b   7.23628100
_cell_length_c   9.75975647
_cell_angle_alpha   70.60441124
_cell_angle_beta   90.00000000
_cell_angle_gamma   90.00000000
_symmetry_Int_Tables_number   1
_chemical_formula_structural   Rb2CoBr4
_chemical_formula_sum   'Rb4 Co2 Br8'
_cell_volume   508.98844522
_cell_formula_units_Z   2
loop_
 _symmetry_equiv_pos_site_id
 _symmetry_equiv_pos_as_xyz
  1  'x, y, z'
loop_
 _atom_site_type_symbol
 _atom_site_label
 _atom_site_symmetry_multiplicity
 _atom_site_fract_x
 _atom_site_fract_y
 _atom_site_fract_z
 _atom_site_occupancy
  Rb  Rb0  1  0.250000  0.700420  0.962596  1
  Rb  Rb1  1  0.750000  0.299580  0.037404  1
  Rb  Rb2  1  0.750000  0.202810  0.585388  1
  Rb  Rb3  1  0.250000  0.797190  0.414612  1
  Co  Co4  1  0.750000  0.697385  0.214663  1
  Co  Co5  1  0.250000  0.302615  0.785337  1
  Br  Br6  1  0.250000  0.139991  0.044432  1
  Br  Br7  1  0.750000  0.860009  0.955568  1
  Br  Br8  1  0.250000  0.086222  0.645932  1
  Br  Br9  1  0.750000  0.913778  0.354068  1
  Br  Br10  1  0.000276  0.515243  0.723273  1
  Br  Br11  1  0.500276  0.484757  0.276727  1
  Br  Br12  1  0.999724  0.484757  0.276727  1
  Br  Br13  1  0.499724  0.515243  0.723273  1
