# generated using pymatgen
data_HfZrAlGaAu2
_symmetry_space_group_name_H-M   'P 1'
_cell_length_a   4.37298900
_cell_length_b   4.37298913
_cell_length_c   6.79181000
_cell_angle_alpha   90.00000000
_cell_angle_beta   90.00000000
_cell_angle_gamma   119.99999147
_symmetry_Int_Tables_number   1
_chemical_formula_structural   HfZrAlGaAu2
_chemical_formula_sum   'Hf1 Zr1 Al1 Ga1 Au2'
_cell_volume   112.47939702
_cell_formula_units_Z   1
loop_
 _symmetry_equiv_pos_site_id
 _symmetry_equiv_pos_as_xyz
  1  'x, y, z'
loop_
 _atom_site_type_symbol
 _atom_site_label
 _atom_site_symmetry_multiplicity
 _atom_site_fract_x
 _atom_site_fract_y
 _atom_site_fract_z
 _atom_site_occupancy
  Hf  Hf0  1  0.000000  0.000000  0.499796  1
  Zr  Zr1  1  0.000000  0.000000  0.996105  1
  Al  Al2  1  0.666667  0.333333  0.222919  1
  Ga  Ga3  1  0.666667  0.333333  0.788618  1
  Au  Au4  1  0.333333  0.666667  0.708573  1
  Au  Au5  1  0.333333  0.666667  0.283990  1
