# generated using pymatgen
data_Ho2TmUN4
_symmetry_space_group_name_H-M   'P 1'
_cell_length_a   5.92039254
_cell_length_b   5.92039281
_cell_length_c   5.92039243
_cell_angle_alpha   131.53932830
_cell_angle_beta   131.53932565
_cell_angle_gamma   70.95758820
_symmetry_Int_Tables_number   1
_chemical_formula_structural   Ho2TmUN4
_chemical_formula_sum   'Ho2 Tm1 U1 N4'
_cell_volume   113.85166405
_cell_formula_units_Z   1
loop_
 _symmetry_equiv_pos_site_id
 _symmetry_equiv_pos_as_xyz
  1  'x, y, z'
loop_
 _atom_site_type_symbol
 _atom_site_label
 _atom_site_symmetry_multiplicity
 _atom_site_fract_x
 _atom_site_fract_y
 _atom_site_fract_z
 _atom_site_occupancy
  Ho  Ho0  1  0.000000  0.000000  0.000000  1
  Ho  Ho1  1  0.750000  0.250000  0.500000  1
  Tm  Tm2  1  0.500000  0.500000  0.000000  1
  U  U3  1  0.250000  0.750000  0.500000  1
  N  N4  1  0.748122  0.748122  0.000000  1
  N  N5  1  0.251878  0.251878  0.000000  1
  N  N6  1  0.015322  0.515322  0.500000  1
  N  N7  1  0.484678  0.984678  0.500000  1
