# generated using pymatgen
data_Dy4VRe2B16W
_symmetry_space_group_name_H-M   'P 1'
_cell_length_a   3.57642000
_cell_length_b   6.00144992
_cell_length_c   11.60124602
_cell_angle_alpha   89.89389677
_cell_angle_beta   90.00000000
_cell_angle_gamma   90.00000000
_symmetry_Int_Tables_number   1
_chemical_formula_structural   Dy4VRe2B16W
_chemical_formula_sum   'Dy4 V1 Re2 B16 W1'
_cell_volume   249.00530129
_cell_formula_units_Z   1
loop_
 _symmetry_equiv_pos_site_id
 _symmetry_equiv_pos_as_xyz
  1  'x, y, z'
loop_
 _atom_site_type_symbol
 _atom_site_label
 _atom_site_symmetry_multiplicity
 _atom_site_fract_x
 _atom_site_fract_y
 _atom_site_fract_z
 _atom_site_occupancy
  Dy  Dy0  1  0.000000  0.625568  0.352696  1
  Dy  Dy1  1  0.000000  0.375626  0.648507  1
  Dy  Dy2  1  0.000000  0.127035  0.152251  1
  Dy  Dy3  1  0.000000  0.873081  0.846344  1
  V  V4  1  0.000000  0.871946  0.582862  1
  Re  Re5  1  0.000000  0.369329  0.915091  1
  Re  Re6  1  0.000000  0.126628  0.417167  1
  B  B7  1  0.500000  0.788307  0.188038  1
  B  B8  1  0.500000  0.214798  0.813278  1
  B  B9  1  0.500000  0.284867  0.316283  1
  B  B10  1  0.500000  0.714426  0.684655  1
  B  B11  1  0.500000  0.867502  0.030958  1
  B  B12  1  0.500000  0.135100  0.966621  1
  B  B13  1  0.500000  0.364098  0.468179  1
  B  B14  1  0.500000  0.635455  0.532794  1
  B  B15  1  0.500000  0.885803  0.453766  1
  B  B16  1  0.500000  0.113698  0.547298  1
  B  B17  1  0.500000  0.383208  0.046288  1
  B  B18  1  0.500000  0.613678  0.950751  1
  B  B19  1  0.500000  0.976974  0.308787  1
  B  B20  1  0.500000  0.023853  0.692015  1
  B  B21  1  0.500000  0.473658  0.194253  1
  B  B22  1  0.500000  0.523946  0.805986  1
  W  W23  1  0.000000  0.631418  0.085129  1
