# generated using pymatgen
data_ErAs3Rh5
_symmetry_space_group_name_H-M   'P 1'
_cell_length_a   4.00019600
_cell_length_b   12.87072000
_cell_length_c   11.34986800
_cell_angle_alpha   90.00000000
_cell_angle_beta   90.00000000
_cell_angle_gamma   90.00000000
_symmetry_Int_Tables_number   1
_chemical_formula_structural   ErAs3Rh5
_chemical_formula_sum   'Er4 As12 Rh20'
_cell_volume   584.35252413
_cell_formula_units_Z   4
loop_
 _symmetry_equiv_pos_site_id
 _symmetry_equiv_pos_as_xyz
  1  'x, y, z'
loop_
 _atom_site_type_symbol
 _atom_site_label
 _atom_site_symmetry_multiplicity
 _atom_site_fract_x
 _atom_site_fract_y
 _atom_site_fract_z
 _atom_site_occupancy
  Er  Er0  1  0.750000  0.701291  0.080645  1
  Er  Er1  1  0.250000  0.298709  0.919355  1
  Er  Er2  1  0.250000  0.798709  0.580645  1
  Er  Er3  1  0.750000  0.201291  0.419355  1
  As  As4  1  0.750000  0.614833  0.583101  1
  As  As5  1  0.250000  0.385167  0.416899  1
  As  As6  1  0.250000  0.885167  0.083101  1
  As  As7  1  0.750000  0.114833  0.916899  1
  As  As8  1  0.750000  0.889128  0.400388  1
  As  As9  1  0.250000  0.110872  0.599612  1
  As  As10  1  0.250000  0.610872  0.900388  1
  As  As11  1  0.750000  0.389128  0.099612  1
  As  As12  1  0.750000  0.869423  0.766294  1
  As  As13  1  0.250000  0.130577  0.233706  1
  As  As14  1  0.250000  0.630577  0.266294  1
  As  As15  1  0.750000  0.369423  0.733706  1
  Rh  Rh16  1  0.750000  0.701294  0.385126  1
  Rh  Rh17  1  0.250000  0.298706  0.614874  1
  Rh  Rh18  1  0.250000  0.798706  0.885126  1
  Rh  Rh19  1  0.750000  0.201294  0.114874  1
  Rh  Rh20  1  0.750000  0.995021  0.222567  1
  Rh  Rh21  1  0.250000  0.004979  0.777433  1
  Rh  Rh22  1  0.250000  0.504979  0.722567  1
  Rh  Rh23  1  0.750000  0.495021  0.277433  1
  Rh  Rh24  1  0.750000  0.676489  0.779911  1
  Rh  Rh25  1  0.250000  0.323511  0.220089  1
  Rh  Rh26  1  0.250000  0.823511  0.279911  1
  Rh  Rh27  1  0.750000  0.176489  0.720089  1
  Rh  Rh28  1  0.750000  0.928402  0.968270  1
  Rh  Rh29  1  0.250000  0.071598  0.031730  1
  Rh  Rh30  1  0.250000  0.571598  0.468270  1
  Rh  Rh31  1  0.750000  0.428402  0.531730  1
  Rh  Rh32  1  0.750000  0.978506  0.590102  1
  Rh  Rh33  1  0.250000  0.021494  0.409898  1
  Rh  Rh34  1  0.250000  0.521494  0.090102  1
  Rh  Rh35  1  0.750000  0.478505  0.909898  1
