# generated using pymatgen
data_NbAlGa2(NiPt2)4
_symmetry_space_group_name_H-M   'P 1'
_cell_length_a   3.91977400
_cell_length_b   3.91977400
_cell_length_c   14.83743500
_cell_angle_alpha   90.00000000
_cell_angle_beta   90.00000000
_cell_angle_gamma   90.00000000
_symmetry_Int_Tables_number   1
_chemical_formula_structural   NbAlGa2(NiPt2)4
_chemical_formula_sum   'Nb1 Al1 Ga2 Ni4 Pt8'
_cell_volume   227.97167238
_cell_formula_units_Z   1
loop_
 _symmetry_equiv_pos_site_id
 _symmetry_equiv_pos_as_xyz
  1  'x, y, z'
loop_
 _atom_site_type_symbol
 _atom_site_label
 _atom_site_symmetry_multiplicity
 _atom_site_fract_x
 _atom_site_fract_y
 _atom_site_fract_z
 _atom_site_occupancy
  Nb  Nb0  1  0.000000  0.000000  0.000000  1
  Al  Al1  1  0.000000  0.000000  0.500000  1
  Ga  Ga2  1  0.000000  0.000000  0.257791  1
  Ga  Ga3  1  0.000000  0.000000  0.742209  1
  Ni  Ni4  1  0.500000  0.500000  0.000000  1
  Ni  Ni5  1  0.500000  0.500000  0.253985  1
  Ni  Ni6  1  0.500000  0.500000  0.500000  1
  Ni  Ni7  1  0.500000  0.500000  0.746015  1
  Pt  Pt8  1  0.500000  0.000000  0.128233  1
  Pt  Pt9  1  0.500000  0.000000  0.379083  1
  Pt  Pt10  1  0.500000  0.000000  0.620917  1
  Pt  Pt11  1  0.500000  0.000000  0.871767  1
  Pt  Pt12  1  0.000000  0.500000  0.128233  1
  Pt  Pt13  1  0.000000  0.500000  0.379083  1
  Pt  Pt14  1  0.000000  0.500000  0.620917  1
  Pt  Pt15  1  0.000000  0.500000  0.871767  1
