# generated using pymatgen
data_Ho4Cd2Pd2PtAu
_symmetry_space_group_name_H-M   'P 1'
_cell_length_a   7.75737601
_cell_length_b   7.74983807
_cell_length_c   3.73468100
_cell_angle_alpha   90.00000000
_cell_angle_beta   90.00000000
_cell_angle_gamma   89.68925922
_symmetry_Int_Tables_number   1
_chemical_formula_structural   Ho4Cd2Pd2PtAu
_chemical_formula_sum   'Ho4 Cd2 Pd2 Pt1 Au1'
_cell_volume   224.51977362
_cell_formula_units_Z   1
loop_
 _symmetry_equiv_pos_site_id
 _symmetry_equiv_pos_as_xyz
  1  'x, y, z'
loop_
 _atom_site_type_symbol
 _atom_site_label
 _atom_site_symmetry_multiplicity
 _atom_site_fract_x
 _atom_site_fract_y
 _atom_site_fract_z
 _atom_site_occupancy
  Ho  Ho0  1  0.670711  0.165846  0.500000  1
  Ho  Ho1  1  0.342478  0.837312  0.500000  1
  Ho  Ho2  1  0.166183  0.322430  0.500000  1
  Ho  Ho3  1  0.819362  0.670288  0.500000  1
  Cd  Cd4  1  0.000349  0.002486  0.000000  1
  Cd  Cd5  1  0.501869  0.496456  0.000000  1
  Pd  Pd6  1  0.869052  0.368948  0.000000  1
  Pd  Pd7  1  0.369651  0.134309  0.000000  1
  Pt  Pt8  1  0.631216  0.873173  0.000000  1
  Au  Au9  1  0.129132  0.628754  0.000000  1
