# generated using pymatgen
data_YbDy3(ReC2)2
_symmetry_space_group_name_H-M   'P 1'
_cell_length_a   5.12302700
_cell_length_b   6.54737800
_cell_length_c   10.01110600
_cell_angle_alpha   90.00000000
_cell_angle_beta   90.00000000
_cell_angle_gamma   90.00000000
_symmetry_Int_Tables_number   1
_chemical_formula_structural   YbDy3(ReC2)2
_chemical_formula_sum   'Yb2 Dy6 Re4 C8'
_cell_volume   335.79646456
_cell_formula_units_Z   2
loop_
 _symmetry_equiv_pos_site_id
 _symmetry_equiv_pos_as_xyz
  1  'x, y, z'
loop_
 _atom_site_type_symbol
 _atom_site_label
 _atom_site_symmetry_multiplicity
 _atom_site_fract_x
 _atom_site_fract_y
 _atom_site_fract_z
 _atom_site_occupancy
  Yb  Yb0  1  0.750000  0.536631  0.779038  1
  Yb  Yb1  1  0.250000  0.963369  0.279038  1
  Dy  Dy2  1  0.750000  0.683127  0.445726  1
  Dy  Dy3  1  0.250000  0.816873  0.945726  1
  Dy  Dy4  1  0.750000  0.184479  0.054165  1
  Dy  Dy5  1  0.250000  0.315521  0.554165  1
  Dy  Dy6  1  0.250000  0.464327  0.221716  1
  Dy  Dy7  1  0.750000  0.035673  0.721716  1
  Re  Re8  1  0.250000  0.280226  0.861572  1
  Re  Re9  1  0.250000  0.777497  0.637006  1
  Re  Re10  1  0.750000  0.219774  0.361572  1
  Re  Re11  1  0.750000  0.722503  0.137006  1
  C  C12  1  0.250000  0.673533  0.457574  1
  C  C13  1  0.250000  0.546173  0.759630  1
  C  C14  1  0.750000  0.454670  0.239729  1
  C  C15  1  0.750000  0.826467  0.957574  1
  C  C16  1  0.250000  0.045330  0.739729  1
  C  C17  1  0.250000  0.192625  0.043844  1
  C  C18  1  0.750000  0.307375  0.543844  1
  C  C19  1  0.750000  0.953827  0.259630  1
