# generated using pymatgen
data_Er2Co9Mo3As7
_symmetry_space_group_name_H-M   'P 1'
_cell_length_a   3.85193300
_cell_length_b   9.40981043
_cell_length_c   9.40981100
_cell_angle_alpha   119.99999849
_cell_angle_beta   90.00000000
_cell_angle_gamma   90.00000000
_symmetry_Int_Tables_number   1
_chemical_formula_structural   Er2Co9Mo3As7
_chemical_formula_sum   'Er2 Co9 Mo3 As7'
_cell_volume   295.37323359
_cell_formula_units_Z   1
loop_
 _symmetry_equiv_pos_site_id
 _symmetry_equiv_pos_as_xyz
  1  'x, y, z'
loop_
 _atom_site_type_symbol
 _atom_site_label
 _atom_site_symmetry_multiplicity
 _atom_site_fract_x
 _atom_site_fract_y
 _atom_site_fract_z
 _atom_site_occupancy
  Er  Er0  1  0.000000  0.666667  0.333333  1
  Er  Er1  1  0.500000  0.333333  0.666667  1
  Co  Co2  1  0.000000  0.569493  0.940109  1
  Co  Co3  1  0.000000  0.370616  0.430507  1
  Co  Co4  1  0.000000  0.059891  0.629384  1
  Co  Co5  1  0.000000  0.876223  0.158593  1
  Co  Co6  1  0.000000  0.282370  0.123777  1
  Co  Co7  1  0.000000  0.841407  0.717630  1
  Co  Co8  1  0.500000  0.949287  0.383220  1
  Co  Co9  1  0.500000  0.433932  0.050713  1
  Co  Co10  1  0.500000  0.616780  0.566068  1
  Mo  Mo11  1  0.500000  0.780949  0.902216  1
  Mo  Mo12  1  0.500000  0.121268  0.219051  1
  Mo  Mo13  1  0.500000  0.097784  0.878732  1
  As  As14  1  0.000000  0.000000  0.000000  1
  As  As15  1  0.500000  0.707613  0.120577  1
  As  As16  1  0.500000  0.412965  0.292387  1
  As  As17  1  0.500000  0.879423  0.587035  1
  As  As18  1  0.000000  0.585075  0.699441  1
  As  As19  1  0.000000  0.114366  0.414925  1
  As  As20  1  0.000000  0.300559  0.885634  1
