# generated using pymatgen
data_Tm8MgSc10Si16Tc
_symmetry_space_group_name_H-M   'P 1'
_cell_length_a   6.94634689
_cell_length_b   7.30337783
_cell_length_c   13.82722600
_cell_angle_alpha   90.00000000
_cell_angle_beta   90.00000000
_cell_angle_gamma   90.07284909
_symmetry_Int_Tables_number   1
_chemical_formula_structural   Tm8MgSc10Si16Tc
_chemical_formula_sum   'Tm8 Mg1 Sc10 Si16 Tc1'
_cell_volume   701.47944064
_cell_formula_units_Z   1
loop_
 _symmetry_equiv_pos_site_id
 _symmetry_equiv_pos_as_xyz
  1  'x, y, z'
loop_
 _atom_site_type_symbol
 _atom_site_label
 _atom_site_symmetry_multiplicity
 _atom_site_fract_x
 _atom_site_fract_y
 _atom_site_fract_z
 _atom_site_occupancy
  Tm  Tm0  1  0.011151  0.181955  0.093583  1
  Tm  Tm1  1  0.992562  0.817224  0.900982  1
  Tm  Tm2  1  0.488486  0.673250  0.902955  1
  Tm  Tm3  1  0.992562  0.817224  0.599018  1
  Tm  Tm4  1  0.513669  0.324371  0.094646  1
  Tm  Tm5  1  0.011151  0.181955  0.406417  1
  Tm  Tm6  1  0.513669  0.324371  0.405354  1
  Tm  Tm7  1  0.488486  0.673250  0.597045  1
  Mg  Mg8  1  0.842309  0.494038  0.250000  1
  Sc  Sc9  1  0.344031  0.003718  0.250000  1
  Sc  Sc10  1  0.656754  0.994154  0.750000  1
  Sc  Sc11  1  0.325976  0.178464  0.627644  1
  Sc  Sc12  1  0.674433  0.821807  0.374746  1
  Sc  Sc13  1  0.169439  0.672958  0.376866  1
  Sc  Sc14  1  0.674433  0.821807  0.125254  1
  Sc  Sc15  1  0.825672  0.329735  0.628505  1
  Sc  Sc16  1  0.325976  0.178464  0.872356  1
  Sc  Sc17  1  0.825672  0.329735  0.871495  1
  Sc  Sc18  1  0.169439  0.672958  0.123134  1
  Si  Si19  1  0.028087  0.115686  0.750000  1
  Si  Si20  1  0.975173  0.898263  0.250000  1
  Si  Si21  1  0.465268  0.614902  0.250000  1
  Si  Si22  1  0.517499  0.397357  0.750000  1
  Si  Si23  1  0.284261  0.858157  0.750000  1
  Si  Si24  1  0.714950  0.123733  0.250000  1
  Si  Si25  1  0.223247  0.369026  0.250000  1
  Si  Si26  1  0.793888  0.630238  0.750000  1
  Si  Si27  1  0.157001  0.465595  0.547120  1
  Si  Si28  1  0.839704  0.538013  0.467179  1
  Si  Si29  1  0.343504  0.966160  0.462782  1
  Si  Si30  1  0.839704  0.538013  0.032821  1
  Si  Si31  1  0.659473  0.033213  0.539383  1
  Si  Si32  1  0.157001  0.465595  0.952880  1
  Si  Si33  1  0.659473  0.033213  0.960617  1
  Si  Si34  1  0.343504  0.966160  0.037218  1
  Tc  Tc35  1  0.152394  0.495234  0.750000  1
