# generated using pymatgen
data_Ho7Tm5Ir4
_symmetry_space_group_name_H-M   'P 1'
_cell_length_a   6.35352783
_cell_length_b   7.20812620
_cell_length_c   9.10227996
_cell_angle_alpha   89.99092429
_cell_angle_beta   90.10568133
_cell_angle_gamma   89.97427055
_symmetry_Int_Tables_number   1
_chemical_formula_structural   Ho7Tm5Ir4
_chemical_formula_sum   'Ho7 Tm5 Ir4'
_cell_volume   416.85663538
_cell_formula_units_Z   1
loop_
 _symmetry_equiv_pos_site_id
 _symmetry_equiv_pos_as_xyz
  1  'x, y, z'
loop_
 _atom_site_type_symbol
 _atom_site_label
 _atom_site_symmetry_multiplicity
 _atom_site_fract_x
 _atom_site_fract_y
 _atom_site_fract_z
 _atom_site_occupancy
  Ho  Ho0  1  0.327687  0.678135  0.061121  1
  Ho  Ho1  1  0.172629  0.177475  0.437280  1
  Ho  Ho2  1  0.672391  0.322720  0.562454  1
  Ho  Ho3  1  0.871722  0.534033  0.249915  1
  Ho  Ho4  1  0.628038  0.033597  0.249427  1
  Ho  Ho5  1  0.127798  0.466435  0.750163  1
  Ho  Ho6  1  0.372191  0.965948  0.749999  1
  Tm  Tm7  1  0.828250  0.822265  0.938380  1
  Tm  Tm8  1  0.670858  0.322825  0.938640  1
  Tm  Tm9  1  0.828405  0.823137  0.562813  1
  Tm  Tm10  1  0.328291  0.676994  0.437246  1
  Tm  Tm11  1  0.170346  0.176903  0.061083  1
  Ir  Ir12  1  0.044271  0.883417  0.250682  1
  Ir  Ir13  1  0.454938  0.383210  0.248159  1
  Ir  Ir14  1  0.955419  0.115599  0.753192  1
  Ir  Ir15  1  0.546765  0.617307  0.749446  1
