# generated using pymatgen
data_Nd5Dy3Si12Ir3Rh
_symmetry_space_group_name_H-M   'P 1'
_cell_length_a   8.23298900
_cell_length_b   8.23298994
_cell_length_c   8.19900400
_cell_angle_alpha   90.00000000
_cell_angle_beta   90.00000000
_cell_angle_gamma   119.99999220
_symmetry_Int_Tables_number   1
_chemical_formula_structural   Nd5Dy3Si12Ir3Rh
_chemical_formula_sum   'Nd5 Dy3 Si12 Ir3 Rh1'
_cell_volume   481.29005092
_cell_formula_units_Z   1
loop_
 _symmetry_equiv_pos_site_id
 _symmetry_equiv_pos_as_xyz
  1  'x, y, z'
loop_
 _atom_site_type_symbol
 _atom_site_label
 _atom_site_symmetry_multiplicity
 _atom_site_fract_x
 _atom_site_fract_y
 _atom_site_fract_z
 _atom_site_occupancy
  Nd  Nd0  1  0.000000  0.000000  0.249136  1
  Nd  Nd1  1  0.000000  0.000000  0.750039  1
  Nd  Nd2  1  0.505495  0.494505  0.250104  1
  Nd  Nd3  1  0.505495  0.010989  0.250104  1
  Nd  Nd4  1  0.989011  0.494505  0.250104  1
  Dy  Dy5  1  0.492441  0.507559  0.750013  1
  Dy  Dy6  1  0.492441  0.984880  0.750013  1
  Dy  Dy7  1  0.015120  0.507559  0.750013  1
  Si  Si8  1  0.166773  0.833227  0.505994  1
  Si  Si9  1  0.166773  0.333548  0.505994  1
  Si  Si10  1  0.666452  0.833227  0.505994  1
  Si  Si11  1  0.831852  0.168148  0.503503  1
  Si  Si12  1  0.831852  0.663704  0.503503  1
  Si  Si13  1  0.336296  0.168148  0.503503  1
  Si  Si14  1  0.831780  0.168220  0.996650  1
  Si  Si15  1  0.831780  0.663559  0.996650  1
  Si  Si16  1  0.336441  0.168220  0.996650  1
  Si  Si17  1  0.166976  0.833024  0.993226  1
  Si  Si18  1  0.166976  0.333952  0.993226  1
  Si  Si19  1  0.666048  0.833024  0.993226  1
  Ir  Ir20  1  0.333333  0.666667  0.490648  1
  Ir  Ir21  1  0.666667  0.333333  0.541963  1
  Ir  Ir22  1  0.666667  0.333333  0.956742  1
  Rh  Rh23  1  0.333333  0.666667  0.013002  1
