# generated using pymatgen
data_La2Th2Mg2Si3Ge
_symmetry_space_group_name_H-M   'P 1'
_cell_length_a   7.44387406
_cell_length_b   7.44387421
_cell_length_c   4.42503000
_cell_angle_alpha   90.00000000
_cell_angle_beta   90.00000000
_cell_angle_gamma   90.71312772
_symmetry_Int_Tables_number   1
_chemical_formula_structural   La2Th2Mg2Si3Ge
_chemical_formula_sum   'La2 Th2 Mg2 Si3 Ge1'
_cell_volume   245.17750545
_cell_formula_units_Z   1
loop_
 _symmetry_equiv_pos_site_id
 _symmetry_equiv_pos_as_xyz
  1  'x, y, z'
loop_
 _atom_site_type_symbol
 _atom_site_label
 _atom_site_symmetry_multiplicity
 _atom_site_fract_x
 _atom_site_fract_y
 _atom_site_fract_z
 _atom_site_occupancy
  La  La0  1  0.179157  0.318835  0.500000  1
  La  La1  1  0.818835  0.679157  0.500000  1
  Th  Th2  1  0.677605  0.177605  0.500000  1
  Th  Th3  1  0.324515  0.824515  0.500000  1
  Mg  Mg4  1  0.999527  0.001249  0.000000  1
  Mg  Mg5  1  0.501249  0.499527  0.000000  1
  Si  Si6  1  0.879428  0.379428  0.000000  1
  Si  Si7  1  0.613835  0.885999  0.000000  1
  Si  Si8  1  0.385999  0.113835  0.000000  1
  Ge  Ge9  1  0.119850  0.619850  0.000000  1
