# generated using pymatgen
data_TbErFe2Br
_symmetry_space_group_name_H-M   'P 1'
_cell_length_a   3.90116800
_cell_length_b   3.90116972
_cell_length_c   16.47056900
_cell_angle_alpha   90.00000000
_cell_angle_beta   90.00000000
_cell_angle_gamma   120.00000238
_symmetry_Int_Tables_number   1
_chemical_formula_structural   TbErFe2Br
_chemical_formula_sum   'Tb2 Er2 Fe4 Br2'
_cell_volume   217.08445310
_cell_formula_units_Z   2
loop_
 _symmetry_equiv_pos_site_id
 _symmetry_equiv_pos_as_xyz
  1  'x, y, z'
loop_
 _atom_site_type_symbol
 _atom_site_label
 _atom_site_symmetry_multiplicity
 _atom_site_fract_x
 _atom_site_fract_y
 _atom_site_fract_z
 _atom_site_occupancy
  Tb  Tb0  1  0.000000  0.000000  0.109687  1
  Tb  Tb1  1  0.000000  0.000000  0.609687  1
  Er  Er2  1  0.000000  0.000000  0.891325  1
  Er  Er3  1  0.000000  0.000000  0.391325  1
  Fe  Fe4  1  0.666667  0.333333  0.992349  1
  Fe  Fe5  1  0.333333  0.666667  0.492349  1
  Fe  Fe6  1  0.333333  0.666667  0.005132  1
  Fe  Fe7  1  0.666667  0.333333  0.505132  1
  Br  Br8  1  0.666667  0.333333  0.251508  1
  Br  Br9  1  0.333333  0.666667  0.751508  1
