# generated using pymatgen
data_AcDyP7Ru12
_symmetry_space_group_name_H-M   'P 1'
_cell_length_a   9.51530300
_cell_length_b   9.51530301
_cell_length_c   3.97665300
_cell_angle_alpha   90.00000000
_cell_angle_beta   90.00000000
_cell_angle_gamma   119.99999556
_symmetry_Int_Tables_number   1
_chemical_formula_structural   AcDyP7Ru12
_chemical_formula_sum   'Ac1 Dy1 P7 Ru12'
_cell_volume   311.81255115
_cell_formula_units_Z   1
loop_
 _symmetry_equiv_pos_site_id
 _symmetry_equiv_pos_as_xyz
  1  'x, y, z'
loop_
 _atom_site_type_symbol
 _atom_site_label
 _atom_site_symmetry_multiplicity
 _atom_site_fract_x
 _atom_site_fract_y
 _atom_site_fract_z
 _atom_site_occupancy
  Ac  Ac0  1  0.333333  0.666667  0.000000  1
  Dy  Dy1  1  0.666667  0.333333  0.500000  1
  P  P2  1  0.611427  0.717980  0.500000  1
  P  P3  1  0.000000  0.000000  0.000000  1
  P  P4  1  0.282020  0.893448  0.500000  1
  P  P5  1  0.106552  0.388573  0.500000  1
  P  P6  1  0.888833  0.570747  0.000000  1
  P  P7  1  0.429253  0.318085  0.000000  1
  P  P8  1  0.681915  0.111167  0.000000  1
  Ru  Ru9  1  0.561912  0.960148  0.500000  1
  Ru  Ru10  1  0.398239  0.438088  0.500000  1
  Ru  Ru11  1  0.914301  0.117059  0.500000  1
  Ru  Ru12  1  0.202758  0.085699  0.500000  1
  Ru  Ru13  1  0.882941  0.797242  0.500000  1
  Ru  Ru14  1  0.730029  0.893154  0.000000  1
  Ru  Ru15  1  0.106846  0.836875  0.000000  1
  Ru  Ru16  1  0.163125  0.269971  0.000000  1
  Ru  Ru17  1  0.420266  0.071794  0.000000  1
  Ru  Ru18  1  0.928206  0.348473  0.000000  1
  Ru  Ru19  1  0.651527  0.579734  0.000000  1
  Ru  Ru20  1  0.039852  0.601761  0.500000  1
