# generated using pymatgen
data_Sr3MgNbRuO9
_symmetry_space_group_name_H-M   'P 1'
_cell_length_a   5.68845700
_cell_length_b   5.68845652
_cell_length_c   6.98313500
_cell_angle_alpha   90.00000000
_cell_angle_beta   90.00000000
_cell_angle_gamma   119.99999700
_symmetry_Int_Tables_number   1
_chemical_formula_structural   Sr3MgNbRuO9
_chemical_formula_sum   'Sr3 Mg1 Nb1 Ru1 O9'
_cell_volume   195.69061808
_cell_formula_units_Z   1
loop_
 _symmetry_equiv_pos_site_id
 _symmetry_equiv_pos_as_xyz
  1  'x, y, z'
loop_
 _atom_site_type_symbol
 _atom_site_label
 _atom_site_symmetry_multiplicity
 _atom_site_fract_x
 _atom_site_fract_y
 _atom_site_fract_z
 _atom_site_occupancy
  Sr  Sr0  1  0.333333  0.666667  0.007228  1
  Sr  Sr1  1  0.666667  0.333333  0.656644  1
  Sr  Sr2  1  0.000000  0.000000  0.328070  1
  Mg  Mg3  1  0.333333  0.666667  0.500465  1
  Nb  Nb4  1  0.000000  0.000000  0.821634  1
  Ru  Ru5  1  0.666667  0.333333  0.174640  1
  O  O6  1  0.991244  0.495622  0.327990  1
  O  O7  1  0.504378  0.495622  0.327990  1
  O  O8  1  0.504378  0.008756  0.327990  1
  O  O9  1  0.670215  0.835107  0.671663  1
  O  O10  1  0.164893  0.835107  0.671663  1
  O  O11  1  0.164893  0.329785  0.671663  1
  O  O12  1  0.832246  0.167754  0.004120  1
  O  O13  1  0.832246  0.664491  0.004120  1
  O  O14  1  0.335509  0.167754  0.004120  1
