# generated using pymatgen
data_Sm2Ho8In8Pt3Rh
_symmetry_space_group_name_H-M   'P 1'
_cell_length_a   3.61663400
_cell_length_b   8.16124028
_cell_length_c   18.30834411
_cell_angle_alpha   90.08565815
_cell_angle_beta   90.00000000
_cell_angle_gamma   90.00000000
_symmetry_Int_Tables_number   1
_chemical_formula_structural   Sm2Ho8In8Pt3Rh
_chemical_formula_sum   'Sm2 Ho8 In8 Pt3 Rh1'
_cell_volume   540.39249197
_cell_formula_units_Z   1
loop_
 _symmetry_equiv_pos_site_id
 _symmetry_equiv_pos_as_xyz
  1  'x, y, z'
loop_
 _atom_site_type_symbol
 _atom_site_label
 _atom_site_symmetry_multiplicity
 _atom_site_fract_x
 _atom_site_fract_y
 _atom_site_fract_z
 _atom_site_occupancy
  Sm  Sm0  1  0.000000  0.999504  0.999716  1
  Sm  Sm1  1  0.000000  0.500056  0.499924  1
  Ho  Ho2  1  0.000000  0.115874  0.411720  1
  Ho  Ho3  1  0.000000  0.880783  0.585532  1
  Ho  Ho4  1  0.000000  0.381666  0.914542  1
  Ho  Ho5  1  0.000000  0.618922  0.087055  1
  Ho  Ho6  1  0.000000  0.238505  0.221570  1
  Ho  Ho7  1  0.000000  0.758802  0.780323  1
  Ho  Ho8  1  0.000000  0.258697  0.719895  1
  Ho  Ho9  1  0.000000  0.749333  0.279361  1
  In  In10  1  0.500000  0.422261  0.349782  1
  In  In11  1  0.500000  0.577575  0.650470  1
  In  In12  1  0.500000  0.078539  0.849208  1
  In  In13  1  0.500000  0.927833  0.151177  1
  In  In14  1  0.500000  0.295784  0.067838  1
  In  In15  1  0.500000  0.702969  0.933493  1
  In  In16  1  0.500000  0.202220  0.566393  1
  In  In17  1  0.500000  0.796483  0.430302  1
  Pt  Pt18  1  0.500000  0.975376  0.696172  1
  Pt  Pt19  1  0.500000  0.475714  0.803861  1
  Pt  Pt20  1  0.500000  0.521904  0.197077  1
  Rh  Rh21  1  0.500000  0.021201  0.304588  1
