# generated using pymatgen
data_Dy2Rh2O7
_symmetry_space_group_name_H-M   'P 1'
_cell_length_a   7.22581668
_cell_length_b   7.22581612
_cell_length_c   7.22581600
_cell_angle_alpha   60.00000057
_cell_angle_beta   60.00000310
_cell_angle_gamma   59.99999689
_symmetry_Int_Tables_number   1
_chemical_formula_structural   Dy2Rh2O7
_chemical_formula_sum   'Dy4 Rh4 O14'
_cell_volume   266.77538002
_cell_formula_units_Z   2
loop_
 _symmetry_equiv_pos_site_id
 _symmetry_equiv_pos_as_xyz
  1  'x, y, z'
loop_
 _atom_site_type_symbol
 _atom_site_label
 _atom_site_symmetry_multiplicity
 _atom_site_fract_x
 _atom_site_fract_y
 _atom_site_fract_z
 _atom_site_occupancy
  Dy  Dy0  1  0.625000  0.625000  0.125000  1
  Dy  Dy1  1  0.625000  0.625000  0.625000  1
  Dy  Dy2  1  0.625000  0.125000  0.625000  1
  Dy  Dy3  1  0.125000  0.625000  0.625000  1
  Rh  Rh4  1  0.125000  0.125000  0.125000  1
  Rh  Rh5  1  0.625000  0.125000  0.125000  1
  Rh  Rh6  1  0.125000  0.125000  0.625000  1
  Rh  Rh7  1  0.125000  0.625000  0.125000  1
  O  O8  1  0.038100  0.461900  0.461900  1
  O  O9  1  0.788100  0.788100  0.211900  1
  O  O10  1  0.788100  0.211900  0.211900  1
  O  O11  1  0.461900  0.038100  0.461900  1
  O  O12  1  0.750000  0.750000  0.750000  1
  O  O13  1  0.038100  0.461900  0.038100  1
  O  O14  1  0.038100  0.038100  0.461900  1
  O  O15  1  0.211900  0.788100  0.211900  1
  O  O16  1  0.211900  0.211900  0.788100  1
  O  O17  1  0.788100  0.211900  0.788100  1
  O  O18  1  0.500000  0.500000  0.500000  1
  O  O19  1  0.461900  0.038100  0.038100  1
  O  O20  1  0.461900  0.461900  0.038100  1
  O  O21  1  0.211900  0.788100  0.788100  1
