# generated using pymatgen
data_CsNpCrSe4
_symmetry_space_group_name_H-M   'P 1'
_cell_length_a   6.60287600
_cell_length_b   7.77916100
_cell_length_c   18.14431800
_cell_angle_alpha   90.00000000
_cell_angle_beta   90.00000000
_cell_angle_gamma   90.00000000
_symmetry_Int_Tables_number   1
_chemical_formula_structural   CsNpCrSe4
_chemical_formula_sum   'Cs4 Np4 Cr4 Se16'
_cell_volume   931.97990873
_cell_formula_units_Z   4
loop_
 _symmetry_equiv_pos_site_id
 _symmetry_equiv_pos_as_xyz
  1  'x, y, z'
loop_
 _atom_site_type_symbol
 _atom_site_label
 _atom_site_symmetry_multiplicity
 _atom_site_fract_x
 _atom_site_fract_y
 _atom_site_fract_z
 _atom_site_occupancy
  Cs  Cs0  1  0.362320  0.000000  0.000000  1
  Cs  Cs1  1  0.637680  0.500000  0.500000  1
  Cs  Cs2  1  0.043516  0.000000  0.500000  1
  Cs  Cs3  1  0.956484  0.500000  0.000000  1
  Np  Np4  1  0.002616  0.000000  0.248754  1
  Np  Np5  1  0.002616  0.000000  0.751246  1
  Np  Np6  1  0.997384  0.500000  0.251246  1
  Np  Np7  1  0.997384  0.500000  0.748754  1
  Cr  Cr8  1  0.500000  0.250000  0.250000  1
  Cr  Cr9  1  0.500000  0.750000  0.750000  1
  Cr  Cr10  1  0.500000  0.750000  0.250000  1
  Cr  Cr11  1  0.500000  0.250000  0.750000  1
  Se  Se12  1  0.809978  0.247562  0.339456  1
  Se  Se13  1  0.809978  0.752438  0.660544  1
  Se  Se14  1  0.190022  0.747562  0.160544  1
  Se  Se15  1  0.190022  0.252438  0.839456  1
  Se  Se16  1  0.190022  0.252438  0.160544  1
  Se  Se17  1  0.190022  0.747562  0.839456  1
  Se  Se18  1  0.809978  0.752438  0.339456  1
  Se  Se19  1  0.809978  0.247562  0.660544  1
  Se  Se20  1  0.643037  0.000000  0.170342  1
  Se  Se21  1  0.643037  0.000000  0.829658  1
  Se  Se22  1  0.356963  0.500000  0.329658  1
  Se  Se23  1  0.356963  0.500000  0.670342  1
  Se  Se24  1  0.360459  0.000000  0.329717  1
  Se  Se25  1  0.360459  0.000000  0.670283  1
  Se  Se26  1  0.639541  0.500000  0.170283  1
  Se  Se27  1  0.639541  0.500000  0.829717  1
