# generated using pymatgen
data_Lu12Tc3Rh
_symmetry_space_group_name_H-M   'P 1'
_cell_length_a   6.13091560
_cell_length_b   7.31016581
_cell_length_c   8.91047700
_cell_angle_alpha   90.00000000
_cell_angle_beta   90.00000000
_cell_angle_gamma   89.89698011
_symmetry_Int_Tables_number   1
_chemical_formula_structural   Lu12Tc3Rh
_chemical_formula_sum   'Lu12 Tc3 Rh1'
_cell_volume   399.34919833
_cell_formula_units_Z   1
loop_
 _symmetry_equiv_pos_site_id
 _symmetry_equiv_pos_as_xyz
  1  'x, y, z'
loop_
 _atom_site_type_symbol
 _atom_site_label
 _atom_site_symmetry_multiplicity
 _atom_site_fract_x
 _atom_site_fract_y
 _atom_site_fract_z
 _atom_site_occupancy
  Lu  Lu0  1  0.336055  0.676499  0.064127  1
  Lu  Lu1  1  0.159206  0.175627  0.437737  1
  Lu  Lu2  1  0.659641  0.321622  0.560543  1
  Lu  Lu3  1  0.840489  0.827322  0.939501  1
  Lu  Lu4  1  0.659641  0.321622  0.939457  1
  Lu  Lu5  1  0.840489  0.827322  0.560499  1
  Lu  Lu6  1  0.336055  0.676499  0.435873  1
  Lu  Lu7  1  0.159206  0.175627  0.062263  1
  Lu  Lu8  1  0.875126  0.539377  0.250000  1
  Lu  Lu9  1  0.622837  0.036929  0.250000  1
  Lu  Lu10  1  0.129707  0.459043  0.750000  1
  Lu  Lu11  1  0.374593  0.960430  0.750000  1
  Tc  Tc12  1  0.040497  0.881970  0.250000  1
  Tc  Tc13  1  0.461844  0.383947  0.250000  1
  Tc  Tc14  1  0.960906  0.118987  0.750000  1
  Rh  Rh15  1  0.543708  0.617178  0.750000  1
