# generated using pymatgen
data_Cs4GeS4
_symmetry_space_group_name_H-M   'P 1'
_cell_length_a   8.41024494
_cell_length_b   10.15358935
_cell_length_c   15.38218100
_cell_angle_alpha   89.62915672
_cell_angle_beta   89.79101569
_cell_angle_gamma   89.86980922
_symmetry_Int_Tables_number   1
_chemical_formula_structural   Cs4GeS4
_chemical_formula_sum   'Cs16 Ge4 S16'
_cell_volume   1313.50906082
_cell_formula_units_Z   4
loop_
 _symmetry_equiv_pos_site_id
 _symmetry_equiv_pos_as_xyz
  1  'x, y, z'
loop_
 _atom_site_type_symbol
 _atom_site_label
 _atom_site_symmetry_multiplicity
 _atom_site_fract_x
 _atom_site_fract_y
 _atom_site_fract_z
 _atom_site_occupancy
  Cs  Cs0  1  0.998977  0.999097  0.999964  1
  Cs  Cs1  1  0.499676  0.001749  0.501639  1
  Cs  Cs2  1  0.000311  0.499741  0.999632  1
  Cs  Cs3  1  0.500235  0.501596  0.499542  1
  Cs  Cs4  1  0.998482  0.750106  0.423954  1
  Cs  Cs5  1  0.499241  0.249567  0.074967  1
  Cs  Cs6  1  0.001363  0.250251  0.575830  1
  Cs  Cs7  1  0.500278  0.749231  0.924528  1
  Cs  Cs8  1  0.826337  0.055071  0.277723  1
  Cs  Cs9  1  0.325093  0.943879  0.223062  1
  Cs  Cs10  1  0.173535  0.556590  0.721360  1
  Cs  Cs11  1  0.673494  0.443010  0.777448  1
  Cs  Cs12  1  0.173323  0.943725  0.723072  1
  Cs  Cs13  1  0.673855  0.055981  0.777608  1
  Cs  Cs14  1  0.828150  0.443289  0.277581  1
  Cs  Cs15  1  0.326370  0.556872  0.221699  1
  Ge  Ge16  1  0.767011  0.750148  0.665802  1
  Ge  Ge17  1  0.234114  0.250649  0.334965  1
  Ge  Ge18  1  0.732652  0.749722  0.165408  1
  Ge  Ge19  1  0.266452  0.249486  0.833975  1
  S  S20  1  0.999384  0.249633  0.825412  1
  S  S21  1  0.501257  0.251283  0.326391  1
  S  S22  1  0.499905  0.751143  0.674860  1
  S  S23  1  0.999875  0.750137  0.173509  1
  S  S24  1  0.650210  0.571035  0.094389  1
  S  S25  1  0.150045  0.429650  0.405849  1
  S  S26  1  0.350222  0.070236  0.905822  1
  S  S27  1  0.852101  0.929153  0.594205  1
  S  S28  1  0.349722  0.428156  0.904754  1
  S  S29  1  0.850016  0.571303  0.594379  1
  S  S30  1  0.647580  0.929048  0.094095  1
  S  S31  1  0.149731  0.071239  0.406418  1
  S  S32  1  0.636505  0.748884  0.304531  1
  S  S33  1  0.138726  0.250511  0.195945  1
  S  S34  1  0.363278  0.249991  0.694971  1
  S  S35  1  0.862497  0.748842  0.804717  1
