# generated using pymatgen
data_Er9Lu11(SiBi2)4
_symmetry_space_group_name_H-M   'P 1'
_cell_length_a   11.86304242
_cell_length_b   9.05743406
_cell_length_c   7.94627824
_cell_angle_alpha   89.99673047
_cell_angle_beta   89.97234754
_cell_angle_gamma   89.98680763
_symmetry_Int_Tables_number   1
_chemical_formula_structural   Er9Lu11(SiBi2)4
_chemical_formula_sum   'Er9 Lu11 Si4 Bi8'
_cell_volume   853.81733777
_cell_formula_units_Z   1
loop_
 _symmetry_equiv_pos_site_id
 _symmetry_equiv_pos_as_xyz
  1  'x, y, z'
loop_
 _atom_site_type_symbol
 _atom_site_label
 _atom_site_symmetry_multiplicity
 _atom_site_fract_x
 _atom_site_fract_y
 _atom_site_fract_z
 _atom_site_occupancy
  Er  Er0  1  0.561408  0.554764  0.679543  1
  Er  Er1  1  0.211104  0.750023  0.165814  1
  Er  Er2  1  0.711307  0.750188  0.334241  1
  Er  Er3  1  0.788935  0.249999  0.834319  1
  Er  Er4  1  0.288945  0.249991  0.665874  1
  Er  Er5  1  0.293786  0.750123  0.639523  1
  Er  Er6  1  0.794267  0.750257  0.860286  1
  Er  Er7  1  0.706019  0.250070  0.360253  1
  Er  Er8  1  0.205954  0.250073  0.139797  1
  Lu  Lu9  1  0.061274  0.555560  0.821208  1
  Lu  Lu10  1  0.561367  0.944491  0.678907  1
  Lu  Lu11  1  0.938744  0.055588  0.178828  1
  Lu  Lu12  1  0.438598  0.444367  0.321106  1
  Lu  Lu13  1  0.938803  0.444494  0.178864  1
  Lu  Lu14  1  0.438621  0.055589  0.321048  1
  Lu  Lu15  1  0.061360  0.944428  0.821189  1
  Lu  Lu16  1  0.001130  0.750107  0.460770  1
  Lu  Lu17  1  0.501041  0.750139  0.039431  1
  Lu  Lu18  1  0.998907  0.249998  0.539252  1
  Lu  Lu19  1  0.498891  0.249837  0.960977  1
  Si  Si20  1  0.476056  0.750691  0.408653  1
  Si  Si21  1  0.976265  0.749991  0.091017  1
  Si  Si22  1  0.523358  0.248368  0.590287  1
  Si  Si23  1  0.023824  0.250102  0.909197  1
  Bi  Bi24  1  0.326021  0.510586  0.933217  1
  Bi  Bi25  1  0.826185  0.989656  0.566502  1
  Bi  Bi26  1  0.673940  0.010669  0.066643  1
  Bi  Bi27  1  0.173721  0.489497  0.433321  1
  Bi  Bi28  1  0.674056  0.489579  0.066717  1
  Bi  Bi29  1  0.173781  0.010574  0.433453  1
  Bi  Bi30  1  0.325979  0.989616  0.933521  1
  Bi  Bi31  1  0.826353  0.510585  0.566243  1
