# generated using pymatgen
data_CeBi(PO3)6
_symmetry_space_group_name_H-M   'P 1'
_cell_length_a   7.14167742
_cell_length_b   7.14167758
_cell_length_c   7.39009748
_cell_angle_alpha   90.03298328
_cell_angle_beta   89.96701283
_cell_angle_gamma   104.86734599
_symmetry_Int_Tables_number   1
_chemical_formula_structural   CeBi(PO3)6
_chemical_formula_sum   'Ce1 Bi1 P6 O18'
_cell_volume   364.30277194
_cell_formula_units_Z   1
loop_
 _symmetry_equiv_pos_site_id
 _symmetry_equiv_pos_as_xyz
  1  'x, y, z'
loop_
 _atom_site_type_symbol
 _atom_site_label
 _atom_site_symmetry_multiplicity
 _atom_site_fract_x
 _atom_site_fract_y
 _atom_site_fract_z
 _atom_site_occupancy
  Ce  Ce0  1  0.628537  0.628537  0.500000  1
  Bi  Bi1  1  0.356382  0.356382  0.000000  1
  P  P2  1  0.831043  0.183322  0.046434  1
  P  P3  1  0.167861  0.816291  0.546184  1
  P  P4  1  0.183322  0.831043  0.953566  1
  P  P5  1  0.816291  0.167861  0.453816  1
  P  P6  1  0.750938  0.750938  0.000000  1
  P  P7  1  0.247391  0.247391  0.500000  1
  O  O8  1  0.753427  0.971270  0.957509  1
  O  O9  1  0.248022  0.029738  0.457374  1
  O  O10  1  0.971270  0.753427  0.042491  1
  O  O11  1  0.029738  0.248022  0.542626  1
  O  O12  1  0.678075  0.638442  0.830043  1
  O  O13  1  0.325999  0.363502  0.331696  1
  O  O14  1  0.638442  0.678075  0.169957  1
  O  O15  1  0.363502  0.325999  0.668304  1
  O  O16  1  0.718591  0.328502  0.462724  1
  O  O17  1  0.283998  0.672810  0.963973  1
  O  O18  1  0.328502  0.718591  0.537276  1
  O  O19  1  0.672810  0.283998  0.036027  1
  O  O20  1  0.720995  0.976782  0.537044  1
  O  O21  1  0.280578  0.024063  0.037905  1
  O  O22  1  0.976782  0.720995  0.462956  1
  O  O23  1  0.024063  0.280578  0.962095  1
  O  O24  1  0.875384  0.128060  0.249808  1
  O  O25  1  0.128060  0.875384  0.750192  1
