# generated using pymatgen
data_YHoZr2(Al3Ir)6
_symmetry_space_group_name_H-M   'P 1'
_cell_length_a   7.52526700
_cell_length_b   7.50808385
_cell_length_c   9.36468600
_cell_angle_alpha   90.00000000
_cell_angle_beta   90.00000000
_cell_angle_gamma   119.73878751
_symmetry_Int_Tables_number   1
_chemical_formula_structural   YHoZr2(Al3Ir)6
_chemical_formula_sum   'Y1 Ho1 Zr2 Al18 Ir6'
_cell_volume   459.42222473
_cell_formula_units_Z   1
loop_
 _symmetry_equiv_pos_site_id
 _symmetry_equiv_pos_as_xyz
  1  'x, y, z'
loop_
 _atom_site_type_symbol
 _atom_site_label
 _atom_site_symmetry_multiplicity
 _atom_site_fract_x
 _atom_site_fract_y
 _atom_site_fract_z
 _atom_site_occupancy
  Y  Y0  1  0.670274  0.994327  0.250000  1
  Ho  Ho1  1  0.329698  0.005654  0.750000  1
  Zr  Zr2  1  0.995164  0.670880  0.250000  1
  Zr  Zr3  1  0.004850  0.329125  0.750000  1
  Al  Al4  1  0.126096  0.124170  0.250000  1
  Al  Al5  1  0.874229  0.875799  0.750000  1
  Al  Al6  1  0.000037  0.337040  0.074415  1
  Al  Al7  1  0.000207  0.663236  0.925301  1
  Al  Al8  1  0.000207  0.663236  0.574699  1
  Al  Al9  1  0.332048  0.998689  0.422479  1
  Al  Al10  1  0.000037  0.337040  0.425585  1
  Al  Al11  1  0.667654  0.001289  0.578057  1
  Al  Al12  1  0.667654  0.001289  0.921943  1
  Al  Al13  1  0.332048  0.998689  0.077521  1
  Al  Al14  1  0.331470  0.333543  0.556373  1
  Al  Al15  1  0.668589  0.666239  0.443949  1
  Al  Al16  1  0.668589  0.666239  0.056051  1
  Al  Al17  1  0.331470  0.333543  0.943627  1
  Al  Al18  1  0.333951  0.547547  0.250000  1
  Al  Al19  1  0.665621  0.452114  0.750000  1
  Al  Al20  1  0.553910  0.343907  0.250000  1
  Al  Al21  1  0.446105  0.656391  0.750000  1
  Ir  Ir22  1  0.672000  0.327704  0.999323  1
  Ir  Ir23  1  0.327830  0.672272  0.000443  1
  Ir  Ir24  1  0.327830  0.672272  0.499557  1
  Ir  Ir25  1  0.672000  0.327704  0.500677  1
  Ir  Ir26  1  0.000217  0.000031  0.999848  1
  Ir  Ir27  1  0.000217  0.000031  0.500152  1
