# generated using pymatgen
data_Ta(Ti5As4)3
_symmetry_space_group_name_H-M   'P 1'
_cell_length_a   7.36661652
_cell_length_b   7.36661574
_cell_length_c   18.96962308
_cell_angle_alpha   90.09958922
_cell_angle_beta   89.90041140
_cell_angle_gamma   152.36865430
_symmetry_Int_Tables_number   1
_chemical_formula_structural   Ta(Ti5As4)3
_chemical_formula_sum   'Ta1 Ti15 As12'
_cell_volume   477.42685641
_cell_formula_units_Z   1
loop_
 _symmetry_equiv_pos_site_id
 _symmetry_equiv_pos_as_xyz
  1  'x, y, z'
loop_
 _atom_site_type_symbol
 _atom_site_label
 _atom_site_symmetry_multiplicity
 _atom_site_fract_x
 _atom_site_fract_y
 _atom_site_fract_z
 _atom_site_occupancy
  Ta  Ta0  1  0.000000  0.000000  0.500000  1
  Ti  Ti1  1  0.000000  0.000000  0.000000  1
  Ti  Ti2  1  0.061983  0.938017  0.750606  1
  Ti  Ti3  1  0.938017  0.061983  0.249394  1
  Ti  Ti4  1  0.732143  0.267857  0.162577  1
  Ti  Ti5  1  0.267857  0.732143  0.837423  1
  Ti  Ti6  1  0.268464  0.731536  0.661953  1
  Ti  Ti7  1  0.731536  0.268464  0.338047  1
  Ti  Ti8  1  0.535475  0.464525  0.119928  1
  Ti  Ti9  1  0.464525  0.535475  0.880072  1
  Ti  Ti10  1  0.465604  0.534396  0.618014  1
  Ti  Ti11  1  0.534396  0.465604  0.381986  1
  Ti  Ti12  1  0.664798  0.335202  0.973138  1
  Ti  Ti13  1  0.335202  0.664798  0.026862  1
  Ti  Ti14  1  0.335995  0.664005  0.472831  1
  Ti  Ti15  1  0.664005  0.335995  0.527169  1
  As  As16  1  0.420186  0.579814  0.749524  1
  As  As17  1  0.579814  0.420186  0.250476  1
  As  As18  1  0.701131  0.298869  0.749820  1
  As  As19  1  0.298869  0.701131  0.250180  1
  As  As20  1  0.901831  0.098169  0.116651  1
  As  As21  1  0.098169  0.901831  0.883349  1
  As  As22  1  0.099926  0.900074  0.618681  1
  As  As23  1  0.900074  0.099926  0.381319  1
  As  As24  1  0.840577  0.159423  0.924604  1
  As  As25  1  0.159423  0.840577  0.075396  1
  As  As26  1  0.161244  0.838756  0.424529  1
  As  As27  1  0.838756  0.161244  0.575471  1
