# generated using pymatgen
data_Er2Th2Al6ReRu
_symmetry_space_group_name_H-M   'P 1'
_cell_length_a   5.52666800
_cell_length_b   5.52666773
_cell_length_c   8.97304000
_cell_angle_alpha   90.00000000
_cell_angle_beta   90.00000000
_cell_angle_gamma   120.00001357
_symmetry_Int_Tables_number   1
_chemical_formula_structural   Er2Th2Al6ReRu
_chemical_formula_sum   'Er2 Th2 Al6 Re1 Ru1'
_cell_volume   237.35419266
_cell_formula_units_Z   1
loop_
 _symmetry_equiv_pos_site_id
 _symmetry_equiv_pos_as_xyz
  1  'x, y, z'
loop_
 _atom_site_type_symbol
 _atom_site_label
 _atom_site_symmetry_multiplicity
 _atom_site_fract_x
 _atom_site_fract_y
 _atom_site_fract_z
 _atom_site_occupancy
  Er  Er0  1  0.666667  0.333333  0.444073  1
  Er  Er1  1  0.333333  0.666667  0.555927  1
  Th  Th2  1  0.333333  0.666667  0.954858  1
  Th  Th3  1  0.666667  0.333333  0.045142  1
  Al  Al4  1  0.674847  0.837424  0.259400  1
  Al  Al5  1  0.162576  0.837424  0.259400  1
  Al  Al6  1  0.162576  0.325153  0.259400  1
  Al  Al7  1  0.325153  0.162576  0.740600  1
  Al  Al8  1  0.837424  0.162576  0.740600  1
  Al  Al9  1  0.837424  0.674847  0.740600  1
  Re  Re10  1  0.000000  0.000000  0.000000  1
  Ru  Ru11  1  0.000000  0.000000  0.500000  1
