# generated using pymatgen
data_Ac2TbCu3(Ni5B)2
_symmetry_space_group_name_H-M   'P 1'
_cell_length_a   5.13159700
_cell_length_b   5.13159730
_cell_length_c   10.98725200
_cell_angle_alpha   90.00000000
_cell_angle_beta   90.00000000
_cell_angle_gamma   119.99999161
_symmetry_Int_Tables_number   1
_chemical_formula_structural   Ac2TbCu3(Ni5B)2
_chemical_formula_sum   'Ac2 Tb1 Cu3 Ni10 B2'
_cell_volume   250.56757186
_cell_formula_units_Z   1
loop_
 _symmetry_equiv_pos_site_id
 _symmetry_equiv_pos_as_xyz
  1  'x, y, z'
loop_
 _atom_site_type_symbol
 _atom_site_label
 _atom_site_symmetry_multiplicity
 _atom_site_fract_x
 _atom_site_fract_y
 _atom_site_fract_z
 _atom_site_occupancy
  Ac  Ac0  1  0.000000  0.000000  0.329518  1
  Ac  Ac1  1  0.000000  0.000000  0.672294  1
  Tb  Tb2  1  0.000000  0.000000  0.999355  1
  Cu  Cu3  1  0.333333  0.666667  0.315208  1
  Cu  Cu4  1  0.666667  0.333333  0.314907  1
  Cu  Cu5  1  0.666667  0.333333  0.685468  1
  Ni  Ni6  1  0.499550  0.999100  0.500464  1
  Ni  Ni7  1  0.499550  0.500450  0.500464  1
  Ni  Ni8  1  0.000900  0.500450  0.500464  1
  Ni  Ni9  1  0.333333  0.666667  0.683599  1
  Ni  Ni10  1  0.500063  0.000125  0.125579  1
  Ni  Ni11  1  0.500063  0.499937  0.125579  1
  Ni  Ni12  1  0.999875  0.499937  0.125579  1
  Ni  Ni13  1  0.498933  0.997866  0.873911  1
  Ni  Ni14  1  0.498933  0.501067  0.873911  1
  Ni  Ni15  1  0.002134  0.501067  0.873911  1
  B  B16  1  0.333333  0.666667  0.000246  1
  B  B17  1  0.666667  0.333333  0.999547  1
