# generated using pymatgen
data_Dy8Sc12Ga9Pb7
_symmetry_space_group_name_H-M   'P 1'
_cell_length_a   7.35528981
_cell_length_b   7.77784055
_cell_length_c   14.76730600
_cell_angle_alpha   89.95124086
_cell_angle_beta   90.15756323
_cell_angle_gamma   90.05631112
_symmetry_Int_Tables_number   1
_chemical_formula_structural   Dy8Sc12Ga9Pb7
_chemical_formula_sum   'Dy8 Sc12 Ga9 Pb7'
_cell_volume   844.80814299
_cell_formula_units_Z   1
loop_
 _symmetry_equiv_pos_site_id
 _symmetry_equiv_pos_as_xyz
  1  'x, y, z'
loop_
 _atom_site_type_symbol
 _atom_site_label
 _atom_site_symmetry_multiplicity
 _atom_site_fract_x
 _atom_site_fract_y
 _atom_site_fract_z
 _atom_site_occupancy
  Dy  Dy0  1  0.995642  0.182324  0.103565  1
  Dy  Dy1  1  0.004059  0.817502  0.895877  1
  Dy  Dy2  1  0.503755  0.683419  0.896161  1
  Dy  Dy3  1  0.006236  0.812721  0.602243  1
  Dy  Dy4  1  0.495782  0.317536  0.103387  1
  Dy  Dy5  1  0.000412  0.186263  0.399890  1
  Dy  Dy6  1  0.492858  0.322824  0.400476  1
  Dy  Dy7  1  0.492625  0.673757  0.599558  1
  Sc  Sc8  1  0.175405  0.503610  0.745470  1
  Sc  Sc9  1  0.825216  0.496319  0.251067  1
  Sc  Sc10  1  0.325388  0.002827  0.250338  1
  Sc  Sc11  1  0.673181  0.996058  0.748923  1
  Sc  Sc12  1  0.327147  0.176330  0.629420  1
  Sc  Sc13  1  0.665847  0.834222  0.366860  1
  Sc  Sc14  1  0.169217  0.655993  0.370103  1
  Sc  Sc15  1  0.663843  0.837415  0.135407  1
  Sc  Sc16  1  0.844483  0.337815  0.633311  1
  Sc  Sc17  1  0.336791  0.162640  0.864603  1
  Sc  Sc18  1  0.835624  0.337088  0.864717  1
  Sc  Sc19  1  0.163603  0.662762  0.134825  1
  Ga  Ga20  1  0.034362  0.113253  0.750100  1
  Ga  Ga21  1  0.966488  0.884232  0.251592  1
  Ga  Ga22  1  0.464959  0.614736  0.250422  1
  Ga  Ga23  1  0.535847  0.385328  0.748296  1
  Ga  Ga24  1  0.294948  0.869763  0.748604  1
  Ga  Ga25  1  0.705679  0.133364  0.251408  1
  Ga  Ga26  1  0.205968  0.366604  0.250123  1
  Ga  Ga27  1  0.792604  0.632795  0.749539  1
  Ga  Ga28  1  0.175458  0.458889  0.541850  1
  Pb  Pb29  1  0.825313  0.542715  0.462159  1
  Pb  Pb30  1  0.315524  0.955069  0.459665  1
  Pb  Pb31  1  0.813766  0.545706  0.040013  1
  Pb  Pb32  1  0.685529  0.043580  0.541235  1
  Pb  Pb33  1  0.186113  0.454433  0.959034  1
  Pb  Pb34  1  0.686450  0.045471  0.959834  1
  Pb  Pb35  1  0.313877  0.954634  0.039926  1
