# generated using pymatgen
data_NdGdBi2O7
_symmetry_space_group_name_H-M   'P 1'
_cell_length_a   6.70192799
_cell_length_b   6.80258390
_cell_length_c   7.88611000
_cell_angle_alpha   106.55897678
_cell_angle_beta   89.66290512
_cell_angle_gamma   98.00827170
_symmetry_Int_Tables_number   1
_chemical_formula_structural   NdGdBi2O7
_chemical_formula_sum   'Nd2 Gd2 Bi4 O14'
_cell_volume   341.04278186
_cell_formula_units_Z   2
loop_
 _symmetry_equiv_pos_site_id
 _symmetry_equiv_pos_as_xyz
  1  'x, y, z'
loop_
 _atom_site_type_symbol
 _atom_site_label
 _atom_site_symmetry_multiplicity
 _atom_site_fract_x
 _atom_site_fract_y
 _atom_site_fract_z
 _atom_site_occupancy
  Nd  Nd0  1  0.258066  0.536955  0.883946  1
  Nd  Nd1  1  0.741934  0.463045  0.116054  1
  Gd  Gd2  1  0.459319  0.004615  0.251340  1
  Gd  Gd3  1  0.540681  0.995385  0.748660  1
  Bi  Bi4  1  0.000000  0.000000  0.500000  1
  Bi  Bi5  1  0.000000  0.000000  0.000000  1
  Bi  Bi6  1  0.724432  0.458014  0.611036  1
  Bi  Bi7  1  0.275568  0.541986  0.388964  1
  O  O8  1  0.443776  0.651952  0.171473  1
  O  O9  1  0.556224  0.348048  0.828527  1
  O  O10  1  0.300986  0.928525  0.948794  1
  O  O11  1  0.699014  0.071475  0.051206  1
  O  O12  1  0.298915  0.919845  0.512731  1
  O  O13  1  0.701085  0.080155  0.487269  1
  O  O14  1  0.539384  0.358776  0.346424  1
  O  O15  1  0.460616  0.641224  0.653576  1
  O  O16  1  0.931537  0.675470  0.960330  1
  O  O17  1  0.068463  0.324530  0.039670  1
  O  O18  1  0.086438  0.321115  0.622873  1
  O  O19  1  0.913562  0.678885  0.377127  1
  O  O20  1  0.881489  0.931210  0.733391  1
  O  O21  1  0.118511  0.068790  0.266609  1
