# generated using pymatgen
data_Ac3ZrSb5
_symmetry_space_group_name_H-M   'P 1'
_cell_length_a   9.90646900
_cell_length_b   9.90656306
_cell_length_c   6.59398200
_cell_angle_alpha   90.00000000
_cell_angle_beta   90.00000000
_cell_angle_gamma   120.00032125
_symmetry_Int_Tables_number   1
_chemical_formula_structural   Ac3ZrSb5
_chemical_formula_sum   'Ac6 Zr2 Sb10'
_cell_volume   560.42677530
_cell_formula_units_Z   2
loop_
 _symmetry_equiv_pos_site_id
 _symmetry_equiv_pos_as_xyz
  1  'x, y, z'
loop_
 _atom_site_type_symbol
 _atom_site_label
 _atom_site_symmetry_multiplicity
 _atom_site_fract_x
 _atom_site_fract_y
 _atom_site_fract_z
 _atom_site_occupancy
  Ac  Ac0  1  0.617698  0.000000  0.250000  1
  Ac  Ac1  1  0.382302  0.000000  0.750000  1
  Ac  Ac2  1  0.000000  0.617697  0.250000  1
  Ac  Ac3  1  0.000000  0.382303  0.750000  1
  Ac  Ac4  1  0.382302  0.382303  0.250000  1
  Ac  Ac5  1  0.617698  0.617697  0.750000  1
  Zr  Zr6  1  0.000000  0.000000  0.000000  1
  Zr  Zr7  1  0.000000  0.000000  0.500000  1
  Sb  Sb8  1  0.253707  0.000000  0.250000  1
  Sb  Sb9  1  0.746293  0.000000  0.750000  1
  Sb  Sb10  1  0.000000  0.253708  0.250000  1
  Sb  Sb11  1  0.000000  0.746292  0.750000  1
  Sb  Sb12  1  0.746293  0.746293  0.250000  1
  Sb  Sb13  1  0.253707  0.253707  0.750000  1
  Sb  Sb14  1  0.333335  0.666668  0.000000  1
  Sb  Sb15  1  0.666665  0.333332  0.000000  1
  Sb  Sb16  1  0.666665  0.333332  0.500000  1
  Sb  Sb17  1  0.333335  0.666668  0.500000  1
