# generated using pymatgen
data_PrTm2Cr(Co4P3)2
_symmetry_space_group_name_H-M   'P 1'
_cell_length_a   3.69121400
_cell_length_b   10.51455400
_cell_length_c   12.19454800
_cell_angle_alpha   90.00000000
_cell_angle_beta   90.00000000
_cell_angle_gamma   90.00000000
_symmetry_Int_Tables_number   1
_chemical_formula_structural   PrTm2Cr(Co4P3)2
_chemical_formula_sum   'Pr2 Tm4 Cr2 Co16 P12'
_cell_volume   473.28832080
_cell_formula_units_Z   2
loop_
 _symmetry_equiv_pos_site_id
 _symmetry_equiv_pos_as_xyz
  1  'x, y, z'
loop_
 _atom_site_type_symbol
 _atom_site_label
 _atom_site_symmetry_multiplicity
 _atom_site_fract_x
 _atom_site_fract_y
 _atom_site_fract_z
 _atom_site_occupancy
  Pr  Pr0  1  0.000000  0.500000  0.522856  1
  Pr  Pr1  1  0.500000  0.000000  0.477144  1
  Tm  Tm2  1  0.500000  0.817920  0.202706  1
  Tm  Tm3  1  0.500000  0.182080  0.202706  1
  Tm  Tm4  1  0.000000  0.682080  0.797294  1
  Tm  Tm5  1  0.000000  0.317920  0.797294  1
  Cr  Cr6  1  0.500000  0.500000  0.152102  1
  Cr  Cr7  1  0.000000  0.000000  0.847898  1
  Co  Co8  1  0.500000  0.500000  0.706434  1
  Co  Co9  1  0.000000  0.000000  0.293566  1
  Co  Co10  1  0.000000  0.500000  0.986954  1
  Co  Co11  1  0.500000  0.000000  0.013046  1
  Co  Co12  1  0.500000  0.332258  0.992087  1
  Co  Co13  1  0.500000  0.667742  0.992087  1
  Co  Co14  1  0.000000  0.167742  0.007913  1
  Co  Co15  1  0.000000  0.832258  0.007913  1
  Co  Co16  1  0.500000  0.295295  0.428452  1
  Co  Co17  1  0.500000  0.704705  0.428452  1
  Co  Co18  1  0.000000  0.204705  0.571548  1
  Co  Co19  1  0.000000  0.795295  0.571548  1
  Co  Co20  1  0.500000  0.879282  0.712692  1
  Co  Co21  1  0.500000  0.120718  0.712692  1
  Co  Co22  1  0.000000  0.620718  0.287308  1
  Co  Co23  1  0.000000  0.379282  0.287308  1
  P  P24  1  0.500000  0.500000  0.882523  1
  P  P25  1  0.000000  0.000000  0.117477  1
  P  P26  1  0.500000  0.500000  0.337528  1
  P  P27  1  0.000000  0.000000  0.662472  1
  P  P28  1  0.500000  0.308113  0.619299  1
  P  P29  1  0.500000  0.691887  0.619299  1
  P  P30  1  0.000000  0.191887  0.380701  1
  P  P31  1  0.000000  0.808113  0.380701  1
  P  P32  1  0.500000  0.847273  0.892766  1
  P  P33  1  0.500000  0.152727  0.892766  1
  P  P34  1  0.000000  0.652727  0.107234  1
  P  P35  1  0.000000  0.347273  0.107234  1
