# generated using pymatgen
data_Pa2Co9Tc3As7
_symmetry_space_group_name_H-M   'P 1'
_cell_length_a   3.84982400
_cell_length_b   9.36115681
_cell_length_c   9.36115800
_cell_angle_alpha   120.00000135
_cell_angle_beta   90.00000000
_cell_angle_gamma   90.00000000
_symmetry_Int_Tables_number   1
_chemical_formula_structural   Pa2Co9Tc3As7
_chemical_formula_sum   'Pa2 Co9 Tc3 As7'
_cell_volume   292.16662062
_cell_formula_units_Z   1
loop_
 _symmetry_equiv_pos_site_id
 _symmetry_equiv_pos_as_xyz
  1  'x, y, z'
loop_
 _atom_site_type_symbol
 _atom_site_label
 _atom_site_symmetry_multiplicity
 _atom_site_fract_x
 _atom_site_fract_y
 _atom_site_fract_z
 _atom_site_occupancy
  Pa  Pa0  1  0.000000  0.666667  0.333333  1
  Pa  Pa1  1  0.500000  0.333333  0.666667  1
  Co  Co2  1  0.000000  0.564463  0.934569  1
  Co  Co3  1  0.000000  0.370107  0.435537  1
  Co  Co4  1  0.000000  0.065431  0.629893  1
  Co  Co5  1  0.000000  0.870575  0.154705  1
  Co  Co6  1  0.000000  0.284129  0.129425  1
  Co  Co7  1  0.000000  0.845295  0.715871  1
  Co  Co8  1  0.500000  0.941718  0.381409  1
  Co  Co9  1  0.500000  0.439690  0.058282  1
  Co  Co10  1  0.500000  0.618591  0.560310  1
  Tc  Tc11  1  0.500000  0.782944  0.896286  1
  Tc  Tc12  1  0.500000  0.113341  0.217056  1
  Tc  Tc13  1  0.500000  0.103714  0.886659  1
  As  As14  1  0.000000  0.000000  0.000000  1
  As  As15  1  0.500000  0.707368  0.111640  1
  As  As16  1  0.500000  0.404274  0.292632  1
  As  As17  1  0.500000  0.888360  0.595726  1
  As  As18  1  0.000000  0.592874  0.701341  1
  As  As19  1  0.000000  0.108467  0.407126  1
  As  As20  1  0.000000  0.298659  0.891533  1
