# generated using pymatgen
data_Dy2Er14CdHg3Rh4
_symmetry_space_group_name_H-M   'P 1'
_cell_length_a   9.54616354
_cell_length_b   9.53187378
_cell_length_c   9.53032442
_cell_angle_alpha   59.91859829
_cell_angle_beta   59.94500469
_cell_angle_gamma   59.95039525
_symmetry_Int_Tables_number   1
_chemical_formula_structural   Dy2Er14CdHg3Rh4
_chemical_formula_sum   'Dy2 Er14 Cd1 Hg3 Rh4'
_cell_volume   612.33432382
_cell_formula_units_Z   1
loop_
 _symmetry_equiv_pos_site_id
 _symmetry_equiv_pos_as_xyz
  1  'x, y, z'
loop_
 _atom_site_type_symbol
 _atom_site_label
 _atom_site_symmetry_multiplicity
 _atom_site_fract_x
 _atom_site_fract_y
 _atom_site_fract_z
 _atom_site_occupancy
  Dy  Dy0  1  0.936362  0.936715  0.563308  1
  Dy  Dy1  1  0.563614  0.936715  0.563308  1
  Er  Er2  1  0.563186  0.564094  0.936533  1
  Er  Er3  1  0.148884  0.554264  0.147970  1
  Er  Er4  1  0.688310  0.312594  0.310786  1
  Er  Er5  1  0.936576  0.564072  0.562775  1
  Er  Er6  1  0.936187  0.564094  0.936533  1
  Er  Er7  1  0.688725  0.689341  0.311066  1
  Er  Er8  1  0.563265  0.936645  0.936823  1
  Er  Er9  1  0.150496  0.148903  0.149421  1
  Er  Er10  1  0.310868  0.689341  0.311066  1
  Er  Er11  1  0.551180  0.148903  0.149421  1
  Er  Er12  1  0.310671  0.312684  0.688767  1
  Er  Er13  1  0.311064  0.688823  0.689049  1
  Er  Er14  1  0.149898  0.148496  0.551709  1
  Er  Er15  1  0.687878  0.312684  0.688767  1
  Cd  Cd16  1  0.919570  0.241250  0.919610  1
  Hg  Hg17  1  0.914806  0.916934  0.915186  1
  Hg  Hg18  1  0.253073  0.916934  0.915186  1
  Hg  Hg19  1  0.915009  0.916797  0.253184  1
  Rh  Rh20  1  0.357179  0.357072  0.928570  1
  Rh  Rh21  1  0.357156  0.357264  0.356970  1
  Rh  Rh22  1  0.928609  0.357264  0.356970  1
  Rh  Rh23  1  0.357431  0.928116  0.357021  1
