# generated using pymatgen
data_Er8Tm2Ir3Os
_symmetry_space_group_name_H-M   'P 1'
_cell_length_a   6.43193386
_cell_length_b   7.21130589
_cell_length_c   8.34696609
_cell_angle_alpha   96.45207031
_cell_angle_beta   112.39255669
_cell_angle_gamma   89.98081050
_symmetry_Int_Tables_number   1
_chemical_formula_structural   Er8Tm2Ir3Os
_chemical_formula_sum   'Er8 Tm2 Ir3 Os1'
_cell_volume   355.31362579
_cell_formula_units_Z   1
loop_
 _symmetry_equiv_pos_site_id
 _symmetry_equiv_pos_as_xyz
  1  'x, y, z'
loop_
 _atom_site_type_symbol
 _atom_site_label
 _atom_site_symmetry_multiplicity
 _atom_site_fract_x
 _atom_site_fract_y
 _atom_site_fract_z
 _atom_site_occupancy
  Er  Er0  1  0.970057  0.917529  0.182405  1
  Er  Er1  1  0.789064  0.581367  0.821524  1
  Er  Er2  1  0.029968  0.081390  0.818908  1
  Er  Er3  1  0.211506  0.419145  0.182971  1
  Er  Er4  1  0.656072  0.816791  0.440086  1
  Er  Er5  1  0.210489  0.681667  0.556796  1
  Er  Er6  1  0.345999  0.182009  0.558753  1
  Er  Er7  1  0.786988  0.319284  0.440284  1
  Tm  Tm8  1  0.427377  0.749579  0.000354  1
  Tm  Tm9  1  0.574840  0.251443  0.000930  1
  Ir  Ir10  1  0.607547  0.927393  0.781083  1
  Ir  Ir11  1  0.173748  0.425658  0.781994  1
  Ir  Ir12  1  0.390856  0.073344  0.218093  1
  Os  Os13  1  0.825490  0.573403  0.215820  1
