# generated using pymatgen
data_TbYb2Tm(NiB4)4
_symmetry_space_group_name_H-M   'P 1'
_cell_length_a   6.81557094
_cell_length_b   6.81556961
_cell_length_c   6.81557124
_cell_angle_alpha   112.85686239
_cell_angle_beta   112.85685889
_cell_angle_gamma   102.89349739
_symmetry_Int_Tables_number   1
_chemical_formula_structural   TbYb2Tm(NiB4)4
_chemical_formula_sum   'Tb1 Yb2 Tm1 Ni4 B16'
_cell_volume   241.34548248
_cell_formula_units_Z   1
loop_
 _symmetry_equiv_pos_site_id
 _symmetry_equiv_pos_as_xyz
  1  'x, y, z'
loop_
 _atom_site_type_symbol
 _atom_site_label
 _atom_site_symmetry_multiplicity
 _atom_site_fract_x
 _atom_site_fract_y
 _atom_site_fract_z
 _atom_site_occupancy
  Tb  Tb0  1  0.250000  0.750000  0.500000  1
  Yb  Yb1  1  0.204684  0.204684  0.000000  1
  Yb  Yb2  1  0.795316  0.795316  0.000000  1
  Tm  Tm3  1  0.750000  0.250000  0.500000  1
  Ni  Ni4  1  0.500716  0.273197  0.772479  1
  Ni  Ni5  1  0.500716  0.728237  0.227521  1
  Ni  Ni6  1  0.726803  0.499284  0.227521  1
  Ni  Ni7  1  0.271763  0.499284  0.772479  1
  B  B8  1  0.112420  0.276608  0.388171  1
  B  B9  1  0.888436  0.724249  0.611829  1
  B  B10  1  0.888436  0.276608  0.164188  1
  B  B11  1  0.112420  0.724249  0.835812  1
  B  B12  1  0.723392  0.887580  0.611829  1
  B  B13  1  0.275751  0.111564  0.388171  1
  B  B14  1  0.723392  0.111564  0.835812  1
  B  B15  1  0.275751  0.887580  0.164188  1
  B  B16  1  0.417938  0.416255  0.530171  1
  B  B17  1  0.886085  0.887767  0.469829  1
  B  B18  1  0.583745  0.113915  0.001683  1
  B  B19  1  0.112233  0.582062  0.998317  1
  B  B20  1  0.583745  0.582062  0.469829  1
  B  B21  1  0.112233  0.113915  0.530171  1
  B  B22  1  0.886085  0.416255  0.998317  1
  B  B23  1  0.417938  0.887767  0.001683  1
