# generated using pymatgen
data_Ta9NbSi6C
_symmetry_space_group_name_H-M   'P 1'
_cell_length_a   7.56660800
_cell_length_b   7.56660908
_cell_length_c   5.25942800
_cell_angle_alpha   90.00000000
_cell_angle_beta   90.00000000
_cell_angle_gamma   119.99999526
_symmetry_Int_Tables_number   1
_chemical_formula_structural   Ta9NbSi6C
_chemical_formula_sum   'Ta9 Nb1 Si6 C1'
_cell_volume   260.77844975
_cell_formula_units_Z   1
loop_
 _symmetry_equiv_pos_site_id
 _symmetry_equiv_pos_as_xyz
  1  'x, y, z'
loop_
 _atom_site_type_symbol
 _atom_site_label
 _atom_site_symmetry_multiplicity
 _atom_site_fract_x
 _atom_site_fract_y
 _atom_site_fract_z
 _atom_site_occupancy
  Ta  Ta0  1  0.999557  0.758836  0.253922  1
  Ta  Ta1  1  0.241164  0.240721  0.253922  1
  Ta  Ta2  1  0.759279  0.000443  0.253922  1
  Ta  Ta3  1  0.999557  0.240721  0.746078  1
  Ta  Ta4  1  0.759279  0.758836  0.746078  1
  Ta  Ta5  1  0.241164  0.000443  0.746078  1
  Ta  Ta6  1  0.333333  0.666667  0.000000  1
  Ta  Ta7  1  0.666667  0.333333  0.000000  1
  Ta  Ta8  1  0.666667  0.333333  0.500000  1
  Nb  Nb9  1  0.333333  0.666667  0.500000  1
  Si  Si10  1  0.999853  0.399510  0.241179  1
  Si  Si11  1  0.600490  0.600342  0.241179  1
  Si  Si12  1  0.399658  0.000147  0.241179  1
  Si  Si13  1  0.999853  0.600342  0.758821  1
  Si  Si14  1  0.399658  0.399510  0.758821  1
  Si  Si15  1  0.600490  0.000147  0.758821  1
  C  C16  1  0.000000  0.000000  0.500000  1
