# generated using pymatgen
data_YAsPd3Pt2
_symmetry_space_group_name_H-M   'P 1'
_cell_length_a   4.06670600
_cell_length_b   4.17118900
_cell_length_c   7.17523800
_cell_angle_alpha   90.00000000
_cell_angle_beta   90.00000000
_cell_angle_gamma   90.00000000
_symmetry_Int_Tables_number   1
_chemical_formula_structural   YAsPd3Pt2
_chemical_formula_sum   'Y1 As1 Pd3 Pt2'
_cell_volume   121.71355741
_cell_formula_units_Z   1
loop_
 _symmetry_equiv_pos_site_id
 _symmetry_equiv_pos_as_xyz
  1  'x, y, z'
loop_
 _atom_site_type_symbol
 _atom_site_label
 _atom_site_symmetry_multiplicity
 _atom_site_fract_x
 _atom_site_fract_y
 _atom_site_fract_z
 _atom_site_occupancy
  Y  Y0  1  0.500000  0.500000  0.999064  1
  As  As1  1  0.000000  0.000000  0.500729  1
  Pd  Pd2  1  0.000000  0.500000  0.706354  1
  Pd  Pd3  1  0.500000  0.000000  0.290394  1
  Pd  Pd4  1  0.000000  0.500000  0.293924  1
  Pt  Pt5  1  0.000000  0.000000  0.999443  1
  Pt  Pt6  1  0.500000  0.000000  0.710091  1
