# generated using pymatgen
data_AcIn4Rh
_symmetry_space_group_name_H-M   'P 1'
_cell_length_a   4.50100100
_cell_length_b   7.71737100
_cell_length_c   8.66170300
_cell_angle_alpha   90.00000000
_cell_angle_beta   90.00000000
_cell_angle_gamma   90.00000000
_symmetry_Int_Tables_number   1
_chemical_formula_structural   AcIn4Rh
_chemical_formula_sum   'Ac2 In8 Rh2'
_cell_volume   300.87200236
_cell_formula_units_Z   2
loop_
 _symmetry_equiv_pos_site_id
 _symmetry_equiv_pos_as_xyz
  1  'x, y, z'
loop_
 _atom_site_type_symbol
 _atom_site_label
 _atom_site_symmetry_multiplicity
 _atom_site_fract_x
 _atom_site_fract_y
 _atom_site_fract_z
 _atom_site_occupancy
  Ac  Ac0  1  0.000000  0.394914  0.250000  1
  Ac  Ac1  1  0.000000  0.605086  0.750000  1
  In  In2  1  0.000000  0.000000  0.000000  1
  In  In3  1  0.000000  0.000000  0.500000  1
  In  In4  1  0.500000  0.055221  0.250000  1
  In  In5  1  0.500000  0.944779  0.750000  1
  In  In6  1  0.500000  0.693835  0.063347  1
  In  In7  1  0.500000  0.306165  0.936653  1
  In  In8  1  0.500000  0.693835  0.436653  1
  In  In9  1  0.500000  0.306165  0.563347  1
  Rh  Rh10  1  0.000000  0.803382  0.250000  1
  Rh  Rh11  1  0.000000  0.196618  0.750000  1
