# generated using pymatgen
data_Hf7Nb(Ir2N)2
_symmetry_space_group_name_H-M   'P 1'
_cell_length_a   8.69323441
_cell_length_b   8.69323395
_cell_length_c   8.76084500
_cell_angle_alpha   59.74238554
_cell_angle_beta   59.74238728
_cell_angle_gamma   59.42728539
_symmetry_Int_Tables_number   1
_chemical_formula_structural   Hf7Nb(Ir2N)2
_chemical_formula_sum   'Hf14 Nb2 Ir8 N4'
_cell_volume   464.29201885
_cell_formula_units_Z   2
loop_
 _symmetry_equiv_pos_site_id
 _symmetry_equiv_pos_as_xyz
  1  'x, y, z'
loop_
 _atom_site_type_symbol
 _atom_site_label
 _atom_site_symmetry_multiplicity
 _atom_site_fract_x
 _atom_site_fract_y
 _atom_site_fract_z
 _atom_site_occupancy
  Hf  Hf0  1  0.125000  0.625000  0.625000  1
  Hf  Hf1  1  0.625000  0.125000  0.625000  1
  Hf  Hf2  1  0.814280  0.814280  0.185720  1
  Hf  Hf3  1  0.183142  0.183142  0.816858  1
  Hf  Hf4  1  0.815503  0.184933  0.815609  1
  Hf  Hf5  1  0.184933  0.815503  0.183953  1
  Hf  Hf6  1  0.184933  0.815503  0.815609  1
  Hf  Hf7  1  0.815503  0.184933  0.183953  1
  Hf  Hf8  1  0.435720  0.435720  0.064280  1
  Hf  Hf9  1  0.066858  0.066858  0.433142  1
  Hf  Hf10  1  0.434497  0.065067  0.434391  1
  Hf  Hf11  1  0.065067  0.434497  0.066047  1
  Hf  Hf12  1  0.065067  0.434497  0.434391  1
  Hf  Hf13  1  0.434497  0.065067  0.066047  1
  Nb  Nb14  1  0.625000  0.625000  0.125000  1
  Nb  Nb15  1  0.625000  0.625000  0.625000  1
  Ir  Ir16  1  0.763727  0.416302  0.409986  1
  Ir  Ir17  1  0.416302  0.763727  0.409986  1
  Ir  Ir18  1  0.412011  0.412011  0.772667  1
  Ir  Ir19  1  0.412011  0.412011  0.403311  1
  Ir  Ir20  1  0.486273  0.833698  0.840014  1
  Ir  Ir21  1  0.833698  0.486273  0.840014  1
  Ir  Ir22  1  0.837989  0.837989  0.477333  1
  Ir  Ir23  1  0.837989  0.837989  0.846689  1
  N  N24  1  0.625000  0.125000  0.125000  1
  N  N25  1  0.125000  0.625000  0.125000  1
  N  N26  1  0.125000  0.125000  0.625000  1
  N  N27  1  0.125000  0.125000  0.125000  1
