# generated using pymatgen
data_CeLu(ZnGe)2
_symmetry_space_group_name_H-M   'P 1'
_cell_length_a   4.29035600
_cell_length_b   4.29035575
_cell_length_c   15.62594200
_cell_angle_alpha   90.00000000
_cell_angle_beta   90.00000000
_cell_angle_gamma   120.00000192
_symmetry_Int_Tables_number   1
_chemical_formula_structural   CeLu(ZnGe)2
_chemical_formula_sum   'Ce2 Lu2 Zn4 Ge4'
_cell_volume   249.09411442
_cell_formula_units_Z   2
loop_
 _symmetry_equiv_pos_site_id
 _symmetry_equiv_pos_as_xyz
  1  'x, y, z'
loop_
 _atom_site_type_symbol
 _atom_site_label
 _atom_site_symmetry_multiplicity
 _atom_site_fract_x
 _atom_site_fract_y
 _atom_site_fract_z
 _atom_site_occupancy
  Ce  Ce0  1  0.000000  0.000000  0.500000  1
  Ce  Ce1  1  0.000000  0.000000  0.000000  1
  Lu  Lu2  1  0.000000  0.000000  0.750000  1
  Lu  Lu3  1  0.000000  0.000000  0.250000  1
  Zn  Zn4  1  0.666667  0.333333  0.844183  1
  Zn  Zn5  1  0.666667  0.333333  0.655817  1
  Zn  Zn6  1  0.333333  0.666667  0.155817  1
  Zn  Zn7  1  0.333333  0.666667  0.344183  1
  Ge  Ge8  1  0.666667  0.333333  0.117458  1
  Ge  Ge9  1  0.666667  0.333333  0.382542  1
  Ge  Ge10  1  0.333333  0.666667  0.882542  1
  Ge  Ge11  1  0.333333  0.666667  0.617458  1
