# generated using pymatgen
data_Ho2Sn(PIr2)6
_symmetry_space_group_name_H-M   'P 1'
_cell_length_a   9.72447500
_cell_length_b   9.72447455
_cell_length_c   3.99608800
_cell_angle_alpha   90.00000000
_cell_angle_beta   90.00000000
_cell_angle_gamma   119.99999996
_symmetry_Int_Tables_number   1
_chemical_formula_structural   Ho2Sn(PIr2)6
_chemical_formula_sum   'Ho2 Sn1 P6 Ir12'
_cell_volume   327.26381102
_cell_formula_units_Z   1
loop_
 _symmetry_equiv_pos_site_id
 _symmetry_equiv_pos_as_xyz
  1  'x, y, z'
loop_
 _atom_site_type_symbol
 _atom_site_label
 _atom_site_symmetry_multiplicity
 _atom_site_fract_x
 _atom_site_fract_y
 _atom_site_fract_z
 _atom_site_occupancy
  Ho  Ho0  1  0.333333  0.666667  0.763405  1
  Ho  Ho1  1  0.666667  0.333333  0.236595  1
  Sn  Sn2  1  0.000000  0.000000  0.500000  1
  P  P3  1  0.406971  0.281815  0.733726  1
  P  P4  1  0.718185  0.125156  0.733726  1
  P  P5  1  0.874844  0.593029  0.733726  1
  P  P6  1  0.593029  0.718185  0.266274  1
  P  P7  1  0.281815  0.874844  0.266274  1
  P  P8  1  0.125156  0.406971  0.266274  1
  Ir  Ir9  1  0.459174  0.069775  0.742306  1
  Ir  Ir10  1  0.930225  0.389398  0.742306  1
  Ir  Ir11  1  0.610602  0.540826  0.742306  1
  Ir  Ir12  1  0.540826  0.930225  0.257694  1
  Ir  Ir13  1  0.069775  0.610602  0.257694  1
  Ir  Ir14  1  0.389398  0.459174  0.257694  1
  Ir  Ir15  1  0.166270  0.290974  0.776603  1
  Ir  Ir16  1  0.709026  0.875295  0.776603  1
  Ir  Ir17  1  0.124705  0.833730  0.776603  1
  Ir  Ir18  1  0.833730  0.709026  0.223397  1
  Ir  Ir19  1  0.290974  0.124705  0.223397  1
  Ir  Ir20  1  0.875295  0.166270  0.223397  1
