# generated using pymatgen
data_Pa4Ga20Pt9Rh2
_symmetry_space_group_name_H-M   'P 1'
_cell_length_a   4.28203222
_cell_length_b   10.84517674
_cell_length_c   13.63920748
_cell_angle_alpha   82.24590783
_cell_angle_beta   80.88899294
_cell_angle_gamma   78.55087622
_symmetry_Int_Tables_number   1
_chemical_formula_structural   Pa4Ga20Pt9Rh2
_chemical_formula_sum   'Pa4 Ga20 Pt9 Rh2'
_cell_volume   609.44546999
_cell_formula_units_Z   1
loop_
 _symmetry_equiv_pos_site_id
 _symmetry_equiv_pos_as_xyz
  1  'x, y, z'
loop_
 _atom_site_type_symbol
 _atom_site_label
 _atom_site_symmetry_multiplicity
 _atom_site_fract_x
 _atom_site_fract_y
 _atom_site_fract_z
 _atom_site_occupancy
  Pa  Pa0  1  0.120221  0.090295  0.667545  1
  Pa  Pa1  1  0.879779  0.909705  0.332455  1
  Pa  Pa2  1  0.775650  0.626278  0.819634  1
  Pa  Pa3  1  0.224350  0.373722  0.180366  1
  Ga  Ga4  1  0.010889  0.068198  0.911125  1
  Ga  Ga5  1  0.989111  0.931802  0.088875  1
  Ga  Ga6  1  0.061923  0.675278  0.198153  1
  Ga  Ga7  1  0.938077  0.324722  0.801847  1
  Ga  Ga8  1  0.100533  0.345177  0.454189  1
  Ga  Ga9  1  0.899467  0.654823  0.545811  1
  Ga  Ga10  1  0.197743  0.608840  0.995538  1
  Ga  Ga11  1  0.802257  0.391160  0.004462  1
  Ga  Ga12  1  0.264224  0.775999  0.694523  1
  Ga  Ga13  1  0.735776  0.224001  0.305477  1
  Ga  Ga14  1  0.303156  0.898990  0.494475  1
  Ga  Ga15  1  0.696844  0.101010  0.505525  1
  Ga  Ga16  1  0.390509  0.520426  0.695689  1
  Ga  Ga17  1  0.609491  0.479574  0.304311  1
  Ga  Ga18  1  0.397334  0.202198  0.001477  1
  Ga  Ga19  1  0.602666  0.797802  0.998523  1
  Ga  Ga20  1  0.541155  0.289095  0.628005  1
  Ga  Ga21  1  0.458845  0.710905  0.371995  1
  Ga  Ga22  1  0.639366  0.928484  0.795236  1
  Ga  Ga23  1  0.360634  0.071516  0.204764  1
  Pt  Pt24  1  0.500000  0.500000  0.500000  1
  Pt  Pt25  1  0.146222  0.827431  0.883878  1
  Pt  Pt26  1  0.853778  0.172569  0.116122  1
  Pt  Pt27  1  0.240775  0.126849  0.392029  1
  Pt  Pt28  1  0.759225  0.873151  0.607971  1
  Pt  Pt29  1  0.344240  0.423389  0.889804  1
  Pt  Pt30  1  0.655760  0.576611  0.110196  1
  Pt  Pt31  1  0.509818  0.166393  0.814915  1
  Pt  Pt32  1  0.490182  0.833607  0.185085  1
  Rh  Rh33  1  0.026795  0.575585  0.372635  1
  Rh  Rh34  1  0.973205  0.424415  0.627365  1
