# generated using pymatgen
data_CeDySi2(IrRh)2
_symmetry_space_group_name_H-M   'P 1'
_cell_length_a   9.09304645
_cell_length_b   9.09304697
_cell_length_c   4.09279200
_cell_angle_alpha   90.00000000
_cell_angle_beta   90.00000000
_cell_angle_gamma   154.52039489
_symmetry_Int_Tables_number   1
_chemical_formula_structural   CeDySi2(IrRh)2
_chemical_formula_sum   'Ce1 Dy1 Si2 Ir2 Rh2'
_cell_volume   145.57896037
_cell_formula_units_Z   1
loop_
 _symmetry_equiv_pos_site_id
 _symmetry_equiv_pos_as_xyz
  1  'x, y, z'
loop_
 _atom_site_type_symbol
 _atom_site_label
 _atom_site_symmetry_multiplicity
 _atom_site_fract_x
 _atom_site_fract_y
 _atom_site_fract_z
 _atom_site_occupancy
  Ce  Ce0  1  0.903499  0.096501  0.250000  1
  Dy  Dy1  1  0.101000  0.899000  0.750000  1
  Si  Si2  1  0.321036  0.678964  0.750000  1
  Si  Si3  1  0.676962  0.323038  0.250000  1
  Ir  Ir4  1  0.545142  0.454858  0.250000  1
  Ir  Ir5  1  0.454634  0.545366  0.750000  1
  Rh  Rh6  1  0.248891  0.751109  0.250000  1
  Rh  Rh7  1  0.748838  0.251162  0.750000  1
