# generated using pymatgen
data_Y4ErTm5Ir4
_symmetry_space_group_name_H-M   'P 1'
_cell_length_a   6.44159644
_cell_length_b   7.20699784
_cell_length_c   8.47291239
_cell_angle_alpha   96.83821079
_cell_angle_beta   112.34436127
_cell_angle_gamma   90.01021928
_symmetry_Int_Tables_number   1
_chemical_formula_structural   Y4ErTm5Ir4
_chemical_formula_sum   'Y4 Er1 Tm5 Ir4'
_cell_volume   360.78616699
_cell_formula_units_Z   1
loop_
 _symmetry_equiv_pos_site_id
 _symmetry_equiv_pos_as_xyz
  1  'x, y, z'
loop_
 _atom_site_type_symbol
 _atom_site_label
 _atom_site_symmetry_multiplicity
 _atom_site_fract_x
 _atom_site_fract_y
 _atom_site_fract_z
 _atom_site_occupancy
  Y  Y0  1  0.971241  0.920252  0.186339  1
  Y  Y1  1  0.784901  0.579814  0.813635  1
  Y  Y2  1  0.028884  0.079857  0.813686  1
  Y  Y3  1  0.215041  0.420103  0.186390  1
  Er  Er4  1  0.650666  0.817249  0.440636  1
  Tm  Tm5  1  0.210101  0.682544  0.559446  1
  Tm  Tm6  1  0.349379  0.182780  0.559525  1
  Tm  Tm7  1  0.789945  0.317408  0.440604  1
  Tm  Tm8  1  0.427963  0.750014  0.999904  1
  Tm  Tm9  1  0.571987  0.249928  0.999957  1
  Ir  Ir10  1  0.820238  0.573090  0.221076  1
  Ir  Ir11  1  0.598750  0.926782  0.778997  1
  Ir  Ir12  1  0.179833  0.426754  0.778771  1
  Ir  Ir13  1  0.401070  0.073422  0.221033  1
