# generated using pymatgen
data_ErTmGa10Ru3
_symmetry_space_group_name_H-M   'P 1'
_cell_length_a   8.89712009
_cell_length_b   8.89712009
_cell_length_c   6.38376300
_cell_angle_alpha   90.00000000
_cell_angle_beta   90.00000000
_cell_angle_gamma   89.98351408
_symmetry_Int_Tables_number   1
_chemical_formula_structural   ErTmGa10Ru3
_chemical_formula_sum   'Er2 Tm2 Ga20 Ru6'
_cell_volume   505.33065249
_cell_formula_units_Z   2
loop_
 _symmetry_equiv_pos_site_id
 _symmetry_equiv_pos_as_xyz
  1  'x, y, z'
loop_
 _atom_site_type_symbol
 _atom_site_label
 _atom_site_symmetry_multiplicity
 _atom_site_fract_x
 _atom_site_fract_y
 _atom_site_fract_z
 _atom_site_occupancy
  Er  Er0  1  0.817111  0.682889  0.000000  1
  Er  Er1  1  0.182889  0.317111  0.000000  1
  Tm  Tm2  1  0.682905  0.182905  0.000000  1
  Tm  Tm3  1  0.317095  0.817095  0.000000  1
  Ga  Ga4  1  0.938669  0.206740  0.292764  1
  Ga  Ga5  1  0.706740  0.438669  0.292764  1
  Ga  Ga6  1  0.500000  0.000000  0.284877  1
  Ga  Ga7  1  0.561245  0.706754  0.707218  1
  Ga  Ga8  1  0.293260  0.561331  0.707236  1
  Ga  Ga9  1  0.793246  0.938755  0.292782  1
  Ga  Ga10  1  0.938669  0.206740  0.707236  1
  Ga  Ga11  1  0.293260  0.561331  0.292764  1
  Ga  Ga12  1  0.061331  0.793260  0.292764  1
  Ga  Ga13  1  0.706740  0.438669  0.707236  1
  Ga  Ga14  1  0.438755  0.293246  0.707218  1
  Ga  Ga15  1  0.061331  0.793260  0.707236  1
  Ga  Ga16  1  0.206754  0.061245  0.707218  1
  Ga  Ga17  1  0.793246  0.938755  0.707218  1
  Ga  Ga18  1  0.206754  0.061245  0.292782  1
  Ga  Ga19  1  0.000000  0.500000  0.714978  1
  Ga  Ga20  1  0.000000  0.500000  0.285022  1
  Ga  Ga21  1  0.561245  0.706754  0.292782  1
  Ga  Ga22  1  0.438755  0.293246  0.292782  1
  Ga  Ga23  1  0.500000  0.000000  0.715123  1
  Ru  Ru24  1  0.678266  0.178266  0.500000  1
  Ru  Ru25  1  0.821720  0.678280  0.500000  1
  Ru  Ru26  1  0.178280  0.321720  0.500000  1
  Ru  Ru27  1  0.000000  0.000000  0.000000  1
  Ru  Ru28  1  0.321734  0.821734  0.500000  1
  Ru  Ru29  1  0.500000  0.500000  0.000000  1
