# generated using pymatgen
data_Nd4Cd2Si3Ge
_symmetry_space_group_name_H-M   'P 1'
_cell_length_a   7.40394881
_cell_length_b   7.40394881
_cell_length_c   4.37087400
_cell_angle_alpha   90.00000000
_cell_angle_beta   90.00000000
_cell_angle_gamma   90.16647161
_symmetry_Int_Tables_number   1
_chemical_formula_structural   Nd4Cd2Si3Ge
_chemical_formula_sum   'Nd4 Cd2 Si3 Ge1'
_cell_volume   239.60356155
_cell_formula_units_Z   1
loop_
 _symmetry_equiv_pos_site_id
 _symmetry_equiv_pos_as_xyz
  1  'x, y, z'
loop_
 _atom_site_type_symbol
 _atom_site_label
 _atom_site_symmetry_multiplicity
 _atom_site_fract_x
 _atom_site_fract_y
 _atom_site_fract_z
 _atom_site_occupancy
  Nd  Nd0  1  0.681645  0.179607  0.500000  1
  Nd  Nd1  1  0.320393  0.818355  0.500000  1
  Nd  Nd2  1  0.178068  0.321932  0.500000  1
  Nd  Nd3  1  0.820692  0.679308  0.500000  1
  Cd  Cd4  1  0.500919  0.502400  0.000000  1
  Cd  Cd5  1  0.997600  0.999081  0.000000  1
  Si  Si6  1  0.114520  0.614560  0.000000  1
  Si  Si7  1  0.885440  0.385480  0.000000  1
  Si  Si8  1  0.617658  0.882342  0.000000  1
  Ge  Ge9  1  0.383065  0.116935  0.000000  1
