# generated using pymatgen
data_Y4LuSc5(Si5Ir2)4
_symmetry_space_group_name_H-M   'P 1'
_cell_length_a   12.49798400
_cell_length_b   12.49798400
_cell_length_c   4.17199400
_cell_angle_alpha   90.00000000
_cell_angle_beta   90.00000000
_cell_angle_gamma   90.00000000
_symmetry_Int_Tables_number   1
_chemical_formula_structural   Y4LuSc5(Si5Ir2)4
_chemical_formula_sum   'Y4 Lu1 Sc5 Si20 Ir8'
_cell_volume   651.66381096
_cell_formula_units_Z   1
loop_
 _symmetry_equiv_pos_site_id
 _symmetry_equiv_pos_as_xyz
  1  'x, y, z'
loop_
 _atom_site_type_symbol
 _atom_site_label
 _atom_site_symmetry_multiplicity
 _atom_site_fract_x
 _atom_site_fract_y
 _atom_site_fract_z
 _atom_site_occupancy
  Y  Y0  1  0.884180  0.385168  0.500000  1
  Y  Y1  1  0.115820  0.614832  0.500000  1
  Y  Y2  1  0.385168  0.115820  0.500000  1
  Y  Y3  1  0.614832  0.884180  0.500000  1
  Lu  Lu4  1  0.000000  0.000000  0.000000  1
  Sc  Sc5  1  0.500000  0.500000  0.000000  1
  Sc  Sc6  1  0.673338  0.174890  0.500000  1
  Sc  Sc7  1  0.326662  0.825110  0.500000  1
  Sc  Sc8  1  0.174890  0.326662  0.500000  1
  Sc  Sc9  1  0.825110  0.673338  0.500000  1
  Si  Si10  1  0.567191  0.068458  0.000000  1
  Si  Si11  1  0.432809  0.931542  0.000000  1
  Si  Si12  1  0.068458  0.432809  0.000000  1
  Si  Si13  1  0.931542  0.567191  0.000000  1
  Si  Si14  1  0.665499  0.699193  0.000000  1
  Si  Si15  1  0.334501  0.300807  0.000000  1
  Si  Si16  1  0.165982  0.800312  0.000000  1
  Si  Si17  1  0.834018  0.199688  0.000000  1
  Si  Si18  1  0.300807  0.665499  0.000000  1
  Si  Si19  1  0.699193  0.334501  0.000000  1
  Si  Si20  1  0.199688  0.165982  0.000000  1
  Si  Si21  1  0.800312  0.834018  0.000000  1
  Si  Si22  1  0.650543  0.507281  0.500000  1
  Si  Si23  1  0.349457  0.492719  0.500000  1
  Si  Si24  1  0.154703  0.993153  0.500000  1
  Si  Si25  1  0.845297  0.006847  0.500000  1
  Si  Si26  1  0.492719  0.650543  0.500000  1
  Si  Si27  1  0.507281  0.349457  0.500000  1
  Si  Si28  1  0.006847  0.154703  0.500000  1
  Si  Si29  1  0.993153  0.845297  0.500000  1
  Ir  Ir30  1  0.743407  0.520289  0.000000  1
  Ir  Ir31  1  0.256593  0.479711  0.000000  1
  Ir  Ir32  1  0.245551  0.979636  0.000000  1
  Ir  Ir33  1  0.754449  0.020364  0.000000  1
  Ir  Ir34  1  0.479711  0.743407  0.000000  1
  Ir  Ir35  1  0.520289  0.256593  0.000000  1
  Ir  Ir36  1  0.020364  0.245551  0.000000  1
  Ir  Ir37  1  0.979636  0.754449  0.000000  1
