# generated using pymatgen
data_HoTm(ScSb5)2
_symmetry_space_group_name_H-M   'P 1'
_cell_length_a   4.19872200
_cell_length_b   13.02980682
_cell_length_c   14.20898400
_cell_angle_alpha   78.85204297
_cell_angle_beta   90.00000000
_cell_angle_gamma   90.00000000
_symmetry_Int_Tables_number   1
_chemical_formula_structural   HoTm(ScSb5)2
_chemical_formula_sum   'Ho2 Tm2 Sc4 Sb20'
_cell_volume   762.68499055
_cell_formula_units_Z   2
loop_
 _symmetry_equiv_pos_site_id
 _symmetry_equiv_pos_as_xyz
  1  'x, y, z'
loop_
 _atom_site_type_symbol
 _atom_site_label
 _atom_site_symmetry_multiplicity
 _atom_site_fract_x
 _atom_site_fract_y
 _atom_site_fract_z
 _atom_site_occupancy
  Ho  Ho0  1  0.250000  0.953653  0.355196  1
  Ho  Ho1  1  0.750000  0.046347  0.644804  1
  Tm  Tm2  1  0.250000  0.669203  0.576357  1
  Tm  Tm3  1  0.750000  0.330797  0.423643  1
  Sc  Sc4  1  0.250000  0.396638  0.772450  1
  Sc  Sc5  1  0.750000  0.603362  0.227550  1
  Sc  Sc6  1  0.250000  0.657410  0.858571  1
  Sc  Sc7  1  0.750000  0.342590  0.141429  1
  Sb  Sb8  1  0.250000  0.147501  0.779920  1
  Sb  Sb9  1  0.750000  0.852499  0.220080  1
  Sb  Sb10  1  0.250000  0.143790  0.483326  1
  Sb  Sb11  1  0.750000  0.856210  0.516674  1
  Sb  Sb12  1  0.250000  0.162708  0.161460  1
  Sb  Sb13  1  0.750000  0.837292  0.838540  1
  Sb  Sb14  1  0.250000  0.422126  0.974957  1
  Sb  Sb15  1  0.750000  0.577874  0.025043  1
  Sb  Sb16  1  0.750000  0.028381  0.913647  1
  Sb  Sb17  1  0.250000  0.971619  0.086353  1
  Sb  Sb18  1  0.750000  0.142904  0.316463  1
  Sb  Sb19  1  0.250000  0.857096  0.683537  1
  Sb  Sb20  1  0.750000  0.279807  0.936423  1
  Sb  Sb21  1  0.250000  0.720193  0.063577  1
  Sb  Sb22  1  0.750000  0.289163  0.658570  1
  Sb  Sb23  1  0.250000  0.710837  0.341430  1
  Sb  Sb24  1  0.750000  0.573592  0.740735  1
  Sb  Sb25  1  0.250000  0.426408  0.259265  1
  Sb  Sb26  1  0.750000  0.570143  0.444188  1
  Sb  Sb27  1  0.250000  0.429857  0.555812  1
