# generated using pymatgen
data_Th3Si4(NiRh)2
_symmetry_space_group_name_H-M   'P 1'
_cell_length_a   4.09773014
_cell_length_b   4.10524372
_cell_length_c   12.40917059
_cell_angle_alpha   80.47883688
_cell_angle_beta   80.49644180
_cell_angle_gamma   90.00000190
_symmetry_Int_Tables_number   1
_chemical_formula_structural   Th3Si4(NiRh)2
_chemical_formula_sum   'Th3 Si4 Ni2 Rh2'
_cell_volume   202.96810305
_cell_formula_units_Z   1
loop_
 _symmetry_equiv_pos_site_id
 _symmetry_equiv_pos_as_xyz
  1  'x, y, z'
loop_
 _atom_site_type_symbol
 _atom_site_label
 _atom_site_symmetry_multiplicity
 _atom_site_fract_x
 _atom_site_fract_y
 _atom_site_fract_z
 _atom_site_occupancy
  Th  Th0  1  0.000000  0.000000  0.000000  1
  Th  Th1  1  0.853981  0.353981  0.292041  1
  Th  Th2  1  0.146019  0.646019  0.707959  1
  Si  Si3  1  0.693449  0.193449  0.613104  1
  Si  Si4  1  0.306551  0.806551  0.386896  1
  Si  Si5  1  0.449758  0.449758  0.100484  1
  Si  Si6  1  0.550242  0.550242  0.899516  1
  Ni  Ni7  1  0.595558  0.095558  0.808883  1
  Ni  Ni8  1  0.404442  0.904442  0.191117  1
  Rh  Rh9  1  0.249124  0.249124  0.501753  1
  Rh  Rh10  1  0.750876  0.750876  0.498247  1
