# generated using pymatgen
data_TiZn(SbPt)2
_symmetry_space_group_name_H-M   'P 1'
_cell_length_a   6.23479170
_cell_length_b   6.23479058
_cell_length_c   7.66459905
_cell_angle_alpha   66.00064015
_cell_angle_beta   66.00064700
_cell_angle_gamma   90.00001126
_symmetry_Int_Tables_number   1
_chemical_formula_structural   TiZn(SbPt)2
_chemical_formula_sum   'Ti2 Zn2 Sb4 Pt4'
_cell_volume   243.72164700
_cell_formula_units_Z   2
loop_
 _symmetry_equiv_pos_site_id
 _symmetry_equiv_pos_as_xyz
  1  'x, y, z'
loop_
 _atom_site_type_symbol
 _atom_site_label
 _atom_site_symmetry_multiplicity
 _atom_site_fract_x
 _atom_site_fract_y
 _atom_site_fract_z
 _atom_site_occupancy
  Ti  Ti0  1  0.500000  0.500000  0.000000  1
  Ti  Ti1  1  0.750000  0.250002  0.500001  1
  Zn  Zn2  1  0.000000  0.000000  0.000000  1
  Zn  Zn3  1  0.249998  0.750000  0.500001  1
  Sb  Sb4  1  0.494335  0.994337  0.011325  1
  Sb  Sb5  1  0.755664  0.755664  0.488675  1
  Sb  Sb6  1  0.244337  0.244337  0.511326  1
  Sb  Sb7  1  0.005662  0.505664  0.988674  1
  Pt  Pt8  1  0.125000  0.141064  0.249999  1
  Pt  Pt9  1  0.625000  0.608937  0.250000  1
  Pt  Pt10  1  0.858938  0.375002  0.749999  1
  Pt  Pt11  1  0.391064  0.875000  0.750001  1
