# generated using pymatgen
data_Zr4MnBiRh10
_symmetry_space_group_name_H-M   'P 1'
_cell_length_a   5.65098663
_cell_length_b   5.65098612
_cell_length_c   8.27205500
_cell_angle_alpha   90.00000000
_cell_angle_beta   90.00000000
_cell_angle_gamma   96.32583694
_symmetry_Int_Tables_number   1
_chemical_formula_structural   Zr4MnBiRh10
_chemical_formula_sum   'Zr4 Mn1 Bi1 Rh10'
_cell_volume   262.54853105
_cell_formula_units_Z   1
loop_
 _symmetry_equiv_pos_site_id
 _symmetry_equiv_pos_as_xyz
  1  'x, y, z'
loop_
 _atom_site_type_symbol
 _atom_site_label
 _atom_site_symmetry_multiplicity
 _atom_site_fract_x
 _atom_site_fract_y
 _atom_site_fract_z
 _atom_site_occupancy
  Zr  Zr0  1  0.781161  0.218926  0.493114  1
  Zr  Zr1  1  0.218926  0.781161  0.006886  1
  Zr  Zr2  1  0.218926  0.781161  0.493114  1
  Zr  Zr3  1  0.781161  0.218926  0.006886  1
  Mn  Mn4  1  0.497359  0.497359  0.250000  1
  Bi  Bi5  1  0.501887  0.501887  0.750000  1
  Rh  Rh6  1  0.729550  0.729550  0.007308  1
  Rh  Rh7  1  0.729550  0.729550  0.492692  1
  Rh  Rh8  1  0.270332  0.270332  0.005271  1
  Rh  Rh9  1  0.270332  0.270332  0.494729  1
  Rh  Rh10  1  0.499928  0.000791  0.750000  1
  Rh  Rh11  1  0.500122  0.999588  0.250000  1
  Rh  Rh12  1  0.000635  0.000635  0.250000  1
  Rh  Rh13  1  0.999751  0.999751  0.750000  1
  Rh  Rh14  1  0.000791  0.499928  0.750000  1
  Rh  Rh15  1  0.999588  0.500122  0.250000  1
