# generated using pymatgen
data_K3LuAs2
_symmetry_space_group_name_H-M   'P 1'
_cell_length_a   9.31780022
_cell_length_b   9.31779962
_cell_length_c   9.31779921
_cell_angle_alpha   128.90293245
_cell_angle_beta   70.31323887
_cell_angle_gamma   135.14343635
_symmetry_Int_Tables_number   1
_chemical_formula_structural   K3LuAs2
_chemical_formula_sum   'K6 Lu2 As4'
_cell_volume   435.32204601
_cell_formula_units_Z   2
loop_
 _symmetry_equiv_pos_site_id
 _symmetry_equiv_pos_as_xyz
  1  'x, y, z'
loop_
 _atom_site_type_symbol
 _atom_site_label
 _atom_site_symmetry_multiplicity
 _atom_site_fract_x
 _atom_site_fract_y
 _atom_site_fract_z
 _atom_site_occupancy
  K  K0  1  0.250000  0.250000  0.000000  1
  K  K1  1  0.750000  0.750000  0.000000  1
  K  K2  1  0.310330  0.802814  0.113144  1
  K  K3  1  0.189670  0.302814  0.492484  1
  K  K4  1  0.810331  0.697186  0.507516  1
  K  K5  1  0.689670  0.197186  0.886855  1
  Lu  Lu6  1  0.750000  0.250000  0.500000  1
  Lu  Lu7  1  0.250000  0.750000  0.500000  1
  As  As8  1  0.901959  0.306847  0.208805  1
  As  As9  1  0.598042  0.806847  0.404888  1
  As  As10  1  0.401958  0.193153  0.595111  1
  As  As11  1  0.098041  0.693153  0.791194  1
