# generated using pymatgen
data_TbEr2(SiIr2)3
_symmetry_space_group_name_H-M   'P 1'
_cell_length_a   5.56426600
_cell_length_b   5.56426675
_cell_length_c   15.13803300
_cell_angle_alpha   90.00000000
_cell_angle_beta   90.00000000
_cell_angle_gamma   120.00000742
_symmetry_Int_Tables_number   1
_chemical_formula_structural   TbEr2(SiIr2)3
_chemical_formula_sum   'Tb2 Er4 Si6 Ir12'
_cell_volume   405.89702865
_cell_formula_units_Z   2
loop_
 _symmetry_equiv_pos_site_id
 _symmetry_equiv_pos_as_xyz
  1  'x, y, z'
loop_
 _atom_site_type_symbol
 _atom_site_label
 _atom_site_symmetry_multiplicity
 _atom_site_fract_x
 _atom_site_fract_y
 _atom_site_fract_z
 _atom_site_occupancy
  Tb  Tb0  1  0.333333  0.666667  0.750000  1
  Tb  Tb1  1  0.666667  0.333333  0.250000  1
  Er  Er2  1  0.333333  0.666667  0.539142  1
  Er  Er3  1  0.666667  0.333333  0.460858  1
  Er  Er4  1  0.666667  0.333333  0.039142  1
  Er  Er5  1  0.333333  0.666667  0.960858  1
  Si  Si6  1  0.000000  0.000000  0.250000  1
  Si  Si7  1  0.000000  0.000000  0.750000  1
  Si  Si8  1  0.333333  0.666667  0.250000  1
  Si  Si9  1  0.666667  0.333333  0.750000  1
  Si  Si10  1  0.000000  0.000000  0.000000  1
  Si  Si11  1  0.000000  0.000000  0.500000  1
  Ir  Ir12  1  0.167668  0.335335  0.129623  1
  Ir  Ir13  1  0.832332  0.664665  0.870377  1
  Ir  Ir14  1  0.664665  0.832332  0.129623  1
  Ir  Ir15  1  0.832332  0.664665  0.629623  1
  Ir  Ir16  1  0.335335  0.167668  0.870377  1
  Ir  Ir17  1  0.167668  0.335335  0.370377  1
  Ir  Ir18  1  0.167668  0.832332  0.129623  1
  Ir  Ir19  1  0.335335  0.167668  0.629623  1
  Ir  Ir20  1  0.832332  0.167668  0.870377  1
  Ir  Ir21  1  0.664665  0.832332  0.370377  1
  Ir  Ir22  1  0.832332  0.167668  0.629623  1
  Ir  Ir23  1  0.167668  0.832332  0.370377  1
