# generated using pymatgen
data_Hf4ZnFe(B2Ru5)2
_symmetry_space_group_name_H-M   'P 1'
_cell_length_a   9.32805900
_cell_length_b   9.32805900
_cell_length_c   3.07979400
_cell_angle_alpha   90.00000000
_cell_angle_beta   90.00000000
_cell_angle_gamma   90.00000000
_symmetry_Int_Tables_number   1
_chemical_formula_structural   Hf4ZnFe(B2Ru5)2
_chemical_formula_sum   'Hf4 Zn1 Fe1 B4 Ru10'
_cell_volume   267.98114429
_cell_formula_units_Z   1
loop_
 _symmetry_equiv_pos_site_id
 _symmetry_equiv_pos_as_xyz
  1  'x, y, z'
loop_
 _atom_site_type_symbol
 _atom_site_label
 _atom_site_symmetry_multiplicity
 _atom_site_fract_x
 _atom_site_fract_y
 _atom_site_fract_z
 _atom_site_occupancy
  Hf  Hf0  1  0.675817  0.175463  0.000000  1
  Hf  Hf1  1  0.324183  0.824537  0.000000  1
  Hf  Hf2  1  0.175463  0.324183  0.000000  1
  Hf  Hf3  1  0.824537  0.675817  0.000000  1
  Zn  Zn4  1  0.000000  0.000000  0.000000  1
  Fe  Fe5  1  0.500000  0.500000  0.000000  1
  B  B6  1  0.122832  0.626367  0.000000  1
  B  B7  1  0.877168  0.373633  0.000000  1
  B  B8  1  0.626367  0.877168  0.000000  1
  B  B9  1  0.373633  0.122832  0.000000  1
  Ru  Ru10  1  0.215476  0.073743  0.500000  1
  Ru  Ru11  1  0.784524  0.926257  0.500000  1
  Ru  Ru12  1  0.073743  0.784524  0.500000  1
  Ru  Ru13  1  0.712383  0.430661  0.500000  1
  Ru  Ru14  1  0.926257  0.215476  0.500000  1
  Ru  Ru15  1  0.287617  0.569339  0.500000  1
  Ru  Ru16  1  0.569339  0.712383  0.500000  1
  Ru  Ru17  1  0.430661  0.287617  0.500000  1
  Ru  Ru18  1  0.500000  0.000000  0.500000  1
  Ru  Ru19  1  0.000000  0.500000  0.500000  1
