# generated using pymatgen
data_Pr2Gd3Y(RuO7)2
_symmetry_space_group_name_H-M   'P 1'
_cell_length_a   6.51446611
_cell_length_b   6.51164681
_cell_length_c   7.59023900
_cell_angle_alpha   90.00000000
_cell_angle_beta   90.00000000
_cell_angle_gamma   110.41607265
_symmetry_Int_Tables_number   1
_chemical_formula_structural   Pr2Gd3Y(RuO7)2
_chemical_formula_sum   'Pr2 Gd3 Y1 Ru2 O14'
_cell_volume   301.75193333
_cell_formula_units_Z   1
loop_
 _symmetry_equiv_pos_site_id
 _symmetry_equiv_pos_as_xyz
  1  'x, y, z'
loop_
 _atom_site_type_symbol
 _atom_site_label
 _atom_site_symmetry_multiplicity
 _atom_site_fract_x
 _atom_site_fract_y
 _atom_site_fract_z
 _atom_site_occupancy
  Pr  Pr0  1  0.000656  0.999809  0.499339  1
  Pr  Pr1  1  0.000656  0.999809  0.000661  1
  Gd  Gd2  1  0.480913  0.928819  0.750000  1
  Gd  Gd3  1  0.519940  0.070766  0.250000  1
  Gd  Gd4  1  0.928710  0.480628  0.750000  1
  Y  Y5  1  0.068687  0.517771  0.250000  1
  Ru  Ru6  1  0.499797  0.500408  0.499610  1
  Ru  Ru7  1  0.499797  0.500408  0.000390  1
  O  O8  1  0.582267  0.581184  0.750000  1
  O  O9  1  0.414414  0.419680  0.250000  1
  O  O10  1  0.840257  0.115033  0.750000  1
  O  O11  1  0.161610  0.880530  0.250000  1
  O  O12  1  0.114898  0.839040  0.750000  1
  O  O13  1  0.886428  0.161734  0.250000  1
  O  O14  1  0.437251  0.183033  0.964970  1
  O  O15  1  0.563947  0.818005  0.464927  1
  O  O16  1  0.183076  0.441672  0.966581  1
  O  O17  1  0.816209  0.559480  0.462923  1
  O  O18  1  0.437251  0.183033  0.535030  1
  O  O19  1  0.563947  0.818005  0.035073  1
  O  O20  1  0.816209  0.559480  0.037077  1
  O  O21  1  0.183076  0.441672  0.533419  1
