# generated using pymatgen
data_SrLaTh(Si3Pd10)2
_symmetry_space_group_name_H-M   'P 1'
_cell_length_a   8.82462661
_cell_length_b   8.82462711
_cell_length_c   8.82462700
_cell_angle_alpha   60.00000417
_cell_angle_beta   60.00000229
_cell_angle_gamma   59.99999908
_symmetry_Int_Tables_number   1
_chemical_formula_structural   SrLaTh(Si3Pd10)2
_chemical_formula_sum   'Sr1 La1 Th1 Si6 Pd20'
_cell_volume   485.93041130
_cell_formula_units_Z   1
loop_
 _symmetry_equiv_pos_site_id
 _symmetry_equiv_pos_as_xyz
  1  'x, y, z'
loop_
 _atom_site_type_symbol
 _atom_site_label
 _atom_site_symmetry_multiplicity
 _atom_site_fract_x
 _atom_site_fract_y
 _atom_site_fract_z
 _atom_site_occupancy
  Sr  Sr0  1  0.750000  0.750000  0.750000  1
  La  La1  1  0.250000  0.250000  0.250000  1
  Th  Th2  1  0.000000  0.000000  0.000000  1
  Si  Si3  1  0.730571  0.730571  0.269429  1
  Si  Si4  1  0.269429  0.269429  0.730571  1
  Si  Si5  1  0.730571  0.269429  0.730571  1
  Si  Si6  1  0.269429  0.730571  0.269429  1
  Si  Si7  1  0.269429  0.730571  0.730571  1
  Si  Si8  1  0.730571  0.269429  0.269429  1
  Pd  Pd9  1  0.612805  0.612805  0.612805  1
  Pd  Pd10  1  0.385117  0.385117  0.385117  1
  Pd  Pd11  1  0.161582  0.612805  0.612805  1
  Pd  Pd12  1  0.612805  0.161582  0.612805  1
  Pd  Pd13  1  0.844651  0.385117  0.385117  1
  Pd  Pd14  1  0.385117  0.844651  0.385117  1
  Pd  Pd15  1  0.612805  0.612805  0.161582  1
  Pd  Pd16  1  0.385117  0.385117  0.844651  1
  Pd  Pd17  1  0.001156  0.001156  0.654282  1
  Pd  Pd18  1  0.001156  0.001156  0.343407  1
  Pd  Pd19  1  0.343407  0.654282  0.001156  1
  Pd  Pd20  1  0.654282  0.343407  0.001156  1
  Pd  Pd21  1  0.001156  0.654282  0.001156  1
  Pd  Pd22  1  0.654282  0.001156  0.343407  1
  Pd  Pd23  1  0.001156  0.343407  0.001156  1
  Pd  Pd24  1  0.343407  0.001156  0.654282  1
  Pd  Pd25  1  0.654282  0.001156  0.001156  1
  Pd  Pd26  1  0.343407  0.001156  0.001156  1
  Pd  Pd27  1  0.001156  0.654282  0.343407  1
  Pd  Pd28  1  0.001156  0.343407  0.654282  1
