# generated using pymatgen
data_Tb4Lu2Al23VOs8
_symmetry_space_group_name_H-M   'P 1'
_cell_length_a   8.84597881
_cell_length_b   8.84576980
_cell_length_c   9.52741303
_cell_angle_alpha   89.99368133
_cell_angle_beta   90.00720344
_cell_angle_gamma   120.19628024
_symmetry_Int_Tables_number   1
_chemical_formula_structural   Tb4Lu2Al23VOs8
_chemical_formula_sum   'Tb4 Lu2 Al23 V1 Os8'
_cell_volume   644.35436852
_cell_formula_units_Z   1
loop_
 _symmetry_equiv_pos_site_id
 _symmetry_equiv_pos_as_xyz
  1  'x, y, z'
loop_
 _atom_site_type_symbol
 _atom_site_label
 _atom_site_symmetry_multiplicity
 _atom_site_fract_x
 _atom_site_fract_y
 _atom_site_fract_z
 _atom_site_occupancy
  Tb  Tb0  1  0.194230  0.387665  0.246430  1
  Tb  Tb1  1  0.808017  0.616358  0.750863  1
  Tb  Tb2  1  0.612308  0.805720  0.246452  1
  Tb  Tb3  1  0.383606  0.191956  0.750902  1
  Lu  Lu4  1  0.199268  0.800672  0.243586  1
  Lu  Lu5  1  0.803277  0.196731  0.749612  1
  Al  Al6  1  0.666549  0.333567  0.977870  1
  Al  Al7  1  0.666208  0.333717  0.519270  1
  Al  Al8  1  0.333336  0.666596  0.481888  1
  Al  Al9  1  0.161449  0.324334  0.576066  1
  Al  Al10  1  0.838105  0.674405  0.424384  1
  Al  Al11  1  0.675626  0.838513  0.576069  1
  Al  Al12  1  0.836420  0.671524  0.077401  1
  Al  Al13  1  0.325534  0.161844  0.424392  1
  Al  Al14  1  0.159131  0.320901  0.924578  1
  Al  Al15  1  0.162308  0.837666  0.574326  1
  Al  Al16  1  0.328542  0.163643  0.077391  1
  Al  Al17  1  0.837272  0.162688  0.425925  1
  Al  Al18  1  0.679103  0.840932  0.924592  1
  Al  Al19  1  0.835566  0.164441  0.075776  1
  Al  Al20  1  0.160436  0.839624  0.925519  1
  Al  Al21  1  0.561726  0.123436  0.253618  1
  Al  Al22  1  0.441748  0.883555  0.751237  1
  Al  Al23  1  0.876534  0.438242  0.253654  1
  Al  Al24  1  0.116452  0.558255  0.751259  1
  Al  Al25  1  0.562542  0.437422  0.253383  1
  Al  Al26  1  0.441018  0.558978  0.750866  1
  Al  Al27  1  0.004071  0.995888  0.250677  1
  Al  Al28  1  0.996061  0.003893  0.749931  1
  V  V29  1  0.333692  0.666601  0.983211  1
  Os  Os30  1  0.494977  0.990716  0.005700  1
  Os  Os31  1  0.009430  0.505121  0.005804  1
  Os  Os32  1  0.499687  0.998996  0.503903  1
  Os  Os33  1  0.495463  0.504670  0.005253  1
  Os  Os34  1  0.000913  0.500212  0.503932  1
  Os  Os35  1  0.499236  0.500713  0.503445  1
  Os  Os36  1  0.000018  0.999985  0.001142  1
  Os  Os37  1  0.000140  0.999820  0.499691  1
