# generated using pymatgen
data_TbSmSc3Pb4
_symmetry_space_group_name_H-M   'P 1'
_cell_length_a   7.93285800
_cell_length_b   15.10462000
_cell_length_c   8.00231700
_cell_angle_alpha   90.00000000
_cell_angle_beta   90.00000000
_cell_angle_gamma   90.00000000
_symmetry_Int_Tables_number   1
_chemical_formula_structural   TbSmSc3Pb4
_chemical_formula_sum   'Tb4 Sm4 Sc12 Pb16'
_cell_volume   958.86007427
_cell_formula_units_Z   4
loop_
 _symmetry_equiv_pos_site_id
 _symmetry_equiv_pos_as_xyz
  1  'x, y, z'
loop_
 _atom_site_type_symbol
 _atom_site_label
 _atom_site_symmetry_multiplicity
 _atom_site_fract_x
 _atom_site_fract_y
 _atom_site_fract_z
 _atom_site_occupancy
  Tb  Tb0  1  0.474160  0.595644  0.677345  1
  Tb  Tb1  1  0.974160  0.904356  0.822655  1
  Tb  Tb2  1  0.525840  0.095644  0.322655  1
  Tb  Tb3  1  0.025840  0.404356  0.177345  1
  Sm  Sm4  1  0.523993  0.405349  0.323208  1
  Sm  Sm5  1  0.023993  0.094651  0.176792  1
  Sm  Sm6  1  0.476007  0.905349  0.676792  1
  Sm  Sm7  1  0.976007  0.594651  0.823208  1
  Sc  Sc8  1  0.635460  0.624863  0.155904  1
  Sc  Sc9  1  0.135460  0.875137  0.344096  1
  Sc  Sc10  1  0.364540  0.124863  0.844096  1
  Sc  Sc11  1  0.864540  0.375137  0.655904  1
  Sc  Sc12  1  0.364589  0.375054  0.844084  1
  Sc  Sc13  1  0.864589  0.124946  0.655916  1
  Sc  Sc14  1  0.635411  0.875054  0.155916  1
  Sc  Sc15  1  0.135411  0.624946  0.344084  1
  Sc  Sc16  1  0.803896  0.749988  0.492659  1
  Sc  Sc17  1  0.303896  0.750012  0.007341  1
  Sc  Sc18  1  0.196104  0.249988  0.507341  1
  Sc  Sc19  1  0.696104  0.250012  0.992659  1
  Pb  Pb20  1  0.701364  0.455315  0.955683  1
  Pb  Pb21  1  0.201364  0.044685  0.544317  1
  Pb  Pb22  1  0.298636  0.955315  0.044317  1
  Pb  Pb23  1  0.798636  0.544685  0.455683  1
  Pb  Pb24  1  0.299374  0.543743  0.045218  1
  Pb  Pb25  1  0.799374  0.956257  0.454782  1
  Pb  Pb26  1  0.700626  0.043743  0.954782  1
  Pb  Pb27  1  0.200626  0.456257  0.545218  1
  Pb  Pb28  1  0.442792  0.749791  0.367750  1
  Pb  Pb29  1  0.942792  0.750209  0.132250  1
  Pb  Pb30  1  0.557208  0.249791  0.632250  1
  Pb  Pb31  1  0.057208  0.250209  0.867750  1
  Pb  Pb32  1  0.663068  0.749426  0.847824  1
  Pb  Pb33  1  0.163068  0.750574  0.652176  1
  Pb  Pb34  1  0.336932  0.249426  0.152176  1
  Pb  Pb35  1  0.836932  0.250574  0.347824  1
