# generated using pymatgen
data_Ho4Ge2As4Ir7
_symmetry_space_group_name_H-M   'P 1'
_cell_length_a   7.27277325
_cell_length_b   7.27277334
_cell_length_c   7.27912414
_cell_angle_alpha   109.38424390
_cell_angle_beta   109.38424637
_cell_angle_gamma   109.61005333
_symmetry_Int_Tables_number   1
_chemical_formula_structural   Ho4Ge2As4Ir7
_chemical_formula_sum   'Ho4 Ge2 As4 Ir7'
_cell_volume   296.51299515
_cell_formula_units_Z   1
loop_
 _symmetry_equiv_pos_site_id
 _symmetry_equiv_pos_as_xyz
  1  'x, y, z'
loop_
 _atom_site_type_symbol
 _atom_site_label
 _atom_site_symmetry_multiplicity
 _atom_site_fract_x
 _atom_site_fract_y
 _atom_site_fract_z
 _atom_site_occupancy
  Ho  Ho0  1  0.999749  0.999749  0.500023  1
  Ho  Ho1  1  0.999697  0.499697  0.999394  1
  Ho  Ho2  1  0.499697  0.999697  0.999394  1
  Ho  Ho3  1  0.500274  0.500274  0.500023  1
  Ge  Ge4  1  0.682965  0.998766  0.681731  1
  Ge  Ge5  1  0.998766  0.682965  0.681731  1
  As  As6  1  0.681110  0.681110  0.998316  1
  As  As7  1  0.321484  0.999196  0.320680  1
  As  As8  1  0.999196  0.321484  0.320680  1
  As  As9  1  0.317207  0.317207  0.998316  1
  Ir  Ir10  1  0.751028  0.251028  0.502055  1
  Ir  Ir11  1  0.749020  0.501080  0.250100  1
  Ir  Ir12  1  0.501207  0.249979  0.751187  1
  Ir  Ir13  1  0.249979  0.501207  0.751187  1
  Ir  Ir14  1  0.251028  0.751028  0.502055  1
  Ir  Ir15  1  0.501080  0.749020  0.250100  1
  Ir  Ir16  1  0.996514  0.996514  0.993027  1
