# generated using pymatgen
data_Tb2B6MoW
_symmetry_space_group_name_H-M   'P 1'
_cell_length_a   3.17433700
_cell_length_b   5.48705799
_cell_length_c   6.86343537
_cell_angle_alpha   77.50670714
_cell_angle_beta   90.00000000
_cell_angle_gamma   90.00000000
_symmetry_Int_Tables_number   1
_chemical_formula_structural   Tb2B6MoW
_chemical_formula_sum   'Tb2 B6 Mo1 W1'
_cell_volume   116.71506338
_cell_formula_units_Z   1
loop_
 _symmetry_equiv_pos_site_id
 _symmetry_equiv_pos_as_xyz
  1  'x, y, z'
loop_
 _atom_site_type_symbol
 _atom_site_label
 _atom_site_symmetry_multiplicity
 _atom_site_fract_x
 _atom_site_fract_y
 _atom_site_fract_z
 _atom_site_occupancy
  Tb  Tb0  1  0.750000  0.825389  0.707912  1
  Tb  Tb1  1  0.250000  0.174386  0.291875  1
  B  B2  1  0.250000  0.580694  0.474476  1
  B  B3  1  0.750000  0.419313  0.524243  1
  B  B4  1  0.250000  0.587138  0.995917  1
  B  B5  1  0.750000  0.413031  0.004903  1
  B  B6  1  0.250000  0.916885  0.993792  1
  B  B7  1  0.750000  0.082794  0.006773  1
  Mo  Mo8  1  0.250000  0.313014  0.781444  1
  W  W9  1  0.750000  0.687357  0.218665  1
