# generated using pymatgen
data_Sr2LaAg5S6
_symmetry_space_group_name_H-M   'P 1'
_cell_length_a   4.17617200
_cell_length_b   7.24878724
_cell_length_c   11.32305259
_cell_angle_alpha   95.87523884
_cell_angle_beta   90.00000000
_cell_angle_gamma   106.74184951
_symmetry_Int_Tables_number   1
_chemical_formula_structural   Sr2LaAg5S6
_chemical_formula_sum   'Sr2 La1 Ag5 S6'
_cell_volume   326.36346068
_cell_formula_units_Z   1
loop_
 _symmetry_equiv_pos_site_id
 _symmetry_equiv_pos_as_xyz
  1  'x, y, z'
loop_
 _atom_site_type_symbol
 _atom_site_label
 _atom_site_symmetry_multiplicity
 _atom_site_fract_x
 _atom_site_fract_y
 _atom_site_fract_z
 _atom_site_occupancy
  Sr  Sr0  1  0.251841  0.503682  0.700492  1
  Sr  Sr1  1  0.748159  0.496318  0.299508  1
  La  La2  1  0.500000  0.000000  0.500000  1
  Ag  Ag3  1  0.017002  0.034004  0.254959  1
  Ag  Ag4  1  0.982998  0.965996  0.745041  1
  Ag  Ag5  1  0.349116  0.698233  0.036200  1
  Ag  Ag6  1  0.650884  0.301767  0.963800  1
  Ag  Ag7  1  0.000000  0.000000  0.000000  1
  S  S8  1  0.136405  0.272808  0.446817  1
  S  S9  1  0.863595  0.727192  0.553183  1
  S  S10  1  0.158114  0.316229  0.111903  1
  S  S11  1  0.841886  0.683771  0.888097  1
  S  S12  1  0.402622  0.805243  0.261718  1
  S  S13  1  0.597378  0.194757  0.738282  1
