# generated using pymatgen
data_Cs2BiSb(PS3)4
_symmetry_space_group_name_H-M   'P 1'
_cell_length_a   7.85596715
_cell_length_b   7.01283224
_cell_length_c   10.57832313
_cell_angle_alpha   86.68239017
_cell_angle_beta   89.63718761
_cell_angle_gamma   90.22088681
_symmetry_Int_Tables_number   1
_chemical_formula_structural   Cs2BiSb(PS3)4
_chemical_formula_sum   'Cs2 Bi1 Sb1 P4 S12'
_cell_volume   581.79353784
_cell_formula_units_Z   1
loop_
 _symmetry_equiv_pos_site_id
 _symmetry_equiv_pos_as_xyz
  1  'x, y, z'
loop_
 _atom_site_type_symbol
 _atom_site_label
 _atom_site_symmetry_multiplicity
 _atom_site_fract_x
 _atom_site_fract_y
 _atom_site_fract_z
 _atom_site_occupancy
  Cs  Cs0  1  0.485624  0.713751  0.492107  1
  Cs  Cs1  1  0.987695  0.285382  0.505236  1
  Bi  Bi2  1  0.748916  0.798851  0.011913  1
  Sb  Sb3  1  0.262008  0.195207  0.987922  1
  P  P4  1  0.678380  0.306392  0.840600  1
  P  P5  1  0.954962  0.781102  0.279052  1
  P  P6  1  0.178030  0.693682  0.156674  1
  P  P7  1  0.454777  0.220925  0.721426  1
  S  S8  1  0.763767  0.562988  0.772139  1
  S  S9  1  0.522288  0.201232  0.542261  1
  S  S10  1  0.776699  0.578288  0.245706  1
  S  S11  1  0.565318  0.323193  0.019601  1
  S  S12  1  0.380434  0.970516  0.821836  1
  S  S13  1  0.275604  0.417800  0.759173  1
  S  S14  1  0.069652  0.675782  0.979408  1
  S  S15  1  0.878988  0.031464  0.184377  1
  S  S16  1  0.024441  0.797014  0.457856  1
  S  S17  1  0.362474  0.906090  0.158664  1
  S  S18  1  0.859822  0.097926  0.836347  1
  S  S19  1  0.267904  0.442418  0.227703  1
