# generated using pymatgen
data_CaEu2Zn11
_symmetry_space_group_name_H-M   'P 1'
_cell_length_a   4.49174642
_cell_length_b   8.34411444
_cell_length_c   8.34411302
_cell_angle_alpha   65.39546291
_cell_angle_beta   74.38591682
_cell_angle_gamma   74.38591737
_symmetry_Int_Tables_number   1
_chemical_formula_structural   CaEu2Zn11
_chemical_formula_sum   'Ca1 Eu2 Zn11'
_cell_volume   269.40311250
_cell_formula_units_Z   1
loop_
 _symmetry_equiv_pos_site_id
 _symmetry_equiv_pos_as_xyz
  1  'x, y, z'
loop_
 _atom_site_type_symbol
 _atom_site_label
 _atom_site_symmetry_multiplicity
 _atom_site_fract_x
 _atom_site_fract_y
 _atom_site_fract_z
 _atom_site_occupancy
  Ca  Ca0  1  0.000000  0.000000  0.000000  1
  Eu  Eu1  1  0.703232  0.296768  0.296768  1
  Eu  Eu2  1  0.296768  0.703232  0.703232  1
  Zn  Zn3  1  0.660745  0.696217  0.982294  1
  Zn  Zn4  1  0.339255  0.303783  0.017706  1
  Zn  Zn5  1  0.660745  0.982294  0.696217  1
  Zn  Zn6  1  0.339255  0.017706  0.303783  1
  Zn  Zn7  1  0.500000  0.685406  0.314594  1
  Zn  Zn8  1  0.500000  0.314594  0.685406  1
  Zn  Zn9  1  0.866157  0.417436  0.850252  1
  Zn  Zn10  1  0.133843  0.582564  0.149748  1
  Zn  Zn11  1  0.866157  0.850252  0.417436  1
  Zn  Zn12  1  0.133843  0.149748  0.582564  1
  Zn  Zn13  1  0.000000  0.500000  0.500000  1
