# generated using pymatgen
data_Ta4TcOsW2
_symmetry_space_group_name_H-M   'P 1'
_cell_length_a   6.45110000
_cell_length_b   6.45053100
_cell_length_c   6.39492300
_cell_angle_alpha   89.99996432
_cell_angle_beta   90.00000000
_cell_angle_gamma   90.00000000
_symmetry_Int_Tables_number   1
_chemical_formula_structural   Ta4TcOsW2
_chemical_formula_sum   'Ta8 Tc2 Os2 W4'
_cell_volume   266.11206211
_cell_formula_units_Z   2
loop_
 _symmetry_equiv_pos_site_id
 _symmetry_equiv_pos_as_xyz
  1  'x, y, z'
loop_
 _atom_site_type_symbol
 _atom_site_label
 _atom_site_symmetry_multiplicity
 _atom_site_fract_x
 _atom_site_fract_y
 _atom_site_fract_z
 _atom_site_occupancy
  Ta  Ta0  1  0.499760  0.999992  0.249991  1
  Ta  Ta1  1  0.499757  0.500023  0.249989  1
  Ta  Ta2  1  0.999759  0.000008  0.250007  1
  Ta  Ta3  1  0.999756  0.499977  0.250009  1
  Ta  Ta4  1  0.000241  0.999990  0.749977  1
  Ta  Ta5  1  0.000245  0.500026  0.749977  1
  Ta  Ta6  1  0.500241  0.000010  0.750023  1
  Ta  Ta7  1  0.500245  0.499974  0.750023  1
  Tc  Tc8  1  0.749992  0.250000  0.000097  1
  Tc  Tc9  1  0.249992  0.750000  0.499905  1
  Os  Os10  1  0.750010  0.250000  0.500094  1
  Os  Os11  1  0.250010  0.750000  0.999906  1
  W  W12  1  0.249997  0.250000  0.000081  1
  W  W13  1  0.749997  0.750000  0.499919  1
  W  W14  1  0.249999  0.250000  0.500082  1
  W  W15  1  0.750000  0.750000  0.999919  1
