# generated using pymatgen
data_Ba3Bi4O
_symmetry_space_group_name_H-M   'P 1'
_cell_length_a   7.17573392
_cell_length_b   13.15611700
_cell_length_c   13.54089041
_cell_angle_alpha   90.00000000
_cell_angle_beta   112.51718174
_cell_angle_gamma   90.00000000
_symmetry_Int_Tables_number   1
_chemical_formula_structural   Ba3Bi4O
_chemical_formula_sum   'Ba12 Bi16 O4'
_cell_volume   1180.87153695
_cell_formula_units_Z   4
loop_
 _symmetry_equiv_pos_site_id
 _symmetry_equiv_pos_as_xyz
  1  'x, y, z'
loop_
 _atom_site_type_symbol
 _atom_site_label
 _atom_site_symmetry_multiplicity
 _atom_site_fract_x
 _atom_site_fract_y
 _atom_site_fract_z
 _atom_site_occupancy
  Ba  Ba0  1  0.203656  0.263733  0.033794  1
  Ba  Ba1  1  0.799635  0.053827  0.046175  1
  Ba  Ba2  1  0.617133  0.547221  0.223179  1
  Ba  Ba3  1  0.382868  0.047221  0.276821  1
  Ba  Ba4  1  0.200365  0.553826  0.453825  1
  Ba  Ba5  1  0.796345  0.763733  0.466206  1
  Ba  Ba6  1  0.203655  0.236267  0.533794  1
  Ba  Ba7  1  0.799636  0.446173  0.546175  1
  Ba  Ba8  1  0.617133  0.952779  0.723179  1
  Ba  Ba9  1  0.382867  0.452780  0.776821  1
  Ba  Ba10  1  0.200366  0.946173  0.953826  1
  Ba  Ba11  1  0.796345  0.736267  0.966206  1
  Bi  Bi12  1  0.714155  0.343425  0.050820  1
  Bi  Bi13  1  0.070378  0.491981  0.154793  1
  Bi  Bi14  1  0.651040  0.834467  0.182613  1
  Bi  Bi15  1  0.261556  0.768833  0.226133  1
  Bi  Bi16  1  0.738445  0.268833  0.273867  1
  Bi  Bi17  1  0.348960  0.334468  0.317387  1
  Bi  Bi18  1  0.929622  0.991981  0.345207  1
  Bi  Bi19  1  0.285845  0.843425  0.449180  1
  Bi  Bi20  1  0.714156  0.156575  0.550821  1
  Bi  Bi21  1  0.070377  0.008019  0.654794  1
  Bi  Bi22  1  0.651039  0.665532  0.682613  1
  Bi  Bi23  1  0.261555  0.731167  0.726132  1
  Bi  Bi24  1  0.738445  0.231167  0.773867  1
  Bi  Bi25  1  0.348960  0.165533  0.817386  1
  Bi  Bi26  1  0.929623  0.508019  0.845207  1
  Bi  Bi27  1  0.285846  0.656576  0.949180  1
  O  O28  1  0.168930  0.083178  0.082537  1
  O  O29  1  0.831070  0.583179  0.417463  1
  O  O30  1  0.168931  0.416821  0.582538  1
  O  O31  1  0.831071  0.916822  0.917463  1
