# generated using pymatgen
data_Tb11Dy9Co3Bi8Os
_symmetry_space_group_name_H-M   'P 1'
_cell_length_a   8.00718747
_cell_length_b   8.91775100
_cell_length_c   12.45392714
_cell_angle_alpha   90.00000000
_cell_angle_beta   90.21978415
_cell_angle_gamma   90.00000000
_symmetry_Int_Tables_number   1
_chemical_formula_structural   Tb11Dy9Co3Bi8Os
_chemical_formula_sum   'Tb11 Dy9 Co3 Bi8 Os1'
_cell_volume   889.27987485
_cell_formula_units_Z   1
loop_
 _symmetry_equiv_pos_site_id
 _symmetry_equiv_pos_as_xyz
  1  'x, y, z'
loop_
 _atom_site_type_symbol
 _atom_site_label
 _atom_site_symmetry_multiplicity
 _atom_site_fract_x
 _atom_site_fract_y
 _atom_site_fract_z
 _atom_site_occupancy
  Tb  Tb0  1  0.846525  0.750000  0.800515  1
  Tb  Tb1  1  0.153052  0.250000  0.198171  1
  Tb  Tb2  1  0.347287  0.250000  0.699058  1
  Tb  Tb3  1  0.654905  0.750000  0.294737  1
  Tb  Tb4  1  0.376454  0.750000  0.693719  1
  Tb  Tb5  1  0.620344  0.250000  0.310751  1
  Tb  Tb6  1  0.879457  0.250000  0.811549  1
  Tb  Tb7  1  0.120155  0.750000  0.186946  1
  Tb  Tb8  1  0.946349  0.750000  0.504048  1
  Tb  Tb9  1  0.049460  0.250000  0.496682  1
  Tb  Tb10  1  0.547518  0.750000  0.002730  1
  Dy  Dy11  1  0.452213  0.250000  0.997054  1
  Dy  Dy12  1  0.676163  0.040799  0.564955  1
  Dy  Dy13  1  0.324232  0.965345  0.436237  1
  Dy  Dy14  1  0.175638  0.966383  0.936720  1
  Dy  Dy15  1  0.324232  0.534655  0.436237  1
  Dy  Dy16  1  0.824065  0.035794  0.063217  1
  Dy  Dy17  1  0.676163  0.459201  0.564955  1
  Dy  Dy18  1  0.824065  0.464206  0.063217  1
  Dy  Dy19  1  0.175638  0.533617  0.936720  1
  Co  Co20  1  0.434920  0.250000  0.491167  1
  Co  Co21  1  0.060270  0.250000  0.992088  1
  Co  Co22  1  0.938842  0.750000  0.007288  1
  Bi  Bi23  1  0.570165  0.491864  0.827273  1
  Bi  Bi24  1  0.429401  0.506814  0.173175  1
  Bi  Bi25  1  0.069956  0.507170  0.674675  1
  Bi  Bi26  1  0.429401  0.993186  0.173175  1
  Bi  Bi27  1  0.931855  0.492430  0.325604  1
  Bi  Bi28  1  0.570165  0.008136  0.827273  1
  Bi  Bi29  1  0.931855  0.007570  0.325604  1
  Bi  Bi30  1  0.069956  0.992830  0.674675  1
  Os  Os31  1  0.569299  0.750000  0.509787  1
