# generated using pymatgen
data_HoTh7Re(Si4Rh)3
_symmetry_space_group_name_H-M   'P 1'
_cell_length_a   8.27300772
_cell_length_b   8.24269872
_cell_length_c   8.34455147
_cell_angle_alpha   89.99997637
_cell_angle_beta   90.12305364
_cell_angle_gamma   119.87884579
_symmetry_Int_Tables_number   1
_chemical_formula_structural   HoTh7Re(Si4Rh)3
_chemical_formula_sum   'Ho1 Th7 Re1 Si12 Rh3'
_cell_volume   493.39422212
_cell_formula_units_Z   1
loop_
 _symmetry_equiv_pos_site_id
 _symmetry_equiv_pos_as_xyz
  1  'x, y, z'
loop_
 _atom_site_type_symbol
 _atom_site_label
 _atom_site_symmetry_multiplicity
 _atom_site_fract_x
 _atom_site_fract_y
 _atom_site_fract_z
 _atom_site_occupancy
  Ho  Ho0  1  0.002540  0.501270  0.746858  1
  Th  Th1  1  0.000543  0.000270  0.249063  1
  Th  Th2  1  0.999889  0.999946  0.751457  1
  Th  Th3  1  0.497566  0.502252  0.254015  1
  Th  Th4  1  0.497568  0.995317  0.254015  1
  Th  Th5  1  0.006099  0.503051  0.254587  1
  Th  Th6  1  0.497539  0.501474  0.746540  1
  Th  Th7  1  0.497537  0.996058  0.746543  1
  Re  Re8  1  0.338480  0.669240  0.501290  1
  Si  Si9  1  0.164046  0.832496  0.504018  1
  Si  Si10  1  0.164045  0.331551  0.504016  1
  Si  Si11  1  0.674070  0.837035  0.498025  1
  Si  Si12  1  0.834600  0.169254  0.501435  1
  Si  Si13  1  0.834601  0.665347  0.501436  1
  Si  Si14  1  0.330288  0.165143  0.497660  1
  Si  Si15  1  0.833936  0.168513  0.998710  1
  Si  Si16  1  0.833936  0.665422  0.998709  1
  Si  Si17  1  0.330173  0.165086  0.001299  1
  Si  Si18  1  0.165106  0.831086  0.000646  1
  Si  Si19  1  0.165107  0.334021  0.000647  1
  Si  Si20  1  0.669347  0.834673  0.003654  1
  Rh  Rh21  1  0.663617  0.331809  0.504794  1
  Rh  Rh22  1  0.663457  0.331729  0.992138  1
  Rh  Rh23  1  0.335907  0.667955  0.988445  1
