# generated using pymatgen
data_Sr5YbSn8BiAs
_symmetry_space_group_name_H-M   'P 1'
_cell_length_a   8.88997769
_cell_length_b   8.88997871
_cell_length_c   8.88997822
_cell_angle_alpha   119.91763027
_cell_angle_beta   119.91763321
_cell_angle_gamma   90.14273070
_symmetry_Int_Tables_number   1
_chemical_formula_structural   Sr5YbSn8BiAs
_chemical_formula_sum   'Sr5 Yb1 Sn8 Bi1 As1'
_cell_volume   497.42312260
_cell_formula_units_Z   1
loop_
 _symmetry_equiv_pos_site_id
 _symmetry_equiv_pos_as_xyz
  1  'x, y, z'
loop_
 _atom_site_type_symbol
 _atom_site_label
 _atom_site_symmetry_multiplicity
 _atom_site_fract_x
 _atom_site_fract_y
 _atom_site_fract_z
 _atom_site_occupancy
  Sr  Sr0  1  0.762342  0.762342  0.000000  1
  Sr  Sr1  1  0.150444  0.678739  0.827851  1
  Sr  Sr2  1  0.850891  0.322595  0.172149  1
  Sr  Sr3  1  0.678739  0.850891  0.528296  1
  Sr  Sr4  1  0.322595  0.150444  0.471704  1
  Yb  Yb5  1  0.234836  0.234836  0.000000  1
  Sn  Sn6  1  0.830202  0.334565  0.787916  1
  Sn  Sn7  1  0.174614  0.660356  0.210412  1
  Sn  Sn8  1  0.546648  0.042285  0.212084  1
  Sn  Sn9  1  0.334565  0.546648  0.504364  1
  Sn  Sn10  1  0.964201  0.174614  0.514258  1
  Sn  Sn11  1  0.449943  0.964201  0.789588  1
  Sn  Sn12  1  0.660356  0.449943  0.485742  1
  Sn  Sn13  1  0.042285  0.830202  0.495636  1
  Bi  Bi14  1  0.491312  0.491312  0.000000  1
  As  As15  1  0.006029  0.006029  0.000000  1
