# generated using pymatgen
data_La6Dy3Lu(In3Br)2
_symmetry_space_group_name_H-M   'P 1'
_cell_length_a   9.60251700
_cell_length_b   9.60251754
_cell_length_c   6.80702000
_cell_angle_alpha   90.00000000
_cell_angle_beta   90.00000000
_cell_angle_gamma   120.00000158
_symmetry_Int_Tables_number   1
_chemical_formula_structural   La6Dy3Lu(In3Br)2
_chemical_formula_sum   'La6 Dy3 Lu1 In6 Br2'
_cell_volume   543.57296089
_cell_formula_units_Z   1
loop_
 _symmetry_equiv_pos_site_id
 _symmetry_equiv_pos_as_xyz
  1  'x, y, z'
loop_
 _atom_site_type_symbol
 _atom_site_label
 _atom_site_symmetry_multiplicity
 _atom_site_fract_x
 _atom_site_fract_y
 _atom_site_fract_z
 _atom_site_occupancy
  La  La0  1  0.731052  0.730377  0.249511  1
  La  La1  1  0.999326  0.730377  0.750489  1
  La  La2  1  0.731052  0.000674  0.750489  1
  La  La3  1  0.269623  0.268948  0.750489  1
  La  La4  1  0.999326  0.268948  0.249511  1
  La  La5  1  0.269623  0.000674  0.249511  1
  Dy  Dy6  1  0.333333  0.666667  0.500000  1
  Dy  Dy7  1  0.666667  0.333333  0.500000  1
  Dy  Dy8  1  0.333333  0.666667  0.000000  1
  Lu  Lu9  1  0.666667  0.333333  0.000000  1
  In  In10  1  0.393984  0.000570  0.750371  1
  In  In11  1  0.999430  0.606016  0.249629  1
  In  In12  1  0.606586  0.000570  0.249629  1
  In  In13  1  0.999430  0.393414  0.750371  1
  In  In14  1  0.393984  0.393414  0.249629  1
  In  In15  1  0.606586  0.606016  0.750371  1
  Br  Br16  1  0.000000  0.000000  0.500000  1
  Br  Br17  1  0.000000  0.000000  0.000000  1
