# generated using pymatgen
data_CeTh7Al3Zn5Ru8
_symmetry_space_group_name_H-M   'P 1'
_cell_length_a   3.97690800
_cell_length_b   7.43000474
_cell_length_c   16.34989559
_cell_angle_alpha   89.81965670
_cell_angle_beta   90.00000000
_cell_angle_gamma   90.00000000
_symmetry_Int_Tables_number   1
_chemical_formula_structural   CeTh7Al3Zn5Ru8
_chemical_formula_sum   'Ce1 Th7 Al3 Zn5 Ru8'
_cell_volume   483.11160206
_cell_formula_units_Z   1
loop_
 _symmetry_equiv_pos_site_id
 _symmetry_equiv_pos_as_xyz
  1  'x, y, z'
loop_
 _atom_site_type_symbol
 _atom_site_label
 _atom_site_symmetry_multiplicity
 _atom_site_fract_x
 _atom_site_fract_y
 _atom_site_fract_z
 _atom_site_occupancy
  Ce  Ce0  1  0.250000  0.550571  0.716671  1
  Th  Th1  1  0.750000  0.949602  0.216663  1
  Th  Th2  1  0.250000  0.175913  0.559736  1
  Th  Th3  1  0.750000  0.828730  0.440502  1
  Th  Th4  1  0.750000  0.451121  0.284197  1
  Th  Th5  1  0.750000  0.329518  0.062275  1
  Th  Th6  1  0.250000  0.674629  0.939183  1
  Th  Th7  1  0.250000  0.047473  0.779109  1
  Al  Al8  1  0.750000  0.376216  0.846862  1
  Al  Al9  1  0.750000  0.007185  0.938314  1
  Al  Al10  1  0.750000  0.871899  0.649145  1
  Zn  Zn11  1  0.750000  0.503315  0.562055  1
  Zn  Zn12  1  0.250000  0.499264  0.441684  1
  Zn  Zn13  1  0.250000  0.998311  0.059815  1
  Zn  Zn14  1  0.250000  0.625717  0.150028  1
  Zn  Zn15  1  0.250000  0.123796  0.350139  1
  Ru  Ru16  1  0.750000  0.747402  0.814906  1
  Ru  Ru17  1  0.250000  0.245824  0.933640  1
  Ru  Ru18  1  0.750000  0.249108  0.440233  1
  Ru  Ru19  1  0.250000  0.745764  0.313991  1
  Ru  Ru20  1  0.750000  0.754256  0.058644  1
  Ru  Ru21  1  0.750000  0.244670  0.688297  1
  Ru  Ru22  1  0.250000  0.246287  0.186141  1
  Ru  Ru23  1  0.250000  0.753427  0.567769  1
