# generated using pymatgen
data_Th2SnPdRh4
_symmetry_space_group_name_H-M   'P 1'
_cell_length_a   5.92963800
_cell_length_b   5.92963824
_cell_length_c   8.85856400
_cell_angle_alpha   90.00000000
_cell_angle_beta   90.00000000
_cell_angle_gamma   98.80434460
_symmetry_Int_Tables_number   1
_chemical_formula_structural   Th2SnPdRh4
_chemical_formula_sum   'Th4 Sn2 Pd2 Rh8'
_cell_volume   307.80234892
_cell_formula_units_Z   2
loop_
 _symmetry_equiv_pos_site_id
 _symmetry_equiv_pos_as_xyz
  1  'x, y, z'
loop_
 _atom_site_type_symbol
 _atom_site_label
 _atom_site_symmetry_multiplicity
 _atom_site_fract_x
 _atom_site_fract_y
 _atom_site_fract_z
 _atom_site_occupancy
  Th  Th0  1  0.780229  0.219771  0.500000  1
  Th  Th1  1  0.219771  0.780229  0.000000  1
  Th  Th2  1  0.219771  0.780229  0.500000  1
  Th  Th3  1  0.780229  0.219771  0.000000  1
  Sn  Sn4  1  0.500611  0.500611  0.750000  1
  Sn  Sn5  1  0.499389  0.499389  0.250000  1
  Pd  Pd6  1  0.000185  0.000185  0.250000  1
  Pd  Pd7  1  0.999815  0.999815  0.750000  1
  Rh  Rh8  1  0.723235  0.723235  0.000386  1
  Rh  Rh9  1  0.723235  0.723235  0.499614  1
  Rh  Rh10  1  0.276765  0.276765  0.999614  1
  Rh  Rh11  1  0.276765  0.276765  0.500386  1
  Rh  Rh12  1  0.499901  0.000233  0.750000  1
  Rh  Rh13  1  0.500099  0.999767  0.250000  1
  Rh  Rh14  1  0.000233  0.499901  0.750000  1
  Rh  Rh15  1  0.999767  0.500099  0.250000  1
