# generated using pymatgen
data_Tb3Lu(Al8Pt3)3
_symmetry_space_group_name_H-M   'P 1'
_cell_length_a   7.52654393
_cell_length_b   7.55185049
_cell_length_c   13.16848262
_cell_angle_alpha   84.58437735
_cell_angle_beta   79.11294216
_cell_angle_gamma   59.95169112
_symmetry_Int_Tables_number   1
_chemical_formula_structural   Tb3Lu(Al8Pt3)3
_chemical_formula_sum   'Tb3 Lu1 Al24 Pt9'
_cell_volume   636.23247075
_cell_formula_units_Z   1
loop_
 _symmetry_equiv_pos_site_id
 _symmetry_equiv_pos_as_xyz
  1  'x, y, z'
loop_
 _atom_site_type_symbol
 _atom_site_label
 _atom_site_symmetry_multiplicity
 _atom_site_fract_x
 _atom_site_fract_y
 _atom_site_fract_z
 _atom_site_occupancy
  Tb  Tb0  1  0.393518  0.168741  0.808111  1
  Tb  Tb1  1  0.606619  0.831398  0.191962  1
  Tb  Tb2  1  0.733687  0.498576  0.808026  1
  Lu  Lu3  1  0.265349  0.501365  0.193556  1
  Al  Al4  1  0.684532  0.833919  0.944639  1
  Al  Al5  1  0.315309  0.167239  0.056208  1
  Al  Al6  1  0.146580  0.832443  0.561194  1
  Al  Al7  1  0.853582  0.167470  0.438379  1
  Al  Al8  1  0.479485  0.166829  0.558388  1
  Al  Al9  1  0.520535  0.833269  0.441245  1
  Al  Al10  1  0.217238  0.165762  0.329001  1
  Al  Al11  1  0.783085  0.834605  0.670130  1
  Al  Al12  1  0.437256  0.506585  0.670346  1
  Al  Al13  1  0.562504  0.493360  0.328802  1
  Al  Al14  1  0.109604  0.159731  0.669069  1
  Al  Al15  1  0.891267  0.839793  0.329991  1
  Al  Al16  1  0.352359  0.499773  0.945448  1
  Al  Al17  1  0.645773  0.500428  0.056213  1
  Al  Al18  1  0.015574  0.167352  0.953213  1
  Al  Al19  1  0.985073  0.831680  0.047848  1
  Al  Al20  1  0.186921  0.499342  0.441146  1
  Al  Al21  1  0.813385  0.500627  0.558356  1
  Al  Al22  1  0.733236  0.165238  0.183478  1
  Al  Al23  1  0.265779  0.835824  0.816529  1
  Al  Al24  1  0.061675  0.631505  0.815458  1
  Al  Al25  1  0.939612  0.368279  0.184513  1
  Al  Al26  1  0.855791  0.041346  0.816022  1
  Al  Al27  1  0.144229  0.957337  0.183917  1
  Pt  Pt28  1  0.120111  0.491929  0.638635  1
  Pt  Pt29  1  0.880800  0.508279  0.360676  1
  Pt  Pt30  1  0.657236  0.171377  0.000121  1
  Pt  Pt31  1  0.342575  0.828750  0.000454  1
  Pt  Pt32  1  0.537207  0.167422  0.360919  1
  Pt  Pt33  1  0.462219  0.833193  0.638371  1
  Pt  Pt34  1  0.778713  0.174922  0.636947  1
  Pt  Pt35  1  0.221746  0.824191  0.362319  1
  Pt  Pt36  1  0.999838  0.500123  0.000373  1
