# generated using pymatgen
data_Yb4Ga5Ni9
_symmetry_space_group_name_H-M   'P 1'
_cell_length_a   5.16617926
_cell_length_b   5.16617958
_cell_length_c   12.00309573
_cell_angle_alpha   77.57262133
_cell_angle_beta   77.57262161
_cell_angle_gamma   59.99999460
_symmetry_Int_Tables_number   1
_chemical_formula_structural   Yb4Ga5Ni9
_chemical_formula_sum   'Yb4 Ga5 Ni9'
_cell_volume   268.73381669
_cell_formula_units_Z   1
loop_
 _symmetry_equiv_pos_site_id
 _symmetry_equiv_pos_as_xyz
  1  'x, y, z'
loop_
 _atom_site_type_symbol
 _atom_site_label
 _atom_site_symmetry_multiplicity
 _atom_site_fract_x
 _atom_site_fract_y
 _atom_site_fract_z
 _atom_site_occupancy
  Yb  Yb0  1  0.951292  0.951292  0.146124  1
  Yb  Yb1  1  0.048708  0.048708  0.853876  1
  Yb  Yb2  1  0.855070  0.855070  0.434789  1
  Yb  Yb3  1  0.144930  0.144930  0.565211  1
  Ga  Ga4  1  0.500000  0.500000  0.500000  1
  Ga  Ga5  1  0.722561  0.722561  0.832315  1
  Ga  Ga6  1  0.277439  0.277439  0.167685  1
  Ga  Ga7  1  0.610774  0.610774  0.167679  1
  Ga  Ga8  1  0.389226  0.389226  0.832321  1
  Ni  Ni9  1  0.000000  0.500000  0.000000  1
  Ni  Ni10  1  0.500000  0.000000  0.000000  1
  Ni  Ni11  1  0.500000  0.500000  0.000000  1
  Ni  Ni12  1  0.386797  0.386797  0.333414  1
  Ni  Ni13  1  0.892992  0.386797  0.333414  1
  Ni  Ni14  1  0.386797  0.892992  0.333414  1
  Ni  Ni15  1  0.613203  0.613203  0.666586  1
  Ni  Ni16  1  0.107008  0.613203  0.666586  1
  Ni  Ni17  1  0.613203  0.107008  0.666586  1
