# generated using pymatgen
data_YbCe3(Be4Ru5)2
_symmetry_space_group_name_H-M   'P 1'
_cell_length_a   3.27262200
_cell_length_b   8.77352056
_cell_length_c   10.40463300
_cell_angle_alpha   90.07519260
_cell_angle_beta   90.00000000
_cell_angle_gamma   90.00000000
_symmetry_Int_Tables_number   1
_chemical_formula_structural   YbCe3(Be4Ru5)2
_chemical_formula_sum   'Yb1 Ce3 Be8 Ru10'
_cell_volume   298.74189779
_cell_formula_units_Z   1
loop_
 _symmetry_equiv_pos_site_id
 _symmetry_equiv_pos_as_xyz
  1  'x, y, z'
loop_
 _atom_site_type_symbol
 _atom_site_label
 _atom_site_symmetry_multiplicity
 _atom_site_fract_x
 _atom_site_fract_y
 _atom_site_fract_z
 _atom_site_occupancy
  Yb  Yb0  1  0.500000  0.345978  0.318508  1
  Ce  Ce1  1  0.500000  0.845639  0.183105  1
  Ce  Ce2  1  0.500000  0.156434  0.821645  1
  Ce  Ce3  1  0.500000  0.653723  0.676308  1
  Be  Be4  1  0.500000  0.965548  0.590430  1
  Be  Be5  1  0.500000  0.042383  0.408146  1
  Be  Be6  1  0.500000  0.836944  0.904078  1
  Be  Be7  1  0.500000  0.163820  0.101623  1
  Be  Be8  1  0.500000  0.659175  0.403456  1
  Be  Be9  1  0.500000  0.337759  0.590494  1
  Be  Be10  1  0.500000  0.465290  0.909442  1
  Be  Be11  1  0.500000  0.532391  0.094916  1
  Ru  Ru12  1  0.000000  0.655300  0.954353  1
  Ru  Ru13  1  0.000000  0.342760  0.044617  1
  Ru  Ru14  1  0.000000  0.844249  0.454465  1
  Ru  Ru15  1  0.000000  0.155789  0.547174  1
  Ru  Ru16  1  0.000000  0.002416  0.996030  1
  Ru  Ru17  1  0.000000  0.394256  0.758846  1
  Ru  Ru18  1  0.000000  0.607674  0.242506  1
  Ru  Ru19  1  0.000000  0.504292  0.502561  1
  Ru  Ru20  1  0.000000  0.895569  0.740009  1
  Ru  Ru21  1  0.000000  0.092610  0.257287  1
