# generated using pymatgen
data_Na4Yb2TiP4
_symmetry_space_group_name_H-M   'P 1'
_cell_length_a   9.19214625
_cell_length_b   9.19214664
_cell_length_c   7.13067907
_cell_angle_alpha   89.15171203
_cell_angle_beta   89.15171585
_cell_angle_gamma   119.98848597
_symmetry_Int_Tables_number   1
_chemical_formula_structural   Na4Yb2TiP4
_chemical_formula_sum   'Na8 Yb4 Ti2 P8'
_cell_volume   521.62136378
_cell_formula_units_Z   2
loop_
 _symmetry_equiv_pos_site_id
 _symmetry_equiv_pos_as_xyz
  1  'x, y, z'
loop_
 _atom_site_type_symbol
 _atom_site_label
 _atom_site_symmetry_multiplicity
 _atom_site_fract_x
 _atom_site_fract_y
 _atom_site_fract_z
 _atom_site_occupancy
  Na  Na0  1  0.470576  0.936663  0.387387  1
  Na  Na1  1  0.936663  0.470576  0.887387  1
  Na  Na2  1  0.867255  0.729859  0.203499  1
  Na  Na3  1  0.277682  0.131871  0.233561  1
  Na  Na4  1  0.856123  0.134573  0.219415  1
  Na  Na5  1  0.131871  0.277682  0.733561  1
  Na  Na6  1  0.729859  0.867255  0.703499  1
  Na  Na7  1  0.134573  0.856123  0.719415  1
  Yb  Yb8  1  0.058439  0.530961  0.392680  1
  Yb  Yb9  1  0.476937  0.531952  0.386718  1
  Yb  Yb10  1  0.530961  0.058439  0.892680  1
  Yb  Yb11  1  0.531952  0.476937  0.886718  1
  Ti  Ti12  1  0.663491  0.330123  0.497418  1
  Ti  Ti13  1  0.330123  0.663491  0.997418  1
  P  P14  1  0.655908  0.333188  0.161707  1
  P  P15  1  0.333188  0.655908  0.661707  1
  P  P16  1  0.200578  0.386273  0.126849  1
  P  P17  1  0.616369  0.803544  0.092744  1
  P  P18  1  0.197199  0.809450  0.107557  1
  P  P19  1  0.803544  0.616369  0.592744  1
  P  P20  1  0.386273  0.200578  0.626849  1
  P  P21  1  0.809450  0.197199  0.607557  1
