# generated using pymatgen
data_Sr2NbClO4
_symmetry_space_group_name_H-M   'P 1'
_cell_length_a   6.88650300
_cell_length_b   7.65910100
_cell_length_c   11.97241300
_cell_angle_alpha   90.00000000
_cell_angle_beta   90.00000000
_cell_angle_gamma   90.00000000
_symmetry_Int_Tables_number   1
_chemical_formula_structural   Sr2NbClO4
_chemical_formula_sum   'Sr8 Nb4 Cl4 O16'
_cell_volume   631.47800380
_cell_formula_units_Z   4
loop_
 _symmetry_equiv_pos_site_id
 _symmetry_equiv_pos_as_xyz
  1  'x, y, z'
loop_
 _atom_site_type_symbol
 _atom_site_label
 _atom_site_symmetry_multiplicity
 _atom_site_fract_x
 _atom_site_fract_y
 _atom_site_fract_z
 _atom_site_occupancy
  Sr  Sr0  1  0.854844  0.978237  0.250000  1
  Sr  Sr1  1  0.145156  0.478237  0.250000  1
  Sr  Sr2  1  0.381376  0.750000  0.000000  1
  Sr  Sr3  1  0.618624  0.250000  0.500000  1
  Sr  Sr4  1  0.854844  0.521763  0.750000  1
  Sr  Sr5  1  0.145156  0.021763  0.750000  1
  Sr  Sr6  1  0.381376  0.750000  0.500000  1
  Sr  Sr7  1  0.618624  0.250000  0.000000  1
  Nb  Nb8  1  0.874351  0.750000  0.000000  1
  Nb  Nb9  1  0.125649  0.250000  0.000000  1
  Nb  Nb10  1  0.874351  0.750000  0.500000  1
  Nb  Nb11  1  0.125649  0.250000  0.500000  1
  Cl  Cl12  1  0.511404  0.802167  0.750000  1
  Cl  Cl13  1  0.488596  0.197833  0.250000  1
  Cl  Cl14  1  0.488596  0.302167  0.750000  1
  Cl  Cl15  1  0.511404  0.697833  0.250000  1
  O  O16  1  0.036339  0.729951  0.125365  1
  O  O17  1  0.291503  0.437732  0.031270  1
  O  O18  1  0.036339  0.770049  0.874635  1
  O  O19  1  0.291503  0.062268  0.531270  1
  O  O20  1  0.963661  0.270049  0.874635  1
  O  O21  1  0.708497  0.562268  0.531270  1
  O  O22  1  0.036339  0.729951  0.374635  1
  O  O23  1  0.291503  0.437732  0.468730  1
  O  O24  1  0.708497  0.937732  0.031270  1
  O  O25  1  0.291503  0.062268  0.968730  1
  O  O26  1  0.708497  0.937732  0.468730  1
  O  O27  1  0.963661  0.229951  0.374635  1
  O  O28  1  0.708497  0.562268  0.968730  1
  O  O29  1  0.963661  0.270049  0.625365  1
  O  O30  1  0.963661  0.229951  0.125365  1
  O  O31  1  0.036339  0.770049  0.625365  1
