# generated using pymatgen
data_In2As2Br2O5
_symmetry_space_group_name_H-M   'P 1'
_cell_length_a   6.88973987
_cell_length_b   7.76164680
_cell_length_c   9.73912043
_cell_angle_alpha   108.40987615
_cell_angle_beta   103.05355071
_cell_angle_gamma   101.77180588
_symmetry_Int_Tables_number   1
_chemical_formula_structural   In2As2Br2O5
_chemical_formula_sum   'In4 As4 Br4 O10'
_cell_volume   459.52801785
_cell_formula_units_Z   2
loop_
 _symmetry_equiv_pos_site_id
 _symmetry_equiv_pos_as_xyz
  1  'x, y, z'
loop_
 _atom_site_type_symbol
 _atom_site_label
 _atom_site_symmetry_multiplicity
 _atom_site_fract_x
 _atom_site_fract_y
 _atom_site_fract_z
 _atom_site_occupancy
  In  In0  1  0.400268  0.690844  0.517529  1
  In  In1  1  0.599732  0.309156  0.482471  1
  In  In2  1  0.862626  0.784017  0.347794  1
  In  In3  1  0.137374  0.215983  0.652206  1
  As  As4  1  0.872015  0.841035  0.731407  1
  As  As5  1  0.127985  0.158965  0.268593  1
  As  As6  1  0.685827  0.216864  0.775198  1
  As  As7  1  0.314173  0.783136  0.224802  1
  Br  Br8  1  0.236742  0.617436  0.722262  1
  Br  Br9  1  0.763258  0.382564  0.277738  1
  Br  Br10  1  0.778010  0.724972  0.058260  1
  Br  Br11  1  0.221990  0.275028  0.941740  1
  O  O12  1  0.828183  0.264423  0.647121  1
  O  O13  1  0.171817  0.735577  0.352879  1
  O  O14  1  0.547334  0.785475  0.356716  1
  O  O15  1  0.452666  0.214525  0.643284  1
  O  O16  1  0.645218  0.951912  0.707458  1
  O  O17  1  0.354782  0.048088  0.292542  1
  O  O18  1  0.681787  0.619562  0.602471  1
  O  O19  1  0.318213  0.380438  0.397529  1
  O  O20  1  0.982490  0.905689  0.595519  1
  O  O21  1  0.017510  0.094311  0.404481  1
