# generated using pymatgen
data_YbPr3Al18IrPd5
_symmetry_space_group_name_H-M   'P 1'
_cell_length_a   7.68211671
_cell_length_b   7.68886569
_cell_length_c   9.59611420
_cell_angle_alpha   89.95968296
_cell_angle_beta   90.00010208
_cell_angle_gamma   119.55941791
_symmetry_Int_Tables_number   1
_chemical_formula_structural   YbPr3Al18IrPd5
_chemical_formula_sum   'Yb1 Pr3 Al18 Ir1 Pd5'
_cell_volume   493.03766264
_cell_formula_units_Z   1
loop_
 _symmetry_equiv_pos_site_id
 _symmetry_equiv_pos_as_xyz
  1  'x, y, z'
loop_
 _atom_site_type_symbol
 _atom_site_label
 _atom_site_symmetry_multiplicity
 _atom_site_fract_x
 _atom_site_fract_y
 _atom_site_fract_z
 _atom_site_occupancy
  Yb  Yb0  1  0.329875  0.005587  0.749363  1
  Pr  Pr1  1  0.995081  0.668601  0.250197  1
  Pr  Pr2  1  0.006074  0.332136  0.750003  1
  Pr  Pr3  1  0.666481  0.993559  0.250097  1
  Al  Al4  1  0.132133  0.131471  0.252682  1
  Al  Al5  1  0.869117  0.869866  0.747567  1
  Al  Al6  1  0.003481  0.334369  0.074766  1
  Al  Al7  1  0.999651  0.667979  0.921693  1
  Al  Al8  1  0.001857  0.672218  0.576077  1
  Al  Al9  1  0.330627  0.001787  0.430629  1
  Al  Al10  1  0.001438  0.330220  0.427622  1
  Al  Al11  1  0.666832  0.998432  0.576141  1
  Al  Al12  1  0.662301  0.996944  0.920942  1
  Al  Al13  1  0.334289  0.003504  0.071885  1
  Al  Al14  1  0.331279  0.329249  0.552912  1
  Al  Al15  1  0.669024  0.668787  0.451987  1
  Al  Al16  1  0.664874  0.664690  0.051513  1
  Al  Al17  1  0.335559  0.333717  0.943964  1
  Al  Al18  1  0.340950  0.543861  0.250653  1
  Al  Al19  1  0.658957  0.453277  0.749352  1
  Al  Al20  1  0.544933  0.340049  0.250662  1
  Al  Al21  1  0.454037  0.658516  0.749232  1
  Ir  Ir22  1  0.000381  0.000407  0.500623  1
  Pd  Pd23  1  0.671288  0.328273  0.999371  1
  Pd  Pd24  1  0.328866  0.672170  0.999710  1
  Pd  Pd25  1  0.329089  0.671467  0.500069  1
  Pd  Pd26  1  0.671058  0.328755  0.500828  1
  Pd  Pd27  1  0.000466  0.000111  0.999458  1
