# generated using pymatgen
data_CsGdGeS4
_symmetry_space_group_name_H-M   'P 1'
_cell_length_a   6.55379800
_cell_length_b   6.85059900
_cell_length_c   18.08916800
_cell_angle_alpha   89.99991384
_cell_angle_beta   90.00003649
_cell_angle_gamma   89.99994868
_symmetry_Int_Tables_number   1
_chemical_formula_structural   CsGdGeS4
_chemical_formula_sum   'Cs4 Gd4 Ge4 S16'
_cell_volume   812.15737156
_cell_formula_units_Z   4
loop_
 _symmetry_equiv_pos_site_id
 _symmetry_equiv_pos_as_xyz
  1  'x, y, z'
loop_
 _atom_site_type_symbol
 _atom_site_label
 _atom_site_symmetry_multiplicity
 _atom_site_fract_x
 _atom_site_fract_y
 _atom_site_fract_z
 _atom_site_occupancy
  Cs  Cs0  1  0.999128  0.006496  0.031733  1
  Cs  Cs1  1  0.000870  0.506495  0.468267  1
  Cs  Cs2  1  0.500871  0.993505  0.531734  1
  Cs  Cs3  1  0.499130  0.493505  0.968267  1
  Gd  Gd4  1  0.292064  0.478812  0.227638  1
  Gd  Gd5  1  0.707938  0.978810  0.272362  1
  Gd  Gd6  1  0.207936  0.521189  0.727639  1
  Gd  Gd7  1  0.792062  0.021189  0.772362  1
  Ge  Ge8  1  0.791901  0.516406  0.168458  1
  Ge  Ge9  1  0.208101  0.016407  0.331541  1
  Ge  Ge10  1  0.708099  0.483593  0.668458  1
  Ge  Ge11  1  0.291899  0.983593  0.831541  1
  S  S12  1  0.061780  0.512785  0.095504  1
  S  S13  1  0.561155  0.751165  0.148338  1
  S  S14  1  0.599420  0.247590  0.157304  1
  S  S15  1  0.096631  0.085540  0.218204  1
  S  S16  1  0.903368  0.585537  0.281794  1
  S  S17  1  0.400582  0.747595  0.342695  1
  S  S18  1  0.438847  0.251166  0.351662  1
  S  S19  1  0.938222  0.012787  0.404495  1
  S  S20  1  0.438218  0.487214  0.595506  1
  S  S21  1  0.938845  0.248834  0.648339  1
  S  S22  1  0.900580  0.752407  0.657305  1
  S  S23  1  0.403368  0.914460  0.718205  1
  S  S24  1  0.596632  0.414462  0.781795  1
  S  S25  1  0.099418  0.252407  0.842696  1
  S  S26  1  0.061154  0.748836  0.851662  1
  S  S27  1  0.561779  0.987215  0.904495  1
