# generated using pymatgen
data_Tb5Dy10Ho5Bi12
_symmetry_space_group_name_H-M   'P 1'
_cell_length_a   8.28266993
_cell_length_b   9.53233510
_cell_length_c   12.06756501
_cell_angle_alpha   89.99187552
_cell_angle_beta   90.03681261
_cell_angle_gamma   90.00173672
_symmetry_Int_Tables_number   1
_chemical_formula_structural   Tb5Dy10Ho5Bi12
_chemical_formula_sum   'Tb5 Dy10 Ho5 Bi12'
_cell_volume   952.77248997
_cell_formula_units_Z   1
loop_
 _symmetry_equiv_pos_site_id
 _symmetry_equiv_pos_as_xyz
  1  'x, y, z'
loop_
 _atom_site_type_symbol
 _atom_site_label
 _atom_site_symmetry_multiplicity
 _atom_site_fract_x
 _atom_site_fract_y
 _atom_site_fract_z
 _atom_site_occupancy
  Tb  Tb0  1  0.193237  0.563754  0.441222  1
  Tb  Tb1  1  0.312645  0.250011  0.219034  1
  Tb  Tb2  1  0.812757  0.249989  0.280934  1
  Tb  Tb3  1  0.687327  0.750045  0.781036  1
  Tb  Tb4  1  0.187340  0.750149  0.719159  1
  Dy  Dy5  1  0.353069  0.750254  0.215595  1
  Dy  Dy6  1  0.852535  0.750284  0.284118  1
  Dy  Dy7  1  0.647312  0.249999  0.784324  1
  Dy  Dy8  1  0.147312  0.250139  0.715712  1
  Dy  Dy9  1  0.693323  0.564338  0.058777  1
  Dy  Dy10  1  0.193165  0.935804  0.441166  1
  Dy  Dy11  1  0.306645  0.064296  0.941228  1
  Dy  Dy12  1  0.806906  0.435617  0.558728  1
  Dy  Dy13  1  0.306690  0.435636  0.941218  1
  Dy  Dy14  1  0.806549  0.064288  0.558822  1
  Ho  Ho15  1  0.693384  0.935607  0.058754  1
  Ho  Ho16  1  0.475028  0.250030  0.488136  1
  Ho  Ho17  1  0.974839  0.250136  0.011738  1
  Ho  Ho18  1  0.525427  0.750069  0.511909  1
  Ho  Ho19  1  0.025115  0.749968  0.988229  1
  Bi  Bi20  1  0.407533  0.750030  0.957796  1
  Bi  Bi21  1  0.907088  0.750330  0.542353  1
  Bi  Bi22  1  0.592591  0.249847  0.042217  1
  Bi  Bi23  1  0.092195  0.248973  0.457972  1
  Bi  Bi24  1  0.565154  0.994922  0.325456  1
  Bi  Bi25  1  0.065004  0.505199  0.174260  1
  Bi  Bi26  1  0.434875  0.494876  0.674631  1
  Bi  Bi27  1  0.934821  0.005266  0.825586  1
  Bi  Bi28  1  0.434902  0.005250  0.674486  1
  Bi  Bi29  1  0.934750  0.494858  0.825626  1
  Bi  Bi30  1  0.565409  0.505157  0.325397  1
  Bi  Bi31  1  0.065073  0.994879  0.174380  1
