# generated using pymatgen
data_TmU3Ir4
_symmetry_space_group_name_H-M   'P 1'
_cell_length_a   10.43277900
_cell_length_b   5.60395473
_cell_length_c   5.65353366
_cell_angle_alpha   81.06818143
_cell_angle_beta   90.00000000
_cell_angle_gamma   90.00000000
_symmetry_Int_Tables_number   1
_chemical_formula_structural   TmU3Ir4
_chemical_formula_sum   'Tm2 U6 Ir8'
_cell_volume   326.52472672
_cell_formula_units_Z   2
loop_
 _symmetry_equiv_pos_site_id
 _symmetry_equiv_pos_as_xyz
  1  'x, y, z'
loop_
 _atom_site_type_symbol
 _atom_site_label
 _atom_site_symmetry_multiplicity
 _atom_site_fract_x
 _atom_site_fract_y
 _atom_site_fract_z
 _atom_site_occupancy
  Tm  Tm0  1  0.499874  0.100084  0.853766  1
  Tm  Tm1  1  0.999874  0.899916  0.146234  1
  U  U2  1  0.488023  0.670534  0.406131  1
  U  U3  1  0.988023  0.329466  0.593869  1
  U  U4  1  0.218356  0.389975  0.122973  1
  U  U5  1  0.718356  0.610025  0.877027  1
  U  U6  1  0.221135  0.841852  0.618889  1
  U  U7  1  0.721135  0.158148  0.381111  1
  Ir  Ir8  1  0.769328  0.112424  0.879698  1
  Ir  Ir9  1  0.269328  0.887576  0.120302  1
  Ir  Ir10  1  0.754332  0.654351  0.371033  1
  Ir  Ir11  1  0.254332  0.345649  0.628967  1
  Ir  Ir12  1  0.958118  0.411743  0.085457  1
  Ir  Ir13  1  0.458118  0.588257  0.914543  1
  Ir  Ir14  1  0.958835  0.819649  0.657603  1
  Ir  Ir15  1  0.458835  0.180351  0.342397  1
