# generated using pymatgen
data_MoIr5OsW
_symmetry_space_group_name_H-M   'P 1'
_cell_length_a   5.54747296
_cell_length_b   5.54747381
_cell_length_c   4.43164600
_cell_angle_alpha   90.00000000
_cell_angle_beta   90.00000000
_cell_angle_gamma   120.27487522
_symmetry_Int_Tables_number   1
_chemical_formula_structural   MoIr5OsW
_chemical_formula_sum   'Mo1 Ir5 Os1 W1'
_cell_volume   117.78135664
_cell_formula_units_Z   1
loop_
 _symmetry_equiv_pos_site_id
 _symmetry_equiv_pos_as_xyz
  1  'x, y, z'
loop_
 _atom_site_type_symbol
 _atom_site_label
 _atom_site_symmetry_multiplicity
 _atom_site_fract_x
 _atom_site_fract_y
 _atom_site_fract_z
 _atom_site_occupancy
  Mo  Mo0  1  0.332513  0.667487  0.750000  1
  Ir  Ir1  1  0.166842  0.333265  0.250000  1
  Ir  Ir2  1  0.666735  0.833158  0.250000  1
  Ir  Ir3  1  0.834729  0.667995  0.750000  1
  Ir  Ir4  1  0.332005  0.165271  0.750000  1
  Ir  Ir5  1  0.833403  0.166597  0.750000  1
  Os  Os6  1  0.166708  0.833292  0.250000  1
  W  W7  1  0.667066  0.332934  0.250000  1
