# generated using pymatgen
data_Th4Al18TcIr5
_symmetry_space_group_name_H-M   'P 1'
_cell_length_a   7.66457388
_cell_length_b   7.66457380
_cell_length_c   9.54640363
_cell_angle_alpha   89.82095704
_cell_angle_beta   89.82095332
_cell_angle_gamma   119.02525669
_symmetry_Int_Tables_number   1
_chemical_formula_structural   Th4Al18TcIr5
_chemical_formula_sum   'Th4 Al18 Tc1 Ir5'
_cell_volume   490.36635537
_cell_formula_units_Z   1
loop_
 _symmetry_equiv_pos_site_id
 _symmetry_equiv_pos_as_xyz
  1  'x, y, z'
loop_
 _atom_site_type_symbol
 _atom_site_label
 _atom_site_symmetry_multiplicity
 _atom_site_fract_x
 _atom_site_fract_y
 _atom_site_fract_z
 _atom_site_occupancy
  Th  Th0  1  0.995026  0.677240  0.748956  1
  Th  Th1  1  0.004974  0.322760  0.251044  1
  Th  Th2  1  0.677240  0.995026  0.748956  1
  Th  Th3  1  0.322760  0.004974  0.251044  1
  Al  Al4  1  0.136215  0.136215  0.749459  1
  Al  Al5  1  0.863785  0.863785  0.250541  1
  Al  Al6  1  0.007684  0.337978  0.576053  1
  Al  Al7  1  0.992316  0.662022  0.423947  1
  Al  Al8  1  0.995436  0.661868  0.075571  1
  Al  Al9  1  0.338132  0.004564  0.924429  1
  Al  Al10  1  0.004564  0.338132  0.924429  1
  Al  Al11  1  0.661868  0.995436  0.075571  1
  Al  Al12  1  0.662022  0.992316  0.423947  1
  Al  Al13  1  0.337978  0.007684  0.576053  1
  Al  Al14  1  0.335964  0.335964  0.044631  1
  Al  Al15  1  0.664036  0.664036  0.955369  1
  Al  Al16  1  0.664809  0.664809  0.544221  1
  Al  Al17  1  0.335191  0.335191  0.455779  1
  Al  Al18  1  0.342545  0.548330  0.750571  1
  Al  Al19  1  0.657455  0.451670  0.249429  1
  Al  Al20  1  0.548330  0.342545  0.750571  1
  Al  Al21  1  0.451670  0.657455  0.249429  1
  Tc  Tc22  1  0.000000  0.000000  0.500000  1
  Ir  Ir23  1  0.672966  0.327034  0.500000  1
  Ir  Ir24  1  0.327034  0.672966  0.500000  1
  Ir  Ir25  1  0.327890  0.672110  0.000000  1
  Ir  Ir26  1  0.672110  0.327890  0.000000  1
  Ir  Ir27  1  0.000000  0.000000  0.000000  1
