# generated using pymatgen
data_Y19Lu(BiPb7)2
_symmetry_space_group_name_H-M   'P 1'
_cell_length_a   8.26440507
_cell_length_b   15.62839762
_cell_length_c   8.32053500
_cell_angle_alpha   90.02600755
_cell_angle_beta   89.99265812
_cell_angle_gamma   89.99854421
_symmetry_Int_Tables_number   1
_chemical_formula_structural   Y19Lu(BiPb7)2
_chemical_formula_sum   'Y19 Lu1 Bi2 Pb14'
_cell_volume   1074.67525873
_cell_formula_units_Z   1
loop_
 _symmetry_equiv_pos_site_id
 _symmetry_equiv_pos_as_xyz
  1  'x, y, z'
loop_
 _atom_site_type_symbol
 _atom_site_label
 _atom_site_symmetry_multiplicity
 _atom_site_fract_x
 _atom_site_fract_y
 _atom_site_fract_z
 _atom_site_occupancy
  Y  Y0  1  0.620931  0.621272  0.159793  1
  Y  Y1  1  0.120933  0.878377  0.339955  1
  Y  Y2  1  0.379052  0.121926  0.844892  1
  Y  Y3  1  0.878101  0.378098  0.655864  1
  Y  Y4  1  0.375015  0.378448  0.841601  1
  Y  Y5  1  0.874199  0.121546  0.659134  1
  Y  Y6  1  0.622823  0.879020  0.157867  1
  Y  Y7  1  0.122809  0.621333  0.341805  1
  Y  Y8  1  0.456511  0.603317  0.669347  1
  Y  Y9  1  0.956541  0.897014  0.830487  1
  Y  Y10  1  0.544775  0.103204  0.324323  1
  Y  Y11  1  0.044112  0.396807  0.174835  1
  Y  Y12  1  0.539881  0.397935  0.329776  1
  Y  Y13  1  0.039160  0.102145  0.169627  1
  Y  Y14  1  0.463327  0.897457  0.676017  1
  Y  Y15  1  0.963269  0.602318  0.823830  1
  Y  Y16  1  0.791011  0.750391  0.498019  1
  Y  Y17  1  0.291032  0.749681  0.001898  1
  Y  Y18  1  0.209064  0.251423  0.501671  1
  Lu  Lu19  1  0.709256  0.248153  0.997761  1
  Bi  Bi20  1  0.722284  0.454062  0.971804  1
  Bi  Bi21  1  0.222442  0.044615  0.529192  1
  Pb  Pb22  1  0.278902  0.956931  0.031168  1
  Pb  Pb23  1  0.779111  0.543160  0.469117  1
  Pb  Pb24  1  0.278899  0.542976  0.031537  1
  Pb  Pb25  1  0.779091  0.957125  0.468241  1
  Pb  Pb26  1  0.719435  0.044204  0.968604  1
  Pb  Pb27  1  0.219281  0.456896  0.532003  1
  Pb  Pb28  1  0.427701  0.751190  0.372645  1
  Pb  Pb29  1  0.927433  0.748797  0.127220  1
  Pb  Pb30  1  0.571412  0.250161  0.628846  1
  Pb  Pb31  1  0.069338  0.249879  0.873095  1
  Pb  Pb32  1  0.649464  0.748857  0.847288  1
  Pb  Pb33  1  0.149326  0.751178  0.652978  1
  Pb  Pb34  1  0.353179  0.250362  0.153502  1
  Pb  Pb35  1  0.850904  0.249735  0.344257  1
