# generated using pymatgen
data_Nd4Sc6Si5Ge3
_symmetry_space_group_name_H-M   'P 1'
_cell_length_a   7.27460249
_cell_length_b   7.53300289
_cell_length_c   14.26260227
_cell_angle_alpha   89.98764280
_cell_angle_beta   89.85666727
_cell_angle_gamma   89.94573641
_symmetry_Int_Tables_number   1
_chemical_formula_structural   Nd4Sc6Si5Ge3
_chemical_formula_sum   'Nd8 Sc12 Si10 Ge6'
_cell_volume   781.58210776
_cell_formula_units_Z   2
loop_
 _symmetry_equiv_pos_site_id
 _symmetry_equiv_pos_as_xyz
  1  'x, y, z'
loop_
 _atom_site_type_symbol
 _atom_site_label
 _atom_site_symmetry_multiplicity
 _atom_site_fract_x
 _atom_site_fract_y
 _atom_site_fract_z
 _atom_site_occupancy
  Nd  Nd0  1  0.989738  0.673011  0.599400  1
  Nd  Nd1  1  0.010262  0.326989  0.400600  1
  Nd  Nd2  1  0.510021  0.172954  0.400537  1
  Nd  Nd3  1  0.011742  0.328825  0.098574  1
  Nd  Nd4  1  0.489979  0.827046  0.599463  1
  Nd  Nd5  1  0.988258  0.671175  0.901426  1
  Nd  Nd6  1  0.489673  0.825497  0.901189  1
  Nd  Nd7  1  0.510327  0.174503  0.098811  1
  Sc  Sc8  1  0.160608  0.000610  0.750094  1
  Sc  Sc9  1  0.839392  0.999390  0.249906  1
  Sc  Sc10  1  0.339355  0.500774  0.248788  1
  Sc  Sc11  1  0.660645  0.499226  0.751212  1
  Sc  Sc12  1  0.332078  0.325367  0.626530  1
  Sc  Sc13  1  0.667922  0.674633  0.373470  1
  Sc  Sc14  1  0.167774  0.825278  0.373450  1
  Sc  Sc15  1  0.667118  0.673841  0.125862  1
  Sc  Sc16  1  0.832226  0.174722  0.626550  1
  Sc  Sc17  1  0.332882  0.326159  0.874138  1
  Sc  Sc18  1  0.830172  0.176847  0.874323  1
  Sc  Sc19  1  0.169828  0.823153  0.125677  1
  Si  Si20  1  0.035665  0.374951  0.750165  1
  Si  Si21  1  0.964335  0.625049  0.249835  1
  Si  Si22  1  0.464520  0.875213  0.249693  1
  Si  Si23  1  0.535480  0.124787  0.750307  1
  Si  Si24  1  0.288747  0.618624  0.750073  1
  Si  Si25  1  0.711253  0.381376  0.249927  1
  Si  Si26  1  0.210778  0.118352  0.249696  1
  Si  Si27  1  0.789222  0.881648  0.750304  1
  Si  Si28  1  0.653321  0.462693  0.960406  1
  Si  Si29  1  0.346679  0.537307  0.039594  1
  Ge  Ge30  1  0.161506  0.039596  0.540979  1
  Ge  Ge31  1  0.838494  0.960404  0.459021  1
  Ge  Ge32  1  0.338706  0.539787  0.459023  1
  Ge  Ge33  1  0.839048  0.960788  0.040898  1
  Ge  Ge34  1  0.661294  0.460213  0.540977  1
  Ge  Ge35  1  0.160952  0.039212  0.959102  1
