# generated using pymatgen
data_Pr7NdZrPd24
_symmetry_space_group_name_H-M   'P 1'
_cell_length_a   8.58074700
_cell_length_b   8.58074700
_cell_length_c   8.58074700
_cell_angle_alpha   89.99938569
_cell_angle_beta   90.00061431
_cell_angle_gamma   90.00061431
_symmetry_Int_Tables_number   1
_chemical_formula_structural   Pr7NdZrPd24
_chemical_formula_sum   'Pr7 Nd1 Zr1 Pd24'
_cell_volume   631.79370072
_cell_formula_units_Z   1
loop_
 _symmetry_equiv_pos_site_id
 _symmetry_equiv_pos_as_xyz
  1  'x, y, z'
loop_
 _atom_site_type_symbol
 _atom_site_label
 _atom_site_symmetry_multiplicity
 _atom_site_fract_x
 _atom_site_fract_y
 _atom_site_fract_z
 _atom_site_occupancy
  Pr  Pr0  1  0.252380  0.252380  0.252380  1
  Pr  Pr1  1  0.747628  0.747627  0.747627  1
  Pr  Pr2  1  0.747620  0.747620  0.252380  1
  Pr  Pr3  1  0.747620  0.252380  0.747620  1
  Pr  Pr4  1  0.252373  0.252372  0.747627  1
  Pr  Pr5  1  0.252373  0.747627  0.252372  1
  Pr  Pr6  1  0.252378  0.747622  0.747622  1
  Nd  Nd7  1  0.747595  0.252405  0.252405  1
  Zr  Zr8  1  0.999856  0.000144  0.000144  1
  Pd  Pd9  1  0.266934  0.499968  0.000002  1
  Pd  Pd10  1  0.733071  0.499679  0.000410  1
  Pd  Pd11  1  0.999590  0.266929  0.499679  1
  Pd  Pd12  1  0.500321  0.266929  0.000410  1
  Pd  Pd13  1  0.999998  0.733066  0.499968  1
  Pd  Pd14  1  0.500032  0.733066  0.000002  1
  Pd  Pd15  1  0.500321  0.000410  0.266929  1
  Pd  Pd16  1  0.266934  0.000002  0.499968  1
  Pd  Pd17  1  0.500032  0.000002  0.733066  1
  Pd  Pd18  1  0.733071  0.000410  0.499679  1
  Pd  Pd19  1  0.999590  0.499679  0.266929  1
  Pd  Pd20  1  0.999998  0.499968  0.733066  1
  Pd  Pd21  1  0.254824  0.499997  0.499997  1
  Pd  Pd22  1  0.745178  0.499592  0.499592  1
  Pd  Pd23  1  0.500408  0.254822  0.499592  1
  Pd  Pd24  1  0.500003  0.745176  0.499997  1
  Pd  Pd25  1  0.500408  0.499592  0.254822  1
  Pd  Pd26  1  0.500003  0.499997  0.745176  1
  Pd  Pd27  1  0.312117  0.000006  0.000006  1
  Pd  Pd28  1  0.687959  0.000299  0.000299  1
  Pd  Pd29  1  0.999701  0.312041  0.000299  1
  Pd  Pd30  1  0.999994  0.687883  0.000006  1
  Pd  Pd31  1  0.999701  0.000299  0.312041  1
  Pd  Pd32  1  0.999994  0.000006  0.687883  1
