# generated using pymatgen
data_U8Ta2Nb7Si16MoW2
_symmetry_space_group_name_H-M   'P 1'
_cell_length_a   7.00009283
_cell_length_b   7.00163875
_cell_length_c   12.92329500
_cell_angle_alpha   89.99089210
_cell_angle_beta   89.97215462
_cell_angle_gamma   89.97502865
_symmetry_Int_Tables_number   1
_chemical_formula_structural   U8Ta2Nb7Si16MoW2
_chemical_formula_sum   'U8 Ta2 Nb7 Si16 Mo1 W2'
_cell_volume   633.39795805
_cell_formula_units_Z   1
loop_
 _symmetry_equiv_pos_site_id
 _symmetry_equiv_pos_as_xyz
  1  'x, y, z'
loop_
 _atom_site_type_symbol
 _atom_site_label
 _atom_site_symmetry_multiplicity
 _atom_site_fract_x
 _atom_site_fract_y
 _atom_site_fract_z
 _atom_site_occupancy
  U  U0  1  0.995139  0.329552  0.220896  1
  U  U1  1  0.008042  0.672705  0.718214  1
  U  U2  1  0.167671  0.496129  0.469417  1
  U  U3  1  0.505098  0.830857  0.031588  1
  U  U4  1  0.830338  0.506106  0.969499  1
  U  U5  1  0.495041  0.167178  0.529355  1
  U  U6  1  0.327806  0.992830  0.780270  1
  U  U7  1  0.670563  0.005367  0.280516  1
  Ta  Ta8  1  0.330152  0.668613  0.250323  1
  Ta  Ta9  1  0.668938  0.330984  0.749820  1
  Nb  Nb10  1  0.842639  0.000181  0.873654  1
  Nb  Nb11  1  0.497493  0.657077  0.623380  1
  Nb  Nb12  1  0.343913  0.500408  0.876142  1
  Nb  Nb13  1  0.498318  0.342176  0.124700  1
  Nb  Nb14  1  0.657303  0.498746  0.376076  1
  Nb  Nb15  1  0.000478  0.157463  0.626382  1
  Nb  Nb16  1  0.998696  0.842595  0.125806  1
  Si  Si17  1  0.295087  0.039265  0.184812  1
  Si  Si18  1  0.702845  0.959013  0.682375  1
  Si  Si19  1  0.461727  0.796824  0.433938  1
  Si  Si20  1  0.202450  0.536347  0.065210  1
  Si  Si21  1  0.536226  0.202158  0.935016  1
  Si  Si22  1  0.796180  0.463397  0.565162  1
  Si  Si23  1  0.041153  0.297603  0.817298  1
  Si  Si24  1  0.961452  0.709080  0.317786  1
  Si  Si25  1  0.370477  0.290968  0.316365  1
  Si  Si26  1  0.629538  0.706530  0.814707  1
  Si  Si27  1  0.202939  0.872789  0.561845  1
  Si  Si28  1  0.128667  0.795727  0.935529  1
  Si  Si29  1  0.796025  0.129867  0.065147  1
  Si  Si30  1  0.875640  0.200955  0.434702  1
  Si  Si31  1  0.294122  0.369978  0.684544  1
  Si  Si32  1  0.706697  0.627551  0.185331  1
  Mo  Mo33  1  0.161370  0.002282  0.373982  1
  W  W34  1  0.167297  0.167195  0.000566  1
  W  W35  1  0.832484  0.833504  0.499647  1
