# generated using pymatgen
data_SmMn2Ni2(AgO4)3
_symmetry_space_group_name_H-M   'P 1'
_cell_length_a   6.56845638
_cell_length_b   6.56845676
_cell_length_c   6.55408073
_cell_angle_alpha   109.33218161
_cell_angle_beta   109.12212622
_cell_angle_gamma   110.04843220
_symmetry_Int_Tables_number   1
_chemical_formula_structural   SmMn2Ni2(AgO4)3
_chemical_formula_sum   'Sm1 Mn2 Ni2 Ag3 O12'
_cell_volume   217.42764668
_cell_formula_units_Z   1
loop_
 _symmetry_equiv_pos_site_id
 _symmetry_equiv_pos_as_xyz
  1  'x, y, z'
loop_
 _atom_site_type_symbol
 _atom_site_label
 _atom_site_symmetry_multiplicity
 _atom_site_fract_x
 _atom_site_fract_y
 _atom_site_fract_z
 _atom_site_occupancy
  Sm  Sm0  1  0.000000  0.000000  0.000000  1
  Mn  Mn1  1  0.000000  0.000000  0.500000  1
  Mn  Mn2  1  0.500000  0.500000  0.500000  1
  Ni  Ni3  1  0.000000  0.500000  0.000000  1
  Ni  Ni4  1  0.500000  0.000000  0.000000  1
  Ag  Ag5  1  0.000000  0.500000  0.500000  1
  Ag  Ag6  1  0.500000  0.000000  0.500000  1
  Ag  Ag7  1  0.500000  0.500000  0.000000  1
  O  O8  1  0.283660  0.117104  0.812218  1
  O  O9  1  0.716340  0.882896  0.187782  1
  O  O10  1  0.695115  0.528558  0.812218  1
  O  O11  1  0.472526  0.187991  0.304851  1
  O  O12  1  0.176994  0.294388  0.471382  1
  O  O13  1  0.825592  0.292769  0.118361  1
  O  O14  1  0.883139  0.167675  0.695149  1
  O  O15  1  0.823006  0.705612  0.528618  1
  O  O16  1  0.304885  0.471442  0.187782  1
  O  O17  1  0.527474  0.812009  0.695149  1
  O  O18  1  0.174408  0.707231  0.881639  1
  O  O19  1  0.116861  0.832325  0.304851  1
