# generated using pymatgen
data_Tb3PaZn2Ir3
_symmetry_space_group_name_H-M   'P 1'
_cell_length_a   7.47824441
_cell_length_b   7.35457644
_cell_length_c   3.95658300
_cell_angle_alpha   90.00000000
_cell_angle_beta   90.00000000
_cell_angle_gamma   119.45445092
_symmetry_Int_Tables_number   1
_chemical_formula_structural   Tb3PaZn2Ir3
_chemical_formula_sum   'Tb3 Pa1 Zn2 Ir3'
_cell_volume   189.48268633
_cell_formula_units_Z   1
loop_
 _symmetry_equiv_pos_site_id
 _symmetry_equiv_pos_as_xyz
  1  'x, y, z'
loop_
 _atom_site_type_symbol
 _atom_site_label
 _atom_site_symmetry_multiplicity
 _atom_site_fract_x
 _atom_site_fract_y
 _atom_site_fract_z
 _atom_site_occupancy
  Tb  Tb0  1  0.446684  0.412644  0.000000  1
  Tb  Tb1  1  0.553316  0.965961  0.000000  1
  Tb  Tb2  1  0.000000  0.631214  0.000000  1
  Pa  Pa3  1  0.000000  0.256660  0.500000  1
  Zn  Zn4  1  0.741559  0.748126  0.500000  1
  Zn  Zn5  1  0.258441  0.006567  0.500000  1
  Ir  Ir6  1  0.000000  0.009473  0.000000  1
  Ir  Ir7  1  0.316534  0.642945  0.500000  1
  Ir  Ir8  1  0.683466  0.326409  0.500000  1
