# generated using pymatgen
data_DyEr2Al12CoOs3
_symmetry_space_group_name_H-M   'P 1'
_cell_length_a   8.75529300
_cell_length_b   8.75529262
_cell_length_c   9.49838800
_cell_angle_alpha   90.00000000
_cell_angle_beta   90.00000000
_cell_angle_gamma   119.99999768
_symmetry_Int_Tables_number   1
_chemical_formula_structural   DyEr2Al12CoOs3
_chemical_formula_sum   'Dy2 Er4 Al24 Co2 Os6'
_cell_volume   630.55343801
_cell_formula_units_Z   2
loop_
 _symmetry_equiv_pos_site_id
 _symmetry_equiv_pos_as_xyz
  1  'x, y, z'
loop_
 _atom_site_type_symbol
 _atom_site_label
 _atom_site_symmetry_multiplicity
 _atom_site_fract_x
 _atom_site_fract_y
 _atom_site_fract_z
 _atom_site_occupancy
  Dy  Dy0  1  0.194371  0.388743  0.250000  1
  Dy  Dy1  1  0.805629  0.611257  0.750000  1
  Er  Er2  1  0.611257  0.805629  0.250000  1
  Er  Er3  1  0.388743  0.194371  0.750000  1
  Er  Er4  1  0.194371  0.805629  0.250000  1
  Er  Er5  1  0.805629  0.194371  0.750000  1
  Al  Al6  1  0.333333  0.666667  0.016895  1
  Al  Al7  1  0.666667  0.333333  0.983105  1
  Al  Al8  1  0.666667  0.333333  0.516895  1
  Al  Al9  1  0.333333  0.666667  0.483105  1
  Al  Al10  1  0.159301  0.318602  0.575933  1
  Al  Al11  1  0.840699  0.681398  0.424067  1
  Al  Al12  1  0.681398  0.840699  0.575933  1
  Al  Al13  1  0.840699  0.681398  0.075933  1
  Al  Al14  1  0.318602  0.159301  0.424067  1
  Al  Al15  1  0.159301  0.318602  0.924067  1
  Al  Al16  1  0.159301  0.840699  0.575933  1
  Al  Al17  1  0.318602  0.159301  0.075933  1
  Al  Al18  1  0.840699  0.159301  0.424067  1
  Al  Al19  1  0.681398  0.840699  0.924067  1
  Al  Al20  1  0.840699  0.159301  0.075933  1
  Al  Al21  1  0.159301  0.840699  0.924067  1
  Al  Al22  1  0.561474  0.122947  0.250000  1
  Al  Al23  1  0.438526  0.877053  0.750000  1
  Al  Al24  1  0.877053  0.438526  0.250000  1
  Al  Al25  1  0.122947  0.561474  0.750000  1
  Al  Al26  1  0.561474  0.438526  0.250000  1
  Al  Al27  1  0.438526  0.561474  0.750000  1
  Al  Al28  1  0.000000  0.000000  0.250000  1
  Al  Al29  1  0.000000  0.000000  0.750000  1
  Co  Co30  1  0.000000  0.000000  0.000000  1
  Co  Co31  1  0.000000  0.000000  0.500000  1
  Os  Os32  1  0.500000  0.000000  0.000000  1
  Os  Os33  1  0.000000  0.500000  0.000000  1
  Os  Os34  1  0.500000  0.000000  0.500000  1
  Os  Os35  1  0.500000  0.500000  0.000000  1
  Os  Os36  1  0.000000  0.500000  0.500000  1
  Os  Os37  1  0.500000  0.500000  0.500000  1
