# generated using pymatgen
data_Dy2Al3Zn2Cu5
_symmetry_space_group_name_H-M   'P 1'
_cell_length_a   4.14634600
_cell_length_b   5.22260754
_cell_length_c   8.89621722
_cell_angle_alpha   90.75472222
_cell_angle_beta   90.00000000
_cell_angle_gamma   90.00000000
_symmetry_Int_Tables_number   1
_chemical_formula_structural   Dy2Al3Zn2Cu5
_chemical_formula_sum   'Dy2 Al3 Zn2 Cu5'
_cell_volume   192.62853912
_cell_formula_units_Z   1
loop_
 _symmetry_equiv_pos_site_id
 _symmetry_equiv_pos_as_xyz
  1  'x, y, z'
loop_
 _atom_site_type_symbol
 _atom_site_label
 _atom_site_symmetry_multiplicity
 _atom_site_fract_x
 _atom_site_fract_y
 _atom_site_fract_z
 _atom_site_occupancy
  Dy  Dy0  1  0.000000  0.000572  0.001133  1
  Dy  Dy1  1  0.000000  0.499383  0.498839  1
  Al  Al2  1  0.500000  0.514983  0.001370  1
  Al  Al3  1  0.500000  0.985053  0.498659  1
  Al  Al4  1  0.500000  0.250026  0.249985  1
  Zn  Zn5  1  0.500000  0.749981  0.750014  1
  Zn  Zn6  1  0.500000  0.249978  0.749988  1
  Cu  Cu7  1  0.000000  0.997954  0.333730  1
  Cu  Cu8  1  0.000000  0.498851  0.835124  1
  Cu  Cu9  1  0.000000  0.502142  0.166238  1
  Cu  Cu10  1  0.000000  0.000896  0.664861  1
  Cu  Cu11  1  0.500000  0.749979  0.250057  1
