# generated using pymatgen
data_Nd8Te(IrO8)3
_symmetry_space_group_name_H-M   'P 1'
_cell_length_a   5.46785562
_cell_length_b   9.43607709
_cell_length_c   10.20644130
_cell_angle_alpha   89.84439722
_cell_angle_beta   89.90629025
_cell_angle_gamma   90.00203922
_symmetry_Int_Tables_number   1
_chemical_formula_structural   Nd8Te(IrO8)3
_chemical_formula_sum   'Nd8 Te1 Ir3 O24'
_cell_volume   526.59978508
_cell_formula_units_Z   1
loop_
 _symmetry_equiv_pos_site_id
 _symmetry_equiv_pos_as_xyz
  1  'x, y, z'
loop_
 _atom_site_type_symbol
 _atom_site_label
 _atom_site_symmetry_multiplicity
 _atom_site_fract_x
 _atom_site_fract_y
 _atom_site_fract_z
 _atom_site_occupancy
  Nd  Nd0  1  0.034901  0.218935  0.131318  1
  Nd  Nd1  1  0.467246  0.782176  0.635015  1
  Nd  Nd2  1  0.965595  0.720206  0.365608  1
  Nd  Nd3  1  0.536109  0.284039  0.865808  1
  Nd  Nd4  1  0.025831  0.101079  0.538794  1
  Nd  Nd5  1  0.475015  0.899106  0.037775  1
  Nd  Nd6  1  0.974788  0.603768  0.963823  1
  Nd  Nd7  1  0.525352  0.394887  0.457485  1
  Te  Te8  1  0.042651  0.494517  0.644013  1
  Ir  Ir9  1  0.544716  0.003494  0.356850  1
  Ir  Ir10  1  0.956420  0.997260  0.857401  1
  Ir  Ir11  1  0.456088  0.504181  0.142309  1
  O  O12  1  0.431771  0.148746  0.479007  1
  O  O13  1  0.068098  0.850997  0.980054  1
  O  O14  1  0.566101  0.651528  0.020807  1
  O  O15  1  0.929356  0.349368  0.522050  1
  O  O16  1  0.725518  0.388830  0.065269  1
  O  O17  1  0.777569  0.610545  0.564822  1
  O  O18  1  0.277669  0.885798  0.435578  1
  O  O19  1  0.224339  0.113477  0.934858  1
  O  O20  1  0.249508  0.412488  0.005195  1
  O  O21  1  0.248705  0.585235  0.506830  1
  O  O22  1  0.752832  0.911505  0.494033  1
  O  O23  1  0.748048  0.089385  0.994330  1
  O  O24  1  0.184503  0.632835  0.180212  1
  O  O25  1  0.312635  0.362686  0.675925  1
  O  O26  1  0.815157  0.134468  0.321509  1
  O  O27  1  0.684416  0.867342  0.821868  1
  O  O28  1  0.335734  0.056116  0.214764  1
  O  O29  1  0.164474  0.944103  0.714804  1
  O  O30  1  0.662661  0.557138  0.285582  1
  O  O31  1  0.835394  0.446088  0.789659  1
  O  O32  1  0.322461  0.359521  0.256559  1
  O  O33  1  0.177977  0.637939  0.757990  1
  O  O34  1  0.679617  0.861813  0.240874  1
  O  O35  1  0.820744  0.138399  0.741225  1
