# generated using pymatgen
data_Pr8Er(IO8)3
_symmetry_space_group_name_H-M   'P 1'
_cell_length_a   5.53483797
_cell_length_b   9.50280663
_cell_length_c   10.40723700
_cell_angle_alpha   89.18022114
_cell_angle_beta   90.19166475
_cell_angle_gamma   90.54073437
_symmetry_Int_Tables_number   1
_chemical_formula_structural   Pr8Er(IO8)3
_chemical_formula_sum   'Pr8 Er1 I3 O24'
_cell_volume   547.30096478
_cell_formula_units_Z   1
loop_
 _symmetry_equiv_pos_site_id
 _symmetry_equiv_pos_as_xyz
  1  'x, y, z'
loop_
 _atom_site_type_symbol
 _atom_site_label
 _atom_site_symmetry_multiplicity
 _atom_site_fract_x
 _atom_site_fract_y
 _atom_site_fract_z
 _atom_site_occupancy
  Pr  Pr0  1  0.035073  0.219047  0.138292  1
  Pr  Pr1  1  0.460358  0.761815  0.636088  1
  Pr  Pr2  1  0.969220  0.711283  0.373911  1
  Pr  Pr3  1  0.522706  0.293117  0.847331  1
  Pr  Pr4  1  0.042890  0.119654  0.542048  1
  Pr  Pr5  1  0.471149  0.892606  0.039995  1
  Pr  Pr6  1  0.986038  0.604499  0.952305  1
  Pr  Pr7  1  0.519196  0.408040  0.466548  1
  Er  Er8  1  0.031943  0.486957  0.648069  1
  I  I9  1  0.546494  0.001695  0.353722  1
  I  I10  1  0.955407  0.000627  0.860359  1
  I  I11  1  0.463949  0.503903  0.145332  1
  O  O12  1  0.441641  0.149937  0.455914  1
  O  O13  1  0.056423  0.859973  0.983798  1
  O  O14  1  0.574175  0.648014  0.030366  1
  O  O15  1  0.901979  0.333705  0.504757  1
  O  O16  1  0.719154  0.388445  0.083374  1
  O  O17  1  0.752482  0.618823  0.547819  1
  O  O18  1  0.281292  0.897333  0.428654  1
  O  O19  1  0.210708  0.111952  0.938535  1
  O  O20  1  0.264955  0.414807  0.013093  1
  O  O21  1  0.252277  0.603109  0.502729  1
  O  O22  1  0.746122  0.924139  0.487754  1
  O  O23  1  0.752271  0.084908  0.990594  1
  O  O24  1  0.201721  0.629460  0.176315  1
  O  O25  1  0.319834  0.319260  0.660135  1
  O  O26  1  0.817610  0.116088  0.307337  1
  O  O27  1  0.696096  0.872989  0.827367  1
  O  O28  1  0.351911  0.055304  0.208514  1
  O  O29  1  0.157050  0.948747  0.725563  1
  O  O30  1  0.659851  0.558827  0.281247  1
  O  O31  1  0.794991  0.462146  0.811596  1
  O  O32  1  0.326391  0.365205  0.255449  1
  O  O33  1  0.226729  0.634822  0.777821  1
  O  O34  1  0.654616  0.856074  0.247050  1
  O  O35  1  0.835296  0.142690  0.750221  1
