# generated using pymatgen
data_RbPaPtS3
_symmetry_space_group_name_H-M   'P 1'
_cell_length_a   7.72399031
_cell_length_b   7.72399110
_cell_length_c   10.15292400
_cell_angle_alpha   90.00000000
_cell_angle_beta   90.00000000
_cell_angle_gamma   149.84029235
_symmetry_Int_Tables_number   1
_chemical_formula_structural   RbPaPtS3
_chemical_formula_sum   'Rb2 Pa2 Pt2 S6'
_cell_volume   304.32291397
_cell_formula_units_Z   2
loop_
 _symmetry_equiv_pos_site_id
 _symmetry_equiv_pos_as_xyz
  1  'x, y, z'
loop_
 _atom_site_type_symbol
 _atom_site_label
 _atom_site_symmetry_multiplicity
 _atom_site_fract_x
 _atom_site_fract_y
 _atom_site_fract_z
 _atom_site_occupancy
  Rb  Rb0  1  0.749029  0.250969  0.250001  1
  Rb  Rb1  1  0.250969  0.749029  0.750000  1
  Pa  Pa2  1  0.000000  0.000000  0.000000  1
  Pa  Pa3  1  0.000000  0.000000  0.500000  1
  Pt  Pt4  1  0.468858  0.531140  0.250001  1
  Pt  Pt5  1  0.531140  0.468858  0.750000  1
  S  S6  1  0.380937  0.619061  0.049449  1
  S  S7  1  0.062897  0.937101  0.250001  1
  S  S8  1  0.380937  0.619061  0.450551  1
  S  S9  1  0.619061  0.380937  0.549449  1
  S  S10  1  0.937101  0.062897  0.750000  1
  S  S11  1  0.619061  0.380937  0.950551  1
