# generated using pymatgen
data_Pr2Nd2Te3N2
_symmetry_space_group_name_H-M   'P 1'
_cell_length_a   7.44626600
_cell_length_b   11.47549100
_cell_length_c   11.83892200
_cell_angle_alpha   90.00000000
_cell_angle_beta   90.00000000
_cell_angle_gamma   90.00000000
_symmetry_Int_Tables_number   1
_chemical_formula_structural   Pr2Nd2Te3N2
_chemical_formula_sum   'Pr8 Nd8 Te12 N8'
_cell_volume   1011.63065762
_cell_formula_units_Z   4
loop_
 _symmetry_equiv_pos_site_id
 _symmetry_equiv_pos_as_xyz
  1  'x, y, z'
loop_
 _atom_site_type_symbol
 _atom_site_label
 _atom_site_symmetry_multiplicity
 _atom_site_fract_x
 _atom_site_fract_y
 _atom_site_fract_z
 _atom_site_occupancy
  Pr  Pr0  1  0.146152  0.389662  0.950423  1
  Pr  Pr1  1  0.353848  0.889662  0.049577  1
  Pr  Pr2  1  0.853848  0.610338  0.450423  1
  Pr  Pr3  1  0.146152  0.389662  0.549577  1
  Pr  Pr4  1  0.353848  0.889662  0.450423  1
  Pr  Pr5  1  0.646152  0.110338  0.549577  1
  Pr  Pr6  1  0.853848  0.610338  0.049577  1
  Pr  Pr7  1  0.646152  0.110338  0.950423  1
  Nd  Nd8  1  0.409782  0.158418  0.250000  1
  Nd  Nd9  1  0.731696  0.468683  0.750000  1
  Nd  Nd10  1  0.768304  0.968683  0.250000  1
  Nd  Nd11  1  0.268304  0.531317  0.250000  1
  Nd  Nd12  1  0.090218  0.658418  0.750000  1
  Nd  Nd13  1  0.909782  0.341582  0.250000  1
  Nd  Nd14  1  0.231696  0.031317  0.750000  1
  Nd  Nd15  1  0.590218  0.841582  0.750000  1
  Te  Te16  1  0.065408  0.135529  0.079807  1
  Te  Te17  1  0.082258  0.774538  0.250000  1
  Te  Te18  1  0.565408  0.364471  0.079807  1
  Te  Te19  1  0.582258  0.725462  0.250000  1
  Te  Te20  1  0.934592  0.864471  0.920193  1
  Te  Te21  1  0.434592  0.635529  0.920193  1
  Te  Te22  1  0.917742  0.225462  0.750000  1
  Te  Te23  1  0.934592  0.864471  0.579807  1
  Te  Te24  1  0.065408  0.135529  0.420193  1
  Te  Te25  1  0.434592  0.635529  0.579807  1
  Te  Te26  1  0.565408  0.364471  0.420193  1
  Te  Te27  1  0.417742  0.274538  0.750000  1
  N  N28  1  0.446835  0.967388  0.622765  1
  N  N29  1  0.553165  0.032612  0.122765  1
  N  N30  1  0.946835  0.532612  0.622765  1
  N  N31  1  0.053165  0.467388  0.377235  1
  N  N32  1  0.946835  0.532612  0.877235  1
  N  N33  1  0.053165  0.467388  0.122765  1
  N  N34  1  0.553165  0.032612  0.377235  1
  N  N35  1  0.446835  0.967388  0.877235  1
