# generated using pymatgen
data_Zr10SiSb6
_symmetry_space_group_name_H-M   'P 1'
_cell_length_a   5.85326901
_cell_length_b   8.57812282
_cell_length_c   8.57840201
_cell_angle_alpha   119.99893505
_cell_angle_beta   90.00038493
_cell_angle_gamma   89.99922418
_symmetry_Int_Tables_number   1
_chemical_formula_structural   Zr10SiSb6
_chemical_formula_sum   'Zr10 Si1 Sb6'
_cell_volume   373.02026908
_cell_formula_units_Z   1
loop_
 _symmetry_equiv_pos_site_id
 _symmetry_equiv_pos_as_xyz
  1  'x, y, z'
loop_
 _atom_site_type_symbol
 _atom_site_label
 _atom_site_symmetry_multiplicity
 _atom_site_fract_x
 _atom_site_fract_y
 _atom_site_fract_z
 _atom_site_occupancy
  Zr  Zr0  1  0.500001  0.333336  0.666671  1
  Zr  Zr1  1  0.500001  0.666665  0.333329  1
  Zr  Zr2  1  0.999999  0.666663  0.333326  1
  Zr  Zr3  1  0.999999  0.333337  0.666674  1
  Zr  Zr4  1  0.760089  0.255893  0.000000  1
  Zr  Zr5  1  0.760067  0.744116  0.744107  1
  Zr  Zr6  1  0.760067  0.000008  0.255893  1
  Zr  Zr7  1  0.239913  0.744107  0.000000  1
  Zr  Zr8  1  0.239933  0.255884  0.255893  1
  Zr  Zr9  1  0.239933  0.999992  0.744107  1
  Si  Si10  1  0.499998  0.999999  0.000000  1
  Sb  Sb11  1  0.749572  0.610283  0.000000  1
  Sb  Sb12  1  0.749605  0.389730  0.389734  1
  Sb  Sb13  1  0.749605  0.999995  0.610266  1
  Sb  Sb14  1  0.250429  0.389718  0.000000  1
  Sb  Sb15  1  0.250395  0.610270  0.610267  1
  Sb  Sb16  1  0.250395  0.000004  0.389733  1
