# generated using pymatgen
data_Dy3ErAl18Ir5Au
_symmetry_space_group_name_H-M   'P 1'
_cell_length_a   7.58752060
_cell_length_b   7.58719095
_cell_length_c   9.47335414
_cell_angle_alpha   89.98172194
_cell_angle_beta   89.96736323
_cell_angle_gamma   119.60137292
_symmetry_Int_Tables_number   1
_chemical_formula_structural   Dy3ErAl18Ir5Au
_chemical_formula_sum   'Dy3 Er1 Al18 Ir5 Au1'
_cell_volume   474.18262678
_cell_formula_units_Z   1
loop_
 _symmetry_equiv_pos_site_id
 _symmetry_equiv_pos_as_xyz
  1  'x, y, z'
loop_
 _atom_site_type_symbol
 _atom_site_label
 _atom_site_symmetry_multiplicity
 _atom_site_fract_x
 _atom_site_fract_y
 _atom_site_fract_z
 _atom_site_occupancy
  Dy  Dy0  1  0.004260  0.327469  0.248859  1
  Dy  Dy1  1  0.672573  0.995699  0.751148  1
  Dy  Dy2  1  0.327436  0.004252  0.248860  1
  Er  Er3  1  0.995760  0.672586  0.751279  1
  Al  Al4  1  0.134217  0.134069  0.756132  1
  Al  Al5  1  0.865726  0.865695  0.243849  1
  Al  Al6  1  0.001284  0.343954  0.578998  1
  Al  Al7  1  0.998703  0.656302  0.421326  1
  Al  Al8  1  0.000164  0.664872  0.073347  1
  Al  Al9  1  0.334881  0.999594  0.926291  1
  Al  Al10  1  0.999829  0.335335  0.926307  1
  Al  Al11  1  0.664880  0.000165  0.073568  1
  Al  Al12  1  0.656272  0.998698  0.421145  1
  Al  Al13  1  0.343478  0.001078  0.578971  1
  Al  Al14  1  0.333333  0.333327  0.052800  1
  Al  Al15  1  0.666868  0.666669  0.947031  1
  Al  Al16  1  0.658405  0.658218  0.558904  1
  Al  Al17  1  0.341804  0.341798  0.441261  1
  Al  Al18  1  0.338640  0.549331  0.751198  1
  Al  Al19  1  0.661227  0.450737  0.248800  1
  Al  Al20  1  0.549544  0.338992  0.751202  1
  Al  Al21  1  0.450731  0.661207  0.248797  1
  Ir  Ir22  1  0.671830  0.328349  0.500105  1
  Ir  Ir23  1  0.328170  0.671743  0.500102  1
  Ir  Ir24  1  0.328127  0.671816  0.999901  1
  Ir  Ir25  1  0.671892  0.328282  0.999884  1
  Ir  Ir26  1  0.999973  0.999843  0.999878  1
  Au  Au27  1  0.999993  0.999921  0.500058  1
