# generated using pymatgen
data_TiMn5(InRh2)6
_symmetry_space_group_name_H-M   'P 1'
_cell_length_a   4.46887900
_cell_length_b   6.29840600
_cell_length_c   13.36195801
_cell_angle_alpha   90.00003534
_cell_angle_beta   89.99612585
_cell_angle_gamma   89.99989414
_symmetry_Int_Tables_number   1
_chemical_formula_structural   TiMn5(InRh2)6
_chemical_formula_sum   'Ti1 Mn5 In6 Rh12'
_cell_volume   376.09655017
_cell_formula_units_Z   1
loop_
 _symmetry_equiv_pos_site_id
 _symmetry_equiv_pos_as_xyz
  1  'x, y, z'
loop_
 _atom_site_type_symbol
 _atom_site_label
 _atom_site_symmetry_multiplicity
 _atom_site_fract_x
 _atom_site_fract_y
 _atom_site_fract_z
 _atom_site_occupancy
  Ti  Ti0  1  0.000000  0.500001  0.000000  1
  Mn  Mn1  1  0.499840  0.000000  0.167915  1
  Mn  Mn2  1  0.999851  0.500000  0.333999  1
  Mn  Mn3  1  0.500000  0.000000  0.500000  1
  Mn  Mn4  1  0.000149  0.500002  0.666001  1
  Mn  Mn5  1  0.500159  0.000000  0.832086  1
  In  In6  1  0.000000  0.000000  0.000000  1
  In  In7  1  0.499799  0.500004  0.169758  1
  In  In8  1  0.999779  0.000015  0.333407  1
  In  In9  1  0.500000  0.500001  0.500000  1
  In  In10  1  0.000223  0.999985  0.666592  1
  In  In11  1  0.500201  0.499998  0.830242  1
  Rh  Rh12  1  0.499999  0.254076  0.999999  1
  Rh  Rh13  1  0.500001  0.745923  0.000001  1
  Rh  Rh14  1  0.999854  0.252264  0.164232  1
  Rh  Rh15  1  0.999854  0.747733  0.164231  1
  Rh  Rh16  1  0.499835  0.248050  0.333498  1
  Rh  Rh17  1  0.499836  0.751947  0.333497  1
  Rh  Rh18  1  0.000000  0.250409  0.499999  1
  Rh  Rh19  1  0.000000  0.749591  0.500001  1
  Rh  Rh20  1  0.500166  0.248053  0.666503  1
  Rh  Rh21  1  0.500167  0.751950  0.666502  1
  Rh  Rh22  1  0.000146  0.252267  0.835768  1
  Rh  Rh23  1  0.000146  0.747736  0.835767  1
