# generated using pymatgen
data_Ho20Si12N
_symmetry_space_group_name_H-M   'P 1'
_cell_length_a   6.34097040
_cell_length_b   8.34170681
_cell_length_c   14.57266100
_cell_angle_alpha   90.00000687
_cell_angle_beta   90.00000000
_cell_angle_gamma   89.89632231
_symmetry_Int_Tables_number   1
_chemical_formula_structural   Ho20Si12N
_chemical_formula_sum   'Ho20 Si12 N1'
_cell_volume   770.81258830
_cell_formula_units_Z   1
loop_
 _symmetry_equiv_pos_site_id
 _symmetry_equiv_pos_as_xyz
  1  'x, y, z'
loop_
 _atom_site_type_symbol
 _atom_site_label
 _atom_site_symmetry_multiplicity
 _atom_site_fract_x
 _atom_site_fract_y
 _atom_site_fract_z
 _atom_site_occupancy
  Ho  Ho0  1  0.500000  0.000004  0.334828  1
  Ho  Ho1  1  0.500002  0.499999  0.830687  1
  Ho  Ho2  1  0.500002  0.499999  0.169313  1
  Ho  Ho3  1  0.500000  0.000004  0.665172  1
  Ho  Ho4  1  0.999998  0.500001  0.161942  1
  Ho  Ho5  1  0.000002  0.999997  0.669726  1
  Ho  Ho6  1  0.000002  0.999997  0.330274  1
  Ho  Ho7  1  0.999998  0.500001  0.838058  1
  Ho  Ho8  1  0.726215  0.232526  0.000000  1
  Ho  Ho9  1  0.751049  0.745077  0.500000  1
  Ho  Ho10  1  0.751478  0.377708  0.379168  1
  Ho  Ho11  1  0.731641  0.880851  0.883429  1
  Ho  Ho12  1  0.731641  0.880851  0.116571  1
  Ho  Ho13  1  0.751478  0.377708  0.620832  1
  Ho  Ho14  1  0.273790  0.767473  0.000000  1
  Ho  Ho15  1  0.248936  0.254924  0.500000  1
  Ho  Ho16  1  0.268357  0.119150  0.116571  1
  Ho  Ho17  1  0.248527  0.622293  0.620833  1
  Ho  Ho18  1  0.248527  0.622293  0.379167  1
  Ho  Ho19  1  0.268357  0.119150  0.883429  1
  Si  Si20  1  0.740188  0.599012  0.000000  1
  Si  Si21  1  0.753184  0.104046  0.500000  1
  Si  Si22  1  0.746607  0.199182  0.199252  1
  Si  Si23  1  0.752552  0.698393  0.698376  1
  Si  Si24  1  0.752552  0.698393  0.301624  1
  Si  Si25  1  0.746607  0.199182  0.800748  1
  Si  Si26  1  0.259809  0.400989  0.000000  1
  Si  Si27  1  0.246819  0.895944  0.500000  1
  Si  Si28  1  0.247444  0.301608  0.301624  1
  Si  Si29  1  0.253400  0.800820  0.800748  1
  Si  Si30  1  0.253400  0.800820  0.199252  1
  Si  Si31  1  0.247444  0.301608  0.698376  1
  N  N32  1  0.500000  0.000001  0.000000  1
