# generated using pymatgen
data_ZnIrRhO6
_symmetry_space_group_name_H-M   'P 1'
_cell_length_a   4.57610700
_cell_length_b   4.57610700
_cell_length_c   9.42889900
_cell_angle_alpha   90.00000000
_cell_angle_beta   90.00000000
_cell_angle_gamma   90.00000000
_symmetry_Int_Tables_number   1
_chemical_formula_structural   ZnIrRhO6
_chemical_formula_sum   'Zn2 Ir2 Rh2 O12'
_cell_volume   197.44826648
_cell_formula_units_Z   2
loop_
 _symmetry_equiv_pos_site_id
 _symmetry_equiv_pos_as_xyz
  1  'x, y, z'
loop_
 _atom_site_type_symbol
 _atom_site_label
 _atom_site_symmetry_multiplicity
 _atom_site_fract_x
 _atom_site_fract_y
 _atom_site_fract_z
 _atom_site_occupancy
  Zn  Zn0  1  0.500000  0.500000  0.166100  1
  Zn  Zn1  1  0.000000  0.000000  0.666100  1
  Ir  Ir2  1  0.500000  0.500000  0.498762  1
  Ir  Ir3  1  0.000000  0.000000  0.998762  1
  Rh  Rh4  1  0.500000  0.500000  0.834986  1
  Rh  Rh5  1  0.000000  0.000000  0.334986  1
  O  O6  1  0.203310  0.796690  0.497144  1
  O  O7  1  0.796690  0.203310  0.497144  1
  O  O8  1  0.296690  0.296690  0.997144  1
  O  O9  1  0.703310  0.703310  0.997144  1
  O  O10  1  0.186499  0.813501  0.164324  1
  O  O11  1  0.813501  0.186499  0.164324  1
  O  O12  1  0.313501  0.313501  0.664324  1
  O  O13  1  0.686499  0.686499  0.664324  1
  O  O14  1  0.805671  0.194329  0.838608  1
  O  O15  1  0.194329  0.805671  0.838608  1
  O  O16  1  0.694329  0.694329  0.338608  1
  O  O17  1  0.305671  0.305671  0.338608  1
