# generated using pymatgen
data_Er12Th4MgCo4Hg3
_symmetry_space_group_name_H-M   'P 1'
_cell_length_a   9.52002427
_cell_length_b   9.50528355
_cell_length_c   9.50528400
_cell_angle_alpha   60.00000540
_cell_angle_beta   60.05121253
_cell_angle_gamma   60.05121428
_symmetry_Int_Tables_number   1
_chemical_formula_structural   Er12Th4MgCo4Hg3
_chemical_formula_sum   'Er12 Th4 Mg1 Co4 Hg3'
_cell_volume   608.67995419
_cell_formula_units_Z   1
loop_
 _symmetry_equiv_pos_site_id
 _symmetry_equiv_pos_as_xyz
  1  'x, y, z'
loop_
 _atom_site_type_symbol
 _atom_site_label
 _atom_site_symmetry_multiplicity
 _atom_site_fract_x
 _atom_site_fract_y
 _atom_site_fract_z
 _atom_site_occupancy
  Er  Er0  1  0.060510  0.438480  0.438480  1
  Er  Er1  1  0.434020  0.064242  0.064242  1
  Er  Er2  1  0.434020  0.064242  0.437495  1
  Er  Er3  1  0.060510  0.438480  0.062530  1
  Er  Er4  1  0.434020  0.437495  0.064242  1
  Er  Er5  1  0.060510  0.062530  0.438480  1
  Er  Er6  1  0.183127  0.816109  0.816109  1
  Er  Er7  1  0.812599  0.186105  0.186105  1
  Er  Er8  1  0.812599  0.186105  0.815190  1
  Er  Er9  1  0.183127  0.816109  0.184655  1
  Er  Er10  1  0.812599  0.815190  0.186105  1
  Er  Er11  1  0.183127  0.184655  0.816109  1
  Th  Th12  1  0.595873  0.596136  0.596136  1
  Th  Th13  1  0.595873  0.596136  0.211857  1
  Th  Th14  1  0.595873  0.211857  0.596136  1
  Th  Th15  1  0.208039  0.597321  0.597321  1
  Mg  Mg16  1  0.525900  0.824700  0.824700  1
  Co  Co17  1  0.394065  0.393278  0.393278  1
  Co  Co18  1  0.394065  0.393278  0.819380  1
  Co  Co19  1  0.394065  0.819380  0.393278  1
  Co  Co20  1  0.817310  0.394230  0.394230  1
  Hg  Hg21  1  0.836057  0.837505  0.837505  1
  Hg  Hg22  1  0.836057  0.837505  0.488934  1
  Hg  Hg23  1  0.836057  0.488934  0.837505  1
