# generated using pymatgen
data_Zr2Co9ReB6
_symmetry_space_group_name_H-M   'P 1'
_cell_length_a   5.67070642
_cell_length_b   5.67070803
_cell_length_c   5.67070718
_cell_angle_alpha   95.60354697
_cell_angle_beta   95.60355620
_cell_angle_gamma   95.60356964
_symmetry_Int_Tables_number   1
_chemical_formula_structural   Zr2Co9ReB6
_chemical_formula_sum   'Zr2 Co9 Re1 B6'
_cell_volume   179.55327020
_cell_formula_units_Z   1
loop_
 _symmetry_equiv_pos_site_id
 _symmetry_equiv_pos_as_xyz
  1  'x, y, z'
loop_
 _atom_site_type_symbol
 _atom_site_label
 _atom_site_symmetry_multiplicity
 _atom_site_fract_x
 _atom_site_fract_y
 _atom_site_fract_z
 _atom_site_occupancy
  Zr  Zr0  1  0.684108  0.684108  0.684108  1
  Zr  Zr1  1  0.315892  0.315892  0.315892  1
  Co  Co2  1  0.000000  0.000000  0.500000  1
  Co  Co3  1  0.500000  0.000000  0.000000  1
  Co  Co4  1  0.000000  0.500000  0.000000  1
  Co  Co5  1  0.703892  0.199143  0.703892  1
  Co  Co6  1  0.703892  0.703892  0.199143  1
  Co  Co7  1  0.199143  0.703892  0.703892  1
  Co  Co8  1  0.296108  0.800857  0.296108  1
  Co  Co9  1  0.296108  0.296108  0.800857  1
  Co  Co10  1  0.800857  0.296108  0.296108  1
  Re  Re11  1  0.000000  0.000000  0.000000  1
  B  B12  1  0.615589  0.384411  0.000000  1
  B  B13  1  0.000000  0.615589  0.384411  1
  B  B14  1  0.384411  0.000000  0.615589  1
  B  B15  1  0.000000  0.384411  0.615589  1
  B  B16  1  0.615589  0.000000  0.384411  1
  B  B17  1  0.384411  0.615589  0.000000  1
