# generated using pymatgen
data_Y4Os7W
_symmetry_space_group_name_H-M   'P 1'
_cell_length_a   5.31501793
_cell_length_b   5.31501774
_cell_length_c   8.90677600
_cell_angle_alpha   90.00000000
_cell_angle_beta   90.00000000
_cell_angle_gamma   118.26539290
_symmetry_Int_Tables_number   1
_chemical_formula_structural   Y4Os7W
_chemical_formula_sum   'Y4 Os7 W1'
_cell_volume   221.60997934
_cell_formula_units_Z   1
loop_
 _symmetry_equiv_pos_site_id
 _symmetry_equiv_pos_as_xyz
  1  'x, y, z'
loop_
 _atom_site_type_symbol
 _atom_site_label
 _atom_site_symmetry_multiplicity
 _atom_site_fract_x
 _atom_site_fract_y
 _atom_site_fract_z
 _atom_site_occupancy
  Y  Y0  1  0.328716  0.671284  0.437437  1
  Y  Y1  1  0.666479  0.333521  0.566371  1
  Y  Y2  1  0.666479  0.333521  0.933629  1
  Y  Y3  1  0.328716  0.671284  0.062563  1
  Os  Os4  1  0.992036  0.007964  0.502495  1
  Os  Os5  1  0.992036  0.007964  0.997505  1
  Os  Os6  1  0.824318  0.648673  0.250000  1
  Os  Os7  1  0.351327  0.175682  0.250000  1
  Os  Os8  1  0.177443  0.822557  0.750000  1
  Os  Os9  1  0.173300  0.338519  0.750000  1
  Os  Os10  1  0.661481  0.826700  0.750000  1
  W  W11  1  0.837669  0.162331  0.250000  1
