# generated using pymatgen
data_Dy3Y(ErAl)4
_symmetry_space_group_name_H-M   'P 1'
_cell_length_a   5.08430700
_cell_length_b   6.55670523
_cell_length_c   9.40285400
_cell_angle_alpha   90.03861260
_cell_angle_beta   90.00000000
_cell_angle_gamma   90.00000000
_symmetry_Int_Tables_number   1
_chemical_formula_structural   Dy3Y(ErAl)4
_chemical_formula_sum   'Dy3 Y1 Er4 Al4'
_cell_volume   313.45631213
_cell_formula_units_Z   1
loop_
 _symmetry_equiv_pos_site_id
 _symmetry_equiv_pos_as_xyz
  1  'x, y, z'
loop_
 _atom_site_type_symbol
 _atom_site_label
 _atom_site_symmetry_multiplicity
 _atom_site_fract_x
 _atom_site_fract_y
 _atom_site_fract_z
 _atom_site_occupancy
  Dy  Dy0  1  0.250000  0.811244  0.928554  1
  Dy  Dy1  1  0.250000  0.312238  0.571899  1
  Dy  Dy2  1  0.750000  0.188285  0.071486  1
  Y  Y3  1  0.750000  0.687974  0.428397  1
  Er  Er4  1  0.250000  0.970382  0.288651  1
  Er  Er5  1  0.250000  0.469454  0.210654  1
  Er  Er6  1  0.750000  0.029855  0.711192  1
  Er  Er7  1  0.750000  0.530007  0.789387  1
  Al  Al8  1  0.250000  0.291362  0.895942  1
  Al  Al9  1  0.250000  0.791422  0.603352  1
  Al  Al10  1  0.750000  0.708692  0.104308  1
  Al  Al11  1  0.750000  0.209084  0.396178  1
