# generated using pymatgen
data_Cs11Rb5(TiBi4)2
_symmetry_space_group_name_H-M   'P 1'
_cell_length_a   12.37320652
_cell_length_b   12.37320640
_cell_length_c   12.28306400
_cell_angle_alpha   60.24070425
_cell_angle_beta   60.24070458
_cell_angle_gamma   60.32830909
_symmetry_Int_Tables_number   1
_chemical_formula_structural   Cs11Rb5(TiBi4)2
_chemical_formula_sum   'Cs11 Rb5 Ti2 Bi8'
_cell_volume   1337.82890256
_cell_formula_units_Z   1
loop_
 _symmetry_equiv_pos_site_id
 _symmetry_equiv_pos_as_xyz
  1  'x, y, z'
loop_
 _atom_site_type_symbol
 _atom_site_label
 _atom_site_symmetry_multiplicity
 _atom_site_fract_x
 _atom_site_fract_y
 _atom_site_fract_z
 _atom_site_occupancy
  Cs  Cs0  1  0.028122  0.028122  0.471878  1
  Cs  Cs1  1  0.777535  0.220882  0.220612  1
  Cs  Cs2  1  0.220882  0.777535  0.780970  1
  Cs  Cs3  1  0.778100  0.778100  0.221900  1
  Cs  Cs4  1  0.777535  0.220882  0.780970  1
  Cs  Cs5  1  0.220882  0.777535  0.220612  1
  Cs  Cs6  1  0.471807  0.028338  0.469280  1
  Cs  Cs7  1  0.471807  0.028338  0.030576  1
  Cs  Cs8  1  0.028338  0.471807  0.469280  1
  Cs  Cs9  1  0.028338  0.471807  0.030576  1
  Cs  Cs10  1  0.221721  0.221721  0.778279  1
  Rb  Rb11  1  0.624539  0.124496  0.625483  1
  Rb  Rb12  1  0.624883  0.624883  0.125660  1
  Rb  Rb13  1  0.124496  0.624539  0.625483  1
  Rb  Rb14  1  0.624883  0.624883  0.624572  1
  Rb  Rb15  1  0.479270  0.479270  0.020730  1
  Ti  Ti16  1  0.749269  0.749269  0.750731  1
  Ti  Ti17  1  0.500081  0.500081  0.499919  1
  Bi  Bi18  1  0.405294  0.780486  0.407110  1
  Bi  Bi19  1  0.843999  0.843999  0.467338  1
  Bi  Bi20  1  0.467536  0.845315  0.843574  1
  Bi  Bi21  1  0.843999  0.843999  0.844662  1
  Bi  Bi22  1  0.780486  0.405294  0.407110  1
  Bi  Bi23  1  0.405440  0.405440  0.403245  1
  Bi  Bi24  1  0.405440  0.405440  0.785875  1
  Bi  Bi25  1  0.845315  0.467536  0.843574  1
