# generated using pymatgen
data_Nb6AlGa5Fe12
_symmetry_space_group_name_H-M   'P 1'
_cell_length_a   4.19534300
_cell_length_b   5.93085000
_cell_length_c   12.57211100
_cell_angle_alpha   90.00000000
_cell_angle_beta   90.00056935
_cell_angle_gamma   90.00000000
_symmetry_Int_Tables_number   1
_chemical_formula_structural   Nb6AlGa5Fe12
_chemical_formula_sum   'Nb6 Al1 Ga5 Fe12'
_cell_volume   312.81863769
_cell_formula_units_Z   1
loop_
 _symmetry_equiv_pos_site_id
 _symmetry_equiv_pos_as_xyz
  1  'x, y, z'
loop_
 _atom_site_type_symbol
 _atom_site_label
 _atom_site_symmetry_multiplicity
 _atom_site_fract_x
 _atom_site_fract_y
 _atom_site_fract_z
 _atom_site_occupancy
  Nb  Nb0  1  0.999994  0.000000  0.000395  1
  Nb  Nb1  1  0.500132  0.500001  0.166787  1
  Nb  Nb2  1  0.000120  0.000000  0.333338  1
  Nb  Nb3  1  0.500000  0.500001  0.499868  1
  Nb  Nb4  1  0.999877  0.000000  0.666265  1
  Nb  Nb5  1  0.499865  0.500001  0.833343  1
  Al  Al6  1  0.499822  0.000000  0.833339  1
  Ga  Ga7  1  0.000000  0.500001  0.000034  1
  Ga  Ga8  1  0.500202  0.000000  0.166697  1
  Ga  Ga9  1  0.000205  0.500001  0.333330  1
  Ga  Ga10  1  0.499999  0.000000  0.499961  1
  Ga  Ga11  1  0.999794  0.500001  0.666635  1
  Fe  Fe12  1  0.499997  0.249021  0.999419  1
  Fe  Fe13  1  0.499997  0.750979  0.999419  1
  Fe  Fe14  1  0.000202  0.250420  0.166752  1
  Fe  Fe15  1  0.000202  0.749579  0.166752  1
  Fe  Fe16  1  0.500196  0.249820  0.333325  1
  Fe  Fe17  1  0.500196  0.750179  0.333325  1
  Fe  Fe18  1  0.999999  0.250456  0.499916  1
  Fe  Fe19  1  0.999999  0.749545  0.499916  1
  Fe  Fe20  1  0.499804  0.249065  0.667259  1
  Fe  Fe21  1  0.499804  0.750934  0.667259  1
  Fe  Fe22  1  0.999797  0.248634  0.833333  1
  Fe  Fe23  1  0.999797  0.751365  0.833333  1
