# generated using pymatgen
data_Tb5Ho3(PBr6)2
_symmetry_space_group_name_H-M   'P 1'
_cell_length_a   4.00836000
_cell_length_b   13.16474609
_cell_length_c   13.87203732
_cell_angle_alpha   89.90959280
_cell_angle_beta   90.00000000
_cell_angle_gamma   90.00000000
_symmetry_Int_Tables_number   1
_chemical_formula_structural   Tb5Ho3(PBr6)2
_chemical_formula_sum   'Tb5 Ho3 P2 Br12'
_cell_volume   732.01320391
_cell_formula_units_Z   1
loop_
 _symmetry_equiv_pos_site_id
 _symmetry_equiv_pos_as_xyz
  1  'x, y, z'
loop_
 _atom_site_type_symbol
 _atom_site_label
 _atom_site_symmetry_multiplicity
 _atom_site_fract_x
 _atom_site_fract_y
 _atom_site_fract_z
 _atom_site_occupancy
  Tb  Tb0  1  0.500000  0.382882  0.843175  1
  Tb  Tb1  1  0.000000  0.115039  0.576483  1
  Tb  Tb2  1  0.000000  0.884888  0.423471  1
  Tb  Tb3  1  0.000000  0.615331  0.922955  1
  Tb  Tb4  1  0.000000  0.384358  0.076610  1
  Ho  Ho5  1  0.500000  0.116699  0.343668  1
  Ho  Ho6  1  0.500000  0.883303  0.656292  1
  Ho  Ho7  1  0.500000  0.617289  0.157102  1
  P  P8  1  0.500000  0.999962  0.499958  1
  P  P9  1  0.500000  0.500814  0.001076  1
  Br  Br10  1  0.500000  0.242318  0.163967  1
  Br  Br11  1  0.500000  0.757785  0.836235  1
  Br  Br12  1  0.500000  0.742327  0.336197  1
  Br  Br13  1  0.500000  0.257001  0.662795  1
  Br  Br14  1  0.000000  0.255551  0.411291  1
  Br  Br15  1  0.000000  0.744467  0.588659  1
  Br  Br16  1  0.000000  0.755501  0.088544  1
  Br  Br17  1  0.000000  0.242617  0.912756  1
  Br  Br18  1  0.000000  0.001967  0.242835  1
  Br  Br19  1  0.000000  0.998001  0.757119  1
  Br  Br20  1  0.000000  0.501903  0.257072  1
  Br  Br21  1  0.000000  0.499996  0.741740  1
