# generated using pymatgen
data_Zr10InCu2Bi5
_symmetry_space_group_name_H-M   'P 1'
_cell_length_a   8.77886900
_cell_length_b   8.80943719
_cell_length_c   5.93135200
_cell_angle_alpha   90.00000000
_cell_angle_beta   90.00000000
_cell_angle_gamma   119.88528539
_symmetry_Int_Tables_number   1
_chemical_formula_structural   Zr10InCu2Bi5
_chemical_formula_sum   'Zr10 In1 Cu2 Bi5'
_cell_volume   397.71495409
_cell_formula_units_Z   1
loop_
 _symmetry_equiv_pos_site_id
 _symmetry_equiv_pos_as_xyz
  1  'x, y, z'
loop_
 _atom_site_type_symbol
 _atom_site_label
 _atom_site_symmetry_multiplicity
 _atom_site_fract_x
 _atom_site_fract_y
 _atom_site_fract_z
 _atom_site_occupancy
  Zr  Zr0  1  0.736935  0.000000  0.250000  1
  Zr  Zr1  1  0.004906  0.741174  0.250000  1
  Zr  Zr2  1  0.263732  0.258826  0.250000  1
  Zr  Zr3  1  0.258855  0.000000  0.750000  1
  Zr  Zr4  1  0.999230  0.260245  0.750000  1
  Zr  Zr5  1  0.738985  0.739755  0.750000  1
  Zr  Zr6  1  0.333198  0.667879  0.498147  1
  Zr  Zr7  1  0.665320  0.332121  0.498147  1
  Zr  Zr8  1  0.665320  0.332121  0.001853  1
  Zr  Zr9  1  0.333198  0.667879  0.001853  1
  In  In10  1  0.386726  0.000000  0.250000  1
  Cu  Cu11  1  0.000930  0.000000  0.497118  1
  Cu  Cu12  1  0.000930  0.000000  0.002882  1
  Bi  Bi13  1  0.000395  0.384696  0.250000  1
  Bi  Bi14  1  0.615699  0.615304  0.250000  1
  Bi  Bi15  1  0.610047  0.000000  0.750000  1
  Bi  Bi16  1  0.000018  0.614443  0.750000  1
  Bi  Bi17  1  0.385575  0.385557  0.750000  1
