# generated using pymatgen
data_Tb12Tc2OsPd
_symmetry_space_group_name_H-M   'P 1'
_cell_length_a   6.36222240
_cell_length_b   7.39221798
_cell_length_c   9.28078600
_cell_angle_alpha   90.00000000
_cell_angle_beta   90.00000000
_cell_angle_gamma   90.16004219
_symmetry_Int_Tables_number   1
_chemical_formula_structural   Tb12Tc2OsPd
_chemical_formula_sum   'Tb12 Tc2 Os1 Pd1'
_cell_volume   436.48233903
_cell_formula_units_Z   1
loop_
 _symmetry_equiv_pos_site_id
 _symmetry_equiv_pos_as_xyz
  1  'x, y, z'
loop_
 _atom_site_type_symbol
 _atom_site_label
 _atom_site_symmetry_multiplicity
 _atom_site_fract_x
 _atom_site_fract_y
 _atom_site_fract_z
 _atom_site_occupancy
  Tb  Tb0  1  0.330433  0.679161  0.065314  1
  Tb  Tb1  1  0.171764  0.176877  0.431075  1
  Tb  Tb2  1  0.660876  0.328635  0.559239  1
  Tb  Tb3  1  0.831978  0.815051  0.941069  1
  Tb  Tb4  1  0.660876  0.328635  0.940761  1
  Tb  Tb5  1  0.831978  0.815051  0.558931  1
  Tb  Tb6  1  0.330433  0.679161  0.434686  1
  Tb  Tb7  1  0.171764  0.176877  0.068925  1
  Tb  Tb8  1  0.873008  0.537348  0.250000  1
  Tb  Tb9  1  0.631174  0.039498  0.250000  1
  Tb  Tb10  1  0.135958  0.467478  0.750000  1
  Tb  Tb11  1  0.372686  0.954384  0.750000  1
  Tc  Tc12  1  0.035759  0.887472  0.250000  1
  Tc  Tc13  1  0.462257  0.387321  0.250000  1
  Os  Os14  1  0.548330  0.614535  0.750000  1
  Pd  Pd15  1  0.950724  0.112518  0.750000  1
