# generated using pymatgen
data_Tb2Al9ReNiPd
_symmetry_space_group_name_H-M   'P 1'
_cell_length_a   7.53614412
_cell_length_b   7.53614448
_cell_length_c   9.46390501
_cell_angle_alpha   89.91921243
_cell_angle_beta   89.91920951
_cell_angle_gamma   118.25948718
_symmetry_Int_Tables_number   1
_chemical_formula_structural   Tb2Al9ReNiPd
_chemical_formula_sum   'Tb4 Al18 Re2 Ni2 Pd2'
_cell_volume   473.42429455
_cell_formula_units_Z   2
loop_
 _symmetry_equiv_pos_site_id
 _symmetry_equiv_pos_as_xyz
  1  'x, y, z'
loop_
 _atom_site_type_symbol
 _atom_site_label
 _atom_site_symmetry_multiplicity
 _atom_site_fract_x
 _atom_site_fract_y
 _atom_site_fract_z
 _atom_site_occupancy
  Tb  Tb0  1  0.993963  0.683999  0.248490  1
  Tb  Tb1  1  0.006037  0.316001  0.751510  1
  Tb  Tb2  1  0.683999  0.993963  0.248490  1
  Tb  Tb3  1  0.316001  0.006037  0.751510  1
  Al  Al4  1  0.137147  0.137147  0.248518  1
  Al  Al5  1  0.862853  0.862853  0.751482  1
  Al  Al6  1  0.998798  0.340284  0.073773  1
  Al  Al7  1  0.001202  0.659716  0.926227  1
  Al  Al8  1  0.996618  0.662876  0.577442  1
  Al  Al9  1  0.337124  0.003382  0.422558  1
  Al  Al10  1  0.003382  0.337124  0.422558  1
  Al  Al11  1  0.662876  0.996618  0.577442  1
  Al  Al12  1  0.659716  0.001202  0.926227  1
  Al  Al13  1  0.340284  0.998798  0.073773  1
  Al  Al14  1  0.331484  0.331484  0.548841  1
  Al  Al15  1  0.668516  0.668516  0.451159  1
  Al  Al16  1  0.666067  0.666067  0.042146  1
  Al  Al17  1  0.333933  0.333933  0.957854  1
  Al  Al18  1  0.344492  0.557667  0.242094  1
  Al  Al19  1  0.655508  0.442333  0.757906  1
  Al  Al20  1  0.557667  0.344492  0.242094  1
  Al  Al21  1  0.442333  0.655508  0.757906  1
  Re  Re22  1  0.000000  0.000000  0.000000  1
  Re  Re23  1  0.000000  0.000000  0.500000  1
  Ni  Ni24  1  0.670683  0.329317  0.000000  1
  Ni  Ni25  1  0.329317  0.670683  0.000000  1
  Pd  Pd26  1  0.328650  0.671350  0.500000  1
  Pd  Pd27  1  0.671350  0.328650  0.500000  1
