# generated using pymatgen
data_BPd3Pt2
_symmetry_space_group_name_H-M   'P 1'
_cell_length_a   6.50049150
_cell_length_b   6.48783572
_cell_length_c   8.20158400
_cell_angle_alpha   90.00000000
_cell_angle_beta   90.00000000
_cell_angle_gamma   90.36972230
_symmetry_Int_Tables_number   1
_chemical_formula_structural   BPd3Pt2
_chemical_formula_sum   'B4 Pd12 Pt8'
_cell_volume   345.88739461
_cell_formula_units_Z   4
loop_
 _symmetry_equiv_pos_site_id
 _symmetry_equiv_pos_as_xyz
  1  'x, y, z'
loop_
 _atom_site_type_symbol
 _atom_site_label
 _atom_site_symmetry_multiplicity
 _atom_site_fract_x
 _atom_site_fract_y
 _atom_site_fract_z
 _atom_site_occupancy
  B  B0  1  0.549499  0.652015  0.367201  1
  B  B1  1  0.049499  0.152015  0.132799  1
  B  B2  1  0.450501  0.347985  0.632799  1
  B  B3  1  0.950501  0.847985  0.867201  1
  Pd  Pd4  1  0.654229  0.958381  0.374000  1
  Pd  Pd5  1  0.154229  0.458381  0.126000  1
  Pd  Pd6  1  0.345771  0.041619  0.626000  1
  Pd  Pd7  1  0.845771  0.541619  0.874000  1
  Pd  Pd8  1  0.642011  0.951767  0.874721  1
  Pd  Pd9  1  0.142011  0.451767  0.625279  1
  Pd  Pd10  1  0.357989  0.048233  0.125279  1
  Pd  Pd11  1  0.857989  0.548233  0.374721  1
  Pd  Pd12  1  0.742001  0.255330  0.125668  1
  Pd  Pd13  1  0.242001  0.755330  0.374332  1
  Pd  Pd14  1  0.257999  0.744670  0.874332  1
  Pd  Pd15  1  0.757999  0.244670  0.625668  1
  Pt  Pt16  1  0.549670  0.650116  0.116075  1
  Pt  Pt17  1  0.049670  0.150116  0.383925  1
  Pt  Pt18  1  0.450330  0.349884  0.883925  1
  Pt  Pt19  1  0.950330  0.849884  0.616075  1
  Pt  Pt20  1  0.554154  0.658383  0.626760  1
  Pt  Pt21  1  0.054154  0.158383  0.873240  1
  Pt  Pt22  1  0.445846  0.341617  0.373240  1
  Pt  Pt23  1  0.945846  0.841617  0.126760  1
