# generated using pymatgen
data_La3BePd5
_symmetry_space_group_name_H-M   'P 1'
_cell_length_a   8.41554090
_cell_length_b   8.41554187
_cell_length_c   8.41554176
_cell_angle_alpha   126.70503347
_cell_angle_beta   125.97331261
_cell_angle_gamma   79.33281338
_symmetry_Int_Tables_number   1
_chemical_formula_structural   La3BePd5
_chemical_formula_sum   'La6 Be2 Pd10'
_cell_volume   373.83246316
_cell_formula_units_Z   2
loop_
 _symmetry_equiv_pos_site_id
 _symmetry_equiv_pos_as_xyz
  1  'x, y, z'
loop_
 _atom_site_type_symbol
 _atom_site_label
 _atom_site_symmetry_multiplicity
 _atom_site_fract_x
 _atom_site_fract_y
 _atom_site_fract_z
 _atom_site_occupancy
  La  La0  1  0.821410  0.051797  0.769612  1
  La  La1  1  0.217814  0.448203  0.769612  1
  La  La2  1  0.178590  0.948203  0.230388  1
  La  La3  1  0.394960  0.250000  0.144960  1
  La  La4  1  0.782186  0.551797  0.230388  1
  La  La5  1  0.605040  0.750000  0.855040  1
  Be  Be6  1  0.208801  0.750000  0.458801  1
  Be  Be7  1  0.791199  0.250000  0.541199  1
  Pd  Pd8  1  0.826362  0.584482  0.638871  1
  Pd  Pd9  1  0.554389  0.312509  0.638871  1
  Pd  Pd10  1  0.445611  0.084482  0.758121  1
  Pd  Pd11  1  0.826362  0.187491  0.241879  1
  Pd  Pd12  1  0.173638  0.415518  0.361129  1
  Pd  Pd13  1  0.445611  0.687491  0.361129  1
  Pd  Pd14  1  0.554389  0.915518  0.241879  1
  Pd  Pd15  1  0.173638  0.812509  0.758121  1
  Pd  Pd16  1  0.000000  0.000000  0.500000  1
  Pd  Pd17  1  0.000000  0.500000  0.000000  1
