# generated using pymatgen
data_EuNbCo4P3
_symmetry_space_group_name_H-M   'P 1'
_cell_length_a   3.71028300
_cell_length_b   10.71926700
_cell_length_c   12.19084000
_cell_angle_alpha   90.00000000
_cell_angle_beta   90.00000000
_cell_angle_gamma   90.00000000
_symmetry_Int_Tables_number   1
_chemical_formula_structural   EuNbCo4P3
_chemical_formula_sum   'Eu4 Nb4 Co16 P12'
_cell_volume   484.84816523
_cell_formula_units_Z   4
loop_
 _symmetry_equiv_pos_site_id
 _symmetry_equiv_pos_as_xyz
  1  'x, y, z'
loop_
 _atom_site_type_symbol
 _atom_site_label
 _atom_site_symmetry_multiplicity
 _atom_site_fract_x
 _atom_site_fract_y
 _atom_site_fract_z
 _atom_site_occupancy
  Eu  Eu0  1  0.250000  0.584529  0.705579  1
  Eu  Eu1  1  0.250000  0.915471  0.205579  1
  Eu  Eu2  1  0.750000  0.415471  0.294421  1
  Eu  Eu3  1  0.750000  0.084529  0.794421  1
  Nb  Nb4  1  0.250000  0.705415  0.990521  1
  Nb  Nb5  1  0.250000  0.794585  0.490521  1
  Nb  Nb6  1  0.750000  0.294585  0.009479  1
  Nb  Nb7  1  0.750000  0.205415  0.509479  1
  Co  Co8  1  0.250000  0.407711  0.492680  1
  Co  Co9  1  0.250000  0.092289  0.992680  1
  Co  Co10  1  0.750000  0.592289  0.507320  1
  Co  Co11  1  0.750000  0.907711  0.007320  1
  Co  Co12  1  0.250000  0.219463  0.173589  1
  Co  Co13  1  0.250000  0.280537  0.673589  1
  Co  Co14  1  0.750000  0.780537  0.826411  1
  Co  Co15  1  0.750000  0.719463  0.326411  1
  Co  Co16  1  0.250000  0.886668  0.700295  1
  Co  Co17  1  0.250000  0.613332  0.200295  1
  Co  Co18  1  0.750000  0.113332  0.299705  1
  Co  Co19  1  0.750000  0.386668  0.799705  1
  Co  Co20  1  0.250000  0.465288  0.934596  1
  Co  Co21  1  0.250000  0.034712  0.434596  1
  Co  Co22  1  0.750000  0.534712  0.065404  1
  Co  Co23  1  0.750000  0.965288  0.565404  1
  P  P24  1  0.250000  0.422072  0.115012  1
  P  P25  1  0.250000  0.077928  0.615012  1
  P  P26  1  0.750000  0.577928  0.884988  1
  P  P27  1  0.750000  0.922072  0.384988  1
  P  P28  1  0.250000  0.275518  0.857553  1
  P  P29  1  0.250000  0.224482  0.357553  1
  P  P30  1  0.750000  0.724482  0.142447  1
  P  P31  1  0.750000  0.775518  0.642447  1
  P  P32  1  0.250000  0.591235  0.391290  1
  P  P33  1  0.250000  0.908765  0.891290  1
  P  P34  1  0.750000  0.408765  0.608710  1
  P  P35  1  0.750000  0.091235  0.108710  1
