# generated using pymatgen
data_La2NiPSe
_symmetry_space_group_name_H-M   'P 1'
_cell_length_a   4.08802100
_cell_length_b   4.08801812
_cell_length_c   15.51203600
_cell_angle_alpha   90.00000000
_cell_angle_beta   90.00000000
_cell_angle_gamma   120.00001522
_symmetry_Int_Tables_number   1
_chemical_formula_structural   La2NiPSe
_chemical_formula_sum   'La4 Ni2 P2 Se2'
_cell_volume   224.50462860
_cell_formula_units_Z   2
loop_
 _symmetry_equiv_pos_site_id
 _symmetry_equiv_pos_as_xyz
  1  'x, y, z'
loop_
 _atom_site_type_symbol
 _atom_site_label
 _atom_site_symmetry_multiplicity
 _atom_site_fract_x
 _atom_site_fract_y
 _atom_site_fract_z
 _atom_site_occupancy
  La  La0  1  0.333333  0.666667  0.376278  1
  La  La1  1  0.666667  0.333333  0.623722  1
  La  La2  1  0.666667  0.333333  0.876278  1
  La  La3  1  0.333333  0.666667  0.123722  1
  Ni  Ni4  1  0.000000  0.000000  0.250000  1
  Ni  Ni5  1  0.000000  0.000000  0.750000  1
  P  P6  1  0.333333  0.666667  0.750000  1
  P  P7  1  0.666667  0.333333  0.250000  1
  Se  Se8  1  0.000000  0.000000  0.500000  1
  Se  Se9  1  0.000000  0.000000  0.000000  1
