# generated using pymatgen
data_Rb6YLuF12
_symmetry_space_group_name_H-M   'P 1'
_cell_length_a   6.88971125
_cell_length_b   6.61035674
_cell_length_c   11.44327062
_cell_angle_alpha   55.45296079
_cell_angle_beta   90.07110368
_cell_angle_gamma   89.92695155
_symmetry_Int_Tables_number   1
_chemical_formula_structural   Rb6YLuF12
_chemical_formula_sum   'Rb6 Y1 Lu1 F12'
_cell_volume   429.26249774
_cell_formula_units_Z   1
loop_
 _symmetry_equiv_pos_site_id
 _symmetry_equiv_pos_as_xyz
  1  'x, y, z'
loop_
 _atom_site_type_symbol
 _atom_site_label
 _atom_site_symmetry_multiplicity
 _atom_site_fract_x
 _atom_site_fract_y
 _atom_site_fract_z
 _atom_site_occupancy
  Rb  Rb0  1  0.947565  0.732756  0.750487  1
  Rb  Rb1  1  0.449604  0.276596  0.739435  1
  Rb  Rb2  1  0.052435  0.267244  0.249513  1
  Rb  Rb3  1  0.550396  0.723404  0.260565  1
  Rb  Rb4  1  0.000000  0.500000  0.500000  1
  Rb  Rb5  1  0.500000  0.500000  0.000000  1
  Y  Y6  1  0.000000  0.000000  0.000000  1
  Lu  Lu7  1  0.500000  0.000000  0.500000  1
  F  F8  1  0.941868  0.893519  0.217508  1
  F  F9  1  0.444763  0.103027  0.289396  1
  F  F10  1  0.058132  0.106481  0.782492  1
  F  F11  1  0.555237  0.896973  0.710604  1
  F  F12  1  0.739214  0.236601  0.926651  1
  F  F13  1  0.247603  0.771181  0.567889  1
  F  F14  1  0.260786  0.763399  0.073349  1
  F  F15  1  0.752397  0.228819  0.432111  1
  F  F16  1  0.328747  0.304875  0.456609  1
  F  F17  1  0.828570  0.681757  0.047442  1
  F  F18  1  0.671253  0.695125  0.543391  1
  F  F19  1  0.171430  0.318243  0.952558  1
