# generated using pymatgen
data_Cs6ScTe4I
_symmetry_space_group_name_H-M   'P 1'
_cell_length_a   12.29883200
_cell_length_b   12.29883391
_cell_length_c   9.26335800
_cell_angle_alpha   90.00000000
_cell_angle_beta   90.00000000
_cell_angle_gamma   120.00000562
_symmetry_Int_Tables_number   1
_chemical_formula_structural   Cs6ScTe4I
_chemical_formula_sum   'Cs12 Sc2 Te8 I2'
_cell_volume   1213.46390164
_cell_formula_units_Z   2
loop_
 _symmetry_equiv_pos_site_id
 _symmetry_equiv_pos_as_xyz
  1  'x, y, z'
loop_
 _atom_site_type_symbol
 _atom_site_label
 _atom_site_symmetry_multiplicity
 _atom_site_fract_x
 _atom_site_fract_y
 _atom_site_fract_z
 _atom_site_occupancy
  Cs  Cs0  1  0.138503  0.861497  0.515032  1
  Cs  Cs1  1  0.722993  0.861497  0.515032  1
  Cs  Cs2  1  0.947749  0.473874  0.319737  1
  Cs  Cs3  1  0.526126  0.473874  0.319737  1
  Cs  Cs4  1  0.861497  0.722993  0.015032  1
  Cs  Cs5  1  0.277007  0.138503  0.015032  1
  Cs  Cs6  1  0.526126  0.052251  0.319737  1
  Cs  Cs7  1  0.138503  0.277007  0.515032  1
  Cs  Cs8  1  0.861497  0.138503  0.015032  1
  Cs  Cs9  1  0.052251  0.526126  0.819737  1
  Cs  Cs10  1  0.473874  0.947749  0.819737  1
  Cs  Cs11  1  0.473874  0.526126  0.819737  1
  Sc  Sc12  1  0.666667  0.333333  0.710516  1
  Sc  Sc13  1  0.333333  0.666667  0.210516  1
  Te  Te14  1  0.417664  0.208832  0.611588  1
  Te  Te15  1  0.582336  0.791168  0.111588  1
  Te  Te16  1  0.666667  0.333333  0.018548  1
  Te  Te17  1  0.791168  0.582336  0.611588  1
  Te  Te18  1  0.208832  0.417664  0.111588  1
  Te  Te19  1  0.333333  0.666667  0.518548  1
  Te  Te20  1  0.208832  0.791168  0.111588  1
  Te  Te21  1  0.791168  0.208832  0.611588  1
  I  I22  1  0.000000  0.000000  0.272468  1
  I  I23  1  0.000000  0.000000  0.772468  1
