# generated using pymatgen
data_Ag3Bi(TeO4)4
_symmetry_space_group_name_H-M   'P 1'
_cell_length_a   5.11719906
_cell_length_b   5.25347169
_cell_length_c   12.80537500
_cell_angle_alpha   90.00000000
_cell_angle_beta   90.00000000
_cell_angle_gamma   90.51010693
_symmetry_Int_Tables_number   1
_chemical_formula_structural   Ag3Bi(TeO4)4
_chemical_formula_sum   'Ag3 Bi1 Te4 O16'
_cell_volume   344.23402596
_cell_formula_units_Z   1
loop_
 _symmetry_equiv_pos_site_id
 _symmetry_equiv_pos_as_xyz
  1  'x, y, z'
loop_
 _atom_site_type_symbol
 _atom_site_label
 _atom_site_symmetry_multiplicity
 _atom_site_fract_x
 _atom_site_fract_y
 _atom_site_fract_z
 _atom_site_occupancy
  Ag  Ag0  1  0.250000  0.500000  0.833815  1
  Ag  Ag1  1  0.250000  0.000000  0.327079  1
  Ag  Ag2  1  0.750000  0.500000  0.169902  1
  Bi  Bi3  1  0.750000  0.000000  0.678233  1
  Te  Te4  1  0.750000  0.500000  0.421999  1
  Te  Te5  1  0.250000  0.000000  0.075110  1
  Te  Te6  1  0.250000  0.500000  0.567233  1
  Te  Te7  1  0.750000  0.000000  0.934914  1
  O  O8  1  0.120189  0.274828  0.671341  1
  O  O9  1  0.613956  0.210721  0.824520  1
  O  O10  1  0.886044  0.789279  0.824520  1
  O  O11  1  0.379811  0.725172  0.671341  1
  O  O12  1  0.895690  0.718940  0.320386  1
  O  O13  1  0.394425  0.785770  0.179243  1
  O  O14  1  0.105575  0.214230  0.179243  1
  O  O15  1  0.604310  0.281060  0.320386  1
  O  O16  1  0.569386  0.297670  0.542035  1
  O  O17  1  0.069819  0.205161  0.959758  1
  O  O18  1  0.430181  0.794839  0.959758  1
  O  O19  1  0.930614  0.702330  0.542035  1
  O  O20  1  0.433596  0.708023  0.453822  1
  O  O21  1  0.930497  0.788025  0.044751  1
  O  O22  1  0.569503  0.211975  0.044751  1
  O  O23  1  0.066404  0.291977  0.453822  1
