# generated using pymatgen
data_Y3Mg3Ga2Ag
_symmetry_space_group_name_H-M   'P 1'
_cell_length_a   7.41265600
_cell_length_b   7.41265651
_cell_length_c   4.34975200
_cell_angle_alpha   90.00000000
_cell_angle_beta   90.00000000
_cell_angle_gamma   119.99999770
_symmetry_Int_Tables_number   1
_chemical_formula_structural   Y3Mg3Ga2Ag
_chemical_formula_sum   'Y3 Mg3 Ga2 Ag1'
_cell_volume   206.98690029
_cell_formula_units_Z   1
loop_
 _symmetry_equiv_pos_site_id
 _symmetry_equiv_pos_as_xyz
  1  'x, y, z'
loop_
 _atom_site_type_symbol
 _atom_site_label
 _atom_site_symmetry_multiplicity
 _atom_site_fract_x
 _atom_site_fract_y
 _atom_site_fract_z
 _atom_site_occupancy
  Y  Y0  1  0.000000  0.575237  0.500000  1
  Y  Y1  1  0.424763  0.424763  0.500000  1
  Y  Y2  1  0.575237  0.000000  0.500000  1
  Mg  Mg3  1  0.000000  0.245231  0.000000  1
  Mg  Mg4  1  0.754769  0.754769  0.000000  1
  Mg  Mg5  1  0.245231  0.000000  0.000000  1
  Ga  Ga6  1  0.333333  0.666667  0.000000  1
  Ga  Ga7  1  0.666667  0.333333  0.000000  1
  Ag  Ag8  1  0.000000  0.000000  0.500000  1
