# generated using pymatgen
data_YbSm3(ScIr)4
_symmetry_space_group_name_H-M   'P 1'
_cell_length_a   7.20551681
_cell_length_b   4.30556600
_cell_length_c   8.85276500
_cell_angle_alpha   90.00000000
_cell_angle_beta   89.38594559
_cell_angle_gamma   90.00000000
_symmetry_Int_Tables_number   1
_chemical_formula_structural   YbSm3(ScIr)4
_chemical_formula_sum   'Yb1 Sm3 Sc4 Ir4'
_cell_volume   274.63088751
_cell_formula_units_Z   1
loop_
 _symmetry_equiv_pos_site_id
 _symmetry_equiv_pos_as_xyz
  1  'x, y, z'
loop_
 _atom_site_type_symbol
 _atom_site_label
 _atom_site_symmetry_multiplicity
 _atom_site_fract_x
 _atom_site_fract_y
 _atom_site_fract_z
 _atom_site_occupancy
  Yb  Yb0  1  0.977855  0.250000  0.175245  1
  Sm  Sm1  1  0.481389  0.250000  0.322954  1
  Sm  Sm2  1  0.017836  0.750000  0.825638  1
  Sm  Sm3  1  0.518522  0.750000  0.677963  1
  Sc  Sc4  1  0.863074  0.250000  0.562994  1
  Sc  Sc5  1  0.359530  0.250000  0.940150  1
  Sc  Sc6  1  0.139229  0.750000  0.431561  1
  Sc  Sc7  1  0.641878  0.750000  0.064479  1
  Ir  Ir8  1  0.729483  0.250000  0.888693  1
  Ir  Ir9  1  0.233587  0.250000  0.601596  1
  Ir  Ir10  1  0.275226  0.750000  0.108493  1
  Ir  Ir11  1  0.762390  0.750000  0.400235  1
