# generated using pymatgen
data_Th3Nb(Al3Pd)8
_symmetry_space_group_name_H-M   'P 1'
_cell_length_a   8.53659467
_cell_length_b   8.53659399
_cell_length_c   8.53659400
_cell_angle_alpha   89.80063946
_cell_angle_beta   89.80064619
_cell_angle_gamma   89.80065175
_symmetry_Int_Tables_number   1
_chemical_formula_structural   Th3Nb(Al3Pd)8
_chemical_formula_sum   'Th3 Nb1 Al24 Pd8'
_cell_volume   622.07972362
_cell_formula_units_Z   1
loop_
 _symmetry_equiv_pos_site_id
 _symmetry_equiv_pos_as_xyz
  1  'x, y, z'
loop_
 _atom_site_type_symbol
 _atom_site_label
 _atom_site_symmetry_multiplicity
 _atom_site_fract_x
 _atom_site_fract_y
 _atom_site_fract_z
 _atom_site_occupancy
  Th  Th0  1  0.000000  0.500000  0.000000  1
  Th  Th1  1  0.500000  0.000000  0.000000  1
  Th  Th2  1  0.000000  0.000000  0.500000  1
  Nb  Nb3  1  0.500000  0.500000  0.500000  1
  Al  Al4  1  0.991744  0.638816  0.638816  1
  Al  Al5  1  0.638816  0.638816  0.991744  1
  Al  Al6  1  0.638816  0.991744  0.638816  1
  Al  Al7  1  0.008256  0.361184  0.361184  1
  Al  Al8  1  0.361184  0.361184  0.008256  1
  Al  Al9  1  0.361184  0.008256  0.361184  1
  Al  Al10  1  0.733077  0.500000  0.266923  1
  Al  Al11  1  0.266923  0.500000  0.733077  1
  Al  Al12  1  0.500000  0.266923  0.733077  1
  Al  Al13  1  0.500000  0.733077  0.266923  1
  Al  Al14  1  0.266923  0.733077  0.500000  1
  Al  Al15  1  0.733077  0.266923  0.500000  1
  Al  Al16  1  0.834366  0.144654  0.834366  1
  Al  Al17  1  0.144654  0.834366  0.834366  1
  Al  Al18  1  0.834366  0.834366  0.144654  1
  Al  Al19  1  0.165634  0.855346  0.165634  1
  Al  Al20  1  0.855346  0.165634  0.165634  1
  Al  Al21  1  0.165634  0.165634  0.855346  1
  Al  Al22  1  0.728906  0.493114  0.728906  1
  Al  Al23  1  0.493114  0.728906  0.728906  1
  Al  Al24  1  0.728906  0.728906  0.493114  1
  Al  Al25  1  0.271094  0.506886  0.271094  1
  Al  Al26  1  0.506886  0.271094  0.271094  1
  Al  Al27  1  0.271094  0.271094  0.506886  1
  Pd  Pd28  1  0.831313  0.831313  0.831313  1
  Pd  Pd29  1  0.168687  0.168687  0.168687  1
  Pd  Pd30  1  0.664638  0.335362  0.000000  1
  Pd  Pd31  1  0.000000  0.335362  0.664638  1
  Pd  Pd32  1  0.335362  0.000000  0.664638  1
  Pd  Pd33  1  0.335362  0.664638  0.000000  1
  Pd  Pd34  1  0.000000  0.664638  0.335362  1
  Pd  Pd35  1  0.664638  0.000000  0.335362  1
