# generated using pymatgen
data_Ho5Tm3Cd2(SnAu4)2
_symmetry_space_group_name_H-M   'P 1'
_cell_length_a   7.97670776
_cell_length_b   7.97670776
_cell_length_c   7.29340502
_cell_angle_alpha   90.00543145
_cell_angle_beta   90.00543145
_cell_angle_gamma   90.07582242
_symmetry_Int_Tables_number   1
_chemical_formula_structural   Ho5Tm3Cd2(SnAu4)2
_chemical_formula_sum   'Ho5 Tm3 Cd2 Sn2 Au8'
_cell_volume   464.06339100
_cell_formula_units_Z   1
loop_
 _symmetry_equiv_pos_site_id
 _symmetry_equiv_pos_as_xyz
  1  'x, y, z'
loop_
 _atom_site_type_symbol
 _atom_site_label
 _atom_site_symmetry_multiplicity
 _atom_site_fract_x
 _atom_site_fract_y
 _atom_site_fract_z
 _atom_site_occupancy
  Ho  Ho0  1  0.841899  0.158101  0.500000  1
  Ho  Ho1  1  0.158179  0.841821  0.500000  1
  Ho  Ho2  1  0.341810  0.341999  0.999968  1
  Ho  Ho3  1  0.658001  0.658190  0.000032  1
  Ho  Ho4  1  0.816756  0.183244  0.000000  1
  Tm  Tm5  1  0.683108  0.683143  0.500013  1
  Tm  Tm6  1  0.316857  0.316892  0.499987  1
  Tm  Tm7  1  0.183201  0.816799  0.000000  1
  Cd  Cd8  1  0.499932  0.999951  0.250101  1
  Cd  Cd9  1  0.000049  0.500068  0.749899  1
  Sn  Sn10  1  0.499881  0.999941  0.749908  1
  Sn  Sn11  1  0.000059  0.500119  0.250092  1
  Au  Au12  1  0.624805  0.368975  0.275360  1
  Au  Au13  1  0.374840  0.631376  0.274837  1
  Au  Au14  1  0.125552  0.131235  0.774548  1
  Au  Au15  1  0.874980  0.868324  0.774553  1
  Au  Au16  1  0.368624  0.625160  0.725163  1
  Au  Au17  1  0.631025  0.375195  0.724640  1
  Au  Au18  1  0.868765  0.874448  0.225452  1
  Au  Au19  1  0.131676  0.125020  0.225447  1
