# generated using pymatgen
data_DyTh7(Si3Tc)4
_symmetry_space_group_name_H-M   'P 1'
_cell_length_a   8.37009600
_cell_length_b   8.37009620
_cell_length_c   8.11149900
_cell_angle_alpha   90.00000000
_cell_angle_beta   90.00000000
_cell_angle_gamma   119.99999921
_symmetry_Int_Tables_number   1
_chemical_formula_structural   DyTh7(Si3Tc)4
_chemical_formula_sum   'Dy1 Th7 Si12 Tc4'
_cell_volume   492.14450774
_cell_formula_units_Z   1
loop_
 _symmetry_equiv_pos_site_id
 _symmetry_equiv_pos_as_xyz
  1  'x, y, z'
loop_
 _atom_site_type_symbol
 _atom_site_label
 _atom_site_symmetry_multiplicity
 _atom_site_fract_x
 _atom_site_fract_y
 _atom_site_fract_z
 _atom_site_occupancy
  Dy  Dy0  1  0.000000  0.000000  0.750000  1
  Th  Th1  1  0.502961  0.005922  0.250000  1
  Th  Th2  1  0.497133  0.994267  0.750000  1
  Th  Th3  1  0.994078  0.497039  0.250000  1
  Th  Th4  1  0.005733  0.502867  0.750000  1
  Th  Th5  1  0.502961  0.497039  0.250000  1
  Th  Th6  1  0.497133  0.502867  0.750000  1
  Th  Th7  1  0.000000  0.000000  0.250000  1
  Si  Si8  1  0.164835  0.329669  0.997157  1
  Si  Si9  1  0.835128  0.670256  0.999495  1
  Si  Si10  1  0.670331  0.835165  0.997157  1
  Si  Si11  1  0.835128  0.670256  0.500505  1
  Si  Si12  1  0.329744  0.164872  0.999495  1
  Si  Si13  1  0.164835  0.329669  0.502843  1
  Si  Si14  1  0.164835  0.835165  0.997157  1
  Si  Si15  1  0.329744  0.164872  0.500505  1
  Si  Si16  1  0.835128  0.164872  0.999495  1
  Si  Si17  1  0.670331  0.835165  0.502843  1
  Si  Si18  1  0.835128  0.164872  0.500505  1
  Si  Si19  1  0.164835  0.835165  0.502843  1
  Tc  Tc20  1  0.333333  0.666667  0.018048  1
  Tc  Tc21  1  0.666667  0.333333  0.978089  1
  Tc  Tc22  1  0.666667  0.333333  0.521911  1
  Tc  Tc23  1  0.333333  0.666667  0.481952  1
