# generated using pymatgen
data_Dy2YMg3RuAu2
_symmetry_space_group_name_H-M   'P 1'
_cell_length_a   7.57430369
_cell_length_b   7.60333969
_cell_length_c   4.01260700
_cell_angle_alpha   90.00000000
_cell_angle_beta   90.00000000
_cell_angle_gamma   119.69104322
_symmetry_Int_Tables_number   1
_chemical_formula_structural   Dy2YMg3RuAu2
_chemical_formula_sum   'Dy2 Y1 Mg3 Ru1 Au2'
_cell_volume   200.74652369
_cell_formula_units_Z   1
loop_
 _symmetry_equiv_pos_site_id
 _symmetry_equiv_pos_as_xyz
  1  'x, y, z'
loop_
 _atom_site_type_symbol
 _atom_site_label
 _atom_site_symmetry_multiplicity
 _atom_site_fract_x
 _atom_site_fract_y
 _atom_site_fract_z
 _atom_site_occupancy
  Dy  Dy0  1  0.029427  0.602794  0.000000  1
  Dy  Dy1  1  0.398055  0.426875  0.000000  1
  Y  Y2  1  0.574079  0.972651  0.000000  1
  Mg  Mg3  1  0.254309  0.001096  0.500000  1
  Mg  Mg4  1  0.999123  0.252935  0.500000  1
  Mg  Mg5  1  0.747174  0.746163  0.500000  1
  Ru  Ru6  1  0.329389  0.661940  0.500000  1
  Au  Au7  1  0.667234  0.335390  0.500000  1
  Au  Au8  1  0.001212  0.000155  0.000000  1
