# generated using pymatgen
data_CaHg3(IO3)8
_symmetry_space_group_name_H-M   'P 1'
_cell_length_a   5.82265445
_cell_length_b   5.98037684
_cell_length_c   17.89041129
_cell_angle_alpha   90.11441370
_cell_angle_beta   90.26005294
_cell_angle_gamma   89.79141045
_symmetry_Int_Tables_number   1
_chemical_formula_structural   CaHg3(IO3)8
_chemical_formula_sum   'Ca1 Hg3 I8 O24'
_cell_volume   622.96219228
_cell_formula_units_Z   1
loop_
 _symmetry_equiv_pos_site_id
 _symmetry_equiv_pos_as_xyz
  1  'x, y, z'
loop_
 _atom_site_type_symbol
 _atom_site_label
 _atom_site_symmetry_multiplicity
 _atom_site_fract_x
 _atom_site_fract_y
 _atom_site_fract_z
 _atom_site_occupancy
  Ca  Ca0  1  0.709842  0.171240  0.095099  1
  Hg  Hg1  1  0.208024  0.326638  0.906404  1
  Hg  Hg2  1  0.292851  0.673339  0.405339  1
  Hg  Hg3  1  0.792750  0.825631  0.594050  1
  I  I4  1  0.243781  0.786837  0.708013  1
  I  I5  1  0.741991  0.714182  0.291693  1
  I  I6  1  0.756559  0.286212  0.792073  1
  I  I7  1  0.254421  0.215602  0.208002  1
  I  I8  1  0.032316  0.635332  0.077837  1
  I  I9  1  0.532867  0.860599  0.922425  1
  I  I10  1  0.969985  0.139527  0.421963  1
  I  I11  1  0.469744  0.360533  0.577916  1
  O  O12  1  0.543099  0.602101  0.517631  1
  O  O13  1  0.044589  0.897706  0.482244  1
  O  O14  1  0.466053  0.100994  0.984168  1
  O  O15  1  0.957786  0.397195  0.016704  1
  O  O16  1  0.606875  0.486286  0.661644  1
  O  O17  1  0.105874  0.013585  0.338265  1
  O  O18  1  0.393350  0.988476  0.839458  1
  O  O19  1  0.889802  0.509400  0.160356  1
  O  O20  1  0.712372  0.184008  0.545236  1
  O  O21  1  0.212330  0.315436  0.454940  1
  O  O22  1  0.290701  0.686065  0.955236  1
  O  O23  1  0.794782  0.817248  0.045941  1
  O  O24  1  0.044333  0.028142  0.163386  1
  O  O25  1  0.553388  0.482417  0.836556  1
  O  O26  1  0.945748  0.518017  0.336127  1
  O  O27  1  0.445021  0.982177  0.663359  1
  O  O28  1  0.354660  0.373345  0.125358  1
  O  O29  1  0.859333  0.125584  0.874574  1
  O  O30  1  0.641697  0.874835  0.374411  1
  O  O31  1  0.141492  0.625759  0.625434  1
  O  O32  1  0.507754  0.031590  0.207096  1
  O  O33  1  0.014002  0.463467  0.791128  1
  O  O34  1  0.484723  0.536196  0.291139  1
  O  O35  1  0.985104  0.964301  0.708795  1
