# generated using pymatgen
data_Ho4Sn6Ir3Rh4
_symmetry_space_group_name_H-M   'P 1'
_cell_length_a   7.59279574
_cell_length_b   7.59279536
_cell_length_c   7.59078000
_cell_angle_alpha   109.46584385
_cell_angle_beta   109.46584284
_cell_angle_gamma   109.47659890
_symmetry_Int_Tables_number   1
_chemical_formula_structural   Ho4Sn6Ir3Rh4
_chemical_formula_sum   'Ho4 Sn6 Ir3 Rh4'
_cell_volume   336.89668271
_cell_formula_units_Z   1
loop_
 _symmetry_equiv_pos_site_id
 _symmetry_equiv_pos_as_xyz
  1  'x, y, z'
loop_
 _atom_site_type_symbol
 _atom_site_label
 _atom_site_symmetry_multiplicity
 _atom_site_fract_x
 _atom_site_fract_y
 _atom_site_fract_z
 _atom_site_occupancy
  Ho  Ho0  1  0.000000  0.000000  0.500000  1
  Ho  Ho1  1  0.001575  0.500787  0.000787  1
  Ho  Ho2  1  0.499213  0.998425  0.999213  1
  Ho  Ho3  1  0.499213  0.500787  0.500000  1
  Sn  Sn4  1  0.686382  0.685667  0.999904  1
  Sn  Sn5  1  0.314333  0.000716  0.314238  1
  Sn  Sn6  1  0.999284  0.313618  0.313522  1
  Sn  Sn7  1  0.314333  0.313618  0.000096  1
  Sn  Sn8  1  0.686382  0.000716  0.686478  1
  Sn  Sn9  1  0.999284  0.685667  0.685762  1
  Ir  Ir10  1  0.250063  0.500125  0.750063  1
  Ir  Ir11  1  0.250063  0.749937  0.500000  1
  Ir  Ir12  1  0.499875  0.749937  0.249937  1
  Rh  Rh13  1  0.750115  0.249885  0.500000  1
  Rh  Rh14  1  0.750115  0.500230  0.250115  1
  Rh  Rh15  1  0.499770  0.249885  0.749885  1
  Rh  Rh16  1  0.000000  0.000000  0.000000  1
