# generated using pymatgen
data_Tb5Zr3(Nb2Sn5)2
_symmetry_space_group_name_H-M   'P 1'
_cell_length_a   11.12665448
_cell_length_b   11.14813729
_cell_length_c   11.14813700
_cell_angle_alpha   149.33724536
_cell_angle_beta   131.55871332
_cell_angle_gamma   58.44604736
_symmetry_Int_Tables_number   1
_chemical_formula_structural   Tb5Zr3(Nb2Sn5)2
_chemical_formula_sum   'Tb5 Zr3 Nb4 Sn10'
_cell_volume   523.62550880
_cell_formula_units_Z   1
loop_
 _symmetry_equiv_pos_site_id
 _symmetry_equiv_pos_as_xyz
  1  'x, y, z'
loop_
 _atom_site_type_symbol
 _atom_site_label
 _atom_site_symmetry_multiplicity
 _atom_site_fract_x
 _atom_site_fract_y
 _atom_site_fract_z
 _atom_site_occupancy
  Tb  Tb0  1  0.798905  0.062967  0.735937  1
  Tb  Tb1  1  0.260144  0.146756  0.113389  1
  Tb  Tb2  1  0.741340  0.854325  0.887015  1
  Tb  Tb3  1  0.033667  0.646596  0.387070  1
  Tb  Tb4  1  0.967957  0.354366  0.613591  1
  Zr  Zr5  1  0.673034  0.436974  0.236061  1
  Zr  Zr6  1  0.326700  0.562383  0.764316  1
  Zr  Zr7  1  0.203488  0.937374  0.266115  1
  Nb  Nb8  1  0.308470  0.558085  0.249134  1
  Nb  Nb9  1  0.689341  0.440718  0.748078  1
  Nb  Nb10  1  0.689341  0.941264  0.248623  1
  Nb  Nb11  1  0.308470  0.059336  0.750385  1
  Sn  Sn12  1  0.583587  0.287909  0.295678  1
  Sn  Sn13  1  0.416427  0.712352  0.704075  1
  Sn  Sn14  1  0.991735  0.788185  0.203549  1
  Sn  Sn15  1  0.011501  0.215047  0.796454  1
  Sn  Sn16  1  0.002510  0.250753  0.256332  1
  Sn  Sn17  1  0.002510  0.746178  0.751757  1
  Sn  Sn18  1  0.467893  0.070670  0.397222  1
  Sn  Sn19  1  0.523503  0.927148  0.596356  1
  Sn  Sn20  1  0.667362  0.570965  0.096397  1
  Sn  Sn21  1  0.332112  0.429647  0.902465  1
