# generated using pymatgen
data_Nb8PdS20
_symmetry_space_group_name_H-M   'P 1'
_cell_length_a   10.31787164
_cell_length_b   10.31787202
_cell_length_c   18.90274356
_cell_angle_alpha   75.56546771
_cell_angle_beta   75.56546759
_cell_angle_gamma   18.79742659
_symmetry_Int_Tables_number   1
_chemical_formula_structural   Nb8PdS20
_chemical_formula_sum   'Nb8 Pd1 S20'
_cell_volume   627.38908201
_cell_formula_units_Z   1
loop_
 _symmetry_equiv_pos_site_id
 _symmetry_equiv_pos_as_xyz
  1  'x, y, z'
loop_
 _atom_site_type_symbol
 _atom_site_label
 _atom_site_symmetry_multiplicity
 _atom_site_fract_x
 _atom_site_fract_y
 _atom_site_fract_z
 _atom_site_occupancy
  Nb  Nb0  1  0.079720  0.079720  0.094582  1
  Nb  Nb1  1  0.920280  0.920280  0.905418  1
  Nb  Nb2  1  0.329898  0.329898  0.809158  1
  Nb  Nb3  1  0.670102  0.670102  0.190842  1
  Nb  Nb4  1  0.269015  0.269015  0.280281  1
  Nb  Nb5  1  0.730985  0.730985  0.719719  1
  Nb  Nb6  1  0.159695  0.159695  0.555430  1
  Nb  Nb7  1  0.840305  0.840305  0.444570  1
  Pd  Pd8  1  0.500000  0.500000  0.000000  1
  S  S9  1  0.435413  0.435413  0.399346  1
  S  S10  1  0.564587  0.564587  0.600654  1
  S  S11  1  0.398499  0.398499  0.510472  1
  S  S12  1  0.601501  0.601501  0.489528  1
  S  S13  1  0.149059  0.149059  0.693328  1
  S  S14  1  0.850941  0.850941  0.306672  1
  S  S15  1  0.383746  0.383746  0.003474  1
  S  S16  1  0.616254  0.616254  0.996526  1
  S  S17  1  0.204597  0.204597  0.820712  1
  S  S18  1  0.795403  0.795403  0.179288  1
  S  S19  1  0.253349  0.253349  0.429328  1
  S  S20  1  0.746651  0.746651  0.570672  1
  S  S21  1  0.325050  0.325050  0.678604  1
  S  S22  1  0.674950  0.674950  0.321396  1
  S  S23  1  0.487778  0.487778  0.127807  1
  S  S24  1  0.512222  0.512222  0.872193  1
  S  S25  1  0.202767  0.202767  0.092129  1
  S  S26  1  0.797233  0.797233  0.907871  1
  S  S27  1  0.077904  0.077904  0.227924  1
  S  S28  1  0.922096  0.922096  0.772076  1
