# generated using pymatgen
data_YEr3Fe4(CoO5)4
_symmetry_space_group_name_H-M   'P 1'
_cell_length_a   5.76398600
_cell_length_b   7.27366536
_cell_length_c   8.50244700
_cell_angle_alpha   90.05507707
_cell_angle_beta   90.00000000
_cell_angle_gamma   90.00000000
_symmetry_Int_Tables_number   1
_chemical_formula_structural   YEr3Fe4(CoO5)4
_chemical_formula_sum   'Y1 Er3 Fe4 Co4 O20'
_cell_volume   356.46752164
_cell_formula_units_Z   1
loop_
 _symmetry_equiv_pos_site_id
 _symmetry_equiv_pos_as_xyz
  1  'x, y, z'
loop_
 _atom_site_type_symbol
 _atom_site_label
 _atom_site_symmetry_multiplicity
 _atom_site_fract_x
 _atom_site_fract_y
 _atom_site_fract_z
 _atom_site_occupancy
  Y  Y0  1  0.500000  0.365423  0.330451  1
  Er  Er1  1  0.500000  0.635208  0.669710  1
  Er  Er2  1  0.500000  0.134802  0.830625  1
  Er  Er3  1  0.500000  0.865436  0.169390  1
  Fe  Fe4  1  0.000000  0.109322  0.146540  1
  Fe  Fe5  1  0.000000  0.890677  0.852751  1
  Fe  Fe6  1  0.000000  0.390492  0.647594  1
  Fe  Fe7  1  0.000000  0.610340  0.352933  1
  Co  Co8  1  0.250863  0.999276  0.500349  1
  Co  Co9  1  0.749137  0.999276  0.500349  1
  Co  Co10  1  0.749211  0.500307  0.999615  1
  Co  Co11  1  0.250789  0.500307  0.999615  1
  O  O12  1  0.236759  0.000344  0.999571  1
  O  O13  1  0.763241  0.000344  0.999571  1
  O  O14  1  0.764719  0.501585  0.501164  1
  O  O15  1  0.235281  0.501585  0.501164  1
  O  O16  1  0.000000  0.353430  0.068923  1
  O  O17  1  0.000000  0.646630  0.930865  1
  O  O18  1  0.000000  0.147010  0.568611  1
  O  O19  1  0.000000  0.852872  0.432953  1
  O  O20  1  0.260015  0.103057  0.297045  1
  O  O21  1  0.738848  0.893913  0.702719  1
  O  O22  1  0.261152  0.893913  0.702719  1
  O  O23  1  0.738889  0.393776  0.797437  1
  O  O24  1  0.739985  0.103057  0.297045  1
  O  O25  1  0.259965  0.607725  0.201945  1
  O  O26  1  0.740035  0.607725  0.201945  1
  O  O27  1  0.261111  0.393776  0.797437  1
  O  O28  1  0.500000  0.341422  0.055407  1
  O  O29  1  0.500000  0.659129  0.942897  1
  O  O30  1  0.500000  0.157619  0.557488  1
  O  O31  1  0.500000  0.840224  0.443173  1
