# generated using pymatgen
data_Ho2Tm2GaCo4
_symmetry_space_group_name_H-M   'P 1'
_cell_length_a   5.44384652
_cell_length_b   5.44384486
_cell_length_c   8.82956231
_cell_angle_alpha   70.89210463
_cell_angle_beta   70.89210907
_cell_angle_gamma   43.24646578
_symmetry_Int_Tables_number   1
_chemical_formula_structural   Ho2Tm2GaCo4
_chemical_formula_sum   'Ho2 Tm2 Ga1 Co4'
_cell_volume   167.79628022
_cell_formula_units_Z   1
loop_
 _symmetry_equiv_pos_site_id
 _symmetry_equiv_pos_as_xyz
  1  'x, y, z'
loop_
 _atom_site_type_symbol
 _atom_site_label
 _atom_site_symmetry_multiplicity
 _atom_site_fract_x
 _atom_site_fract_y
 _atom_site_fract_z
 _atom_site_occupancy
  Ho  Ho0  1  0.746268  0.746268  0.663221  1
  Ho  Ho1  1  0.253732  0.253732  0.336779  1
  Tm  Tm2  1  0.391608  0.391608  0.886520  1
  Tm  Tm3  1  0.608392  0.608392  0.113480  1
  Ga  Ga4  1  0.500000  0.500000  0.500000  1
  Co  Co5  1  0.037889  0.037889  0.646609  1
  Co  Co6  1  0.962111  0.962111  0.353391  1
  Co  Co7  1  0.094856  0.094856  0.881685  1
  Co  Co8  1  0.905144  0.905144  0.118315  1
