# generated using pymatgen
data_Dy16MgHg3(RuPt)2
_symmetry_space_group_name_H-M   'P 1'
_cell_length_a   9.63427057
_cell_length_b   9.63313170
_cell_length_c   9.60346400
_cell_angle_alpha   60.10182533
_cell_angle_beta   60.10571960
_cell_angle_gamma   60.09641402
_symmetry_Int_Tables_number   1
_chemical_formula_structural   Dy16MgHg3(RuPt)2
_chemical_formula_sum   'Dy16 Mg1 Hg3 Ru2 Pt2'
_cell_volume   631.67706983
_cell_formula_units_Z   1
loop_
 _symmetry_equiv_pos_site_id
 _symmetry_equiv_pos_as_xyz
  1  'x, y, z'
loop_
 _atom_site_type_symbol
 _atom_site_label
 _atom_site_symmetry_multiplicity
 _atom_site_fract_x
 _atom_site_fract_y
 _atom_site_fract_z
 _atom_site_occupancy
  Dy  Dy0  1  0.350319  0.348992  0.345120  1
  Dy  Dy1  1  0.350319  0.348992  0.955568  1
  Dy  Dy2  1  0.358433  0.947479  0.347044  1
  Dy  Dy3  1  0.936682  0.359264  0.352027  1
  Dy  Dy4  1  0.802261  0.191736  0.192966  1
  Dy  Dy5  1  0.187181  0.806748  0.815387  1
  Dy  Dy6  1  0.187181  0.806748  0.190685  1
  Dy  Dy7  1  0.802261  0.191736  0.813038  1
  Dy  Dy8  1  0.189864  0.189683  0.810227  1
  Dy  Dy9  1  0.809131  0.810754  0.190058  1
  Dy  Dy10  1  0.937796  0.564637  0.560023  1
  Dy  Dy11  1  0.564237  0.938430  0.936602  1
  Dy  Dy12  1  0.564237  0.938430  0.560730  1
  Dy  Dy13  1  0.937796  0.564637  0.937543  1
  Dy  Dy14  1  0.561687  0.562897  0.937707  1
  Dy  Dy15  1  0.935799  0.938518  0.562841  1
  Mg  Mg16  1  0.285280  0.570665  0.572028  1
  Hg  Hg17  1  0.582948  0.587282  0.587243  1
  Hg  Hg18  1  0.582948  0.587282  0.242525  1
  Hg  Hg19  1  0.582686  0.242314  0.587499  1
  Ru  Ru20  1  0.138361  0.575389  0.143126  1
  Ru  Ru21  1  0.574965  0.141806  0.141615  1
  Pt  Pt22  1  0.138814  0.142790  0.146445  1
  Pt  Pt23  1  0.138814  0.142790  0.571952  1
