# generated using pymatgen
data_TbFeSiHg
_symmetry_space_group_name_H-M   'P 1'
_cell_length_a   9.92383843
_cell_length_b   9.92383921
_cell_length_c   4.03742800
_cell_angle_alpha   90.00000000
_cell_angle_beta   90.00000000
_cell_angle_gamma   156.76672811
_symmetry_Int_Tables_number   1
_chemical_formula_structural   TbFeSiHg
_chemical_formula_sum   'Tb2 Fe2 Si2 Hg2'
_cell_volume   156.84992937
_cell_formula_units_Z   2
loop_
 _symmetry_equiv_pos_site_id
 _symmetry_equiv_pos_as_xyz
  1  'x, y, z'
loop_
 _atom_site_type_symbol
 _atom_site_label
 _atom_site_symmetry_multiplicity
 _atom_site_fract_x
 _atom_site_fract_y
 _atom_site_fract_z
 _atom_site_occupancy
  Tb  Tb0  1  0.639192  0.360808  0.250000  1
  Tb  Tb1  1  0.360808  0.639192  0.750000  1
  Fe  Fe2  1  0.249689  0.750311  0.250000  1
  Fe  Fe3  1  0.750311  0.249689  0.750000  1
  Si  Si4  1  0.805812  0.194188  0.250000  1
  Si  Si5  1  0.194188  0.805812  0.750000  1
  Hg  Hg6  1  0.948130  0.051870  0.250000  1
  Hg  Hg7  1  0.051870  0.948130  0.750000  1
