# generated using pymatgen
data_YTlPd2F14
_symmetry_space_group_name_H-M   'P 1'
_cell_length_a   5.38511965
_cell_length_b   8.79244496
_cell_length_c   11.82995000
_cell_angle_alpha   62.17767548
_cell_angle_beta   89.73952987
_cell_angle_gamma   89.88900041
_symmetry_Int_Tables_number   1
_chemical_formula_structural   YTlPd2F14
_chemical_formula_sum   'Y2 Tl2 Pd4 F28'
_cell_volume   495.37234931
_cell_formula_units_Z   2
loop_
 _symmetry_equiv_pos_site_id
 _symmetry_equiv_pos_as_xyz
  1  'x, y, z'
loop_
 _atom_site_type_symbol
 _atom_site_label
 _atom_site_symmetry_multiplicity
 _atom_site_fract_x
 _atom_site_fract_y
 _atom_site_fract_z
 _atom_site_occupancy
  Y  Y0  1  0.262227  0.813489  0.264338  1
  Y  Y1  1  0.737798  0.186511  0.735641  1
  Tl  Tl2  1  0.234400  0.813952  0.762515  1
  Tl  Tl3  1  0.765641  0.186102  0.237498  1
  Pd  Pd4  1  0.759298  0.723605  0.043525  1
  Pd  Pd5  1  0.240665  0.276476  0.956472  1
  Pd  Pd6  1  0.260672  0.272008  0.455629  1
  Pd  Pd7  1  0.739415  0.727905  0.544380  1
  F  F8  1  0.920610  0.706663  0.410187  1
  F  F9  1  0.079813  0.293399  0.589851  1
  F  F10  1  0.424553  0.311306  0.082477  1
  F  F11  1  0.575528  0.688776  0.917481  1
  F  F12  1  0.452009  0.721545  0.131039  1
  F  F13  1  0.547854  0.278559  0.868862  1
  F  F14  1  0.946562  0.282650  0.372289  1
  F  F15  1  0.053363  0.717235  0.627841  1
  F  F16  1  0.936911  0.746197  0.178396  1
  F  F17  1  0.062903  0.253901  0.821631  1
  F  F18  1  0.428699  0.264776  0.311683  1
  F  F19  1  0.571052  0.734817  0.688353  1
  F  F20  1  0.789336  0.475676  0.150205  1
  F  F21  1  0.210584  0.524421  0.849953  1
  F  F22  1  0.283149  0.522031  0.362717  1
  F  F23  1  0.717064  0.477865  0.637090  1
  F  F24  1  0.924359  0.284571  0.034188  1
  F  F25  1  0.075693  0.715622  0.965838  1
  F  F26  1  0.425338  0.729729  0.462691  1
  F  F27  1  0.574896  0.270129  0.537222  1
  F  F28  1  0.746115  0.976364  0.458622  1
  F  F29  1  0.253809  0.023531  0.541482  1
  F  F30  1  0.246368  0.027530  0.050615  1
  F  F31  1  0.753543  0.972543  0.949349  1
  F  F32  1  0.605906  0.967046  0.227109  1
  F  F33  1  0.393973  0.033072  0.772857  1
  F  F34  1  0.107419  0.039056  0.272416  1
  F  F35  1  0.892474  0.960939  0.727558  1
