# generated using pymatgen
data_Tm2AlZnPtRh
_symmetry_space_group_name_H-M   'P 1'
_cell_length_a   4.17291300
_cell_length_b   6.83007820
_cell_length_c   8.01937778
_cell_angle_alpha   89.13378722
_cell_angle_beta   90.00000000
_cell_angle_gamma   90.00000000
_symmetry_Int_Tables_number   1
_chemical_formula_structural   Tm2AlZnPtRh
_chemical_formula_sum   'Tm4 Al2 Zn2 Pt2 Rh2'
_cell_volume   228.53674944
_cell_formula_units_Z   2
loop_
 _symmetry_equiv_pos_site_id
 _symmetry_equiv_pos_as_xyz
  1  'x, y, z'
loop_
 _atom_site_type_symbol
 _atom_site_label
 _atom_site_symmetry_multiplicity
 _atom_site_fract_x
 _atom_site_fract_y
 _atom_site_fract_z
 _atom_site_occupancy
  Tm  Tm0  1  0.250000  0.540863  0.180877  1
  Tm  Tm1  1  0.750000  0.459137  0.819123  1
  Tm  Tm2  1  0.750000  0.962989  0.681381  1
  Tm  Tm3  1  0.250000  0.037011  0.318619  1
  Al  Al4  1  0.250000  0.635607  0.558953  1
  Al  Al5  1  0.750000  0.364393  0.441047  1
  Zn  Zn6  1  0.750000  0.859422  0.066443  1
  Zn  Zn7  1  0.250000  0.140578  0.933557  1
  Pt  Pt8  1  0.250000  0.753493  0.868648  1
  Pt  Pt9  1  0.750000  0.246507  0.131352  1
  Rh  Rh10  1  0.750000  0.739649  0.389416  1
  Rh  Rh11  1  0.250000  0.260351  0.610584  1
