# generated using pymatgen
data_YbPr3CdRu
_symmetry_space_group_name_H-M   'P 1'
_cell_length_a   9.98712171
_cell_length_b   9.99923056
_cell_length_c   9.98712245
_cell_angle_alpha   59.95988195
_cell_angle_beta   60.08023128
_cell_angle_gamma   59.95988238
_symmetry_Int_Tables_number   1
_chemical_formula_structural   YbPr3CdRu
_chemical_formula_sum   'Yb4 Pr12 Cd4 Ru4'
_cell_volume   705.23037387
_cell_formula_units_Z   4
loop_
 _symmetry_equiv_pos_site_id
 _symmetry_equiv_pos_as_xyz
  1  'x, y, z'
loop_
 _atom_site_type_symbol
 _atom_site_label
 _atom_site_symmetry_multiplicity
 _atom_site_fract_x
 _atom_site_fract_y
 _atom_site_fract_z
 _atom_site_occupancy
  Yb  Yb0  1  0.809242  0.190758  0.190758  1
  Yb  Yb1  1  0.190758  0.190758  0.809242  1
  Yb  Yb2  1  0.809242  0.809242  0.190758  1
  Yb  Yb3  1  0.190758  0.809242  0.809242  1
  Pr  Pr4  1  0.595371  0.595375  0.213878  1
  Pr  Pr5  1  0.441941  0.058059  0.058059  1
  Pr  Pr6  1  0.056342  0.443658  0.056342  1
  Pr  Pr7  1  0.443658  0.056342  0.443658  1
  Pr  Pr8  1  0.213878  0.595375  0.595371  1
  Pr  Pr9  1  0.058059  0.441941  0.441941  1
  Pr  Pr10  1  0.595375  0.213878  0.595375  1
  Pr  Pr11  1  0.595375  0.595371  0.595375  1
  Pr  Pr12  1  0.191078  0.808922  0.191078  1
  Pr  Pr13  1  0.808922  0.191078  0.808922  1
  Pr  Pr14  1  0.058059  0.058059  0.441941  1
  Pr  Pr15  1  0.441941  0.441941  0.058059  1
  Cd  Cd16  1  0.828813  0.829810  0.828813  1
  Cd  Cd17  1  0.512564  0.828813  0.829810  1
  Cd  Cd18  1  0.828813  0.512564  0.828813  1
  Cd  Cd19  1  0.829810  0.828813  0.512564  1
  Ru  Ru20  1  0.840156  0.385493  0.388857  1
  Ru  Ru21  1  0.385493  0.388857  0.385493  1
  Ru  Ru22  1  0.385493  0.840156  0.385493  1
  Ru  Ru23  1  0.388857  0.385493  0.840156  1
