# generated using pymatgen
data_Lu2V3P7Rh9
_symmetry_space_group_name_H-M   'P 1'
_cell_length_a   3.83592952
_cell_length_b   9.52445758
_cell_length_c   9.52346040
_cell_angle_alpha   119.95785346
_cell_angle_beta   89.95209051
_cell_angle_gamma   90.05383713
_symmetry_Int_Tables_number   1
_chemical_formula_structural   Lu2V3P7Rh9
_chemical_formula_sum   'Lu2 V3 P7 Rh9'
_cell_volume   301.45350606
_cell_formula_units_Z   1
loop_
 _symmetry_equiv_pos_site_id
 _symmetry_equiv_pos_as_xyz
  1  'x, y, z'
loop_
 _atom_site_type_symbol
 _atom_site_label
 _atom_site_symmetry_multiplicity
 _atom_site_fract_x
 _atom_site_fract_y
 _atom_site_fract_z
 _atom_site_occupancy
  Lu  Lu0  1  0.261923  0.666668  0.333368  1
  Lu  Lu1  1  0.761936  0.333256  0.666714  1
  V  V2  1  0.761888  0.092719  0.874426  1
  V  V3  1  0.761506  0.125633  0.218282  1
  V  V4  1  0.762112  0.781657  0.907329  1
  P  P5  1  0.261802  0.000217  0.999994  1
  P  P6  1  0.761831  0.882008  0.594563  1
  P  P7  1  0.761767  0.405664  0.287527  1
  P  P8  1  0.762036  0.712535  0.118043  1
  P  P9  1  0.261685  0.117900  0.413529  1
  P  P10  1  0.262014  0.586437  0.704508  1
  P  P11  1  0.262118  0.295500  0.881984  1
  Rh  Rh12  1  0.261607  0.885404  0.158939  1
  Rh  Rh13  1  0.261619  0.840778  0.726226  1
  Rh  Rh14  1  0.261672  0.274149  0.114745  1
  Rh  Rh15  1  0.761900  0.611968  0.558099  1
  Rh  Rh16  1  0.762542  0.442168  0.053793  1
  Rh  Rh17  1  0.761437  0.945845  0.388033  1
  Rh  Rh18  1  0.260897  0.367294  0.438470  1
  Rh  Rh19  1  0.263466  0.561497  0.929043  1
  Rh  Rh20  1  0.262244  0.070701  0.632384  1
