# generated using pymatgen
data_Ho3In3SnRh2
_symmetry_space_group_name_H-M   'P 1'
_cell_length_a   7.80249500
_cell_length_b   7.80249572
_cell_length_c   3.89737300
_cell_angle_alpha   90.00000000
_cell_angle_beta   90.00000000
_cell_angle_gamma   120.00000006
_symmetry_Int_Tables_number   1
_chemical_formula_structural   Ho3In3SnRh2
_chemical_formula_sum   'Ho3 In3 Sn1 Rh2'
_cell_volume   205.48003999
_cell_formula_units_Z   1
loop_
 _symmetry_equiv_pos_site_id
 _symmetry_equiv_pos_as_xyz
  1  'x, y, z'
loop_
 _atom_site_type_symbol
 _atom_site_label
 _atom_site_symmetry_multiplicity
 _atom_site_fract_x
 _atom_site_fract_y
 _atom_site_fract_z
 _atom_site_occupancy
  Ho  Ho0  1  0.970048  0.390368  0.500000  1
  Ho  Ho1  1  0.609632  0.579679  0.500000  1
  Ho  Ho2  1  0.420321  0.029952  0.500000  1
  In  In3  1  0.256706  0.243974  0.000000  1
  In  In4  1  0.987268  0.743294  0.000000  1
  In  In5  1  0.756026  0.012732  0.000000  1
  Sn  Sn6  1  0.333333  0.666667  0.000000  1
  Rh  Rh7  1  0.000000  0.000000  0.500000  1
  Rh  Rh8  1  0.666667  0.333333  0.000000  1
