# generated using pymatgen
data_MgBe6Si5Rh12
_symmetry_space_group_name_H-M   'P 1'
_cell_length_a   4.06795400
_cell_length_b   5.77948800
_cell_length_c   12.21510900
_cell_angle_alpha   90.00000000
_cell_angle_beta   90.00272179
_cell_angle_gamma   90.00000000
_symmetry_Int_Tables_number   1
_chemical_formula_structural   MgBe6Si5Rh12
_chemical_formula_sum   'Mg1 Be6 Si5 Rh12'
_cell_volume   287.18565707
_cell_formula_units_Z   1
loop_
 _symmetry_equiv_pos_site_id
 _symmetry_equiv_pos_as_xyz
  1  'x, y, z'
loop_
 _atom_site_type_symbol
 _atom_site_label
 _atom_site_symmetry_multiplicity
 _atom_site_fract_x
 _atom_site_fract_y
 _atom_site_fract_z
 _atom_site_occupancy
  Mg  Mg0  1  0.000000  0.000000  0.000000  1
  Be  Be1  1  0.000000  0.500000  0.000000  1
  Be  Be2  1  0.499683  0.000000  0.160542  1
  Be  Be3  1  0.999636  0.500000  0.333033  1
  Be  Be4  1  0.500000  0.000000  0.500000  1
  Be  Be5  1  0.000362  0.500000  0.666966  1
  Be  Be6  1  0.500317  0.000000  0.839458  1
  Si  Si7  1  0.499731  0.500000  0.166258  1
  Si  Si8  1  0.999764  0.000000  0.333632  1
  Si  Si9  1  0.500000  0.500000  0.500000  1
  Si  Si10  1  0.000236  0.000000  0.666368  1
  Si  Si11  1  0.500269  0.500000  0.833742  1
  Rh  Rh12  1  0.500000  0.262013  0.000000  1
  Rh  Rh13  1  0.500000  0.737987  0.000000  1
  Rh  Rh14  1  0.999799  0.254810  0.175056  1
  Rh  Rh15  1  0.999799  0.745191  0.175056  1
  Rh  Rh16  1  0.499825  0.249789  0.336913  1
  Rh  Rh17  1  0.499825  0.750212  0.336913  1
  Rh  Rh18  1  0.000000  0.249940  0.500000  1
  Rh  Rh19  1  0.000000  0.750061  0.500000  1
  Rh  Rh20  1  0.500175  0.249789  0.663087  1
  Rh  Rh21  1  0.500175  0.750212  0.663087  1
  Rh  Rh22  1  0.000201  0.254810  0.824944  1
  Rh  Rh23  1  0.000201  0.745191  0.824944  1
