# generated using pymatgen
data_Nb12Al8Fe4CN3
_symmetry_space_group_name_H-M   'P 1'
_cell_length_a   8.20417262
_cell_length_b   8.20417254
_cell_length_c   8.20929716
_cell_angle_alpha   60.02064020
_cell_angle_beta   60.02064189
_cell_angle_gamma   59.99999718
_symmetry_Int_Tables_number   1
_chemical_formula_structural   Nb12Al8Fe4CN3
_chemical_formula_sum   'Nb12 Al8 Fe4 C1 N3'
_cell_volume   390.83726813
_cell_formula_units_Z   1
loop_
 _symmetry_equiv_pos_site_id
 _symmetry_equiv_pos_as_xyz
  1  'x, y, z'
loop_
 _atom_site_type_symbol
 _atom_site_label
 _atom_site_symmetry_multiplicity
 _atom_site_fract_x
 _atom_site_fract_y
 _atom_site_fract_z
 _atom_site_occupancy
  Nb  Nb0  1  0.805695  0.805695  0.192503  1
  Nb  Nb1  1  0.194033  0.194033  0.806981  1
  Nb  Nb2  1  0.804952  0.194033  0.806981  1
  Nb  Nb3  1  0.196105  0.805695  0.192503  1
  Nb  Nb4  1  0.194033  0.804952  0.806981  1
  Nb  Nb5  1  0.805695  0.196105  0.192503  1
  Nb  Nb6  1  0.444305  0.444305  0.057497  1
  Nb  Nb7  1  0.055967  0.055967  0.443019  1
  Nb  Nb8  1  0.445048  0.055967  0.443019  1
  Nb  Nb9  1  0.053895  0.444305  0.057497  1
  Nb  Nb10  1  0.055967  0.445048  0.443019  1
  Nb  Nb11  1  0.444305  0.053895  0.057497  1
  Al  Al12  1  0.746218  0.416715  0.420354  1
  Al  Al13  1  0.416715  0.746218  0.420354  1
  Al  Al14  1  0.417486  0.417486  0.747546  1
  Al  Al15  1  0.416715  0.416715  0.420354  1
  Al  Al16  1  0.503782  0.833285  0.829646  1
  Al  Al17  1  0.833285  0.503782  0.829646  1
  Al  Al18  1  0.832514  0.832514  0.502454  1
  Al  Al19  1  0.833285  0.833285  0.829646  1
  Fe  Fe20  1  0.125000  0.625000  0.625000  1
  Fe  Fe21  1  0.625000  0.125000  0.625000  1
  Fe  Fe22  1  0.625000  0.625000  0.125000  1
  Fe  Fe23  1  0.625000  0.625000  0.625000  1
  C  C24  1  0.125000  0.125000  0.625000  1
  N  N25  1  0.625000  0.125000  0.125000  1
  N  N26  1  0.125000  0.625000  0.125000  1
  N  N27  1  0.125000  0.125000  0.125000  1
