# generated using pymatgen
data_La8ErTmRu4
_symmetry_space_group_name_H-M   'P 1'
_cell_length_a   6.66623760
_cell_length_b   7.22597283
_cell_length_c   9.04573005
_cell_angle_alpha   94.39536979
_cell_angle_beta   111.62154584
_cell_angle_gamma   89.99999926
_symmetry_Int_Tables_number   1
_chemical_formula_structural   La8ErTmRu4
_chemical_formula_sum   'La8 Er1 Tm1 Ru4'
_cell_volume   403.69538641
_cell_formula_units_Z   1
loop_
 _symmetry_equiv_pos_site_id
 _symmetry_equiv_pos_as_xyz
  1  'x, y, z'
loop_
 _atom_site_type_symbol
 _atom_site_label
 _atom_site_symmetry_multiplicity
 _atom_site_fract_x
 _atom_site_fract_y
 _atom_site_fract_z
 _atom_site_occupancy
  La  La0  1  0.794082  0.591669  0.818444  1
  La  La1  1  0.975637  0.908331  0.181556  1
  La  La2  1  0.205917  0.408453  0.181584  1
  La  La3  1  0.024333  0.091547  0.818416  1
  La  La4  1  0.208730  0.683847  0.573296  1
  La  La5  1  0.635435  0.816153  0.426704  1
  La  La6  1  0.791313  0.316209  0.426791  1
  La  La7  1  0.364521  0.183791  0.573209  1
  Er  Er8  1  0.569215  0.250000  0.000000  1
  Tm  Tm9  1  0.430899  0.750000  0.000000  1
  Ru  Ru10  1  0.601590  0.921528  0.782789  1
  Ru  Ru11  1  0.818800  0.578472  0.217211  1
  Ru  Ru12  1  0.398366  0.078336  0.217206  1
  Ru  Ru13  1  0.181161  0.421664  0.782794  1
