# generated using pymatgen
data_DyY3(Ho4Bi3)4
_symmetry_space_group_name_H-M   'P 1'
_cell_length_a   8.25551818
_cell_length_b   9.50691300
_cell_length_c   12.03804626
_cell_angle_alpha   90.00000000
_cell_angle_beta   89.97609061
_cell_angle_gamma   90.00000000
_symmetry_Int_Tables_number   1
_chemical_formula_structural   DyY3(Ho4Bi3)4
_chemical_formula_sum   'Dy1 Y3 Ho16 Bi12'
_cell_volume   944.79987658
_cell_formula_units_Z   1
loop_
 _symmetry_equiv_pos_site_id
 _symmetry_equiv_pos_as_xyz
  1  'x, y, z'
loop_
 _atom_site_type_symbol
 _atom_site_label
 _atom_site_symmetry_multiplicity
 _atom_site_fract_x
 _atom_site_fract_y
 _atom_site_fract_z
 _atom_site_occupancy
  Dy  Dy0  1  0.187524  0.750000  0.718543  1
  Y  Y1  1  0.312549  0.250000  0.218583  1
  Y  Y2  1  0.812608  0.250000  0.281374  1
  Y  Y3  1  0.687408  0.750000  0.781414  1
  Ho  Ho4  1  0.352483  0.750000  0.215729  1
  Ho  Ho5  1  0.852632  0.750000  0.284256  1
  Ho  Ho6  1  0.647447  0.250000  0.784261  1
  Ho  Ho7  1  0.147478  0.250000  0.715758  1
  Ho  Ho8  1  0.692707  0.564468  0.058798  1
  Ho  Ho9  1  0.192700  0.935508  0.441270  1
  Ho  Ho10  1  0.307319  0.064521  0.941190  1
  Ho  Ho11  1  0.807316  0.435523  0.558817  1
  Ho  Ho12  1  0.307319  0.435479  0.941190  1
  Ho  Ho13  1  0.807316  0.064477  0.558817  1
  Ho  Ho14  1  0.692707  0.935532  0.058798  1
  Ho  Ho15  1  0.192700  0.564492  0.441270  1
  Ho  Ho16  1  0.475406  0.250000  0.488519  1
  Ho  Ho17  1  0.975489  0.250000  0.011462  1
  Ho  Ho18  1  0.524417  0.750000  0.511556  1
  Ho  Ho19  1  0.024658  0.750000  0.988386  1
  Bi  Bi20  1  0.406935  0.750000  0.957362  1
  Bi  Bi21  1  0.906989  0.750000  0.542688  1
  Bi  Bi22  1  0.593032  0.250000  0.042568  1
  Bi  Bi23  1  0.093019  0.250000  0.457417  1
  Bi  Bi24  1  0.564922  0.995134  0.325523  1
  Bi  Bi25  1  0.064905  0.504881  0.174483  1
  Bi  Bi26  1  0.434977  0.495206  0.674510  1
  Bi  Bi27  1  0.935116  0.004828  0.825471  1
  Bi  Bi28  1  0.434977  0.004794  0.674510  1
  Bi  Bi29  1  0.935116  0.495172  0.825471  1
  Bi  Bi30  1  0.564922  0.504866  0.325523  1
  Bi  Bi31  1  0.064905  0.995119  0.174483  1
