# generated using pymatgen
data_CeHoPaCo2
_symmetry_space_group_name_H-M   'P 1'
_cell_length_a   3.58241442
_cell_length_b   5.96837507
_cell_length_c   5.96837448
_cell_angle_alpha   61.83918671
_cell_angle_beta   72.53539832
_cell_angle_gamma   72.53539864
_symmetry_Int_Tables_number   1
_chemical_formula_structural   CeHoPaCo2
_chemical_formula_sum   'Ce1 Ho1 Pa1 Co2'
_cell_volume   105.39630289
_cell_formula_units_Z   1
loop_
 _symmetry_equiv_pos_site_id
 _symmetry_equiv_pos_as_xyz
  1  'x, y, z'
loop_
 _atom_site_type_symbol
 _atom_site_label
 _atom_site_symmetry_multiplicity
 _atom_site_fract_x
 _atom_site_fract_y
 _atom_site_fract_z
 _atom_site_occupancy
  Ce  Ce0  1  0.190239  0.309761  0.309761  1
  Ho  Ho1  1  0.805432  0.694568  0.694568  1
  Pa  Pa2  1  0.995590  0.004410  0.004410  1
  Co  Co3  1  0.504370  0.279013  0.712248  1
  Co  Co4  1  0.504370  0.712248  0.279013  1
