# generated using pymatgen
data_CeDy19(Ir2Os)4
_symmetry_space_group_name_H-M   'P 1'
_cell_length_a   10.84810537
_cell_length_b   10.88735537
_cell_length_c   6.43231016
_cell_angle_alpha   90.03181191
_cell_angle_beta   89.91094597
_cell_angle_gamma   89.74460983
_symmetry_Int_Tables_number   1
_chemical_formula_structural   CeDy19(Ir2Os)4
_chemical_formula_sum   'Ce1 Dy19 Ir8 Os4'
_cell_volume   759.69341820
_cell_formula_units_Z   1
loop_
 _symmetry_equiv_pos_site_id
 _symmetry_equiv_pos_as_xyz
  1  'x, y, z'
loop_
 _atom_site_type_symbol
 _atom_site_label
 _atom_site_symmetry_multiplicity
 _atom_site_fract_x
 _atom_site_fract_y
 _atom_site_fract_z
 _atom_site_occupancy
  Ce  Ce0  1  0.297624  0.086572  0.381845  1
  Dy  Dy1  1  0.292480  0.911962  0.878052  1
  Dy  Dy2  1  0.705740  0.086657  0.879305  1
  Dy  Dy3  1  0.707047  0.912968  0.378664  1
  Dy  Dy4  1  0.586411  0.793848  0.879143  1
  Dy  Dy5  1  0.590176  0.208265  0.378183  1
  Dy  Dy6  1  0.414043  0.790289  0.377450  1
  Dy  Dy7  1  0.414054  0.207969  0.878284  1
  Dy  Dy8  1  0.206118  0.414548  0.622307  1
  Dy  Dy9  1  0.205511  0.585841  0.121925  1
  Dy  Dy10  1  0.793954  0.414072  0.121606  1
  Dy  Dy11  1  0.793626  0.586577  0.622299  1
  Dy  Dy12  1  0.913546  0.706174  0.121531  1
  Dy  Dy13  1  0.913244  0.293756  0.620875  1
  Dy  Dy14  1  0.086191  0.705897  0.621885  1
  Dy  Dy15  1  0.086096  0.293870  0.120991  1
  Dy  Dy16  1  0.998783  0.999426  0.500231  1
  Dy  Dy17  1  0.999838  0.000292  0.000157  1
  Dy  Dy18  1  0.499630  0.499844  0.000898  1
  Dy  Dy19  1  0.500905  0.499896  0.501176  1
  Ir  Ir20  1  0.847445  0.152345  0.248709  1
  Ir  Ir21  1  0.847420  0.848529  0.750864  1
  Ir  Ir22  1  0.153873  0.150798  0.742571  1
  Ir  Ir23  1  0.152763  0.848671  0.251060  1
  Ir  Ir24  1  0.652542  0.348096  0.750699  1
  Ir  Ir25  1  0.651255  0.652508  0.248780  1
  Ir  Ir26  1  0.348170  0.346488  0.252121  1
  Ir  Ir27  1  0.348480  0.651752  0.750946  1
  Os  Os28  1  0.495483  0.001266  0.127541  1
  Os  Os29  1  0.498016  0.000613  0.620092  1
  Os  Os30  1  0.999761  0.499905  0.874967  1
  Os  Os31  1  0.999777  0.500306  0.374838  1
