# generated using pymatgen
data_PrNdSc3Si7(Pd2Pt)3
_symmetry_space_group_name_H-M   'P 1'
_cell_length_a   10.09334600
_cell_length_b   10.09334596
_cell_length_c   4.02317400
_cell_angle_alpha   90.00000000
_cell_angle_beta   90.00000000
_cell_angle_gamma   120.00000013
_symmetry_Int_Tables_number   1
_chemical_formula_structural   PrNdSc3Si7(Pd2Pt)3
_chemical_formula_sum   'Pr1 Nd1 Sc3 Si7 Pd6 Pt3'
_cell_volume   354.95211450
_cell_formula_units_Z   1
loop_
 _symmetry_equiv_pos_site_id
 _symmetry_equiv_pos_as_xyz
  1  'x, y, z'
loop_
 _atom_site_type_symbol
 _atom_site_label
 _atom_site_symmetry_multiplicity
 _atom_site_fract_x
 _atom_site_fract_y
 _atom_site_fract_z
 _atom_site_occupancy
  Pr  Pr0  1  0.000000  0.000000  0.000000  1
  Nd  Nd1  1  0.333333  0.666667  0.500000  1
  Sc  Sc2  1  0.891085  0.450760  0.500000  1
  Sc  Sc3  1  0.559675  0.108915  0.500000  1
  Sc  Sc4  1  0.549240  0.440325  0.500000  1
  Si  Si5  1  0.252292  0.199882  0.500000  1
  Si  Si6  1  0.800118  0.052412  0.500000  1
  Si  Si7  1  0.947588  0.747708  0.500000  1
  Si  Si8  1  0.558605  0.646138  0.000000  1
  Si  Si9  1  0.353862  0.912466  0.000000  1
  Si  Si10  1  0.087534  0.441395  0.000000  1
  Si  Si11  1  0.666667  0.333333  0.000000  1
  Pd  Pd12  1  0.221763  0.935665  0.500000  1
  Pd  Pd13  1  0.064335  0.286099  0.500000  1
  Pd  Pd14  1  0.713901  0.778237  0.500000  1
  Pd  Pd15  1  0.308231  0.403394  0.000000  1
  Pd  Pd16  1  0.596606  0.904837  0.000000  1
  Pd  Pd17  1  0.095163  0.691769  0.000000  1
  Pt  Pt18  1  0.384741  0.170791  0.000000  1
  Pt  Pt19  1  0.829209  0.213951  0.000000  1
  Pt  Pt20  1  0.786049  0.615259  0.000000  1
