# generated using pymatgen
data_LaNd(Re2Si)4
_symmetry_space_group_name_H-M   'P 1'
_cell_length_a   4.17815200
_cell_length_b   7.37732122
_cell_length_c   15.59133714
_cell_angle_alpha   89.82954328
_cell_angle_beta   90.00000000
_cell_angle_gamma   90.00000000
_symmetry_Int_Tables_number   1
_chemical_formula_structural   LaNd(Re2Si)4
_chemical_formula_sum   'La2 Nd2 Re16 Si8'
_cell_volume   480.57853537
_cell_formula_units_Z   2
loop_
 _symmetry_equiv_pos_site_id
 _symmetry_equiv_pos_as_xyz
  1  'x, y, z'
loop_
 _atom_site_type_symbol
 _atom_site_label
 _atom_site_symmetry_multiplicity
 _atom_site_fract_x
 _atom_site_fract_y
 _atom_site_fract_z
 _atom_site_occupancy
  La  La0  1  0.000000  0.577413  0.118569  1
  La  La1  1  0.000000  0.422587  0.881431  1
  Nd  Nd2  1  0.500000  0.077514  0.382308  1
  Nd  Nd3  1  0.500000  0.922486  0.617692  1
  Re  Re4  1  0.000000  0.135362  0.052620  1
  Re  Re5  1  0.000000  0.864638  0.947380  1
  Re  Re6  1  0.500000  0.637996  0.447905  1
  Re  Re7  1  0.500000  0.362004  0.552095  1
  Re  Re8  1  0.000000  0.732130  0.321777  1
  Re  Re9  1  0.000000  0.267870  0.678223  1
  Re  Re10  1  0.500000  0.230249  0.180410  1
  Re  Re11  1  0.500000  0.769751  0.819590  1
  Re  Re12  1  0.000000  0.432139  0.418501  1
  Re  Re13  1  0.000000  0.567861  0.581499  1
  Re  Re14  1  0.500000  0.932526  0.081765  1
  Re  Re15  1  0.500000  0.067474  0.918235  1
  Re  Re16  1  0.000000  0.990474  0.207467  1
  Re  Re17  1  0.000000  0.009526  0.792533  1
  Re  Re18  1  0.500000  0.488291  0.294711  1
  Re  Re19  1  0.500000  0.511709  0.705289  1
  Si  Si20  1  0.000000  0.826842  0.475791  1
  Si  Si21  1  0.000000  0.173158  0.524209  1
  Si  Si22  1  0.500000  0.323022  0.025122  1
  Si  Si23  1  0.500000  0.676978  0.974878  1
  Si  Si24  1  0.000000  0.289800  0.274771  1
  Si  Si25  1  0.000000  0.710200  0.725229  1
  Si  Si26  1  0.500000  0.792097  0.227737  1
  Si  Si27  1  0.500000  0.207903  0.772263  1
