# generated using pymatgen
data_Er16MgCd3Ni3Ru
_symmetry_space_group_name_H-M   'P 1'
_cell_length_a   9.53430446
_cell_length_b   9.53430357
_cell_length_c   9.53430519
_cell_angle_alpha   59.54584077
_cell_angle_beta   59.54584416
_cell_angle_gamma   59.54583769
_symmetry_Int_Tables_number   1
_chemical_formula_structural   Er16MgCd3Ni3Ru
_chemical_formula_sum   'Er16 Mg1 Cd3 Ni3 Ru1'
_cell_volume   606.51876197
_cell_formula_units_Z   1
loop_
 _symmetry_equiv_pos_site_id
 _symmetry_equiv_pos_as_xyz
  1  'x, y, z'
loop_
 _atom_site_type_symbol
 _atom_site_label
 _atom_site_symmetry_multiplicity
 _atom_site_fract_x
 _atom_site_fract_y
 _atom_site_fract_z
 _atom_site_occupancy
  Er  Er0  1  0.347623  0.347623  0.347623  1
  Er  Er1  1  0.349875  0.349875  0.956483  1
  Er  Er2  1  0.349875  0.956483  0.349875  1
  Er  Er3  1  0.956483  0.349875  0.349875  1
  Er  Er4  1  0.809477  0.188617  0.188617  1
  Er  Er5  1  0.185584  0.812517  0.812517  1
  Er  Er6  1  0.188617  0.809477  0.188617  1
  Er  Er7  1  0.812517  0.185584  0.812517  1
  Er  Er8  1  0.188617  0.188617  0.809477  1
  Er  Er9  1  0.812517  0.812517  0.185584  1
  Er  Er10  1  0.935810  0.566628  0.566628  1
  Er  Er11  1  0.560136  0.938116  0.938116  1
  Er  Er12  1  0.566628  0.935810  0.566628  1
  Er  Er13  1  0.938116  0.560136  0.938116  1
  Er  Er14  1  0.566628  0.566628  0.935810  1
  Er  Er15  1  0.938116  0.938116  0.560136  1
  Mg  Mg16  1  0.575623  0.575623  0.575623  1
  Cd  Cd17  1  0.579966  0.579966  0.255609  1
  Cd  Cd18  1  0.579966  0.255609  0.579966  1
  Cd  Cd19  1  0.255609  0.579966  0.579966  1
  Ni  Ni20  1  0.142144  0.142144  0.574661  1
  Ni  Ni21  1  0.142144  0.574661  0.142144  1
  Ni  Ni22  1  0.574661  0.142144  0.142144  1
  Ru  Ru23  1  0.143265  0.143265  0.143265  1
