# generated using pymatgen
data_Dy2MnIr3
_symmetry_space_group_name_H-M   'P 1'
_cell_length_a   5.47857154
_cell_length_b   5.47857160
_cell_length_c   5.18302655
_cell_angle_alpha   58.09510889
_cell_angle_beta   58.09510784
_cell_angle_gamma   60.00000201
_symmetry_Int_Tables_number   1
_chemical_formula_structural   Dy2MnIr3
_chemical_formula_sum   'Dy2 Mn1 Ir3'
_cell_volume   106.72822660
_cell_formula_units_Z   1
loop_
 _symmetry_equiv_pos_site_id
 _symmetry_equiv_pos_as_xyz
  1  'x, y, z'
loop_
 _atom_site_type_symbol
 _atom_site_label
 _atom_site_symmetry_multiplicity
 _atom_site_fract_x
 _atom_site_fract_y
 _atom_site_fract_z
 _atom_site_occupancy
  Dy  Dy0  1  0.998768  0.998768  0.003697  1
  Dy  Dy1  1  0.251232  0.251232  0.246303  1
  Mn  Mn2  1  0.625000  0.625000  0.125000  1
  Ir  Ir3  1  0.625000  0.625000  0.625000  1
  Ir  Ir4  1  0.125000  0.625000  0.625000  1
  Ir  Ir5  1  0.625000  0.125000  0.625000  1
