# generated using pymatgen
data_Tb3Er(Lu2Os)4
_symmetry_space_group_name_H-M   'P 1'
_cell_length_a   7.39522651
_cell_length_b   8.83813300
_cell_length_c   6.22438201
_cell_angle_alpha   90.00000000
_cell_angle_beta   89.90681853
_cell_angle_gamma   90.00000000
_symmetry_Int_Tables_number   1
_chemical_formula_structural   Tb3Er(Lu2Os)4
_chemical_formula_sum   'Tb3 Er1 Lu8 Os4'
_cell_volume   406.82504208
_cell_formula_units_Z   1
loop_
 _symmetry_equiv_pos_site_id
 _symmetry_equiv_pos_as_xyz
  1  'x, y, z'
loop_
 _atom_site_type_symbol
 _atom_site_label
 _atom_site_symmetry_multiplicity
 _atom_site_fract_x
 _atom_site_fract_y
 _atom_site_fract_z
 _atom_site_occupancy
  Tb  Tb0  1  0.538823  0.250000  0.872932  1
  Tb  Tb1  1  0.039592  0.250000  0.627604  1
  Tb  Tb2  1  0.461006  0.750000  0.127801  1
  Er  Er3  1  0.960595  0.750000  0.372847  1
  Lu  Lu4  1  0.674342  0.062950  0.337755  1
  Lu  Lu5  1  0.172146  0.437249  0.163166  1
  Lu  Lu6  1  0.325993  0.563366  0.661840  1
  Lu  Lu7  1  0.827015  0.936543  0.836267  1
  Lu  Lu8  1  0.325993  0.936634  0.661840  1
  Lu  Lu9  1  0.827015  0.563457  0.836267  1
  Lu  Lu10  1  0.674342  0.437050  0.337755  1
  Lu  Lu11  1  0.172146  0.062751  0.163166  1
  Os  Os12  1  0.882455  0.250000  0.044944  1
  Os  Os13  1  0.382780  0.250000  0.454514  1
  Os  Os14  1  0.117197  0.750000  0.957254  1
  Os  Os15  1  0.618563  0.750000  0.544049  1
