# generated using pymatgen
data_Tb2Tm14MgAg3Rh4
_symmetry_space_group_name_H-M   'P 1'
_cell_length_a   9.46952265
_cell_length_b   9.48032123
_cell_length_c   9.45557600
_cell_angle_alpha   60.08631312
_cell_angle_beta   60.04871464
_cell_angle_gamma   59.95119600
_symmetry_Int_Tables_number   1
_chemical_formula_structural   Tb2Tm14MgAg3Rh4
_chemical_formula_sum   'Tb2 Tm14 Mg1 Ag3 Rh4'
_cell_volume   600.62818151
_cell_formula_units_Z   1
loop_
 _symmetry_equiv_pos_site_id
 _symmetry_equiv_pos_as_xyz
  1  'x, y, z'
loop_
 _atom_site_type_symbol
 _atom_site_label
 _atom_site_symmetry_multiplicity
 _atom_site_fract_x
 _atom_site_fract_y
 _atom_site_fract_z
 _atom_site_occupancy
  Tb  Tb0  1  0.564211  0.565914  0.934938  1
  Tb  Tb1  1  0.933788  0.935295  0.565459  1
  Tm  Tm2  1  0.351163  0.348401  0.349609  1
  Tm  Tm3  1  0.351163  0.348401  0.950827  1
  Tm  Tm4  1  0.351090  0.952833  0.348038  1
  Tm  Tm5  1  0.937558  0.354499  0.353971  1
  Tm  Tm6  1  0.810930  0.187572  0.188495  1
  Tm  Tm7  1  0.185026  0.813614  0.814499  1
  Tm  Tm8  1  0.185026  0.813614  0.186861  1
  Tm  Tm9  1  0.810930  0.187572  0.813003  1
  Tm  Tm10  1  0.185524  0.186642  0.813916  1
  Tm  Tm11  1  0.810353  0.811303  0.189172  1
  Tm  Tm12  1  0.934265  0.563554  0.563814  1
  Tm  Tm13  1  0.563900  0.936339  0.935939  1
  Tm  Tm14  1  0.563900  0.936339  0.563824  1
  Tm  Tm15  1  0.934265  0.563554  0.938367  1
  Mg  Mg16  1  0.284898  0.572142  0.571480  1
  Ag  Ag17  1  0.583539  0.584971  0.582659  1
  Ag  Ag18  1  0.583539  0.584971  0.248833  1
  Ag  Ag19  1  0.581839  0.249065  0.584549  1
  Rh  Rh20  1  0.140686  0.145695  0.142453  1
  Rh  Rh21  1  0.140686  0.145695  0.571164  1
  Rh  Rh22  1  0.140028  0.569842  0.145064  1
  Rh  Rh23  1  0.571692  0.142171  0.143068  1
