# generated using pymatgen
data_NdErFe10Co2P7
_symmetry_space_group_name_H-M   'P 1'
_cell_length_a   8.97549121
_cell_length_b   8.99973292
_cell_length_c   3.65397400
_cell_angle_alpha   90.00000000
_cell_angle_beta   90.00000000
_cell_angle_gamma   120.00283024
_symmetry_Int_Tables_number   1
_chemical_formula_structural   NdErFe10Co2P7
_chemical_formula_sum   'Nd1 Er1 Fe10 Co2 P7'
_cell_volume   255.60629504
_cell_formula_units_Z   1
loop_
 _symmetry_equiv_pos_site_id
 _symmetry_equiv_pos_as_xyz
  1  'x, y, z'
loop_
 _atom_site_type_symbol
 _atom_site_label
 _atom_site_symmetry_multiplicity
 _atom_site_fract_x
 _atom_site_fract_y
 _atom_site_fract_z
 _atom_site_occupancy
  Nd  Nd0  1  0.667567  0.334092  0.000000  1
  Er  Er1  1  0.333208  0.667208  0.500000  1
  Fe  Fe2  1  0.059417  0.633617  0.000000  1
  Fe  Fe3  1  0.573843  0.941830  0.000000  1
  Fe  Fe4  1  0.367541  0.427425  0.000000  1
  Fe  Fe5  1  0.273753  0.118052  0.000000  1
  Fe  Fe6  1  0.844219  0.726817  0.000000  1
  Fe  Fe7  1  0.882457  0.153971  0.000000  1
  Fe  Fe8  1  0.953918  0.385009  0.500000  1
  Fe  Fe9  1  0.097284  0.881712  0.500000  1
  Fe  Fe10  1  0.782482  0.901673  0.500000  1
  Fe  Fe11  1  0.116795  0.212994  0.500000  1
  Co  Co12  1  0.433466  0.046739  0.500000  1
  Co  Co13  1  0.613395  0.567239  0.500000  1
  P  P14  1  0.299564  0.887354  0.000000  1
  P  P15  1  0.587285  0.700905  0.000000  1
  P  P16  1  0.111965  0.413562  0.000000  1
  P  P17  1  0.393413  0.287778  0.500000  1
  P  P18  1  0.894399  0.604721  0.500000  1
  P  P19  1  0.713581  0.108091  0.500000  1
  P  P20  1  0.000448  0.999211  0.000000  1
