# generated using pymatgen
data_Hf4Al4Re3Pt
_symmetry_space_group_name_H-M   'P 1'
_cell_length_a   5.24260801
_cell_length_b   5.24260892
_cell_length_c   8.59706800
_cell_angle_alpha   90.00000000
_cell_angle_beta   90.00000000
_cell_angle_gamma   119.55166759
_symmetry_Int_Tables_number   1
_chemical_formula_structural   Hf4Al4Re3Pt
_chemical_formula_sum   'Hf4 Al4 Re3 Pt1'
_cell_volume   205.55127631
_cell_formula_units_Z   1
loop_
 _symmetry_equiv_pos_site_id
 _symmetry_equiv_pos_as_xyz
  1  'x, y, z'
loop_
 _atom_site_type_symbol
 _atom_site_label
 _atom_site_symmetry_multiplicity
 _atom_site_fract_x
 _atom_site_fract_y
 _atom_site_fract_z
 _atom_site_occupancy
  Hf  Hf0  1  0.333217  0.666783  0.193272  1
  Hf  Hf1  1  0.665942  0.334058  0.320014  1
  Hf  Hf2  1  0.665942  0.334058  0.679986  1
  Hf  Hf3  1  0.333217  0.666783  0.806728  1
  Al  Al4  1  0.996567  0.003433  0.246168  1
  Al  Al5  1  0.996567  0.003433  0.753832  1
  Al  Al6  1  0.832024  0.651339  0.000000  1
  Al  Al7  1  0.348661  0.167976  0.000000  1
  Re  Re8  1  0.166913  0.340580  0.500000  1
  Re  Re9  1  0.659420  0.833087  0.500000  1
  Re  Re10  1  0.167670  0.832330  0.500000  1
  Pt  Pt11  1  0.833868  0.166132  0.000000  1
