# generated using pymatgen
data_Tl3SbO7
_symmetry_space_group_name_H-M   'P 1'
_cell_length_a   6.55592234
_cell_length_b   6.55592127
_cell_length_c   7.57415100
_cell_angle_alpha   90.00000000
_cell_angle_beta   90.00000000
_cell_angle_gamma   69.81967809
_symmetry_Int_Tables_number   1
_chemical_formula_structural   Tl3SbO7
_chemical_formula_sum   'Tl6 Sb2 O14'
_cell_volume   305.55358731
_cell_formula_units_Z   2
loop_
 _symmetry_equiv_pos_site_id
 _symmetry_equiv_pos_as_xyz
  1  'x, y, z'
loop_
 _atom_site_type_symbol
 _atom_site_label
 _atom_site_symmetry_multiplicity
 _atom_site_fract_x
 _atom_site_fract_y
 _atom_site_fract_z
 _atom_site_occupancy
  Tl  Tl0  1  0.000000  0.000000  0.000000  1
  Tl  Tl1  1  0.494277  0.029192  0.250000  1
  Tl  Tl2  1  0.970808  0.505723  0.250000  1
  Tl  Tl3  1  0.000000  0.000000  0.500000  1
  Tl  Tl4  1  0.029192  0.494277  0.750000  1
  Tl  Tl5  1  0.505723  0.970808  0.750000  1
  Sb  Sb6  1  0.500000  0.500000  0.000000  1
  Sb  Sb7  1  0.500000  0.500000  0.500000  1
  O  O8  1  0.177454  0.565037  0.018458  1
  O  O9  1  0.434963  0.822546  0.018458  1
  O  O10  1  0.124277  0.141333  0.250000  1
  O  O11  1  0.562001  0.437999  0.250000  1
  O  O12  1  0.858667  0.875723  0.250000  1
  O  O13  1  0.177454  0.565037  0.481543  1
  O  O14  1  0.434963  0.822546  0.481543  1
  O  O15  1  0.565037  0.177454  0.518458  1
  O  O16  1  0.822546  0.434963  0.518458  1
  O  O17  1  0.141333  0.124277  0.750000  1
  O  O18  1  0.437999  0.562001  0.750000  1
  O  O19  1  0.875723  0.858667  0.750000  1
  O  O20  1  0.565037  0.177454  0.981542  1
  O  O21  1  0.822546  0.434963  0.981542  1
