# generated using pymatgen
data_Rb12Sc3FeSe12
_symmetry_space_group_name_H-M   'P 1'
_cell_length_a   10.97268365
_cell_length_b   10.97268525
_cell_length_c   13.84112430
_cell_angle_alpha   89.97672364
_cell_angle_beta   89.97671814
_cell_angle_gamma   140.43589200
_symmetry_Int_Tables_number   1
_chemical_formula_structural   Rb12Sc3FeSe12
_chemical_formula_sum   'Rb12 Sc3 Fe1 Se12'
_cell_volume   1061.44176162
_cell_formula_units_Z   1
loop_
 _symmetry_equiv_pos_site_id
 _symmetry_equiv_pos_as_xyz
  1  'x, y, z'
loop_
 _atom_site_type_symbol
 _atom_site_label
 _atom_site_symmetry_multiplicity
 _atom_site_fract_x
 _atom_site_fract_y
 _atom_site_fract_z
 _atom_site_occupancy
  Rb  Rb0  1  0.855836  0.852267  0.670470  1
  Rb  Rb1  1  0.147733  0.144164  0.329530  1
  Rb  Rb2  1  0.644127  0.645073  0.174881  1
  Rb  Rb3  1  0.354927  0.355873  0.825119  1
  Rb  Rb4  1  0.172317  0.534203  0.132830  1
  Rb  Rb5  1  0.465797  0.827683  0.867170  1
  Rb  Rb6  1  0.969896  0.332937  0.629280  1
  Rb  Rb7  1  0.667063  0.030104  0.370720  1
  Rb  Rb8  1  0.826070  0.466273  0.867553  1
  Rb  Rb9  1  0.533727  0.173930  0.132447  1
  Rb  Rb10  1  0.013590  0.657006  0.374150  1
  Rb  Rb11  1  0.342994  0.986410  0.625850  1
  Sc  Sc12  1  0.914633  0.085367  0.000000  1
  Sc  Sc13  1  0.419825  0.580175  0.500000  1
  Sc  Sc14  1  0.084587  0.915413  0.000000  1
  Fe  Fe15  1  0.582838  0.417162  0.500000  1
  Se  Se16  1  0.294243  0.282032  0.578184  1
  Se  Se17  1  0.717968  0.705757  0.421816  1
  Se  Se18  1  0.215821  0.216373  0.079791  1
  Se  Se19  1  0.783627  0.784179  0.920209  1
  Se  Se20  1  0.677541  0.984841  0.122067  1
  Se  Se21  1  0.015159  0.322459  0.877933  1
  Se  Se22  1  0.519073  0.821344  0.619178  1
  Se  Se23  1  0.178656  0.480927  0.380822  1
  Se  Se24  1  0.319832  0.014828  0.876867  1
  Se  Se25  1  0.985172  0.680168  0.123133  1
  Se  Se26  1  0.493519  0.196572  0.385242  1
  Se  Se27  1  0.803428  0.506481  0.614758  1
