# generated using pymatgen
data_La6Sm2SiPd24
_symmetry_space_group_name_H-M   'P 1'
_cell_length_a   8.50845902
_cell_length_b   8.50845902
_cell_length_c   8.50845902
_cell_angle_alpha   90.00592575
_cell_angle_beta   89.99407425
_cell_angle_gamma   89.99407425
_symmetry_Int_Tables_number   1
_chemical_formula_structural   La6Sm2SiPd24
_chemical_formula_sum   'La6 Sm2 Si1 Pd24'
_cell_volume   615.96030856
_cell_formula_units_Z   1
loop_
 _symmetry_equiv_pos_site_id
 _symmetry_equiv_pos_as_xyz
  1  'x, y, z'
loop_
 _atom_site_type_symbol
 _atom_site_label
 _atom_site_symmetry_multiplicity
 _atom_site_fract_x
 _atom_site_fract_y
 _atom_site_fract_z
 _atom_site_occupancy
  La  La0  1  0.254350  0.254091  0.254091  1
  La  La1  1  0.745650  0.745909  0.745909  1
  La  La2  1  0.745909  0.745650  0.254091  1
  La  La3  1  0.745909  0.254091  0.745650  1
  La  La4  1  0.254091  0.254350  0.745909  1
  La  La5  1  0.254091  0.745909  0.254350  1
  Sm  Sm6  1  0.253350  0.746650  0.746650  1
  Sm  Sm7  1  0.746650  0.253350  0.253350  1
  Si  Si8  1  0.000000  0.000000  0.000000  1
  Pd  Pd9  1  0.257030  0.501147  0.998771  1
  Pd  Pd10  1  0.742970  0.498853  0.001229  1
  Pd  Pd11  1  0.998771  0.257030  0.498853  1
  Pd  Pd12  1  0.501147  0.257030  0.001229  1
  Pd  Pd13  1  0.001229  0.742970  0.501147  1
  Pd  Pd14  1  0.498853  0.742970  0.998771  1
  Pd  Pd15  1  0.501147  0.001229  0.257030  1
  Pd  Pd16  1  0.257030  0.998771  0.501147  1
  Pd  Pd17  1  0.498853  0.998771  0.742970  1
  Pd  Pd18  1  0.742970  0.001229  0.498853  1
  Pd  Pd19  1  0.998771  0.498853  0.257030  1
  Pd  Pd20  1  0.001229  0.501147  0.742970  1
  Pd  Pd21  1  0.252116  0.501321  0.501321  1
  Pd  Pd22  1  0.747884  0.498679  0.498679  1
  Pd  Pd23  1  0.501321  0.252116  0.498679  1
  Pd  Pd24  1  0.498679  0.747884  0.501321  1
  Pd  Pd25  1  0.501321  0.498679  0.252116  1
  Pd  Pd26  1  0.498679  0.501321  0.747884  1
  Pd  Pd27  1  0.280568  0.998440  0.998440  1
  Pd  Pd28  1  0.719432  0.001560  0.001560  1
  Pd  Pd29  1  0.998440  0.280568  0.001560  1
  Pd  Pd30  1  0.001560  0.719432  0.998440  1
  Pd  Pd31  1  0.998440  0.001560  0.280568  1
  Pd  Pd32  1  0.001560  0.998440  0.719432  1
