# generated using pymatgen
data_Sr2Fe5Mo(PO4)6
_symmetry_space_group_name_H-M   'P 1'
_cell_length_a   9.35026496
_cell_length_b   9.34889862
_cell_length_c   9.35026512
_cell_angle_alpha   138.59699027
_cell_angle_beta   109.60479664
_cell_angle_gamma   85.09467042
_symmetry_Int_Tables_number   1
_chemical_formula_structural   Sr2Fe5Mo(PO4)6
_chemical_formula_sum   'Sr2 Fe5 Mo1 P6 O24'
_cell_volume   490.77379031
_cell_formula_units_Z   1
loop_
 _symmetry_equiv_pos_site_id
 _symmetry_equiv_pos_as_xyz
  1  'x, y, z'
loop_
 _atom_site_type_symbol
 _atom_site_label
 _atom_site_symmetry_multiplicity
 _atom_site_fract_x
 _atom_site_fract_y
 _atom_site_fract_z
 _atom_site_occupancy
  Sr  Sr0  1  0.748099  0.148574  0.400475  1
  Sr  Sr1  1  0.251901  0.851426  0.599525  1
  Fe  Fe2  1  0.615304  0.614434  0.495111  1
  Fe  Fe3  1  0.384696  0.385566  0.504889  1
  Fe  Fe4  1  0.119323  0.614434  0.999130  1
  Fe  Fe5  1  0.880677  0.385566  0.000870  1
  Fe  Fe6  1  0.500000  0.500000  0.000000  1
  Mo  Mo7  1  0.000000  0.000000  0.000000  1
  P  P8  1  0.325412  0.823369  0.999913  1
  P  P9  1  0.751650  0.657368  0.905717  1
  P  P10  1  0.176544  0.176631  0.502042  1
  P  P11  1  0.674588  0.176631  0.000087  1
  P  P12  1  0.248350  0.342632  0.094283  1
  P  P13  1  0.823456  0.823369  0.497958  1
  O  O14  1  0.578217  0.929519  0.781090  1
  O  O15  1  0.072276  0.295960  0.640663  1
  O  O16  1  0.846051  0.883095  0.037044  1
  O  O17  1  0.344704  0.704040  0.776317  1
  O  O18  1  0.137574  0.207225  0.345142  1
  O  O19  1  0.334174  0.281920  0.947746  1
  O  O20  1  0.644006  0.706727  0.351711  1
  O  O21  1  0.862426  0.792775  0.654858  1
  O  O22  1  0.363958  0.488385  0.354116  1
  O  O23  1  0.148430  0.929519  0.351303  1
  O  O24  1  0.644984  0.293273  0.937279  1
  O  O25  1  0.636042  0.511615  0.645884  1
  O  O26  1  0.862082  0.207225  0.069650  1
  O  O27  1  0.851570  0.070481  0.648697  1
  O  O28  1  0.355016  0.706727  0.062721  1
  O  O29  1  0.355994  0.293273  0.648289  1
  O  O30  1  0.665826  0.718080  0.052254  1
  O  O31  1  0.927724  0.704040  0.359337  1
  O  O32  1  0.153949  0.116904  0.962956  1
  O  O33  1  0.865731  0.511615  0.875573  1
  O  O34  1  0.134269  0.488385  0.124427  1
  O  O35  1  0.137918  0.792775  0.930350  1
  O  O36  1  0.655296  0.295960  0.223683  1
  O  O37  1  0.421783  0.070481  0.218910  1
