# generated using pymatgen
data_LiHgPd3Pt(PbO7)2
_symmetry_space_group_name_H-M   'P 1'
_cell_length_a   7.23627700
_cell_length_b   7.11549621
_cell_length_c   7.23627700
_cell_angle_alpha   59.41281799
_cell_angle_beta   60.01570145
_cell_angle_gamma   59.41282273
_symmetry_Int_Tables_number   1
_chemical_formula_structural   LiHgPd3Pt(PbO7)2
_chemical_formula_sum   'Li1 Hg1 Pd3 Pt1 Pb2 O14'
_cell_volume   261.13140787
_cell_formula_units_Z   1
loop_
 _symmetry_equiv_pos_site_id
 _symmetry_equiv_pos_as_xyz
  1  'x, y, z'
loop_
 _atom_site_type_symbol
 _atom_site_label
 _atom_site_symmetry_multiplicity
 _atom_site_fract_x
 _atom_site_fract_y
 _atom_site_fract_z
 _atom_site_occupancy
  Li  Li0  1  0.125000  0.125000  0.625000  1
  Hg  Hg1  1  0.125000  0.625000  0.125000  1
  Pd  Pd2  1  0.625000  0.625000  0.125000  1
  Pd  Pd3  1  0.625000  0.125000  0.625000  1
  Pd  Pd4  1  0.125000  0.625000  0.625000  1
  Pt  Pt5  1  0.625000  0.625000  0.625000  1
  Pb  Pb6  1  0.125000  0.125000  0.125000  1
  Pb  Pb7  1  0.625000  0.125000  0.125000  1
  O  O8  1  0.711160  0.286595  0.289934  1
  O  O9  1  0.710400  0.283522  0.719030  1
  O  O10  1  0.997799  0.012501  0.991053  1
  O  O11  1  0.290639  0.714639  0.289763  1
  O  O12  1  0.702859  0.714629  0.291927  1
  O  O13  1  0.953085  0.541034  0.547318  1
  O  O14  1  0.296915  0.708966  0.702682  1
  O  O15  1  0.252201  0.237499  0.258947  1
  O  O16  1  0.959361  0.535361  0.960237  1
  O  O17  1  0.539600  0.966478  0.530970  1
  O  O18  1  0.547141  0.535371  0.958073  1
  O  O19  1  0.963396  0.968316  0.531640  1
  O  O20  1  0.538840  0.963405  0.960066  1
  O  O21  1  0.286604  0.281684  0.718360  1
