# generated using pymatgen
data_SmCo3SiB
_symmetry_space_group_name_H-M   'P 1'
_cell_length_a   5.19508500
_cell_length_b   5.19492674
_cell_length_c   6.45624400
_cell_angle_alpha   90.00000000
_cell_angle_beta   90.00000000
_cell_angle_gamma   120.00152253
_symmetry_Int_Tables_number   1
_chemical_formula_structural   SmCo3SiB
_chemical_formula_sum   'Sm2 Co6 Si2 B2'
_cell_volume   150.89539582
_cell_formula_units_Z   2
loop_
 _symmetry_equiv_pos_site_id
 _symmetry_equiv_pos_as_xyz
  1  'x, y, z'
loop_
 _atom_site_type_symbol
 _atom_site_label
 _atom_site_symmetry_multiplicity
 _atom_site_fract_x
 _atom_site_fract_y
 _atom_site_fract_z
 _atom_site_occupancy
  Sm  Sm0  1  0.999973  0.000000  0.000000  1
  Sm  Sm1  1  0.999991  0.999999  0.500000  1
  Co  Co2  1  0.499988  0.000000  0.283503  1
  Co  Co3  1  0.499986  0.500003  0.283477  1
  Co  Co4  1  0.999984  0.499997  0.283465  1
  Co  Co5  1  0.499988  0.000000  0.716497  1
  Co  Co6  1  0.499986  0.500003  0.716522  1
  Co  Co7  1  0.999984  0.499997  0.716534  1
  Si  Si8  1  0.333343  0.666723  0.000000  1
  Si  Si9  1  0.666607  0.333278  0.000000  1
  B  B10  1  0.333304  0.666650  0.500000  1
  B  B11  1  0.666665  0.333350  0.500000  1
