# generated using pymatgen
data_Rb2UV3S8
_symmetry_space_group_name_H-M   'P 1'
_cell_length_a   6.15448500
_cell_length_b   7.16720816
_cell_length_c   15.86817600
_cell_angle_alpha   90.19417042
_cell_angle_beta   90.00000000
_cell_angle_gamma   90.00000000
_symmetry_Int_Tables_number   1
_chemical_formula_structural   Rb2UV3S8
_chemical_formula_sum   'Rb4 U2 V6 S16'
_cell_volume   699.94876283
_cell_formula_units_Z   2
loop_
 _symmetry_equiv_pos_site_id
 _symmetry_equiv_pos_as_xyz
  1  'x, y, z'
loop_
 _atom_site_type_symbol
 _atom_site_label
 _atom_site_symmetry_multiplicity
 _atom_site_fract_x
 _atom_site_fract_y
 _atom_site_fract_z
 _atom_site_occupancy
  Rb  Rb0  1  0.349465  0.000000  0.000000  1
  Rb  Rb1  1  0.650535  0.500000  0.500000  1
  Rb  Rb2  1  0.014716  0.000000  0.500000  1
  Rb  Rb3  1  0.985284  0.500000  0.000000  1
  U  U4  1  0.500000  0.250000  0.250000  1
  U  U5  1  0.500000  0.750000  0.750000  1
  V  V6  1  0.015764  0.975835  0.248047  1
  V  V7  1  0.015764  0.024165  0.751953  1
  V  V8  1  0.984236  0.524165  0.251953  1
  V  V9  1  0.984236  0.475835  0.748047  1
  V  V10  1  0.500000  0.750000  0.250000  1
  V  V11  1  0.500000  0.250000  0.750000  1
  S  S12  1  0.859713  0.251761  0.336036  1
  S  S13  1  0.859713  0.748239  0.663964  1
  S  S14  1  0.171340  0.744246  0.161839  1
  S  S15  1  0.171340  0.255754  0.838161  1
  S  S16  1  0.140287  0.248239  0.163964  1
  S  S17  1  0.140287  0.751761  0.836036  1
  S  S18  1  0.828660  0.755754  0.338161  1
  S  S19  1  0.828660  0.244246  0.661839  1
  S  S20  1  0.682811  0.982305  0.162724  1
  S  S21  1  0.682811  0.017695  0.837276  1
  S  S22  1  0.317189  0.517695  0.337276  1
  S  S23  1  0.317189  0.482305  0.662724  1
  S  S24  1  0.332257  0.980702  0.340419  1
  S  S25  1  0.332257  0.019298  0.659581  1
  S  S26  1  0.667743  0.519298  0.159581  1
  S  S27  1  0.667743  0.480702  0.840419  1
