# generated using pymatgen
data_K3V2Cu3Te8
_symmetry_space_group_name_H-M   'P 1'
_cell_length_a   5.91830444
_cell_length_b   13.20954170
_cell_length_c   14.57903245
_cell_angle_alpha   70.56309378
_cell_angle_beta   78.28911455
_cell_angle_gamma   77.05495641
_symmetry_Int_Tables_number   1
_chemical_formula_structural   K3V2Cu3Te8
_chemical_formula_sum   'K6 V4 Cu6 Te16'
_cell_volume   1037.21065136
_cell_formula_units_Z   2
loop_
 _symmetry_equiv_pos_site_id
 _symmetry_equiv_pos_as_xyz
  1  'x, y, z'
loop_
 _atom_site_type_symbol
 _atom_site_label
 _atom_site_symmetry_multiplicity
 _atom_site_fract_x
 _atom_site_fract_y
 _atom_site_fract_z
 _atom_site_occupancy
  K  K0  1  0.730979  0.712212  0.908566  1
  K  K1  1  0.351756  0.787788  0.591434  1
  K  K2  1  0.269021  0.287788  0.091434  1
  K  K3  1  0.648244  0.212212  0.408566  1
  K  K4  1  0.000000  0.500000  0.500000  1
  K  K5  1  0.000000  0.000000  0.000000  1
  V  V6  1  0.156500  0.468213  0.777766  1
  V  V7  1  0.402478  0.031787  0.722234  1
  V  V8  1  0.843500  0.531787  0.222234  1
  V  V9  1  0.597522  0.968213  0.277766  1
  Cu  Cu10  1  0.270903  0.250000  0.750000  1
  Cu  Cu11  1  0.729097  0.750000  0.250000  1
  Cu  Cu12  1  0.901651  0.031958  0.723240  1
  Cu  Cu13  1  0.656848  0.468042  0.776760  1
  Cu  Cu14  1  0.098349  0.968042  0.276760  1
  Cu  Cu15  1  0.343152  0.531958  0.223240  1
  Te  Te16  1  0.942413  0.310247  0.878603  1
  Te  Te17  1  0.131263  0.189753  0.621397  1
  Te  Te18  1  0.057587  0.689753  0.121397  1
  Te  Te19  1  0.868737  0.810247  0.378603  1
  Te  Te20  1  0.485998  0.412073  0.652204  1
  Te  Te21  1  0.550275  0.087927  0.847796  1
  Te  Te22  1  0.514002  0.587927  0.347796  1
  Te  Te23  1  0.449725  0.912073  0.152204  1
  Te  Te24  1  0.881497  0.630494  0.685747  1
  Te  Te25  1  0.197738  0.869506  0.814253  1
  Te  Te26  1  0.118503  0.369506  0.314253  1
  Te  Te27  1  0.802262  0.130494  0.185747  1
  Te  Te28  1  0.731780  0.968560  0.605232  1
  Te  Te29  1  0.305573  0.531440  0.894768  1
  Te  Te30  1  0.268220  0.031440  0.394768  1
  Te  Te31  1  0.694427  0.468560  0.105232  1
