# generated using pymatgen
data_Sc3Zn2Ge(B2Rh5)2
_symmetry_space_group_name_H-M   'P 1'
_cell_length_a   9.35562833
_cell_length_b   9.33856007
_cell_length_c   3.03869800
_cell_angle_alpha   90.00000000
_cell_angle_beta   90.00000000
_cell_angle_gamma   90.70295982
_symmetry_Int_Tables_number   1
_chemical_formula_structural   Sc3Zn2Ge(B2Rh5)2
_chemical_formula_sum   'Sc3 Zn2 Ge1 B4 Rh10'
_cell_volume   265.46528106
_cell_formula_units_Z   1
loop_
 _symmetry_equiv_pos_site_id
 _symmetry_equiv_pos_as_xyz
  1  'x, y, z'
loop_
 _atom_site_type_symbol
 _atom_site_label
 _atom_site_symmetry_multiplicity
 _atom_site_fract_x
 _atom_site_fract_y
 _atom_site_fract_z
 _atom_site_occupancy
  Sc  Sc0  1  0.328828  0.178401  0.000000  1
  Sc  Sc1  1  0.674126  0.823723  0.000000  1
  Sc  Sc2  1  0.171853  0.670210  0.000000  1
  Zn  Zn3  1  0.815779  0.325881  0.000000  1
  Zn  Zn4  1  0.498051  0.501801  0.000000  1
  Ge  Ge5  1  0.002191  0.998029  0.000000  1
  B  B6  1  0.626012  0.131256  0.000000  1
  B  B7  1  0.127837  0.375873  0.000000  1
  B  B8  1  0.871053  0.622170  0.000000  1
  B  B9  1  0.379063  0.874115  0.000000  1
  Rh  Rh10  1  0.072540  0.212378  0.500000  1
  Rh  Rh11  1  0.216299  0.930574  0.500000  1
  Rh  Rh12  1  0.788707  0.070140  0.500000  1
  Rh  Rh13  1  0.932869  0.783245  0.500000  1
  Rh  Rh14  1  0.426233  0.718275  0.500000  1
  Rh  Rh15  1  0.576046  0.286111  0.500000  1
  Rh  Rh16  1  0.715846  0.572982  0.500000  1
  Rh  Rh17  1  0.281039  0.430940  0.500000  1
  Rh  Rh18  1  0.502174  0.001847  0.500000  1
  Rh  Rh19  1  0.993454  0.492048  0.500000  1
