# generated using pymatgen
data_BeFe4B2P
_symmetry_space_group_name_H-M   'P 1'
_cell_length_a   5.26082023
_cell_length_b   5.26081979
_cell_length_c   6.35576393
_cell_angle_alpha   114.44767962
_cell_angle_beta   114.44767552
_cell_angle_gamma   89.99999475
_symmetry_Int_Tables_number   1
_chemical_formula_structural   BeFe4B2P
_chemical_formula_sum   'Be2 Fe8 B4 P2'
_cell_volume   142.62692077
_cell_formula_units_Z   2
loop_
 _symmetry_equiv_pos_site_id
 _symmetry_equiv_pos_as_xyz
  1  'x, y, z'
loop_
 _atom_site_type_symbol
 _atom_site_label
 _atom_site_symmetry_multiplicity
 _atom_site_fract_x
 _atom_site_fract_y
 _atom_site_fract_z
 _atom_site_occupancy
  Be  Be0  1  0.500000  0.500000  0.000000  1
  Be  Be1  1  0.000000  0.000000  0.000000  1
  Fe  Fe2  1  0.049354  0.549354  0.735515  1
  Fe  Fe3  1  0.686160  0.186160  0.735515  1
  Fe  Fe4  1  0.186160  0.049354  0.735515  1
  Fe  Fe5  1  0.549354  0.686160  0.735515  1
  Fe  Fe6  1  0.950646  0.450646  0.264485  1
  Fe  Fe7  1  0.313840  0.813840  0.264485  1
  Fe  Fe8  1  0.813840  0.950646  0.264485  1
  Fe  Fe9  1  0.450646  0.313840  0.264485  1
  B  B10  1  0.382395  0.882395  0.000000  1
  B  B11  1  0.617605  0.117605  0.000000  1
  B  B12  1  0.117605  0.382395  0.000000  1
  B  B13  1  0.882395  0.617605  0.000000  1
  P  P14  1  0.250000  0.250000  0.500000  1
  P  P15  1  0.750000  0.750000  0.500000  1
