# generated using pymatgen
data_La7Pr2Lu(Sn3Cl)2
_symmetry_space_group_name_H-M   'P 1'
_cell_length_a   9.61376500
_cell_length_b   9.61376450
_cell_length_c   6.82920200
_cell_angle_alpha   90.00000000
_cell_angle_beta   90.00000000
_cell_angle_gamma   119.99999141
_symmetry_Int_Tables_number   1
_chemical_formula_structural   La7Pr2Lu(Sn3Cl)2
_chemical_formula_sum   'La7 Pr2 Lu1 Sn6 Cl2'
_cell_volume   546.62263243
_cell_formula_units_Z   1
loop_
 _symmetry_equiv_pos_site_id
 _symmetry_equiv_pos_as_xyz
  1  'x, y, z'
loop_
 _atom_site_type_symbol
 _atom_site_label
 _atom_site_symmetry_multiplicity
 _atom_site_fract_x
 _atom_site_fract_y
 _atom_site_fract_z
 _atom_site_occupancy
  La  La0  1  0.333333  0.666667  0.000000  1
  La  La1  1  0.738432  0.000172  0.750944  1
  La  La2  1  0.738432  0.738260  0.249056  1
  La  La3  1  0.999828  0.261568  0.249056  1
  La  La4  1  0.999828  0.738260  0.750944  1
  La  La5  1  0.261740  0.261568  0.750944  1
  La  La6  1  0.261740  0.000172  0.249056  1
  Pr  Pr7  1  0.333333  0.666667  0.500000  1
  Pr  Pr8  1  0.666667  0.333333  0.500000  1
  Lu  Lu9  1  0.666667  0.333333  0.000000  1
  Sn  Sn10  1  0.613422  0.607987  0.753650  1
  Sn  Sn11  1  0.994565  0.607987  0.246350  1
  Sn  Sn12  1  0.613422  0.005435  0.246350  1
  Sn  Sn13  1  0.392013  0.005435  0.753650  1
  Sn  Sn14  1  0.994565  0.386578  0.753650  1
  Sn  Sn15  1  0.392013  0.386578  0.246350  1
  Cl  Cl16  1  0.000000  0.000000  0.500000  1
  Cl  Cl17  1  0.000000  0.000000  0.000000  1
