# generated using pymatgen
data_Er2ZnIrRu
_symmetry_space_group_name_H-M   'P 1'
_cell_length_a   5.43435391
_cell_length_b   5.43435283
_cell_length_c   5.43435284
_cell_angle_alpha   135.04579402
_cell_angle_beta   115.13134761
_cell_angle_gamma   82.39363371
_symmetry_Int_Tables_number   1
_chemical_formula_structural   Er2ZnIrRu
_chemical_formula_sum   'Er2 Zn1 Ir1 Ru1'
_cell_volume   99.04593514
_cell_formula_units_Z   1
loop_
 _symmetry_equiv_pos_site_id
 _symmetry_equiv_pos_as_xyz
  1  'x, y, z'
loop_
 _atom_site_type_symbol
 _atom_site_label
 _atom_site_symmetry_multiplicity
 _atom_site_fract_x
 _atom_site_fract_y
 _atom_site_fract_z
 _atom_site_occupancy
  Er  Er0  1  0.706989  0.206408  0.500581  1
  Er  Er1  1  0.294170  0.793590  0.500579  1
  Zn  Zn2  1  0.996965  0.000000  0.996965  1
  Ir  Ir3  1  0.276720  0.499999  0.776719  1
  Ru  Ru4  1  0.725155  0.499999  0.225155  1
