# generated using pymatgen
data_Ho10AlBi5
_symmetry_space_group_name_H-M   'P 1'
_cell_length_a   8.18388600
_cell_length_b   9.44694300
_cell_length_c   11.97724700
_cell_angle_alpha   90.00000000
_cell_angle_beta   90.00000000
_cell_angle_gamma   90.00000000
_symmetry_Int_Tables_number   1
_chemical_formula_structural   Ho10AlBi5
_chemical_formula_sum   'Ho20 Al2 Bi10'
_cell_volume   925.99335876
_cell_formula_units_Z   2
loop_
 _symmetry_equiv_pos_site_id
 _symmetry_equiv_pos_as_xyz
  1  'x, y, z'
loop_
 _atom_site_type_symbol
 _atom_site_label
 _atom_site_symmetry_multiplicity
 _atom_site_fract_x
 _atom_site_fract_y
 _atom_site_fract_z
 _atom_site_occupancy
  Ho  Ho0  1  0.354621  0.750000  0.207389  1
  Ho  Ho1  1  0.854621  0.750000  0.292611  1
  Ho  Ho2  1  0.651217  0.250000  0.784280  1
  Ho  Ho3  1  0.151217  0.250000  0.715720  1
  Ho  Ho4  1  0.686071  0.569181  0.056405  1
  Ho  Ho5  1  0.186071  0.930819  0.443595  1
  Ho  Ho6  1  0.307284  0.051804  0.940960  1
  Ho  Ho7  1  0.807284  0.448196  0.559040  1
  Ho  Ho8  1  0.307284  0.448196  0.940960  1
  Ho  Ho9  1  0.807284  0.051804  0.559040  1
  Ho  Ho10  1  0.686071  0.930819  0.056405  1
  Ho  Ho11  1  0.186071  0.569181  0.443595  1
  Ho  Ho12  1  0.478016  0.250000  0.489574  1
  Ho  Ho13  1  0.978016  0.250000  0.010426  1
  Ho  Ho14  1  0.534048  0.750000  0.509903  1
  Ho  Ho15  1  0.034048  0.750000  0.990097  1
  Ho  Ho16  1  0.312511  0.250000  0.219212  1
  Ho  Ho17  1  0.812511  0.250000  0.280788  1
  Ho  Ho18  1  0.680719  0.750000  0.783342  1
  Ho  Ho19  1  0.180719  0.750000  0.716658  1
  Al  Al20  1  0.409846  0.750000  0.957854  1
  Al  Al21  1  0.909846  0.750000  0.542146  1
  Bi  Bi22  1  0.592916  0.250000  0.042334  1
  Bi  Bi23  1  0.092916  0.250000  0.457666  1
  Bi  Bi24  1  0.562631  0.996846  0.324726  1
  Bi  Bi25  1  0.062631  0.503154  0.175274  1
  Bi  Bi26  1  0.437066  0.497840  0.676628  1
  Bi  Bi27  1  0.937066  0.002160  0.823372  1
  Bi  Bi28  1  0.437066  0.002160  0.676628  1
  Bi  Bi29  1  0.937066  0.497840  0.823372  1
  Bi  Bi30  1  0.562631  0.503154  0.324726  1
  Bi  Bi31  1  0.062631  0.996846  0.175274  1
