# generated using pymatgen
data_YbEr9Tl6(InPt2)2
_symmetry_space_group_name_H-M   'P 1'
_cell_length_a   3.59780000
_cell_length_b   8.21893026
_cell_length_c   18.33515624
_cell_angle_alpha   89.73124182
_cell_angle_beta   90.00000000
_cell_angle_gamma   90.00000000
_symmetry_Int_Tables_number   1
_chemical_formula_structural   YbEr9Tl6(InPt2)2
_chemical_formula_sum   'Yb1 Er9 Tl6 In2 Pt4'
_cell_volume   542.16583913
_cell_formula_units_Z   1
loop_
 _symmetry_equiv_pos_site_id
 _symmetry_equiv_pos_as_xyz
  1  'x, y, z'
loop_
 _atom_site_type_symbol
 _atom_site_label
 _atom_site_symmetry_multiplicity
 _atom_site_fract_x
 _atom_site_fract_y
 _atom_site_fract_z
 _atom_site_occupancy
  Yb  Yb0  1  0.000000  0.000000  0.000000  1
  Er  Er1  1  0.000000  0.114928  0.414389  1
  Er  Er2  1  0.000000  0.885072  0.585611  1
  Er  Er3  1  0.000000  0.383710  0.911156  1
  Er  Er4  1  0.000000  0.616290  0.088844  1
  Er  Er5  1  0.000000  0.242320  0.221368  1
  Er  Er6  1  0.000000  0.757680  0.778632  1
  Er  Er7  1  0.000000  0.257412  0.719147  1
  Er  Er8  1  0.000000  0.742588  0.280853  1
  Er  Er9  1  0.000000  0.500000  0.500000  1
  Tl  Tl10  1  0.500000  0.422967  0.354509  1
  Tl  Tl11  1  0.500000  0.577033  0.645491  1
  Tl  Tl12  1  0.500000  0.077451  0.852759  1
  Tl  Tl13  1  0.500000  0.922549  0.147241  1
  Tl  Tl14  1  0.500000  0.293959  0.064496  1
  Tl  Tl15  1  0.500000  0.706041  0.935504  1
  In  In16  1  0.500000  0.206204  0.564847  1
  In  In17  1  0.500000  0.793796  0.435153  1
  Pt  Pt18  1  0.500000  0.022009  0.304812  1
  Pt  Pt19  1  0.500000  0.977991  0.695188  1
  Pt  Pt20  1  0.500000  0.476143  0.801674  1
  Pt  Pt21  1  0.500000  0.523857  0.198326  1
