# generated using pymatgen
data_NaAc(PtRh)2
_symmetry_space_group_name_H-M   'P 1'
_cell_length_a   5.47260270
_cell_length_b   5.47260109
_cell_length_c   5.47260200
_cell_angle_alpha   119.60047206
_cell_angle_beta   120.51953068
_cell_angle_gamma   89.89794319
_symmetry_Int_Tables_number   1
_chemical_formula_structural   NaAc(PtRh)2
_chemical_formula_sum   'Na1 Ac1 Pt2 Rh2'
_cell_volume   115.78087279
_cell_formula_units_Z   1
loop_
 _symmetry_equiv_pos_site_id
 _symmetry_equiv_pos_as_xyz
  1  'x, y, z'
loop_
 _atom_site_type_symbol
 _atom_site_label
 _atom_site_symmetry_multiplicity
 _atom_site_fract_x
 _atom_site_fract_y
 _atom_site_fract_z
 _atom_site_occupancy
  Na  Na0  1  0.875939  0.125939  0.750000  1
  Ac  Ac1  1  0.123913  0.873913  0.250000  1
  Pt  Pt2  1  0.500496  0.498696  0.498200  1
  Pt  Pt3  1  0.500496  0.002297  0.001800  1
  Rh  Rh4  1  0.499286  0.499577  0.999709  1
  Rh  Rh5  1  0.999867  0.499577  0.500291  1
