# generated using pymatgen
data_Y5Ho4Er3Os4
_symmetry_space_group_name_H-M   'P 1'
_cell_length_a   6.30328305
_cell_length_b   7.40929257
_cell_length_c   9.03181428
_cell_angle_alpha   89.98944346
_cell_angle_beta   90.14345133
_cell_angle_gamma   90.07845326
_symmetry_Int_Tables_number   1
_chemical_formula_structural   Y5Ho4Er3Os4
_chemical_formula_sum   'Y5 Ho4 Er3 Os4'
_cell_volume   421.80990799
_cell_formula_units_Z   1
loop_
 _symmetry_equiv_pos_site_id
 _symmetry_equiv_pos_as_xyz
  1  'x, y, z'
loop_
 _atom_site_type_symbol
 _atom_site_label
 _atom_site_symmetry_multiplicity
 _atom_site_fract_x
 _atom_site_fract_y
 _atom_site_fract_z
 _atom_site_occupancy
  Y  Y0  1  0.332848  0.675724  0.062673  1
  Y  Y1  1  0.870600  0.538272  0.250535  1
  Y  Y2  1  0.629090  0.038359  0.250300  1
  Y  Y3  1  0.129159  0.461756  0.749434  1
  Y  Y4  1  0.371000  0.961866  0.749420  1
  Ho  Ho5  1  0.167037  0.175244  0.436959  1
  Ho  Ho6  1  0.667215  0.324789  0.562801  1
  Ho  Ho7  1  0.832732  0.825266  0.936658  1
  Ho  Ho8  1  0.667620  0.324558  0.936833  1
  Er  Er9  1  0.832981  0.824951  0.562921  1
  Er  Er10  1  0.332829  0.674899  0.437316  1
  Er  Er11  1  0.167042  0.174944  0.063120  1
  Os  Os12  1  0.042933  0.883483  0.251086  1
  Os  Os13  1  0.456256  0.381921  0.251016  1
  Os  Os14  1  0.956136  0.116884  0.750240  1
  Os  Os15  1  0.544522  0.617088  0.748688  1
