# generated using pymatgen
data_Lu16Cd4Ni3Ru
_symmetry_space_group_name_H-M   'P 1'
_cell_length_a   9.37570006
_cell_length_b   9.37570053
_cell_length_c   9.37570078
_cell_angle_alpha   59.83957951
_cell_angle_beta   59.83957578
_cell_angle_gamma   59.83957951
_symmetry_Int_Tables_number   1
_chemical_formula_structural   Lu16Cd4Ni3Ru
_chemical_formula_sum   'Lu16 Cd4 Ni3 Ru1'
_cell_volume   580.64688639
_cell_formula_units_Z   1
loop_
 _symmetry_equiv_pos_site_id
 _symmetry_equiv_pos_as_xyz
  1  'x, y, z'
loop_
 _atom_site_type_symbol
 _atom_site_label
 _atom_site_symmetry_multiplicity
 _atom_site_fract_x
 _atom_site_fract_y
 _atom_site_fract_z
 _atom_site_occupancy
  Lu  Lu0  1  0.347678  0.347678  0.347678  1
  Lu  Lu1  1  0.349615  0.349615  0.956774  1
  Lu  Lu2  1  0.349615  0.956774  0.349615  1
  Lu  Lu3  1  0.956774  0.349615  0.349615  1
  Lu  Lu4  1  0.810968  0.187746  0.187746  1
  Lu  Lu5  1  0.187425  0.810980  0.810980  1
  Lu  Lu6  1  0.187746  0.810968  0.187746  1
  Lu  Lu7  1  0.810980  0.187425  0.810980  1
  Lu  Lu8  1  0.187746  0.187746  0.810968  1
  Lu  Lu9  1  0.810980  0.810980  0.187425  1
  Lu  Lu10  1  0.935762  0.564262  0.564262  1
  Lu  Lu11  1  0.559052  0.938119  0.938119  1
  Lu  Lu12  1  0.564262  0.935762  0.564262  1
  Lu  Lu13  1  0.938119  0.559052  0.938119  1
  Lu  Lu14  1  0.564262  0.564262  0.935762  1
  Lu  Lu15  1  0.938119  0.938119  0.559052  1
  Cd  Cd16  1  0.580782  0.580782  0.580782  1
  Cd  Cd17  1  0.580834  0.580834  0.255744  1
  Cd  Cd18  1  0.580834  0.255744  0.580834  1
  Cd  Cd19  1  0.255744  0.580834  0.580834  1
  Ni  Ni20  1  0.142081  0.142081  0.575940  1
  Ni  Ni21  1  0.142081  0.575940  0.142081  1
  Ni  Ni22  1  0.575940  0.142081  0.142081  1
  Ru  Ru23  1  0.142600  0.142600  0.142600  1
