# generated using pymatgen
data_Pm4Pu3Ta3O24
_symmetry_space_group_name_H-M   'P 1'
_cell_length_a   7.06832401
_cell_length_b   7.21706014
_cell_length_c   11.71679500
_cell_angle_alpha   79.84329938
_cell_angle_beta   79.60050114
_cell_angle_gamma   113.25260753
_symmetry_Int_Tables_number   1
_chemical_formula_structural   Pm4Pu3Ta3O24
_chemical_formula_sum   'Pm4 Pu3 Ta3 O24'
_cell_volume   519.46254967
_cell_formula_units_Z   1
loop_
 _symmetry_equiv_pos_site_id
 _symmetry_equiv_pos_as_xyz
  1  'x, y, z'
loop_
 _atom_site_type_symbol
 _atom_site_label
 _atom_site_symmetry_multiplicity
 _atom_site_fract_x
 _atom_site_fract_y
 _atom_site_fract_z
 _atom_site_occupancy
  Pm  Pm0  1  0.162524  0.453803  0.606130  1
  Pm  Pm1  1  0.804878  0.534784  0.402720  1
  Pm  Pm2  1  0.554015  0.841696  0.896512  1
  Pm  Pm3  1  0.451938  0.186396  0.087645  1
  Pu  Pu4  1  0.332278  0.987760  0.417820  1
  Pu  Pu5  1  0.565162  0.430706  0.752085  1
  Pu  Pu6  1  0.426552  0.575045  0.248945  1
  Ta  Ta7  1  0.014038  0.311447  0.959446  1
  Ta  Ta8  1  0.986276  0.701999  0.040419  1
  Ta  Ta9  1  0.716086  0.970247  0.538161  1
  O  O10  1  0.544632  0.426796  0.592880  1
  O  O11  1  0.433066  0.538721  0.409165  1
  O  O12  1  0.560568  0.463596  0.908665  1
  O  O13  1  0.445729  0.586844  0.088375  1
  O  O14  1  0.489085  0.129734  0.801679  1
  O  O15  1  0.447845  0.916899  0.278999  1
  O  O16  1  0.869203  0.487795  0.717053  1
  O  O17  1  0.130031  0.506066  0.286238  1
  O  O18  1  0.730162  0.119954  0.965101  1
  O  O19  1  0.252004  0.865283  0.068193  1
  O  O20  1  0.893240  0.239104  0.548388  1
  O  O21  1  0.088573  0.698789  0.467545  1
  O  O22  1  0.408428  0.808279  0.556606  1
  O  O23  1  0.639405  0.177853  0.414892  1
  O  O24  1  0.172867  0.625532  0.922727  1
  O  O25  1  0.828080  0.395808  0.079730  1
  O  O26  1  0.209177  0.354822  0.797573  1
  O  O27  1  0.759099  0.650492  0.206944  1
  O  O28  1  0.660273  0.788101  0.700013  1
  O  O29  1  0.351896  0.246040  0.274769  1
  O  O30  1  0.885472  0.834109  0.938464  1
  O  O31  1  0.123564  0.190776  0.060221  1
  O  O32  1  0.218852  0.076292  0.537851  1
  O  O33  1  0.845003  0.878428  0.428045  1
