# generated using pymatgen
data_Ca3YCo6(Si6Ni7)2
_symmetry_space_group_name_H-M   'P 1'
_cell_length_a   3.73656800
_cell_length_b   6.81387741
_cell_length_c   18.66236629
_cell_angle_alpha   90.01407237
_cell_angle_beta   90.00000000
_cell_angle_gamma   90.00000000
_symmetry_Int_Tables_number   1
_chemical_formula_structural   Ca3YCo6(Si6Ni7)2
_chemical_formula_sum   'Ca3 Y1 Co6 Si12 Ni14'
_cell_volume   475.15346678
_cell_formula_units_Z   1
loop_
 _symmetry_equiv_pos_site_id
 _symmetry_equiv_pos_as_xyz
  1  'x, y, z'
loop_
 _atom_site_type_symbol
 _atom_site_label
 _atom_site_symmetry_multiplicity
 _atom_site_fract_x
 _atom_site_fract_y
 _atom_site_fract_z
 _atom_site_occupancy
  Ca  Ca0  1  0.250000  0.622094  0.641647  1
  Ca  Ca1  1  0.750000  0.375825  0.358676  1
  Ca  Ca2  1  0.750000  0.124107  0.859386  1
  Y  Y3  1  0.250000  0.877680  0.142293  1
  Co  Co4  1  0.750000  0.385530  0.989075  1
  Co  Co5  1  0.750000  0.114682  0.488933  1
  Co  Co6  1  0.750000  0.641066  0.884216  1
  Co  Co7  1  0.750000  0.859734  0.384102  1
  Co  Co8  1  0.750000  0.938941  0.706261  1
  Co  Co9  1  0.750000  0.562856  0.205625  1
  Si  Si10  1  0.250000  0.838212  0.923892  1
  Si  Si11  1  0.750000  0.152764  0.073163  1
  Si  Si12  1  0.750000  0.346187  0.573475  1
  Si  Si13  1  0.250000  0.660955  0.423802  1
  Si  Si14  1  0.750000  0.629161  0.761911  1
  Si  Si15  1  0.250000  0.377258  0.236812  1
  Si  Si16  1  0.250000  0.419315  0.917581  1
  Si  Si17  1  0.750000  0.582205  0.085591  1
  Si  Si18  1  0.750000  0.918800  0.585592  1
  Si  Si19  1  0.250000  0.080746  0.417613  1
  Si  Si20  1  0.250000  0.123494  0.736939  1
  Si  Si21  1  0.750000  0.871907  0.262066  1
  Ni  Ni22  1  0.250000  0.126561  0.994024  1
  Ni  Ni23  1  0.250000  0.622305  0.014765  1
  Ni  Ni24  1  0.250000  0.357771  0.113744  1
  Ni  Ni25  1  0.250000  0.140874  0.613941  1
  Ni  Ni26  1  0.250000  0.064836  0.294344  1
  Ni  Ni27  1  0.250000  0.435638  0.794378  1
  Ni  Ni28  1  0.750000  0.633349  0.504511  1
  Ni  Ni29  1  0.250000  0.372722  0.494274  1
  Ni  Ni30  1  0.250000  0.815686  0.797812  1
  Ni  Ni31  1  0.750000  0.181570  0.200526  1
  Ni  Ni32  1  0.750000  0.317756  0.701290  1
  Ni  Ni33  1  0.250000  0.684734  0.297695  1
  Ni  Ni34  1  0.250000  0.877464  0.514507  1
  Ni  Ni35  1  0.750000  0.865220  0.005538  1
