# generated using pymatgen
data_Dy3Si2Rh3
_symmetry_space_group_name_H-M   'P 1'
_cell_length_a   5.52852900
_cell_length_b   7.53244300
_cell_length_c   14.88649700
_cell_angle_alpha   90.00000000
_cell_angle_beta   90.00000000
_cell_angle_gamma   90.00000000
_symmetry_Int_Tables_number   1
_chemical_formula_structural   Dy3Si2Rh3
_chemical_formula_sum   'Dy12 Si8 Rh12'
_cell_volume   619.92330066
_cell_formula_units_Z   4
loop_
 _symmetry_equiv_pos_site_id
 _symmetry_equiv_pos_as_xyz
  1  'x, y, z'
loop_
 _atom_site_type_symbol
 _atom_site_label
 _atom_site_symmetry_multiplicity
 _atom_site_fract_x
 _atom_site_fract_y
 _atom_site_fract_z
 _atom_site_occupancy
  Dy  Dy0  1  0.890086  0.831247  0.750000  1
  Dy  Dy1  1  0.867339  0.525479  0.392235  1
  Dy  Dy2  1  0.367339  0.974521  0.607765  1
  Dy  Dy3  1  0.132661  0.474521  0.892235  1
  Dy  Dy4  1  0.632661  0.025480  0.107765  1
  Dy  Dy5  1  0.109914  0.168753  0.250000  1
  Dy  Dy6  1  0.132661  0.474521  0.607765  1
  Dy  Dy7  1  0.632661  0.025480  0.392235  1
  Dy  Dy8  1  0.390086  0.668753  0.250000  1
  Dy  Dy9  1  0.367339  0.974521  0.892235  1
  Dy  Dy10  1  0.609914  0.331247  0.750000  1
  Dy  Dy11  1  0.867339  0.525479  0.107765  1
  Si  Si12  1  0.625314  0.623973  0.896634  1
  Si  Si13  1  0.874686  0.123973  0.603366  1
  Si  Si14  1  0.125314  0.876027  0.103366  1
  Si  Si15  1  0.125314  0.876027  0.396634  1
  Si  Si16  1  0.625314  0.623973  0.603366  1
  Si  Si17  1  0.874686  0.123973  0.896634  1
  Si  Si18  1  0.374686  0.376027  0.103366  1
  Si  Si19  1  0.374686  0.376027  0.396634  1
  Rh  Rh20  1  0.597886  0.331190  0.962158  1
  Rh  Rh21  1  0.097886  0.168810  0.462158  1
  Rh  Rh22  1  0.097886  0.168810  0.037842  1
  Rh  Rh23  1  0.406307  0.680671  0.750000  1
  Rh  Rh24  1  0.902114  0.831190  0.962158  1
  Rh  Rh25  1  0.593693  0.319329  0.250000  1
  Rh  Rh26  1  0.902114  0.831190  0.537842  1
  Rh  Rh27  1  0.906307  0.819329  0.250000  1
  Rh  Rh28  1  0.597886  0.331190  0.537842  1
  Rh  Rh29  1  0.402114  0.668810  0.462158  1
  Rh  Rh30  1  0.093693  0.180671  0.750000  1
  Rh  Rh31  1  0.402114  0.668810  0.037842  1
