# generated using pymatgen
data_Sm13Er(Pa3Rh8)2
_symmetry_space_group_name_H-M   'P 1'
_cell_length_a   7.53205894
_cell_length_b   7.58346238
_cell_length_c   14.48659701
_cell_angle_alpha   90.05707327
_cell_angle_beta   89.53810357
_cell_angle_gamma   89.70749618
_symmetry_Int_Tables_number   1
_chemical_formula_structural   Sm13Er(Pa3Rh8)2
_chemical_formula_sum   'Sm13 Er1 Pa6 Rh16'
_cell_volume   827.42305899
_cell_formula_units_Z   1
loop_
 _symmetry_equiv_pos_site_id
 _symmetry_equiv_pos_as_xyz
  1  'x, y, z'
loop_
 _atom_site_type_symbol
 _atom_site_label
 _atom_site_symmetry_multiplicity
 _atom_site_fract_x
 _atom_site_fract_y
 _atom_site_fract_z
 _atom_site_occupancy
  Sm  Sm0  1  0.166376  0.340578  0.621408  1
  Sm  Sm1  1  0.511846  0.682537  0.591513  1
  Sm  Sm2  1  0.009314  0.822639  0.906102  1
  Sm  Sm3  1  0.493749  0.321823  0.092126  1
  Sm  Sm4  1  0.988693  0.181051  0.409583  1
  Sm  Sm5  1  0.490030  0.318391  0.410707  1
  Sm  Sm6  1  0.993486  0.179276  0.092316  1
  Sm  Sm7  1  0.509334  0.677790  0.906296  1
  Sm  Sm8  1  0.008454  0.820762  0.591679  1
  Sm  Sm9  1  0.816351  0.516113  0.748394  1
  Sm  Sm10  1  0.316438  0.982647  0.748602  1
  Sm  Sm11  1  0.187368  0.477582  0.248911  1
  Sm  Sm12  1  0.687402  0.023036  0.249134  1
  Er  Er13  1  0.664565  0.157603  0.622543  1
  Pa  Pa14  1  0.158913  0.345869  0.880247  1
  Pa  Pa15  1  0.342501  0.844849  0.119256  1
  Pa  Pa16  1  0.836720  0.656208  0.376322  1
  Pa  Pa17  1  0.337070  0.844027  0.375525  1
  Pa  Pa18  1  0.841911  0.656907  0.119007  1
  Pa  Pa19  1  0.658750  0.153490  0.879651  1
  Rh  Rh20  1  0.682888  0.938919  0.454331  1
  Rh  Rh21  1  0.182467  0.548886  0.038492  1
  Rh  Rh22  1  0.319949  0.047717  0.965543  1
  Rh  Rh23  1  0.811832  0.469512  0.528033  1
  Rh  Rh24  1  0.316813  0.025730  0.527974  1
  Rh  Rh25  1  0.820921  0.453762  0.966223  1
  Rh  Rh26  1  0.681673  0.953336  0.038627  1
  Rh  Rh27  1  0.179783  0.562418  0.452185  1
  Rh  Rh28  1  0.459897  0.356089  0.767206  1
  Rh  Rh29  1  0.955024  0.140907  0.766781  1
  Rh  Rh30  1  0.537794  0.650996  0.245393  1
  Rh  Rh31  1  0.038153  0.849843  0.244813  1
  Rh  Rh32  1  0.691773  0.879898  0.756153  1
  Rh  Rh33  1  0.195559  0.617951  0.758845  1
  Rh  Rh34  1  0.303790  0.106791  0.249902  1
  Rh  Rh35  1  0.802416  0.394068  0.250180  1
