# generated using pymatgen
data_NaIn(BrO3)4
_symmetry_space_group_name_H-M   'P 1'
_cell_length_a   4.99133300
_cell_length_b   6.93394616
_cell_length_c   16.38996757
_cell_angle_alpha   78.60017208
_cell_angle_beta   90.00000000
_cell_angle_gamma   90.00000000
_symmetry_Int_Tables_number   1
_chemical_formula_structural   NaIn(BrO3)4
_chemical_formula_sum   'Na2 In2 Br8 O24'
_cell_volume   556.05992915
_cell_formula_units_Z   2
loop_
 _symmetry_equiv_pos_site_id
 _symmetry_equiv_pos_as_xyz
  1  'x, y, z'
loop_
 _atom_site_type_symbol
 _atom_site_label
 _atom_site_symmetry_multiplicity
 _atom_site_fract_x
 _atom_site_fract_y
 _atom_site_fract_z
 _atom_site_occupancy
  Na  Na0  1  0.500000  0.500000  0.000000  1
  Na  Na1  1  0.000000  0.500000  0.500000  1
  In  In2  1  0.500000  0.000000  0.000000  1
  In  In3  1  0.000000  0.000000  0.500000  1
  Br  Br4  1  0.836135  0.667702  0.166504  1
  Br  Br5  1  0.336135  0.332298  0.333496  1
  Br  Br6  1  0.163865  0.332298  0.833496  1
  Br  Br7  1  0.663865  0.667702  0.666504  1
  Br  Br8  1  0.998253  0.182343  0.125423  1
  Br  Br9  1  0.498253  0.817657  0.374577  1
  Br  Br10  1  0.001747  0.817657  0.874577  1
  Br  Br11  1  0.501747  0.182343  0.625423  1
  O  O12  1  0.664775  0.733364  0.069941  1
  O  O13  1  0.164775  0.266636  0.430059  1
  O  O14  1  0.335225  0.266636  0.930059  1
  O  O15  1  0.835225  0.733364  0.569941  1
  O  O16  1  0.733106  0.837701  0.218341  1
  O  O17  1  0.233106  0.162299  0.281659  1
  O  O18  1  0.266894  0.162299  0.781659  1
  O  O19  1  0.766894  0.837701  0.718341  1
  O  O20  1  0.689865  0.453605  0.204109  1
  O  O21  1  0.189865  0.546395  0.295891  1
  O  O22  1  0.310135  0.546395  0.795891  1
  O  O23  1  0.810135  0.453605  0.704109  1
  O  O24  1  0.747309  0.209084  0.050426  1
  O  O25  1  0.247309  0.790916  0.449574  1
  O  O26  1  0.252691  0.790916  0.949574  1
  O  O27  1  0.752691  0.209084  0.550426  1
  O  O28  1  0.195610  0.999402  0.101233  1
  O  O29  1  0.695610  0.000598  0.398767  1
  O  O30  1  0.804390  0.000598  0.898767  1
  O  O31  1  0.304390  0.999402  0.601233  1
  O  O32  1  0.162380  0.390301  0.096424  1
  O  O33  1  0.662380  0.609699  0.403576  1
  O  O34  1  0.837620  0.609699  0.903576  1
  O  O35  1  0.337620  0.390301  0.596424  1
