# generated using pymatgen
data_Er10Tl7InIr3Pt
_symmetry_space_group_name_H-M   'P 1'
_cell_length_a   3.62100000
_cell_length_b   8.11817720
_cell_length_c   18.33158200
_cell_angle_alpha   89.82282676
_cell_angle_beta   90.00000000
_cell_angle_gamma   90.00000000
_symmetry_Int_Tables_number   1
_chemical_formula_structural   Er10Tl7InIr3Pt
_chemical_formula_sum   'Er10 Tl7 In1 Ir3 Pt1'
_cell_volume   538.87113481
_cell_formula_units_Z   1
loop_
 _symmetry_equiv_pos_site_id
 _symmetry_equiv_pos_as_xyz
  1  'x, y, z'
loop_
 _atom_site_type_symbol
 _atom_site_label
 _atom_site_symmetry_multiplicity
 _atom_site_fract_x
 _atom_site_fract_y
 _atom_site_fract_z
 _atom_site_occupancy
  Er  Er0  1  0.000000  0.114208  0.410538  1
  Er  Er1  1  0.000000  0.887773  0.591286  1
  Er  Er2  1  0.000000  0.386203  0.906849  1
  Er  Er3  1  0.000000  0.611933  0.090048  1
  Er  Er4  1  0.000000  0.234674  0.222954  1
  Er  Er5  1  0.000000  0.756758  0.777897  1
  Er  Er6  1  0.000000  0.255931  0.721041  1
  Er  Er7  1  0.000000  0.751992  0.280336  1
  Er  Er8  1  0.000000  0.997547  0.999140  1
  Er  Er9  1  0.000000  0.503347  0.500232  1
  Tl  Tl10  1  0.500000  0.424965  0.354724  1
  Tl  Tl11  1  0.500000  0.575309  0.646882  1
  Tl  Tl12  1  0.500000  0.074674  0.852388  1
  Tl  Tl13  1  0.500000  0.924257  0.147158  1
  Tl  Tl14  1  0.500000  0.292139  0.062282  1
  Tl  Tl15  1  0.500000  0.702999  0.935638  1
  Tl  Tl16  1  0.500000  0.205715  0.563452  1
  In  In17  1  0.500000  0.797325  0.434289  1
  Ir  Ir18  1  0.500000  0.018037  0.305280  1
  Ir  Ir19  1  0.500000  0.981205  0.696851  1
  Ir  Ir20  1  0.500000  0.480872  0.802093  1
  Pt  Pt21  1  0.500000  0.522138  0.198645  1
