# generated using pymatgen
data_La4TmUS10
_symmetry_space_group_name_H-M   'P 1'
_cell_length_a   7.55851400
_cell_length_b   8.09119700
_cell_length_c   11.93937700
_cell_angle_alpha   90.00000000
_cell_angle_beta   90.00000000
_cell_angle_gamma   90.00000000
_symmetry_Int_Tables_number   1
_chemical_formula_structural   La4TmUS10
_chemical_formula_sum   'La8 Tm2 U2 S20'
_cell_volume   730.18156299
_cell_formula_units_Z   2
loop_
 _symmetry_equiv_pos_site_id
 _symmetry_equiv_pos_as_xyz
  1  'x, y, z'
loop_
 _atom_site_type_symbol
 _atom_site_label
 _atom_site_symmetry_multiplicity
 _atom_site_fract_x
 _atom_site_fract_y
 _atom_site_fract_z
 _atom_site_occupancy
  La  La0  1  0.534812  0.503622  0.324761  1
  La  La1  1  0.965188  0.996378  0.824761  1
  La  La2  1  0.469194  0.998981  0.675149  1
  La  La3  1  0.030806  0.501019  0.175149  1
  La  La4  1  0.469194  0.501019  0.675149  1
  La  La5  1  0.030806  0.998981  0.175149  1
  La  La6  1  0.534812  0.996378  0.324761  1
  La  La7  1  0.965188  0.503622  0.824761  1
  Tm  Tm8  1  0.069179  0.750000  0.494118  1
  Tm  Tm9  1  0.430821  0.750000  0.994118  1
  U  U10  1  0.945082  0.250000  0.505881  1
  U  U11  1  0.554918  0.250000  0.005881  1
  S  S12  1  0.834590  0.968276  0.591354  1
  S  S13  1  0.665410  0.531724  0.091354  1
  S  S14  1  0.165184  0.457293  0.409738  1
  S  S15  1  0.334816  0.042707  0.909738  1
  S  S16  1  0.165184  0.042707  0.409738  1
  S  S17  1  0.334816  0.457293  0.909738  1
  S  S18  1  0.834590  0.531724  0.591354  1
  S  S19  1  0.665410  0.968276  0.091354  1
  S  S20  1  0.838385  0.750000  0.311952  1
  S  S21  1  0.661615  0.750000  0.811952  1
  S  S22  1  0.160791  0.250000  0.685899  1
  S  S23  1  0.339209  0.250000  0.185899  1
  S  S24  1  0.451240  0.750000  0.496619  1
  S  S25  1  0.048760  0.750000  0.996619  1
  S  S26  1  0.551776  0.250000  0.500901  1
  S  S27  1  0.948224  0.250000  0.000901  1
  S  S28  1  0.186005  0.750000  0.711476  1
  S  S29  1  0.313995  0.750000  0.211476  1
  S  S30  1  0.816513  0.250000  0.291148  1
  S  S31  1  0.683487  0.250000  0.791148  1
