# generated using pymatgen
data_DyTa4Nb5N12
_symmetry_space_group_name_H-M   'P 1'
_cell_length_a   5.29593373
_cell_length_b   5.30952368
_cell_length_c   10.53333390
_cell_angle_alpha   89.95264797
_cell_angle_beta   90.02347016
_cell_angle_gamma   120.02909938
_symmetry_Int_Tables_number   1
_chemical_formula_structural   DyTa4Nb5N12
_chemical_formula_sum   'Dy1 Ta4 Nb5 N12'
_cell_volume   256.42892845
_cell_formula_units_Z   1
loop_
 _symmetry_equiv_pos_site_id
 _symmetry_equiv_pos_as_xyz
  1  'x, y, z'
loop_
 _atom_site_type_symbol
 _atom_site_label
 _atom_site_symmetry_multiplicity
 _atom_site_fract_x
 _atom_site_fract_y
 _atom_site_fract_z
 _atom_site_occupancy
  Dy  Dy0  1  0.664931  0.331021  0.000281  1
  Ta  Ta1  1  0.997817  0.676192  0.254257  1
  Ta  Ta2  1  0.334665  0.666535  0.999378  1
  Ta  Ta3  1  0.335342  0.667286  0.499564  1
  Ta  Ta4  1  0.664886  0.331880  0.499678  1
  Nb  Nb5  1  0.677206  0.675335  0.745098  1
  Nb  Nb6  1  0.324398  0.001979  0.744984  1
  Nb  Nb7  1  0.997809  0.323087  0.745167  1
  Nb  Nb8  1  0.324870  0.323120  0.255430  1
  Nb  Nb9  1  0.676945  0.001658  0.255448  1
  N  N10  1  0.662566  0.658659  0.383473  1
  N  N11  1  0.337266  0.995971  0.383227  1
  N  N12  1  0.999814  0.347439  0.382349  1
  N  N13  1  0.342139  0.342110  0.616324  1
  N  N14  1  0.657708  0.000130  0.616269  1
  N  N15  1  0.999823  0.656008  0.616478  1
  N  N16  1  0.332434  0.352289  0.870445  1
  N  N17  1  0.647934  0.980492  0.870318  1
  N  N18  1  0.019676  0.666218  0.870345  1
  N  N19  1  0.652698  0.667456  0.130343  1
  N  N20  1  0.329103  0.976559  0.130139  1
  N  N21  1  0.019972  0.358574  0.131006  1
