# generated using pymatgen
data_Lu2B6MoW
_symmetry_space_group_name_H-M   'P 1'
_cell_length_a   3.14387300
_cell_length_b   5.38842892
_cell_length_c   6.76424849
_cell_angle_alpha   78.58422034
_cell_angle_beta   90.00000000
_cell_angle_gamma   90.00000000
_symmetry_Int_Tables_number   1
_chemical_formula_structural   Lu2B6MoW
_chemical_formula_sum   'Lu2 B6 Mo1 W1'
_cell_volume   112.32302836
_cell_formula_units_Z   1
loop_
 _symmetry_equiv_pos_site_id
 _symmetry_equiv_pos_as_xyz
  1  'x, y, z'
loop_
 _atom_site_type_symbol
 _atom_site_label
 _atom_site_symmetry_multiplicity
 _atom_site_fract_x
 _atom_site_fract_y
 _atom_site_fract_z
 _atom_site_occupancy
  Lu  Lu0  1  0.250000  0.322155  0.709449  1
  Lu  Lu1  1  0.750000  0.677830  0.290123  1
  B  B2  1  0.250000  0.915323  0.522455  1
  B  B3  1  0.750000  0.084336  0.476751  1
  B  B4  1  0.250000  0.912354  0.005865  1
  B  B5  1  0.750000  0.087688  0.994684  1
  B  B6  1  0.250000  0.583399  0.008524  1
  B  B7  1  0.750000  0.416635  0.991894  1
  Mo  Mo8  1  0.750000  0.809748  0.778143  1
  W  W9  1  0.250000  0.190532  0.222113  1
