# generated using pymatgen
data_TbEr9(In2Cu)4
_symmetry_space_group_name_H-M   'P 1'
_cell_length_a   3.63579600
_cell_length_b   8.00381414
_cell_length_c   17.89475300
_cell_angle_alpha   90.03051694
_cell_angle_beta   90.00000000
_cell_angle_gamma   90.00000000
_symmetry_Int_Tables_number   1
_chemical_formula_structural   TbEr9(In2Cu)4
_chemical_formula_sum   'Tb1 Er9 In8 Cu4'
_cell_volume   520.74145118
_cell_formula_units_Z   1
loop_
 _symmetry_equiv_pos_site_id
 _symmetry_equiv_pos_as_xyz
  1  'x, y, z'
loop_
 _atom_site_type_symbol
 _atom_site_label
 _atom_site_symmetry_multiplicity
 _atom_site_fract_x
 _atom_site_fract_y
 _atom_site_fract_z
 _atom_site_occupancy
  Tb  Tb0  1  0.000000  0.500000  0.500000  1
  Er  Er1  1  0.000000  0.000000  0.000000  1
  Er  Er2  1  0.000000  0.738909  0.280022  1
  Er  Er3  1  0.000000  0.261091  0.719978  1
  Er  Er4  1  0.000000  0.760918  0.780422  1
  Er  Er5  1  0.000000  0.239082  0.219578  1
  Er  Er6  1  0.000000  0.617861  0.083184  1
  Er  Er7  1  0.000000  0.382139  0.916816  1
  Er  Er8  1  0.000000  0.881810  0.583574  1
  Er  Er9  1  0.000000  0.118190  0.416426  1
  In  In10  1  0.500000  0.708056  0.931252  1
  In  In11  1  0.500000  0.291944  0.068748  1
  In  In12  1  0.500000  0.793928  0.430644  1
  In  In13  1  0.500000  0.206072  0.569356  1
  In  In14  1  0.500000  0.579123  0.650906  1
  In  In15  1  0.500000  0.420877  0.349094  1
  In  In16  1  0.500000  0.921218  0.150081  1
  In  In17  1  0.500000  0.078782  0.849919  1
  Cu  Cu18  1  0.500000  0.524507  0.197021  1
  Cu  Cu19  1  0.500000  0.475493  0.802979  1
  Cu  Cu20  1  0.500000  0.975196  0.697518  1
  Cu  Cu21  1  0.500000  0.024804  0.302482  1
