# generated using pymatgen
data_Y4Al16Si2Os3Pd2Pt
_symmetry_space_group_name_H-M   'P 1'
_cell_length_a   7.58248432
_cell_length_b   7.58248455
_cell_length_c   9.39560200
_cell_angle_alpha   90.06788611
_cell_angle_beta   90.06788612
_cell_angle_gamma   119.53087488
_symmetry_Int_Tables_number   1
_chemical_formula_structural   Y4Al16Si2Os3Pd2Pt
_chemical_formula_sum   'Y4 Al16 Si2 Os3 Pd2 Pt1'
_cell_volume   470.01395272
_cell_formula_units_Z   1
loop_
 _symmetry_equiv_pos_site_id
 _symmetry_equiv_pos_as_xyz
  1  'x, y, z'
loop_
 _atom_site_type_symbol
 _atom_site_label
 _atom_site_symmetry_multiplicity
 _atom_site_fract_x
 _atom_site_fract_y
 _atom_site_fract_z
 _atom_site_occupancy
  Y  Y0  1  0.994502  0.675641  0.248829  1
  Y  Y1  1  0.005507  0.324261  0.750722  1
  Y  Y2  1  0.675739  0.994493  0.249278  1
  Y  Y3  1  0.324359  0.005498  0.751171  1
  Al  Al4  1  0.996725  0.331977  0.076125  1
  Al  Al5  1  0.994378  0.661770  0.923305  1
  Al  Al6  1  0.997364  0.668983  0.579449  1
  Al  Al7  1  0.331017  0.002636  0.420551  1
  Al  Al8  1  0.001800  0.332389  0.421844  1
  Al  Al9  1  0.667611  0.998200  0.578156  1
  Al  Al10  1  0.668023  0.003275  0.923875  1
  Al  Al11  1  0.338230  0.005622  0.076695  1
  Al  Al12  1  0.331721  0.332303  0.558419  1
  Al  Al13  1  0.667697  0.668279  0.441581  1
  Al  Al14  1  0.670541  0.664059  0.051828  1
  Al  Al15  1  0.335941  0.329459  0.948172  1
  Al  Al16  1  0.336743  0.546064  0.249735  1
  Al  Al17  1  0.661644  0.451177  0.753263  1
  Al  Al18  1  0.548823  0.338356  0.246737  1
  Al  Al19  1  0.453936  0.663257  0.750265  1
  Si  Si20  1  0.124711  0.126020  0.249714  1
  Si  Si21  1  0.873980  0.875289  0.750286  1
  Os  Os22  1  0.671830  0.328170  0.000000  1
  Os  Os23  1  0.000526  0.999474  0.000000  1
  Os  Os24  1  0.999333  0.000667  0.500000  1
  Pd  Pd25  1  0.327225  0.672775  0.500000  1
  Pd  Pd26  1  0.671650  0.328350  0.500000  1
  Pt  Pt27  1  0.328445  0.671555  0.000000  1
