# generated using pymatgen
data_Li3AlAs2
_symmetry_space_group_name_H-M   'P 1'
_cell_length_a   4.19198100
_cell_length_b   4.19198100
_cell_length_c   12.25921300
_cell_angle_alpha   90.00000000
_cell_angle_beta   90.00000000
_cell_angle_gamma   90.00000000
_symmetry_Int_Tables_number   1
_chemical_formula_structural   Li3AlAs2
_chemical_formula_sum   'Li6 Al2 As4'
_cell_volume   215.42752996
_cell_formula_units_Z   2
loop_
 _symmetry_equiv_pos_site_id
 _symmetry_equiv_pos_as_xyz
  1  'x, y, z'
loop_
 _atom_site_type_symbol
 _atom_site_label
 _atom_site_symmetry_multiplicity
 _atom_site_fract_x
 _atom_site_fract_y
 _atom_site_fract_z
 _atom_site_occupancy
  Li  Li0  1  0.500000  0.500000  0.758538  1
  Li  Li1  1  0.000000  0.000000  0.741462  1
  Li  Li2  1  0.000000  0.000000  0.500000  1
  Li  Li3  1  0.000000  0.000000  0.258538  1
  Li  Li4  1  0.500000  0.500000  0.000000  1
  Li  Li5  1  0.500000  0.500000  0.241462  1
  Al  Al6  1  0.000000  0.000000  0.000000  1
  Al  Al7  1  0.500000  0.500000  0.500000  1
  As  As8  1  0.000000  0.500000  0.119099  1
  As  As9  1  0.000000  0.500000  0.619099  1
  As  As10  1  0.500000  0.000000  0.880901  1
  As  As11  1  0.500000  0.000000  0.380901  1
