# generated using pymatgen
data_Ho4GaSi3Ni4
_symmetry_space_group_name_H-M   'P 1'
_cell_length_a   4.18933400
_cell_length_b   6.85518241
_cell_length_c   7.17719674
_cell_angle_alpha   90.16839844
_cell_angle_beta   90.00000000
_cell_angle_gamma   90.00000000
_symmetry_Int_Tables_number   1
_chemical_formula_structural   Ho4GaSi3Ni4
_chemical_formula_sum   'Ho4 Ga1 Si3 Ni4'
_cell_volume   206.11850194
_cell_formula_units_Z   1
loop_
 _symmetry_equiv_pos_site_id
 _symmetry_equiv_pos_as_xyz
  1  'x, y, z'
loop_
 _atom_site_type_symbol
 _atom_site_label
 _atom_site_symmetry_multiplicity
 _atom_site_fract_x
 _atom_site_fract_y
 _atom_site_fract_z
 _atom_site_occupancy
  Ho  Ho0  1  0.750000  0.014925  0.296359  1
  Ho  Ho1  1  0.250000  0.991220  0.702272  1
  Ho  Ho2  1  0.250000  0.487933  0.800226  1
  Ho  Ho3  1  0.750000  0.509122  0.198303  1
  Ga  Ga4  1  0.750000  0.692670  0.587724  1
  Si  Si5  1  0.250000  0.315581  0.414841  1
  Si  Si6  1  0.250000  0.809677  0.088990  1
  Si  Si7  1  0.750000  0.190839  0.910827  1
  Ni  Ni8  1  0.750000  0.818068  0.927340  1
  Ni  Ni9  1  0.250000  0.189887  0.083100  1
  Ni  Ni10  1  0.250000  0.684529  0.405931  1
  Ni  Ni11  1  0.750000  0.295549  0.584086  1
