# generated using pymatgen
data_Yb7Tc12HgGe16
_symmetry_space_group_name_H-M   'P 1'
_cell_length_a   6.90199239
_cell_length_b   6.92934415
_cell_length_c   12.76173100
_cell_angle_alpha   90.19178988
_cell_angle_beta   89.98074089
_cell_angle_gamma   90.05623288
_symmetry_Int_Tables_number   1
_chemical_formula_structural   Yb7Tc12HgGe16
_chemical_formula_sum   'Yb7 Tc12 Hg1 Ge16'
_cell_volume   610.34238052
_cell_formula_units_Z   1
loop_
 _symmetry_equiv_pos_site_id
 _symmetry_equiv_pos_as_xyz
  1  'x, y, z'
loop_
 _atom_site_type_symbol
 _atom_site_label
 _atom_site_symmetry_multiplicity
 _atom_site_fract_x
 _atom_site_fract_y
 _atom_site_fract_z
 _atom_site_occupancy
  Yb  Yb0  1  0.489098  0.665518  0.589602  1
  Yb  Yb1  1  0.989270  0.835646  0.912413  1
  Yb  Yb2  1  0.516200  0.335106  0.089400  1
  Yb  Yb3  1  0.011145  0.159425  0.414045  1
  Yb  Yb4  1  0.514415  0.337950  0.413016  1
  Yb  Yb5  1  0.014919  0.164545  0.089140  1
  Yb  Yb6  1  0.483193  0.664721  0.910095  1
  Tc  Tc7  1  0.669062  0.145182  0.627860  1
  Tc  Tc8  1  0.181393  0.355509  0.871169  1
  Tc  Tc9  1  0.325277  0.852985  0.128470  1
  Tc  Tc10  1  0.825327  0.647187  0.372650  1
  Tc  Tc11  1  0.322022  0.850687  0.370170  1
  Tc  Tc12  1  0.826334  0.646898  0.129476  1
  Tc  Tc13  1  0.680574  0.145465  0.870258  1
  Tc  Tc14  1  0.184042  0.350751  0.630628  1
  Tc  Tc15  1  0.834806  0.495423  0.751163  1
  Tc  Tc16  1  0.332405  0.004469  0.751653  1
  Tc  Tc17  1  0.171964  0.502017  0.250476  1
  Tc  Tc18  1  0.669667  0.999257  0.250078  1
  Hg  Hg19  1  0.956424  0.840116  0.577297  1
  Ge  Ge20  1  0.651595  0.954389  0.446806  1
  Ge  Ge21  1  0.165200  0.549573  0.050693  1
  Ge  Ge22  1  0.338523  0.052124  0.949529  1
  Ge  Ge23  1  0.841735  0.444739  0.551948  1
  Ge  Ge24  1  0.329006  0.045422  0.551378  1
  Ge  Ge25  1  0.839731  0.449627  0.949711  1
  Ge  Ge26  1  0.663158  0.948415  0.050195  1
  Ge  Ge27  1  0.164936  0.546288  0.451290  1
  Ge  Ge28  1  0.481706  0.363299  0.752125  1
  Ge  Ge29  1  0.979720  0.137738  0.749832  1
  Ge  Ge30  1  0.525840  0.638289  0.250045  1
  Ge  Ge31  1  0.023767  0.861515  0.249794  1
  Ge  Ge32  1  0.683520  0.847762  0.751735  1
  Ge  Ge33  1  0.177518  0.660258  0.743425  1
  Ge  Ge34  1  0.316926  0.152231  0.251003  1
  Ge  Ge35  1  0.819578  0.349471  0.251430  1
