# generated using pymatgen
data_YbCe3MnOs7
_symmetry_space_group_name_H-M   'P 1'
_cell_length_a   5.37932600
_cell_length_b   5.37932466
_cell_length_c   8.69677700
_cell_angle_alpha   90.00000000
_cell_angle_beta   90.00000000
_cell_angle_gamma   119.99999595
_symmetry_Int_Tables_number   1
_chemical_formula_structural   YbCe3MnOs7
_chemical_formula_sum   'Yb1 Ce3 Mn1 Os7'
_cell_volume   217.94384276
_cell_formula_units_Z   1
loop_
 _symmetry_equiv_pos_site_id
 _symmetry_equiv_pos_as_xyz
  1  'x, y, z'
loop_
 _atom_site_type_symbol
 _atom_site_label
 _atom_site_symmetry_multiplicity
 _atom_site_fract_x
 _atom_site_fract_y
 _atom_site_fract_z
 _atom_site_occupancy
  Yb  Yb0  1  0.333333  0.666667  0.065496  1
  Ce  Ce1  1  0.333333  0.666667  0.422299  1
  Ce  Ce2  1  0.666667  0.333333  0.575270  1
  Ce  Ce3  1  0.666667  0.333333  0.931849  1
  Mn  Mn4  1  0.000000  0.000000  0.501803  1
  Os  Os5  1  0.000000  0.000000  0.001981  1
  Os  Os6  1  0.830004  0.169996  0.252522  1
  Os  Os7  1  0.830004  0.660007  0.252522  1
  Os  Os8  1  0.339993  0.169996  0.252522  1
  Os  Os9  1  0.170666  0.829334  0.747912  1
  Os  Os10  1  0.170666  0.341333  0.747912  1
  Os  Os11  1  0.658667  0.829334  0.747912  1
