# generated using pymatgen
data_CeHo3(CdPt)4
_symmetry_space_group_name_H-M   'P 1'
_cell_length_a   4.06149000
_cell_length_b   7.29206642
_cell_length_c   8.88433001
_cell_angle_alpha   90.21168144
_cell_angle_beta   90.00000000
_cell_angle_gamma   90.00000000
_symmetry_Int_Tables_number   1
_chemical_formula_structural   CeHo3(CdPt)4
_chemical_formula_sum   'Ce1 Ho3 Cd4 Pt4'
_cell_volume   263.12233958
_cell_formula_units_Z   1
loop_
 _symmetry_equiv_pos_site_id
 _symmetry_equiv_pos_as_xyz
  1  'x, y, z'
loop_
 _atom_site_type_symbol
 _atom_site_label
 _atom_site_symmetry_multiplicity
 _atom_site_fract_x
 _atom_site_fract_y
 _atom_site_fract_z
 _atom_site_occupancy
  Ce  Ce0  1  0.250000  0.550311  0.180272  1
  Ho  Ho1  1  0.750000  0.446657  0.814218  1
  Ho  Ho2  1  0.250000  0.053338  0.322497  1
  Ho  Ho3  1  0.750000  0.945743  0.681443  1
  Cd  Cd4  1  0.250000  0.632327  0.559484  1
  Cd  Cd5  1  0.250000  0.135054  0.939907  1
  Cd  Cd6  1  0.750000  0.363607  0.443537  1
  Cd  Cd7  1  0.750000  0.871643  0.057831  1
  Pt  Pt8  1  0.250000  0.730770  0.864678  1
  Pt  Pt9  1  0.250000  0.227912  0.634923  1
  Pt  Pt10  1  0.750000  0.772064  0.364714  1
  Pt  Pt11  1  0.750000  0.270575  0.136494  1
