# generated using pymatgen
data_Tm3Zn3CoHg2
_symmetry_space_group_name_H-M   'P 1'
_cell_length_a   7.57757800
_cell_length_b   7.57757609
_cell_length_c   3.70175200
_cell_angle_alpha   90.00000000
_cell_angle_beta   90.00000000
_cell_angle_gamma   119.99999086
_symmetry_Int_Tables_number   1
_chemical_formula_structural   Tm3Zn3CoHg2
_chemical_formula_sum   'Tm3 Zn3 Co1 Hg2'
_cell_volume   184.07665468
_cell_formula_units_Z   1
loop_
 _symmetry_equiv_pos_site_id
 _symmetry_equiv_pos_as_xyz
  1  'x, y, z'
loop_
 _atom_site_type_symbol
 _atom_site_label
 _atom_site_symmetry_multiplicity
 _atom_site_fract_x
 _atom_site_fract_y
 _atom_site_fract_z
 _atom_site_occupancy
  Tm  Tm0  1  0.390051  0.428546  0.000000  1
  Tm  Tm1  1  0.571454  0.961505  0.000000  1
  Tm  Tm2  1  0.038495  0.609949  0.000000  1
  Zn  Zn3  1  0.713689  0.729567  0.500000  1
  Zn  Zn4  1  0.270433  0.984122  0.500000  1
  Zn  Zn5  1  0.015878  0.286311  0.500000  1
  Co  Co6  1  0.333333  0.666667  0.500000  1
  Hg  Hg7  1  0.000000  0.000000  0.000000  1
  Hg  Hg8  1  0.666667  0.333333  0.500000  1
