# generated using pymatgen
data_Hf8In4Pd4Pt3Au
_symmetry_space_group_name_H-M   'P 1'
_cell_length_a   7.53555473
_cell_length_b   7.54570895
_cell_length_c   6.82787847
_cell_angle_alpha   89.99941811
_cell_angle_beta   90.01324754
_cell_angle_gamma   89.91401291
_symmetry_Int_Tables_number   1
_chemical_formula_structural   Hf8In4Pd4Pt3Au
_chemical_formula_sum   'Hf8 In4 Pd4 Pt3 Au1'
_cell_volume   388.24025209
_cell_formula_units_Z   1
loop_
 _symmetry_equiv_pos_site_id
 _symmetry_equiv_pos_as_xyz
  1  'x, y, z'
loop_
 _atom_site_type_symbol
 _atom_site_label
 _atom_site_symmetry_multiplicity
 _atom_site_fract_x
 _atom_site_fract_y
 _atom_site_fract_z
 _atom_site_occupancy
  Hf  Hf0  1  0.140795  0.149471  0.997017  1
  Hf  Hf1  1  0.843373  0.852510  0.998404  1
  Hf  Hf2  1  0.657865  0.350992  0.505223  1
  Hf  Hf3  1  0.356430  0.652986  0.505808  1
  Hf  Hf4  1  0.691226  0.315014  0.996624  1
  Hf  Hf5  1  0.319364  0.687851  0.996097  1
  Hf  Hf6  1  0.813268  0.817118  0.501218  1
  Hf  Hf7  1  0.177606  0.181364  0.502175  1
  In  In8  1  0.498289  0.995961  0.251732  1
  In  In9  1  0.496231  0.004458  0.749350  1
  In  In10  1  0.996796  0.505305  0.251482  1
  In  In11  1  0.004764  0.503208  0.749254  1
  Pd  Pd12  1  0.630778  0.630151  0.214669  1
  Pd  Pd13  1  0.367402  0.367295  0.784826  1
  Pd  Pd14  1  0.133007  0.865701  0.283284  1
  Pd  Pd15  1  0.131683  0.866546  0.716922  1
  Pt  Pt16  1  0.629506  0.628788  0.780644  1
  Pt  Pt17  1  0.870867  0.127438  0.718363  1
  Pt  Pt18  1  0.870615  0.128549  0.281972  1
  Au  Au19  1  0.370139  0.369295  0.214935  1
