# generated using pymatgen
data_CeZr(BrO3)8
_symmetry_space_group_name_H-M   'P 1'
_cell_length_a   8.47319600
_cell_length_b   8.47319600
_cell_length_c   8.08991700
_cell_angle_alpha   90.00000000
_cell_angle_beta   90.00000000
_cell_angle_gamma   90.00000000
_symmetry_Int_Tables_number   1
_chemical_formula_structural   CeZr(BrO3)8
_chemical_formula_sum   'Ce1 Zr1 Br8 O24'
_cell_volume   580.81599919
_cell_formula_units_Z   1
loop_
 _symmetry_equiv_pos_site_id
 _symmetry_equiv_pos_as_xyz
  1  'x, y, z'
loop_
 _atom_site_type_symbol
 _atom_site_label
 _atom_site_symmetry_multiplicity
 _atom_site_fract_x
 _atom_site_fract_y
 _atom_site_fract_z
 _atom_site_occupancy
  Ce  Ce0  1  0.250000  0.250000  0.056902  1
  Zr  Zr1  1  0.750000  0.750000  0.947535  1
  Br  Br2  1  0.986125  0.541876  0.255530  1
  Br  Br3  1  0.541876  0.513875  0.255530  1
  Br  Br4  1  0.958124  0.986125  0.255530  1
  Br  Br5  1  0.513875  0.958124  0.255530  1
  Br  Br6  1  0.500367  0.027373  0.743674  1
  Br  Br7  1  0.027373  0.999633  0.743674  1
  Br  Br8  1  0.472628  0.500367  0.743674  1
  Br  Br9  1  0.999633  0.472628  0.743674  1
  O  O10  1  0.667923  0.538096  0.087149  1
  O  O11  1  0.961905  0.667923  0.087149  1
  O  O12  1  0.538096  0.832078  0.087149  1
  O  O13  1  0.832078  0.961905  0.087149  1
  O  O14  1  0.327543  0.027604  0.218022  1
  O  O15  1  0.027604  0.172457  0.218022  1
  O  O16  1  0.472396  0.327543  0.218022  1
  O  O17  1  0.172457  0.472396  0.218022  1
  O  O18  1  0.667579  0.491904  0.407828  1
  O  O19  1  0.008097  0.667579  0.407828  1
  O  O20  1  0.491904  0.832421  0.407828  1
  O  O21  1  0.832421  0.008097  0.407828  1
  O  O22  1  0.148818  0.971865  0.589095  1
  O  O23  1  0.528135  0.148818  0.589095  1
  O  O24  1  0.971865  0.351182  0.589095  1
  O  O25  1  0.351182  0.528135  0.589095  1
  O  O26  1  0.812928  0.540281  0.791416  1
  O  O27  1  0.540281  0.687071  0.791416  1
  O  O28  1  0.959720  0.812928  0.791416  1
  O  O29  1  0.687071  0.959720  0.791416  1
  O  O30  1  0.155612  0.032426  0.906177  1
  O  O31  1  0.467574  0.155612  0.906177  1
  O  O32  1  0.032426  0.344388  0.906177  1
  O  O33  1  0.344388  0.467574  0.906177  1
