# generated using pymatgen
data_Tm4Ga6Ir3Pt4
_symmetry_space_group_name_H-M   'P 1'
_cell_length_a   7.33951318
_cell_length_b   7.33951372
_cell_length_c   7.33830600
_cell_angle_alpha   109.46787908
_cell_angle_beta   109.46788055
_cell_angle_gamma   109.47456685
_symmetry_Int_Tables_number   1
_chemical_formula_structural   Tm4Ga6Ir3Pt4
_chemical_formula_sum   'Tm4 Ga6 Ir3 Pt4'
_cell_volume   304.31709020
_cell_formula_units_Z   1
loop_
 _symmetry_equiv_pos_site_id
 _symmetry_equiv_pos_as_xyz
  1  'x, y, z'
loop_
 _atom_site_type_symbol
 _atom_site_label
 _atom_site_symmetry_multiplicity
 _atom_site_fract_x
 _atom_site_fract_y
 _atom_site_fract_z
 _atom_site_occupancy
  Tm  Tm0  1  0.000000  0.000000  0.500000  1
  Tm  Tm1  1  0.008192  0.504096  0.004096  1
  Tm  Tm2  1  0.495904  0.991808  0.995904  1
  Tm  Tm3  1  0.495904  0.504096  0.500000  1
  Ga  Ga4  1  0.680359  0.683976  0.999743  1
  Ga  Ga5  1  0.316024  0.996383  0.315768  1
  Ga  Ga6  1  0.003617  0.319641  0.319385  1
  Ga  Ga7  1  0.316024  0.319641  0.000257  1
  Ga  Ga8  1  0.680359  0.996383  0.680615  1
  Ga  Ga9  1  0.003617  0.683976  0.684232  1
  Ir  Ir10  1  0.249630  0.499260  0.749630  1
  Ir  Ir11  1  0.249630  0.750370  0.500000  1
  Ir  Ir12  1  0.500740  0.750370  0.250370  1
  Pt  Pt13  1  0.749695  0.250305  0.500000  1
  Pt  Pt14  1  0.749695  0.499389  0.249695  1
  Pt  Pt15  1  0.500611  0.250305  0.750305  1
  Pt  Pt16  1  0.000000  0.000000  0.000000  1
