# generated using pymatgen
data_LiTb2(Co3P2)3
_symmetry_space_group_name_H-M   'P 1'
_cell_length_a   3.67195600
_cell_length_b   10.26064200
_cell_length_c   11.81444700
_cell_angle_alpha   90.00000000
_cell_angle_beta   90.00000000
_cell_angle_gamma   90.00000000
_symmetry_Int_Tables_number   1
_chemical_formula_structural   LiTb2(Co3P2)3
_chemical_formula_sum   'Li2 Tb4 Co18 P12'
_cell_volume   445.12850049
_cell_formula_units_Z   2
loop_
 _symmetry_equiv_pos_site_id
 _symmetry_equiv_pos_as_xyz
  1  'x, y, z'
loop_
 _atom_site_type_symbol
 _atom_site_label
 _atom_site_symmetry_multiplicity
 _atom_site_fract_x
 _atom_site_fract_y
 _atom_site_fract_z
 _atom_site_occupancy
  Li  Li0  1  0.250000  0.703614  0.990649  1
  Li  Li1  1  0.250000  0.796386  0.490649  1
  Tb  Tb2  1  0.250000  0.580467  0.701943  1
  Tb  Tb3  1  0.250000  0.919533  0.201943  1
  Tb  Tb4  1  0.750000  0.418328  0.297429  1
  Tb  Tb5  1  0.750000  0.081672  0.797429  1
  Co  Co6  1  0.750000  0.288848  0.009479  1
  Co  Co7  1  0.750000  0.211152  0.509479  1
  Co  Co8  1  0.250000  0.403524  0.487535  1
  Co  Co9  1  0.250000  0.096476  0.987535  1
  Co  Co10  1  0.750000  0.590760  0.513623  1
  Co  Co11  1  0.750000  0.909240  0.013623  1
  Co  Co12  1  0.250000  0.222637  0.175186  1
  Co  Co13  1  0.250000  0.277363  0.675186  1
  Co  Co14  1  0.750000  0.781046  0.825704  1
  Co  Co15  1  0.750000  0.718954  0.325704  1
  Co  Co16  1  0.250000  0.882056  0.697999  1
  Co  Co17  1  0.250000  0.617944  0.197999  1
  Co  Co18  1  0.750000  0.119802  0.300656  1
  Co  Co19  1  0.750000  0.380198  0.800656  1
  Co  Co20  1  0.250000  0.464802  0.931939  1
  Co  Co21  1  0.250000  0.035198  0.431939  1
  Co  Co22  1  0.750000  0.532257  0.066267  1
  Co  Co23  1  0.750000  0.967743  0.566267  1
  P  P24  1  0.250000  0.420932  0.111747  1
  P  P25  1  0.250000  0.079068  0.611747  1
  P  P26  1  0.750000  0.578578  0.884815  1
  P  P27  1  0.750000  0.921422  0.384815  1
  P  P28  1  0.250000  0.269667  0.867545  1
  P  P29  1  0.250000  0.230333  0.367545  1
  P  P30  1  0.750000  0.728121  0.137513  1
  P  P31  1  0.750000  0.771879  0.637513  1
  P  P32  1  0.250000  0.600866  0.392615  1
  P  P33  1  0.250000  0.899134  0.892615  1
  P  P34  1  0.750000  0.395854  0.607356  1
  P  P35  1  0.750000  0.104146  0.107356  1
