# generated using pymatgen
data_CsMnP2O7
_symmetry_space_group_name_H-M   'P 1'
_cell_length_a   9.87673500
_cell_length_b   7.48973900
_cell_length_c   8.81000143
_cell_angle_alpha   74.61222806
_cell_angle_beta   90.00000000
_cell_angle_gamma   90.00000000
_symmetry_Int_Tables_number   1
_chemical_formula_structural   CsMnP2O7
_chemical_formula_sum   'Cs4 Mn4 P8 O28'
_cell_volume   628.34996656
_cell_formula_units_Z   4
loop_
 _symmetry_equiv_pos_site_id
 _symmetry_equiv_pos_as_xyz
  1  'x, y, z'
loop_
 _atom_site_type_symbol
 _atom_site_label
 _atom_site_symmetry_multiplicity
 _atom_site_fract_x
 _atom_site_fract_y
 _atom_site_fract_z
 _atom_site_occupancy
  Cs  Cs0  1  0.303172  0.811564  0.037727  1
  Cs  Cs1  1  0.803172  0.188436  0.462273  1
  Cs  Cs2  1  0.696828  0.188436  0.962273  1
  Cs  Cs3  1  0.196828  0.811564  0.537727  1
  Mn  Mn4  1  0.602246  0.761572  0.757220  1
  Mn  Mn5  1  0.102246  0.238428  0.742780  1
  Mn  Mn6  1  0.397754  0.238428  0.242780  1
  Mn  Mn7  1  0.897754  0.761572  0.257220  1
  P  P8  1  0.628713  0.569704  0.186576  1
  P  P9  1  0.128713  0.430296  0.313424  1
  P  P10  1  0.371287  0.430296  0.813424  1
  P  P11  1  0.871287  0.569704  0.686576  1
  P  P12  1  0.906680  0.865977  0.834334  1
  P  P13  1  0.406680  0.134023  0.665666  1
  P  P14  1  0.093320  0.134023  0.165666  1
  P  P15  1  0.593320  0.865977  0.334334  1
  O  O16  1  0.952697  0.671620  0.802094  1
  O  O17  1  0.452697  0.328380  0.697906  1
  O  O18  1  0.047303  0.328380  0.197906  1
  O  O19  1  0.547303  0.671620  0.302094  1
  O  O20  1  0.736671  0.909236  0.261378  1
  O  O21  1  0.236671  0.090764  0.238622  1
  O  O22  1  0.263329  0.090764  0.738622  1
  O  O23  1  0.763329  0.909236  0.761378  1
  O  O24  1  0.572876  0.370989  0.233607  1
  O  O25  1  0.072876  0.629011  0.266393  1
  O  O26  1  0.427124  0.629011  0.766393  1
  O  O27  1  0.927124  0.370989  0.733607  1
  O  O28  1  0.587304  0.846203  0.507229  1
  O  O29  1  0.087304  0.153797  0.992771  1
  O  O30  1  0.412696  0.153797  0.492771  1
  O  O31  1  0.912696  0.846203  0.007229  1
  O  O32  1  0.603599  0.676731  0.018776  1
  O  O33  1  0.103599  0.323269  0.481224  1
  O  O34  1  0.396401  0.323269  0.981224  1
  O  O35  1  0.896401  0.676731  0.518776  1
  O  O36  1  0.497623  0.011756  0.232055  1
  O  O37  1  0.997623  0.988244  0.267945  1
  O  O38  1  0.502377  0.988244  0.767945  1
  O  O39  1  0.002377  0.011756  0.732055  1
  O  O40  1  0.779115  0.557652  0.240413  1
  O  O41  1  0.279115  0.442348  0.259587  1
  O  O42  1  0.220885  0.442348  0.759587  1
  O  O43  1  0.720885  0.557652  0.740413  1
