# generated using pymatgen
data_Nb6Cr6Si5P
_symmetry_space_group_name_H-M   'P 1'
_cell_length_a   7.41123342
_cell_length_b   7.41239133
_cell_length_c   7.41123296
_cell_angle_alpha   126.90644868
_cell_angle_beta   126.68053343
_cell_angle_gamma   78.58430403
_symmetry_Int_Tables_number   1
_chemical_formula_structural   Nb6Cr6Si5P
_chemical_formula_sum   'Nb6 Cr6 Si5 P1'
_cell_volume   252.74611607
_cell_formula_units_Z   1
loop_
 _symmetry_equiv_pos_site_id
 _symmetry_equiv_pos_as_xyz
  1  'x, y, z'
loop_
 _atom_site_type_symbol
 _atom_site_label
 _atom_site_symmetry_multiplicity
 _atom_site_fract_x
 _atom_site_fract_y
 _atom_site_fract_z
 _atom_site_occupancy
  Nb  Nb0  1  0.548272  0.093031  0.044758  1
  Nb  Nb1  1  0.450840  0.496321  0.545481  1
  Nb  Nb2  1  0.952133  0.496671  0.044537  1
  Nb  Nb3  1  0.048594  0.093205  0.544612  1
  Nb  Nb4  1  0.750215  0.899531  0.649317  1
  Nb  Nb5  1  0.250007  0.901794  0.151785  1
  Cr  Cr6  1  0.506357  0.246863  0.753160  1
  Cr  Cr7  1  0.993702  0.246863  0.240506  1
  Cr  Cr8  1  0.119647  0.746825  0.616356  1
  Cr  Cr9  1  0.867882  0.496741  0.614900  1
  Cr  Cr10  1  0.630469  0.746825  0.127178  1
  Cr  Cr11  1  0.381842  0.496741  0.128859  1
  Si  Si12  1  0.249387  0.497035  0.747648  1
  Si  Si13  1  0.333810  0.829815  0.496973  1
  Si  Si14  1  0.666856  0.163500  0.496694  1
  Si  Si15  1  0.832842  0.829815  0.996005  1
  Si  Si16  1  0.166806  0.163500  0.996645  1
  P  P17  1  0.750341  0.497126  0.246786  1
