# generated using pymatgen
data_Tb5PuCo5
_symmetry_space_group_name_H-M   'P 1'
_cell_length_a   5.73784450
_cell_length_b   5.73784352
_cell_length_c   21.00836900
_cell_angle_alpha   90.00000000
_cell_angle_beta   90.00000000
_cell_angle_gamma   140.04612631
_symmetry_Int_Tables_number   1
_chemical_formula_structural   Tb5PuCo5
_chemical_formula_sum   'Tb10 Pu2 Co10'
_cell_volume   444.16086772
_cell_formula_units_Z   2
loop_
 _symmetry_equiv_pos_site_id
 _symmetry_equiv_pos_as_xyz
  1  'x, y, z'
loop_
 _atom_site_type_symbol
 _atom_site_label
 _atom_site_symmetry_multiplicity
 _atom_site_fract_x
 _atom_site_fract_y
 _atom_site_fract_z
 _atom_site_occupancy
  Tb  Tb0  1  0.285246  0.714754  0.250000  1
  Tb  Tb1  1  0.284285  0.715715  0.072128  1
  Tb  Tb2  1  0.995392  0.004608  0.837985  1
  Tb  Tb3  1  0.714754  0.285246  0.750000  1
  Tb  Tb4  1  0.715715  0.284285  0.572128  1
  Tb  Tb5  1  0.004608  0.995392  0.337985  1
  Tb  Tb6  1  0.995392  0.004608  0.662015  1
  Tb  Tb7  1  0.715715  0.284285  0.927872  1
  Tb  Tb8  1  0.004608  0.995392  0.162015  1
  Tb  Tb9  1  0.284285  0.715715  0.427872  1
  Pu  Pu10  1  0.000000  0.000000  0.500000  1
  Pu  Pu11  1  0.000000  0.000000  0.000000  1
  Co  Co12  1  0.298106  0.701894  0.655586  1
  Co  Co13  1  0.575830  0.424170  0.440143  1
  Co  Co14  1  0.411657  0.588343  0.750000  1
  Co  Co15  1  0.424170  0.575830  0.940143  1
  Co  Co16  1  0.588343  0.411657  0.250000  1
  Co  Co17  1  0.424170  0.575830  0.559857  1
  Co  Co18  1  0.701894  0.298106  0.344414  1
  Co  Co19  1  0.701894  0.298106  0.155586  1
  Co  Co20  1  0.575830  0.424170  0.059857  1
  Co  Co21  1  0.298106  0.701894  0.844414  1
