# generated using pymatgen
data_Er20Cd3Pd3Ru2
_symmetry_space_group_name_H-M   'P 1'
_cell_length_a   9.44199900
_cell_length_b   9.44199875
_cell_length_c   9.45198600
_cell_angle_alpha   90.00000000
_cell_angle_beta   90.00000000
_cell_angle_gamma   119.99999736
_symmetry_Int_Tables_number   1
_chemical_formula_structural   Er20Cd3Pd3Ru2
_chemical_formula_sum   'Er20 Cd3 Pd3 Ru2'
_cell_volume   729.76259928
_cell_formula_units_Z   1
loop_
 _symmetry_equiv_pos_site_id
 _symmetry_equiv_pos_as_xyz
  1  'x, y, z'
loop_
 _atom_site_type_symbol
 _atom_site_label
 _atom_site_symmetry_multiplicity
 _atom_site_fract_x
 _atom_site_fract_y
 _atom_site_fract_z
 _atom_site_occupancy
  Er  Er0  1  0.000000  0.000000  0.453975  1
  Er  Er1  1  0.000000  0.000000  0.046025  1
  Er  Er2  1  0.209057  0.790943  0.440787  1
  Er  Er3  1  0.209057  0.418115  0.440787  1
  Er  Er4  1  0.581885  0.790943  0.440787  1
  Er  Er5  1  0.791814  0.208186  0.555791  1
  Er  Er6  1  0.791814  0.583627  0.555791  1
  Er  Er7  1  0.416373  0.208186  0.555791  1
  Er  Er8  1  0.791814  0.208186  0.944209  1
  Er  Er9  1  0.791814  0.583627  0.944209  1
  Er  Er10  1  0.416373  0.208186  0.944209  1
  Er  Er11  1  0.209057  0.790943  0.059213  1
  Er  Er12  1  0.209057  0.418115  0.059213  1
  Er  Er13  1  0.581885  0.790943  0.059213  1
  Er  Er14  1  0.540913  0.459087  0.250000  1
  Er  Er15  1  0.540913  0.081827  0.250000  1
  Er  Er16  1  0.918173  0.459087  0.250000  1
  Er  Er17  1  0.459395  0.540605  0.750000  1
  Er  Er18  1  0.459395  0.918790  0.750000  1
  Er  Er19  1  0.081210  0.540605  0.750000  1
  Cd  Cd20  1  0.109180  0.890820  0.750000  1
  Cd  Cd21  1  0.109180  0.218360  0.750000  1
  Cd  Cd22  1  0.781640  0.890820  0.750000  1
  Pd  Pd23  1  0.872011  0.127989  0.250000  1
  Pd  Pd24  1  0.872011  0.744023  0.250000  1
  Pd  Pd25  1  0.255977  0.127989  0.250000  1
  Ru  Ru26  1  0.333333  0.666667  0.250000  1
  Ru  Ru27  1  0.666667  0.333333  0.750000  1
