# generated using pymatgen
data_Tm8Ta10VSi16Mo
_symmetry_space_group_name_H-M   'P 1'
_cell_length_a   6.78807747
_cell_length_b   6.98059933
_cell_length_c   13.20924906
_cell_angle_alpha   89.98882475
_cell_angle_beta   89.93218240
_cell_angle_gamma   90.04806921
_symmetry_Int_Tables_number   1
_chemical_formula_structural   Tm8Ta10VSi16Mo
_chemical_formula_sum   'Tm8 Ta10 V1 Si16 Mo1'
_cell_volume   625.91760183
_cell_formula_units_Z   1
loop_
 _symmetry_equiv_pos_site_id
 _symmetry_equiv_pos_as_xyz
  1  'x, y, z'
loop_
 _atom_site_type_symbol
 _atom_site_label
 _atom_site_symmetry_multiplicity
 _atom_site_fract_x
 _atom_site_fract_y
 _atom_site_fract_z
 _atom_site_occupancy
  Tm  Tm0  1  0.502424  0.328618  0.095407  1
  Tm  Tm1  1  0.000709  0.172115  0.405928  1
  Tm  Tm2  1  0.497174  0.673476  0.594649  1
  Tm  Tm3  1  0.998091  0.829018  0.903557  1
  Tm  Tm4  1  0.498572  0.670903  0.903379  1
  Tm  Tm5  1  0.998632  0.828386  0.595108  1
  Tm  Tm6  1  0.500573  0.328014  0.406158  1
  Tm  Tm7  1  0.002337  0.172213  0.095389  1
  Ta  Ta8  1  0.337508  0.175233  0.872350  1
  Ta  Ta9  1  0.163528  0.674238  0.125599  1
  Ta  Ta10  1  0.663669  0.826102  0.376960  1
  Ta  Ta11  1  0.163676  0.673210  0.376888  1
  Ta  Ta12  1  0.663504  0.825524  0.125682  1
  Ta  Ta13  1  0.837106  0.325290  0.872135  1
  Ta  Ta14  1  0.662087  0.009321  0.748313  1
  Ta  Ta15  1  0.160554  0.490622  0.748574  1
  Ta  Ta16  1  0.338548  0.992661  0.250714  1
  Ta  Ta17  1  0.838331  0.507655  0.251127  1
  V  V18  1  0.839786  0.327823  0.625818  1
  Si  Si19  1  0.666024  0.044306  0.543914  1
  Si  Si20  1  0.165020  0.464683  0.958360  1
  Si  Si21  1  0.334825  0.965106  0.040436  1
  Si  Si22  1  0.834194  0.532492  0.462971  1
  Si  Si23  1  0.334221  0.965380  0.461173  1
  Si  Si24  1  0.834817  0.535297  0.040435  1
  Si  Si25  1  0.664732  0.035301  0.958709  1
  Si  Si26  1  0.160920  0.457954  0.544136  1
  Si  Si27  1  0.542331  0.376758  0.744707  1
  Si  Si28  1  0.039215  0.123529  0.745565  1
  Si  Si29  1  0.460644  0.619835  0.251014  1
  Si  Si30  1  0.960526  0.879835  0.251038  1
  Si  Si31  1  0.794897  0.628238  0.748079  1
  Si  Si32  1  0.295430  0.870001  0.749485  1
  Si  Si33  1  0.204796  0.367940  0.250742  1
  Si  Si34  1  0.704428  0.132006  0.250403  1
  Mo  Mo35  1  0.336169  0.170914  0.625097  1
