# generated using pymatgen
data_HoLu3Re3Os5
_symmetry_space_group_name_H-M   'P 1'
_cell_length_a   5.28214634
_cell_length_b   5.32783477
_cell_length_c   8.88513601
_cell_angle_alpha   90.00000127
_cell_angle_beta   90.00401746
_cell_angle_gamma   120.28652334
_symmetry_Int_Tables_number   1
_chemical_formula_structural   HoLu3Re3Os5
_chemical_formula_sum   'Ho1 Lu3 Re3 Os5'
_cell_volume   215.92092817
_cell_formula_units_Z   1
loop_
 _symmetry_equiv_pos_site_id
 _symmetry_equiv_pos_as_xyz
  1  'x, y, z'
loop_
 _atom_site_type_symbol
 _atom_site_label
 _atom_site_symmetry_multiplicity
 _atom_site_fract_x
 _atom_site_fract_y
 _atom_site_fract_z
 _atom_site_occupancy
  Ho  Ho0  1  0.338779  0.669390  0.434510  1
  Lu  Lu1  1  0.667419  0.333709  0.563863  1
  Lu  Lu2  1  0.667591  0.333796  0.936688  1
  Lu  Lu3  1  0.338848  0.669424  0.065152  1
  Re  Re4  1  0.162478  0.337049  0.750773  1
  Re  Re5  1  0.162478  0.825431  0.750773  1
  Re  Re6  1  0.336024  0.168012  0.249169  1
  Os  Os7  1  0.821192  0.650718  0.248836  1
  Os  Os8  1  0.644027  0.822014  0.751005  1
  Os  Os9  1  0.019919  0.009960  0.000569  1
  Os  Os10  1  0.821192  0.170474  0.248836  1
  Os  Os11  1  0.020051  0.010026  0.499825  1
