# generated using pymatgen
data_DyHo14Pa(CdCo)4
_symmetry_space_group_name_H-M   'P 1'
_cell_length_a   9.39806592
_cell_length_b   9.50846904
_cell_length_c   9.39435900
_cell_angle_alpha   60.39620182
_cell_angle_beta   60.01305044
_cell_angle_gamma   60.34699321
_symmetry_Int_Tables_number   1
_chemical_formula_structural   DyHo14Pa(CdCo)4
_chemical_formula_sum   'Dy1 Ho14 Pa1 Cd4 Co4'
_cell_volume   596.98163114
_cell_formula_units_Z   1
loop_
 _symmetry_equiv_pos_site_id
 _symmetry_equiv_pos_as_xyz
  1  'x, y, z'
loop_
 _atom_site_type_symbol
 _atom_site_label
 _atom_site_symmetry_multiplicity
 _atom_site_fract_x
 _atom_site_fract_y
 _atom_site_fract_z
 _atom_site_occupancy
  Dy  Dy0  1  0.311304  0.314279  0.687208  1
  Ho  Ho1  1  0.687745  0.313779  0.687531  1
  Ho  Ho2  1  0.687745  0.313779  0.310943  1
  Ho  Ho3  1  0.938549  0.562167  0.560247  1
  Ho  Ho4  1  0.542387  0.149249  0.154182  1
  Ho  Ho5  1  0.154055  0.148876  0.542891  1
  Ho  Ho6  1  0.937469  0.935304  0.563614  1
  Ho  Ho7  1  0.310179  0.691696  0.310537  1
  Ho  Ho8  1  0.564054  0.934927  0.937376  1
  Ho  Ho9  1  0.564054  0.934927  0.563644  1
  Ho  Ho10  1  0.687753  0.691481  0.310383  1
  Ho  Ho11  1  0.560632  0.562095  0.938637  1
  Ho  Ho12  1  0.938549  0.562167  0.939036  1
  Ho  Ho13  1  0.310179  0.691696  0.687588  1
  Ho  Ho14  1  0.154055  0.148876  0.154176  1
  Pa  Pa15  1  0.164495  0.506843  0.164331  1
  Cd  Cd16  1  0.919353  0.241362  0.919642  1
  Cd  Cd17  1  0.920422  0.916115  0.920527  1
  Cd  Cd18  1  0.920422  0.916115  0.242935  1
  Cd  Cd19  1  0.242383  0.916155  0.920730  1
  Co  Co20  1  0.344198  0.375321  0.936552  1
  Co  Co21  1  0.359601  0.921969  0.359215  1
  Co  Co22  1  0.936216  0.375500  0.344143  1
  Co  Co23  1  0.344198  0.375321  0.343931  1
