# generated using pymatgen
data_Ho4Er5Lu11(CoSb2)4
_symmetry_space_group_name_H-M   'P 1'
_cell_length_a   7.71503280
_cell_length_b   8.72200400
_cell_length_c   11.99308524
_cell_angle_alpha   90.00000000
_cell_angle_beta   90.05217395
_cell_angle_gamma   90.00000000
_symmetry_Int_Tables_number   1
_chemical_formula_structural   Ho4Er5Lu11(CoSb2)4
_chemical_formula_sum   'Ho4 Er5 Lu11 Co4 Sb8'
_cell_volume   807.02093090
_cell_formula_units_Z   1
loop_
 _symmetry_equiv_pos_site_id
 _symmetry_equiv_pos_as_xyz
  1  'x, y, z'
loop_
 _atom_site_type_symbol
 _atom_site_label
 _atom_site_symmetry_multiplicity
 _atom_site_fract_x
 _atom_site_fract_y
 _atom_site_fract_z
 _atom_site_occupancy
  Ho  Ho0  1  0.623037  0.750000  0.308110  1
  Ho  Ho1  1  0.123135  0.250000  0.192071  1
  Ho  Ho2  1  0.377004  0.250000  0.691903  1
  Ho  Ho3  1  0.876879  0.750000  0.807910  1
  Er  Er4  1  0.156083  0.750000  0.204355  1
  Er  Er5  1  0.656322  0.250000  0.295844  1
  Er  Er6  1  0.843426  0.250000  0.795787  1
  Er  Er7  1  0.343518  0.750000  0.703934  1
  Er  Er8  1  0.448795  0.750000  0.997585  1
  Lu  Lu9  1  0.948359  0.250000  0.502452  1
  Lu  Lu10  1  0.551478  0.250000  0.002493  1
  Lu  Lu11  1  0.051608  0.750000  0.497579  1
  Lu  Lu12  1  0.824271  0.962701  0.065308  1
  Lu  Lu13  1  0.324123  0.037517  0.434788  1
  Lu  Lu14  1  0.175651  0.461985  0.934614  1
  Lu  Lu15  1  0.675948  0.537561  0.565208  1
  Lu  Lu16  1  0.175651  0.038015  0.934614  1
  Lu  Lu17  1  0.675948  0.962439  0.565208  1
  Lu  Lu18  1  0.824271  0.537299  0.065308  1
  Lu  Lu19  1  0.324123  0.462483  0.434788  1
  Co  Co20  1  0.430788  0.750000  0.490670  1
  Co  Co21  1  0.930847  0.250000  0.009335  1
  Co  Co22  1  0.569228  0.250000  0.509283  1
  Co  Co23  1  0.068863  0.750000  0.990751  1
  Sb  Sb24  1  0.931866  0.991677  0.328831  1
  Sb  Sb25  1  0.431869  0.008875  0.171686  1
  Sb  Sb26  1  0.068153  0.491603  0.671172  1
  Sb  Sb27  1  0.568435  0.507884  0.828363  1
  Sb  Sb28  1  0.068153  0.008397  0.671172  1
  Sb  Sb29  1  0.568435  0.992116  0.828363  1
  Sb  Sb30  1  0.931866  0.508323  0.328831  1
  Sb  Sb31  1  0.431869  0.491125  0.171686  1
