# generated using pymatgen
data_Pr5FePdO12
_symmetry_space_group_name_H-M   'P 1'
_cell_length_a   7.09380899
_cell_length_b   7.09380915
_cell_length_c   7.67096070
_cell_angle_alpha   74.46398963
_cell_angle_beta   74.46398768
_cell_angle_gamma   50.85418975
_symmetry_Int_Tables_number   1
_chemical_formula_structural   Pr5FePdO12
_chemical_formula_sum   'Pr5 Fe1 Pd1 O12'
_cell_volume   285.90525087
_cell_formula_units_Z   1
loop_
 _symmetry_equiv_pos_site_id
 _symmetry_equiv_pos_as_xyz
  1  'x, y, z'
loop_
 _atom_site_type_symbol
 _atom_site_label
 _atom_site_symmetry_multiplicity
 _atom_site_fract_x
 _atom_site_fract_y
 _atom_site_fract_z
 _atom_site_occupancy
  Pr  Pr0  1  0.307223  0.307542  0.356965  1
  Pr  Pr1  1  0.692458  0.692777  0.643035  1
  Pr  Pr2  1  0.692318  0.693908  0.165862  1
  Pr  Pr3  1  0.306092  0.307682  0.834138  1
  Pr  Pr4  1  0.002334  0.997666  0.500000  1
  Fe  Fe5  1  0.755454  0.244546  0.000000  1
  Pd  Pd6  1  0.242931  0.757069  0.000000  1
  O  O7  1  0.095108  0.592974  0.579448  1
  O  O8  1  0.997514  0.000268  0.176644  1
  O  O9  1  0.407026  0.904892  0.420552  1
  O  O10  1  0.496217  0.505150  0.175070  1
  O  O11  1  0.098843  0.574420  0.078900  1
  O  O12  1  0.904634  0.401583  0.423000  1
  O  O13  1  0.999732  0.002486  0.823356  1
  O  O14  1  0.598417  0.095365  0.577000  1
  O  O15  1  0.494850  0.503783  0.824930  1
  O  O16  1  0.588435  0.105166  0.075646  1
  O  O17  1  0.425580  0.901157  0.921100  1
  O  O18  1  0.894834  0.411565  0.924354  1
