# generated using pymatgen
data_Zr10CuBi5PPb
_symmetry_space_group_name_H-M   'P 1'
_cell_length_a   8.79986714
_cell_length_b   8.79713392
_cell_length_c   5.94691700
_cell_angle_alpha   90.00407611
_cell_angle_beta   89.99796334
_cell_angle_gamma   119.98971850
_symmetry_Int_Tables_number   1
_chemical_formula_structural   Zr10CuBi5PPb
_chemical_formula_sum   'Zr10 Cu1 Bi5 P1 Pb1'
_cell_volume   398.73541589
_cell_formula_units_Z   1
loop_
 _symmetry_equiv_pos_site_id
 _symmetry_equiv_pos_as_xyz
  1  'x, y, z'
loop_
 _atom_site_type_symbol
 _atom_site_label
 _atom_site_symmetry_multiplicity
 _atom_site_fract_x
 _atom_site_fract_y
 _atom_site_fract_z
 _atom_site_occupancy
  Zr  Zr0  1  0.667492  0.333542  0.501055  1
  Zr  Zr1  1  0.332508  0.666051  0.501055  1
  Zr  Zr2  1  0.333249  0.666707  0.999064  1
  Zr  Zr3  1  0.666751  0.333457  0.999064  1
  Zr  Zr4  1  0.746364  0.746211  0.258899  1
  Zr  Zr5  1  0.253636  0.999847  0.258899  1
  Zr  Zr6  1  0.000000  0.253325  0.259083  1
  Zr  Zr7  1  0.253194  0.254167  0.741018  1
  Zr  Zr8  1  0.746806  0.000973  0.741018  1
  Zr  Zr9  1  0.000000  0.746263  0.740919  1
  Cu  Cu10  1  0.000000  0.000247  0.999794  1
  Bi  Bi11  1  0.391495  0.392312  0.246468  1
  Bi  Bi12  1  0.608505  0.000818  0.246468  1
  Bi  Bi13  1  0.000000  0.606525  0.246182  1
  Bi  Bi14  1  0.607992  0.607960  0.753710  1
  Bi  Bi15  1  0.392008  0.999968  0.753710  1
  P  P16  1  0.000000  0.000437  0.499990  1
  Pb  Pb17  1  0.000000  0.391187  0.753604  1
