# generated using pymatgen
data_Ti4SnRh10Pb
_symmetry_space_group_name_H-M   'P 1'
_cell_length_a   4.03187800
_cell_length_b   5.53358375
_cell_length_c   11.03128195
_cell_angle_alpha   89.69204218
_cell_angle_beta   90.00000000
_cell_angle_gamma   90.00000000
_symmetry_Int_Tables_number   1
_chemical_formula_structural   Ti4SnRh10Pb
_chemical_formula_sum   'Ti4 Sn1 Rh10 Pb1'
_cell_volume   246.11244869
_cell_formula_units_Z   1
loop_
 _symmetry_equiv_pos_site_id
 _symmetry_equiv_pos_as_xyz
  1  'x, y, z'
loop_
 _atom_site_type_symbol
 _atom_site_label
 _atom_site_symmetry_multiplicity
 _atom_site_fract_x
 _atom_site_fract_y
 _atom_site_fract_z
 _atom_site_occupancy
  Ti  Ti0  1  0.500000  0.313045  0.141621  1
  Ti  Ti1  1  0.500000  0.686955  0.858379  1
  Ti  Ti2  1  0.500000  0.813480  0.354433  1
  Ti  Ti3  1  0.500000  0.186520  0.645567  1
  Sn  Sn4  1  0.000000  0.000000  0.000000  1
  Rh  Rh5  1  0.000000  0.000000  0.500000  1
  Rh  Rh6  1  0.000000  0.500000  0.000000  1
  Rh  Rh7  1  0.000000  0.041534  0.249075  1
  Rh  Rh8  1  0.000000  0.958466  0.750925  1
  Rh  Rh9  1  0.000000  0.542021  0.247000  1
  Rh  Rh10  1  0.000000  0.457979  0.753000  1
  Rh  Rh11  1  0.500000  0.271449  0.373651  1
  Rh  Rh12  1  0.500000  0.728551  0.626349  1
  Rh  Rh13  1  0.500000  0.779594  0.120479  1
  Rh  Rh14  1  0.500000  0.220406  0.879521  1
  Pb  Pb15  1  0.000000  0.500000  0.500000  1
