# generated using pymatgen
data_Lu6Co(Si2Ru)3
_symmetry_space_group_name_H-M   'P 1'
_cell_length_a   5.59907283
_cell_length_b   5.59907375
_cell_length_c   13.42434981
_cell_angle_alpha   89.73079138
_cell_angle_beta   90.26920838
_cell_angle_gamma   136.76166675
_symmetry_Int_Tables_number   1
_chemical_formula_structural   Lu6Co(Si2Ru)3
_chemical_formula_sum   'Lu6 Co1 Si6 Ru3'
_cell_volume   288.29198325
_cell_formula_units_Z   1
loop_
 _symmetry_equiv_pos_site_id
 _symmetry_equiv_pos_as_xyz
  1  'x, y, z'
loop_
 _atom_site_type_symbol
 _atom_site_label
 _atom_site_symmetry_multiplicity
 _atom_site_fract_x
 _atom_site_fract_y
 _atom_site_fract_z
 _atom_site_occupancy
  Lu  Lu0  1  0.642698  0.357302  0.249370  1
  Lu  Lu1  1  0.357564  0.642436  0.749320  1
  Lu  Lu2  1  0.920494  0.079506  0.111753  1
  Lu  Lu3  1  0.074611  0.925389  0.885391  1
  Lu  Lu4  1  0.077679  0.922321  0.616712  1
  Lu  Lu5  1  0.924716  0.075284  0.385300  1
  Co  Co6  1  0.786674  0.213326  0.921130  1
  Si  Si7  1  0.333833  0.666167  0.249268  1
  Si  Si8  1  0.667315  0.332685  0.754988  1
  Si  Si9  1  0.614739  0.385261  0.035013  1
  Si  Si10  1  0.381037  0.618963  0.958305  1
  Si  Si11  1  0.388293  0.611707  0.538401  1
  Si  Si12  1  0.615305  0.384695  0.462941  1
  Ru  Ru13  1  0.790970  0.209030  0.584841  1
  Ru  Ru14  1  0.212694  0.787306  0.418373  1
  Ru  Ru15  1  0.211378  0.788622  0.078893  1
