# generated using pymatgen
data_Pr20(Si3Au)3
_symmetry_space_group_name_H-M   'P 1'
_cell_length_a   7.77479300
_cell_length_b   7.77479300
_cell_length_c   14.76319600
_cell_angle_alpha   90.00000000
_cell_angle_beta   90.00000000
_cell_angle_gamma   90.00000000
_symmetry_Int_Tables_number   1
_chemical_formula_structural   Pr20(Si3Au)3
_chemical_formula_sum   'Pr20 Si9 Au3'
_cell_volume   892.39690532
_cell_formula_units_Z   1
loop_
 _symmetry_equiv_pos_site_id
 _symmetry_equiv_pos_as_xyz
  1  'x, y, z'
loop_
 _atom_site_type_symbol
 _atom_site_label
 _atom_site_symmetry_multiplicity
 _atom_site_fract_x
 _atom_site_fract_y
 _atom_site_fract_z
 _atom_site_occupancy
  Pr  Pr0  1  0.815543  0.827247  0.605337  1
  Pr  Pr1  1  0.187077  0.840455  0.110345  1
  Pr  Pr2  1  0.158749  0.810549  0.393276  1
  Pr  Pr3  1  0.000000  0.500000  0.726817  1
  Pr  Pr4  1  0.841251  0.189451  0.393276  1
  Pr  Pr5  1  0.689451  0.658749  0.393276  1
  Pr  Pr6  1  0.672753  0.315543  0.605337  1
  Pr  Pr7  1  0.327247  0.684457  0.605337  1
  Pr  Pr8  1  0.000000  0.500000  0.220678  1
  Pr  Pr9  1  0.659545  0.687077  0.110345  1
  Pr  Pr10  1  0.689568  0.338543  0.888862  1
  Pr  Pr11  1  0.838543  0.810432  0.888862  1
  Pr  Pr12  1  0.310549  0.341251  0.393276  1
  Pr  Pr13  1  0.184457  0.172753  0.605337  1
  Pr  Pr14  1  0.812923  0.159545  0.110345  1
  Pr  Pr15  1  0.310432  0.661457  0.888862  1
  Pr  Pr16  1  0.340455  0.312923  0.110345  1
  Pr  Pr17  1  0.500000  0.000000  0.285168  1
  Pr  Pr18  1  0.161457  0.189568  0.888862  1
  Pr  Pr19  1  0.500000  0.000000  0.775426  1
  Si  Si20  1  0.615351  0.384352  0.252852  1
  Si  Si21  1  0.114755  0.887834  0.746041  1
  Si  Si22  1  0.387834  0.385245  0.746041  1
  Si  Si23  1  0.384649  0.615648  0.252852  1
  Si  Si24  1  0.884352  0.884649  0.252852  1
  Si  Si25  1  0.612166  0.614755  0.746041  1
  Si  Si26  1  0.000000  0.500000  0.508655  1
  Si  Si27  1  0.885245  0.112166  0.746041  1
  Si  Si28  1  0.115648  0.115351  0.252852  1
  Au  Au29  1  0.500000  0.000000  0.497313  1
  Au  Au30  1  0.500000  0.000000  0.996544  1
  Au  Au31  1  0.000000  0.500000  0.002544  1
