# generated using pymatgen
data_Na(MnS2)8
_symmetry_space_group_name_H-M   'P 1'
_cell_length_a   6.66432774
_cell_length_b   6.66185081
_cell_length_c   13.56439335
_cell_angle_alpha   90.01748699
_cell_angle_beta   89.94696309
_cell_angle_gamma   119.95100893
_symmetry_Int_Tables_number   1
_chemical_formula_structural   Na(MnS2)8
_chemical_formula_sum   'Na1 Mn8 S16'
_cell_volume   521.79059668
_cell_formula_units_Z   1
loop_
 _symmetry_equiv_pos_site_id
 _symmetry_equiv_pos_as_xyz
  1  'x, y, z'
loop_
 _atom_site_type_symbol
 _atom_site_label
 _atom_site_symmetry_multiplicity
 _atom_site_fract_x
 _atom_site_fract_y
 _atom_site_fract_z
 _atom_site_occupancy
  Na  Na0  1  0.000000  0.000000  0.000000  1
  Mn  Mn1  1  0.500819  0.498501  0.739906  1
  Mn  Mn2  1  0.499181  0.501499  0.260094  1
  Mn  Mn3  1  0.500132  0.001440  0.740056  1
  Mn  Mn4  1  0.499868  0.998560  0.259944  1
  Mn  Mn5  1  0.999011  0.499850  0.739971  1
  Mn  Mn6  1  0.000989  0.500150  0.260029  1
  Mn  Mn7  1  0.999444  0.999956  0.738262  1
  Mn  Mn8  1  0.000556  0.000044  0.261738  1
  S  S9  1  0.833478  0.666923  0.162120  1
  S  S10  1  0.832472  0.665311  0.642139  1
  S  S11  1  0.833271  0.167097  0.162051  1
  S  S12  1  0.832669  0.166655  0.642257  1
  S  S13  1  0.333941  0.666682  0.161486  1
  S  S14  1  0.332475  0.666552  0.643098  1
  S  S15  1  0.332243  0.166035  0.162147  1
  S  S16  1  0.335176  0.167673  0.642127  1
  S  S17  1  0.667757  0.833965  0.837853  1
  S  S18  1  0.664824  0.832327  0.357873  1
  S  S19  1  0.666059  0.333318  0.838514  1
  S  S20  1  0.667525  0.333448  0.356902  1
  S  S21  1  0.166729  0.832903  0.837949  1
  S  S22  1  0.167331  0.833345  0.357743  1
  S  S23  1  0.166522  0.333077  0.837880  1
  S  S24  1  0.167528  0.334689  0.357861  1
