# generated using pymatgen
data_Tb3BRh6Pb
_symmetry_space_group_name_H-M   'P 1'
_cell_length_a   5.83558800
_cell_length_b   5.83558711
_cell_length_c   14.05533200
_cell_angle_alpha   90.00000000
_cell_angle_beta   90.00000000
_cell_angle_gamma   119.99999373
_symmetry_Int_Tables_number   1
_chemical_formula_structural   Tb3BRh6Pb
_chemical_formula_sum   'Tb6 B2 Rh12 Pb2'
_cell_volume   414.51566370
_cell_formula_units_Z   2
loop_
 _symmetry_equiv_pos_site_id
 _symmetry_equiv_pos_as_xyz
  1  'x, y, z'
loop_
 _atom_site_type_symbol
 _atom_site_label
 _atom_site_symmetry_multiplicity
 _atom_site_fract_x
 _atom_site_fract_y
 _atom_site_fract_z
 _atom_site_occupancy
  Tb  Tb0  1  0.000000  0.000000  0.750000  1
  Tb  Tb1  1  0.000000  0.000000  0.250000  1
  Tb  Tb2  1  0.333333  0.666667  0.412861  1
  Tb  Tb3  1  0.666667  0.333333  0.912861  1
  Tb  Tb4  1  0.666667  0.333333  0.587139  1
  Tb  Tb5  1  0.333333  0.666667  0.087139  1
  B  B6  1  0.000000  0.000000  0.500000  1
  B  B7  1  0.000000  0.000000  0.000000  1
  Rh  Rh8  1  0.341806  0.170904  0.414534  1
  Rh  Rh9  1  0.829096  0.170904  0.414534  1
  Rh  Rh10  1  0.829096  0.658194  0.414534  1
  Rh  Rh11  1  0.170904  0.341806  0.914534  1
  Rh  Rh12  1  0.658194  0.829096  0.585466  1
  Rh  Rh13  1  0.658194  0.829096  0.914534  1
  Rh  Rh14  1  0.341806  0.170904  0.085466  1
  Rh  Rh15  1  0.170904  0.341806  0.585466  1
  Rh  Rh16  1  0.170904  0.829096  0.585466  1
  Rh  Rh17  1  0.829096  0.170904  0.085466  1
  Rh  Rh18  1  0.829096  0.658194  0.085466  1
  Rh  Rh19  1  0.170904  0.829096  0.914534  1
  Pb  Pb20  1  0.333333  0.666667  0.750000  1
  Pb  Pb21  1  0.666667  0.333333  0.250000  1
