# generated using pymatgen
data_Dy2Er3LuGaCo2
_symmetry_space_group_name_H-M   'P 1'
_cell_length_a   8.19651540
_cell_length_b   8.19651562
_cell_length_c   8.19651504
_cell_angle_alpha   106.88682238
_cell_angle_beta   109.29773639
_cell_angle_gamma   112.27428397
_symmetry_Int_Tables_number   1
_chemical_formula_structural   Dy2Er3LuGaCo2
_chemical_formula_sum   'Dy4 Er6 Lu2 Ga2 Co4'
_cell_volume   422.95938569
_cell_formula_units_Z   2
loop_
 _symmetry_equiv_pos_site_id
 _symmetry_equiv_pos_as_xyz
  1  'x, y, z'
loop_
 _atom_site_type_symbol
 _atom_site_label
 _atom_site_symmetry_multiplicity
 _atom_site_fract_x
 _atom_site_fract_y
 _atom_site_fract_z
 _atom_site_occupancy
  Dy  Dy0  1  0.699012  0.262035  0.961270  1
  Dy  Dy1  1  0.300765  0.737742  0.038730  1
  Dy  Dy2  1  0.699012  0.737742  0.436979  1
  Dy  Dy3  1  0.300765  0.262035  0.563021  1
  Er  Er4  1  0.189434  0.862581  0.673147  1
  Er  Er5  1  0.189434  0.516287  0.326853  1
  Er  Er6  1  0.601443  0.781178  0.820265  1
  Er  Er7  1  0.960912  0.781178  0.179735  1
  Er  Er8  1  0.037987  0.218977  0.819009  1
  Er  Er9  1  0.399968  0.218977  0.180991  1
  Lu  Lu10  1  0.811058  0.138441  0.327383  1
  Lu  Lu11  1  0.811058  0.483675  0.672617  1
  Ga  Ga12  1  0.500092  0.500092  0.000000  1
  Ga  Ga13  1  0.500584  0.000584  0.500000  1
  Co  Co14  1  0.841874  0.499411  0.342463  1
  Co  Co15  1  0.156948  0.499411  0.657537  1
  Co  Co16  1  0.999827  0.115564  0.115737  1
  Co  Co17  1  0.999827  0.884090  0.884263  1
