# generated using pymatgen
data_Na2GaCuPt2
_symmetry_space_group_name_H-M   'P 1'
_cell_length_a   5.56453094
_cell_length_b   5.33198336
_cell_length_c   5.15735990
_cell_angle_alpha   59.55075693
_cell_angle_beta   57.35211823
_cell_angle_gamma   58.54645905
_symmetry_Int_Tables_number   1
_chemical_formula_structural   Na2GaCuPt2
_chemical_formula_sum   'Na2 Ga1 Cu1 Pt2'
_cell_volume   104.36507029
_cell_formula_units_Z   1
loop_
 _symmetry_equiv_pos_site_id
 _symmetry_equiv_pos_as_xyz
  1  'x, y, z'
loop_
 _atom_site_type_symbol
 _atom_site_label
 _atom_site_symmetry_multiplicity
 _atom_site_fract_x
 _atom_site_fract_y
 _atom_site_fract_z
 _atom_site_occupancy
  Na  Na0  1  0.505208  0.500635  0.488947  1
  Na  Na1  1  0.744792  0.749365  0.761053  1
  Ga  Ga2  1  0.125000  0.125000  0.625000  1
  Cu  Cu3  1  0.125000  0.625000  0.125000  1
  Pt  Pt4  1  0.125000  0.125000  0.125000  1
  Pt  Pt5  1  0.625000  0.125000  0.125000  1
