# generated using pymatgen
data_Y4Co11(P4Pd3)3
_symmetry_space_group_name_H-M   'P 1'
_cell_length_a   3.78848200
_cell_length_b   10.54893924
_cell_length_c   12.46441991
_cell_angle_alpha   90.11974367
_cell_angle_beta   90.00000000
_cell_angle_gamma   90.00000000
_symmetry_Int_Tables_number   1
_chemical_formula_structural   Y4Co11(P4Pd3)3
_chemical_formula_sum   'Y4 Co11 P12 Pd9'
_cell_volume   498.13280338
_cell_formula_units_Z   1
loop_
 _symmetry_equiv_pos_site_id
 _symmetry_equiv_pos_as_xyz
  1  'x, y, z'
loop_
 _atom_site_type_symbol
 _atom_site_label
 _atom_site_symmetry_multiplicity
 _atom_site_fract_x
 _atom_site_fract_y
 _atom_site_fract_z
 _atom_site_occupancy
  Y  Y0  1  0.250000  0.918367  0.211848  1
  Y  Y1  1  0.750000  0.076674  0.789704  1
  Y  Y2  1  0.750000  0.418174  0.286380  1
  Y  Y3  1  0.250000  0.583251  0.714736  1
  Co  Co4  1  0.750000  0.723707  0.321450  1
  Co  Co5  1  0.750000  0.775740  0.823420  1
  Co  Co6  1  0.250000  0.223914  0.177545  1
  Co  Co7  1  0.250000  0.620857  0.195349  1
  Co  Co8  1  0.750000  0.383536  0.805752  1
  Co  Co9  1  0.750000  0.120231  0.303621  1
  Co  Co10  1  0.250000  0.874985  0.695924  1
  Co  Co11  1  0.250000  0.037961  0.431793  1
  Co  Co12  1  0.750000  0.958404  0.564277  1
  Co  Co13  1  0.750000  0.538566  0.067458  1
  Co  Co14  1  0.250000  0.464854  0.936100  1
  P  P15  1  0.250000  0.059021  0.609102  1
  P  P16  1  0.750000  0.926552  0.385635  1
  P  P17  1  0.750000  0.574667  0.889357  1
  P  P18  1  0.250000  0.427364  0.113352  1
  P  P19  1  0.250000  0.223670  0.354507  1
  P  P20  1  0.750000  0.775258  0.646630  1
  P  P21  1  0.750000  0.723233  0.145263  1
  P  P22  1  0.250000  0.278119  0.865744  1
  P  P23  1  0.250000  0.890620  0.872878  1
  P  P24  1  0.750000  0.107948  0.127968  1
  P  P25  1  0.750000  0.404240  0.623111  1
  P  P26  1  0.250000  0.609568  0.370817  1
  Pd  Pd27  1  0.250000  0.791179  0.482379  1
  Pd  Pd28  1  0.750000  0.213266  0.509859  1
  Pd  Pd29  1  0.750000  0.289623  0.015234  1
  Pd  Pd30  1  0.250000  0.710901  0.986411  1
  Pd  Pd31  1  0.250000  0.091479  0.976576  1
  Pd  Pd32  1  0.750000  0.906025  0.026401  1
  Pd  Pd33  1  0.750000  0.597827  0.523712  1
  Pd  Pd34  1  0.250000  0.410714  0.472196  1
  Pd  Pd35  1  0.250000  0.269505  0.677506  1
