# generated using pymatgen
data_ReTc5Cl18
_symmetry_space_group_name_H-M   'P 1'
_cell_length_a   9.51281316
_cell_length_b   9.51860748
_cell_length_c   9.51860734
_cell_angle_alpha   65.91995531
_cell_angle_beta   66.00275724
_cell_angle_gamma   66.00275621
_symmetry_Int_Tables_number   1
_chemical_formula_structural   ReTc5Cl18
_chemical_formula_sum   'Re1 Tc5 Cl18'
_cell_volume   688.27688098
_cell_formula_units_Z   1
loop_
 _symmetry_equiv_pos_site_id
 _symmetry_equiv_pos_as_xyz
  1  'x, y, z'
loop_
 _atom_site_type_symbol
 _atom_site_label
 _atom_site_symmetry_multiplicity
 _atom_site_fract_x
 _atom_site_fract_y
 _atom_site_fract_z
 _atom_site_occupancy
  Re  Re0  1  0.377066  0.143354  0.143354  1
  Tc  Tc1  1  0.142124  0.379305  0.143328  1
  Tc  Tc2  1  0.142124  0.143328  0.379305  1
  Tc  Tc3  1  0.622710  0.856220  0.856220  1
  Tc  Tc4  1  0.856935  0.621472  0.857092  1
  Tc  Tc5  1  0.856935  0.857092  0.621472  1
  Cl  Cl6  1  0.377316  0.909648  0.372880  1
  Cl  Cl7  1  0.377316  0.372880  0.909648  1
  Cl  Cl8  1  0.910831  0.375413  0.375413  1
  Cl  Cl9  1  0.625238  0.089625  0.625072  1
  Cl  Cl10  1  0.625238  0.625072  0.089625  1
  Cl  Cl11  1  0.088963  0.624885  0.624885  1
  Cl  Cl12  1  0.325668  0.011862  0.011862  1
  Cl  Cl13  1  0.009853  0.329730  0.008309  1
  Cl  Cl14  1  0.009853  0.008309  0.329730  1
  Cl  Cl15  1  0.669831  0.990935  0.990935  1
  Cl  Cl16  1  0.990231  0.672682  0.988548  1
  Cl  Cl17  1  0.990231  0.988548  0.672682  1
  Cl  Cl18  1  0.526336  0.217682  0.217682  1
  Cl  Cl19  1  0.219301  0.528115  0.216895  1
  Cl  Cl20  1  0.219301  0.216895  0.528115  1
  Cl  Cl21  1  0.474663  0.781288  0.781288  1
  Cl  Cl22  1  0.780968  0.474406  0.781254  1
  Cl  Cl23  1  0.780968  0.781254  0.474406  1
