# generated using pymatgen
data_Zr2Pt3Au
_symmetry_space_group_name_H-M   'P 1'
_cell_length_a   3.54896900
_cell_length_b   7.03830796
_cell_length_c   8.74184713
_cell_angle_alpha   89.99100340
_cell_angle_beta   90.00000000
_cell_angle_gamma   90.00000000
_symmetry_Int_Tables_number   1
_chemical_formula_structural   Zr2Pt3Au
_chemical_formula_sum   'Zr4 Pt6 Au2'
_cell_volume   218.36029549
_cell_formula_units_Z   2
loop_
 _symmetry_equiv_pos_site_id
 _symmetry_equiv_pos_as_xyz
  1  'x, y, z'
loop_
 _atom_site_type_symbol
 _atom_site_label
 _atom_site_symmetry_multiplicity
 _atom_site_fract_x
 _atom_site_fract_y
 _atom_site_fract_z
 _atom_site_occupancy
  Zr  Zr0  1  0.250000  0.615872  0.754208  1
  Zr  Zr1  1  0.750000  0.384128  0.245792  1
  Zr  Zr2  1  0.250000  0.130609  0.761298  1
  Zr  Zr3  1  0.750000  0.869391  0.238702  1
  Pt  Pt4  1  0.750000  0.374163  0.913327  1
  Pt  Pt5  1  0.250000  0.625837  0.086673  1
  Pt  Pt6  1  0.250000  0.126526  0.092861  1
  Pt  Pt7  1  0.750000  0.873474  0.907139  1
  Pt  Pt8  1  0.250000  0.625035  0.409231  1
  Pt  Pt9  1  0.750000  0.374965  0.590769  1
  Au  Au10  1  0.750000  0.872369  0.582790  1
  Au  Au11  1  0.250000  0.127631  0.417210  1
