# generated using pymatgen
data_Tm4HgRh
_symmetry_space_group_name_H-M   'P 1'
_cell_length_a   9.46016500
_cell_length_b   9.46016492
_cell_length_c   9.46016500
_cell_angle_alpha   120.00000378
_cell_angle_beta   90.00000000
_cell_angle_gamma   120.00000378
_symmetry_Int_Tables_number   1
_chemical_formula_structural   Tm4HgRh
_chemical_formula_sum   'Tm16 Hg4 Rh4'
_cell_volume   598.66115948
_cell_formula_units_Z   4
loop_
 _symmetry_equiv_pos_site_id
 _symmetry_equiv_pos_as_xyz
  1  'x, y, z'
loop_
 _atom_site_type_symbol
 _atom_site_label
 _atom_site_symmetry_multiplicity
 _atom_site_fract_x
 _atom_site_fract_y
 _atom_site_fract_z
 _atom_site_occupancy
  Tm  Tm0  1  0.351513  0.703026  0.054539  1
  Tm  Tm1  1  0.937015  0.499999  0.062984  1
  Tm  Tm2  1  0.562984  0.125969  0.062984  1
  Tm  Tm3  1  0.562984  0.499999  0.062984  1
  Tm  Tm4  1  0.189318  0.000000  0.189318  1
  Tm  Tm5  1  0.810682  0.000000  0.189318  1
  Tm  Tm6  1  0.189318  0.378636  0.189318  1
  Tm  Tm7  1  0.562984  0.499999  0.437015  1
  Tm  Tm8  1  0.937015  0.499999  0.437016  1
  Tm  Tm9  1  0.937015  0.874031  0.437016  1
  Tm  Tm10  1  0.351513  0.296974  0.648487  1
  Tm  Tm11  1  0.945461  0.296974  0.648487  1
  Tm  Tm12  1  0.351513  0.703026  0.648487  1
  Tm  Tm13  1  0.810682  0.000000  0.810682  1
  Tm  Tm14  1  0.189318  0.000000  0.810682  1
  Tm  Tm15  1  0.810682  0.621364  0.810682  1
  Hg  Hg16  1  0.584504  0.169008  0.415496  1
  Hg  Hg17  1  0.246490  0.830992  0.415496  1
  Hg  Hg18  1  0.584504  0.830992  0.415496  1
  Hg  Hg19  1  0.584504  0.169008  0.753510  1
  Rh  Rh20  1  0.143124  0.286247  0.429371  1
  Rh  Rh21  1  0.143124  0.286247  0.856876  1
  Rh  Rh22  1  0.143124  0.713753  0.856876  1
  Rh  Rh23  1  0.570629  0.713753  0.856876  1
