# generated using pymatgen
data_Lu5TlPb2
_symmetry_space_group_name_H-M   'P 1'
_cell_length_a   6.53416800
_cell_length_b   8.84170313
_cell_length_c   8.82325518
_cell_angle_alpha   119.88324335
_cell_angle_beta   90.00030585
_cell_angle_gamma   90.00111944
_symmetry_Int_Tables_number   1
_chemical_formula_structural   Lu5TlPb2
_chemical_formula_sum   'Lu10 Tl2 Pb4'
_cell_volume   441.97270600
_cell_formula_units_Z   2
loop_
 _symmetry_equiv_pos_site_id
 _symmetry_equiv_pos_as_xyz
  1  'x, y, z'
loop_
 _atom_site_type_symbol
 _atom_site_label
 _atom_site_symmetry_multiplicity
 _atom_site_fract_x
 _atom_site_fract_y
 _atom_site_fract_z
 _atom_site_occupancy
  Lu  Lu0  1  0.496196  0.333063  0.663186  1
  Lu  Lu1  1  0.496005  0.670515  0.337067  1
  Lu  Lu2  1  0.004018  0.670495  0.337063  1
  Lu  Lu3  1  0.003819  0.333193  0.663216  1
  Lu  Lu4  1  0.749800  0.233019  0.999367  1
  Lu  Lu5  1  0.749929  0.767230  0.766244  1
  Lu  Lu6  1  0.749923  0.000238  0.232898  1
  Lu  Lu7  1  0.249883  0.767221  0.000640  1
  Lu  Lu8  1  0.249910  0.231256  0.236751  1
  Lu  Lu9  1  0.249868  0.994941  0.762905  1
  Tl  Tl10  1  0.250404  0.601146  0.601936  1
  Tl  Tl11  1  0.250076  0.999689  0.398890  1
  Pb  Pb12  1  0.750025  0.601285  0.000118  1
  Pb  Pb13  1  0.750102  0.399648  0.397312  1
  Pb  Pb14  1  0.750037  0.002477  0.602117  1
  Pb  Pb15  1  0.250008  0.394587  0.000291  1
