# generated using pymatgen
data_Ac3Al11Cd
_symmetry_space_group_name_H-M   'P 1'
_cell_length_a   9.01239052
_cell_length_b   9.01238967
_cell_length_c   9.01238869
_cell_angle_alpha   150.36329563
_cell_angle_beta   105.09593294
_cell_angle_gamma   82.55269505
_symmetry_Int_Tables_number   1
_chemical_formula_structural   Ac3Al11Cd
_chemical_formula_sum   'Ac3 Al11 Cd1'
_cell_volume   342.23758773
_cell_formula_units_Z   1
loop_
 _symmetry_equiv_pos_site_id
 _symmetry_equiv_pos_as_xyz
  1  'x, y, z'
loop_
 _atom_site_type_symbol
 _atom_site_label
 _atom_site_symmetry_multiplicity
 _atom_site_fract_x
 _atom_site_fract_y
 _atom_site_fract_z
 _atom_site_occupancy
  Ac  Ac0  1  0.000182  0.000000  0.000182  1
  Ac  Ac1  1  0.330060  0.330118  0.999942  1
  Ac  Ac2  1  0.669822  0.669882  0.999942  1
  Al  Al3  1  0.375479  0.000000  0.375479  1
  Al  Al4  1  0.251211  0.500000  0.751211  1
  Al  Al5  1  0.756555  0.500000  0.256555  1
  Al  Al6  1  0.584293  0.829866  0.754427  1
  Al  Al7  1  0.924561  0.170134  0.754427  1
  Al  Al8  1  0.287939  0.667304  0.620635  1
  Al  Al9  1  0.953330  0.332696  0.620635  1
  Al  Al10  1  0.047746  0.667173  0.380573  1
  Al  Al11  1  0.713398  0.332827  0.380573  1
  Al  Al12  1  0.082107  0.833290  0.248819  1
  Al  Al13  1  0.415528  0.166710  0.248819  1
  Cd  Cd14  1  0.618786  0.000000  0.618786  1
