# generated using pymatgen
data_CaHo7(SiPd)8
_symmetry_space_group_name_H-M   'P 1'
_cell_length_a   4.31281000
_cell_length_b   7.50759511
_cell_length_c   13.92290918
_cell_angle_alpha   89.98082066
_cell_angle_beta   89.99984618
_cell_angle_gamma   89.99955282
_symmetry_Int_Tables_number   1
_chemical_formula_structural   CaHo7(SiPd)8
_chemical_formula_sum   'Ca1 Ho7 Si8 Pd8'
_cell_volume   450.80750202
_cell_formula_units_Z   1
loop_
 _symmetry_equiv_pos_site_id
 _symmetry_equiv_pos_as_xyz
  1  'x, y, z'
loop_
 _atom_site_type_symbol
 _atom_site_label
 _atom_site_symmetry_multiplicity
 _atom_site_fract_x
 _atom_site_fract_y
 _atom_site_fract_z
 _atom_site_occupancy
  Ca  Ca0  1  0.499993  0.793546  0.749276  1
  Ho  Ho1  1  0.999992  0.300681  0.000245  1
  Ho  Ho2  1  0.500005  0.698885  0.500757  1
  Ho  Ho3  1  0.000013  0.292815  0.500077  1
  Ho  Ho4  1  0.499989  0.707304  0.999093  1
  Ho  Ho5  1  0.000008  0.209498  0.249209  1
  Ho  Ho6  1  0.499984  0.791021  0.250272  1
  Ho  Ho7  1  0.000013  0.206955  0.751237  1
  Si  Si8  1  0.000001  0.910085  0.590070  1
  Si  Si9  1  0.500004  0.092368  0.908675  1
  Si  Si10  1  0.999999  0.907258  0.405932  1
  Si  Si11  1  0.499998  0.093265  0.093430  1
  Si  Si12  1  0.999992  0.593209  0.143269  1
  Si  Si13  1  0.500010  0.406800  0.355856  1
  Si  Si14  1  0.000002  0.592346  0.859005  1
  Si  Si15  1  0.499995  0.405445  0.645411  1
  Pd  Pd16  1  0.500003  0.078987  0.605834  1
  Pd  Pd17  1  0.999999  0.923613  0.893929  1
  Pd  Pd18  1  0.500004  0.076223  0.391502  1
  Pd  Pd19  1  0.999999  0.923982  0.108377  1
  Pd  Pd20  1  0.499994  0.420760  0.157789  1
  Pd  Pd21  1  0.000011  0.579830  0.343078  1
  Pd  Pd22  1  0.500014  0.418465  0.842477  1
  Pd  Pd23  1  0.999978  0.576658  0.655199  1
