# generated using pymatgen
data_Sc12Al3Tc2
_symmetry_space_group_name_H-M   'P 1'
_cell_length_a   7.84767929
_cell_length_b   7.84767964
_cell_length_c   7.84767932
_cell_angle_alpha   110.05251706
_cell_angle_beta   110.05251710
_cell_angle_gamma   108.31476827
_symmetry_Int_Tables_number   1
_chemical_formula_structural   Sc12Al3Tc2
_chemical_formula_sum   'Sc12 Al3 Tc2'
_cell_volume   371.93713822
_cell_formula_units_Z   1
loop_
 _symmetry_equiv_pos_site_id
 _symmetry_equiv_pos_as_xyz
  1  'x, y, z'
loop_
 _atom_site_type_symbol
 _atom_site_label
 _atom_site_symmetry_multiplicity
 _atom_site_fract_x
 _atom_site_fract_y
 _atom_site_fract_z
 _atom_site_occupancy
  Sc  Sc0  1  0.448838  0.192844  0.255993  1
  Sc  Sc1  1  0.551162  0.807156  0.744007  1
  Sc  Sc2  1  0.936851  0.192844  0.744007  1
  Sc  Sc3  1  0.192844  0.936851  0.744007  1
  Sc  Sc4  1  0.063149  0.807156  0.255993  1
  Sc  Sc5  1  0.807156  0.063149  0.255993  1
  Sc  Sc6  1  0.192844  0.448838  0.255993  1
  Sc  Sc7  1  0.807156  0.551162  0.744007  1
  Sc  Sc8  1  0.315379  0.315379  0.630756  1
  Sc  Sc9  1  0.684621  0.684621  0.369244  1
  Sc  Sc10  1  0.315379  0.684621  0.000000  1
  Sc  Sc11  1  0.684621  0.315379  0.000000  1
  Al  Al12  1  0.500000  0.000000  0.500000  1
  Al  Al13  1  0.000000  0.500000  0.500000  1
  Al  Al14  1  0.000000  0.000000  0.000000  1
  Tc  Tc15  1  0.333087  0.333087  0.000000  1
  Tc  Tc16  1  0.666913  0.666913  0.000000  1
