# generated using pymatgen
data_HoZr3(BiRh5)2
_symmetry_space_group_name_H-M   'P 1'
_cell_length_a   5.76166455
_cell_length_b   5.76166347
_cell_length_c   8.34012001
_cell_angle_alpha   89.99698074
_cell_angle_beta   89.99697431
_cell_angle_gamma   97.33352394
_symmetry_Int_Tables_number   1
_chemical_formula_structural   HoZr3(BiRh5)2
_chemical_formula_sum   'Ho1 Zr3 Bi2 Rh10'
_cell_volume   274.60028641
_cell_formula_units_Z   1
loop_
 _symmetry_equiv_pos_site_id
 _symmetry_equiv_pos_as_xyz
  1  'x, y, z'
loop_
 _atom_site_type_symbol
 _atom_site_label
 _atom_site_symmetry_multiplicity
 _atom_site_fract_x
 _atom_site_fract_y
 _atom_site_fract_z
 _atom_site_occupancy
  Ho  Ho0  1  0.783689  0.216311  0.500000  1
  Zr  Zr1  1  0.210643  0.789357  0.000000  1
  Zr  Zr2  1  0.210140  0.789860  0.500000  1
  Zr  Zr3  1  0.789188  0.210812  0.000000  1
  Bi  Bi4  1  0.500340  0.502029  0.750853  1
  Bi  Bi5  1  0.497971  0.499660  0.249147  1
  Rh  Rh6  1  0.731789  0.732239  0.000639  1
  Rh  Rh7  1  0.732942  0.729778  0.499314  1
  Rh  Rh8  1  0.267761  0.268211  0.999361  1
  Rh  Rh9  1  0.270222  0.267058  0.500686  1
  Rh  Rh10  1  0.496718  0.997012  0.754082  1
  Rh  Rh11  1  0.496768  0.996489  0.245951  1
  Rh  Rh12  1  0.002833  0.997502  0.246019  1
  Rh  Rh13  1  0.002498  0.997167  0.753981  1
  Rh  Rh14  1  0.003511  0.503232  0.754049  1
  Rh  Rh15  1  0.002988  0.503282  0.245918  1
