# generated using pymatgen
data_PrNdCo3B8Os5
_symmetry_space_group_name_H-M   'P 1'
_cell_length_a   7.38320231
_cell_length_b   7.43605140
_cell_length_c   3.96295925
_cell_angle_alpha   89.76765538
_cell_angle_beta   90.08281298
_cell_angle_gamma   89.38476858
_symmetry_Int_Tables_number   1
_chemical_formula_structural   PrNdCo3B8Os5
_chemical_formula_sum   'Pr1 Nd1 Co3 B8 Os5'
_cell_volume   217.55930769
_cell_formula_units_Z   1
loop_
 _symmetry_equiv_pos_site_id
 _symmetry_equiv_pos_as_xyz
  1  'x, y, z'
loop_
 _atom_site_type_symbol
 _atom_site_label
 _atom_site_symmetry_multiplicity
 _atom_site_fract_x
 _atom_site_fract_y
 _atom_site_fract_z
 _atom_site_occupancy
  Pr  Pr0  1  0.499591  0.506290  0.584938  1
  Nd  Nd1  1  0.000392  0.999365  0.064903  1
  Co  Co2  1  0.370365  0.881050  0.378304  1
  Co  Co3  1  0.609676  0.865274  0.878153  1
  Co  Co4  1  0.376467  0.117071  0.881937  1
  B  B5  1  0.338252  0.814327  0.882568  1
  B  B6  1  0.664851  0.197911  0.881891  1
  B  B7  1  0.313728  0.156976  0.382277  1
  B  B8  1  0.689426  0.839264  0.380674  1
  B  B9  1  0.171950  0.729961  0.598667  1
  B  B10  1  0.833276  0.275280  0.601512  1
  B  B11  1  0.226193  0.324071  0.098938  1
  B  B12  1  0.771188  0.672250  0.099206  1
  Os  Os13  1  0.849110  0.396406  0.101701  1
  Os  Os14  1  0.158026  0.608036  0.101989  1
  Os  Os15  1  0.894196  0.657415  0.601871  1
  Os  Os16  1  0.112464  0.344583  0.601298  1
  Os  Os17  1  0.620850  0.114469  0.379169  1
