# generated using pymatgen
data_Er4Sc4Pt3Rh
_symmetry_space_group_name_H-M   'P 1'
_cell_length_a   4.55286800
_cell_length_b   6.96005766
_cell_length_c   8.40685735
_cell_angle_alpha   90.22096415
_cell_angle_beta   90.00000000
_cell_angle_gamma   90.00000000
_symmetry_Int_Tables_number   1
_chemical_formula_structural   Er4Sc4Pt3Rh
_chemical_formula_sum   'Er4 Sc4 Pt3 Rh1'
_cell_volume   266.39639610
_cell_formula_units_Z   1
loop_
 _symmetry_equiv_pos_site_id
 _symmetry_equiv_pos_as_xyz
  1  'x, y, z'
loop_
 _atom_site_type_symbol
 _atom_site_label
 _atom_site_symmetry_multiplicity
 _atom_site_fract_x
 _atom_site_fract_y
 _atom_site_fract_z
 _atom_site_occupancy
  Er  Er0  1  0.250000  0.482595  0.176088  1
  Er  Er1  1  0.750000  0.515515  0.826080  1
  Er  Er2  1  0.750000  0.016901  0.674792  1
  Er  Er3  1  0.250000  0.981970  0.325929  1
  Sc  Sc4  1  0.250000  0.857297  0.927023  1
  Sc  Sc5  1  0.750000  0.141173  0.072925  1
  Sc  Sc6  1  0.750000  0.641592  0.428268  1
  Sc  Sc7  1  0.250000  0.361473  0.574598  1
  Pt  Pt8  1  0.750000  0.254025  0.400381  1
  Pt  Pt9  1  0.750000  0.752485  0.100232  1
  Pt  Pt10  1  0.250000  0.246336  0.900200  1
  Rh  Rh11  1  0.250000  0.748636  0.593484  1
