# generated using pymatgen
data_Er2Tc(BRu)4
_symmetry_space_group_name_H-M   'P 1'
_cell_length_a   3.07929400
_cell_length_b   8.74776304
_cell_length_c   10.18765263
_cell_angle_alpha   90.29985511
_cell_angle_beta   90.00000000
_cell_angle_gamma   90.00000000
_symmetry_Int_Tables_number   1
_chemical_formula_structural   Er2Tc(BRu)4
_chemical_formula_sum   'Er4 Tc2 B8 Ru8'
_cell_volume   274.42037080
_cell_formula_units_Z   2
loop_
 _symmetry_equiv_pos_site_id
 _symmetry_equiv_pos_as_xyz
  1  'x, y, z'
loop_
 _atom_site_type_symbol
 _atom_site_label
 _atom_site_symmetry_multiplicity
 _atom_site_fract_x
 _atom_site_fract_y
 _atom_site_fract_z
 _atom_site_occupancy
  Er  Er0  1  0.500000  0.838884  0.179584  1
  Er  Er1  1  0.500000  0.161116  0.820416  1
  Er  Er2  1  0.500000  0.660408  0.684381  1
  Er  Er3  1  0.500000  0.339592  0.315619  1
  Tc  Tc4  1  0.000000  0.659004  0.953949  1
  Tc  Tc5  1  0.000000  0.340996  0.046051  1
  B  B6  1  0.500000  0.967495  0.589377  1
  B  B7  1  0.500000  0.032505  0.410623  1
  B  B8  1  0.500000  0.848537  0.903317  1
  B  B9  1  0.500000  0.151463  0.096683  1
  B  B10  1  0.500000  0.645654  0.398567  1
  B  B11  1  0.500000  0.354346  0.601433  1
  B  B12  1  0.500000  0.466292  0.914355  1
  B  B13  1  0.500000  0.533708  0.085645  1
  Ru  Ru14  1  0.000000  0.842156  0.454592  1
  Ru  Ru15  1  0.000000  0.157844  0.545408  1
  Ru  Ru16  1  0.000000  0.000000  0.000000  1
  Ru  Ru17  1  0.000000  0.406419  0.759377  1
  Ru  Ru18  1  0.000000  0.593581  0.240623  1
  Ru  Ru19  1  0.000000  0.500000  0.500000  1
  Ru  Ru20  1  0.000000  0.908913  0.738595  1
  Ru  Ru21  1  0.000000  0.091087  0.261405  1
