# generated using pymatgen
data_Pr5P12Ir13Ru6
_symmetry_space_group_name_H-M   'P 1'
_cell_length_a   12.73357000
_cell_length_b   12.72117856
_cell_length_c   4.03296900
_cell_angle_alpha   90.00000000
_cell_angle_beta   90.00000000
_cell_angle_gamma   119.72582137
_symmetry_Int_Tables_number   1
_chemical_formula_structural   Pr5P12Ir13Ru6
_chemical_formula_sum   'Pr5 P12 Ir13 Ru6'
_cell_volume   567.31765289
_cell_formula_units_Z   1
loop_
 _symmetry_equiv_pos_site_id
 _symmetry_equiv_pos_as_xyz
  1  'x, y, z'
loop_
 _atom_site_type_symbol
 _atom_site_label
 _atom_site_symmetry_multiplicity
 _atom_site_fract_x
 _atom_site_fract_y
 _atom_site_fract_z
 _atom_site_occupancy
  Pr  Pr0  1  0.667814  0.333141  0.000000  1
  Pr  Pr1  1  0.333008  0.665525  0.000000  1
  Pr  Pr2  1  0.814963  0.001592  0.500000  1
  Pr  Pr3  1  0.185220  0.185876  0.500000  1
  Pr  Pr4  1  0.999626  0.813885  0.500000  1
  P  P5  1  0.641337  0.004670  0.000000  1
  P  P6  1  0.365949  0.365835  0.000000  1
  P  P7  1  0.999396  0.634001  0.000000  1
  P  P8  1  0.689382  0.520812  0.500000  1
  P  P9  1  0.830243  0.307434  0.500000  1
  P  P10  1  0.308178  0.829111  0.500000  1
  P  P11  1  0.520437  0.687892  0.500000  1
  P  P12  1  0.183693  0.000589  0.000000  1
  P  P13  1  0.817262  0.818190  0.000000  1
  P  P14  1  0.997949  0.183434  0.000000  1
  P  P15  1  0.479351  0.170380  0.500000  1
  P  P16  1  0.167753  0.479236  0.500000  1
  Ir  Ir17  1  0.622287  0.804842  0.000000  1
  Ir  Ir18  1  0.181656  0.378146  0.000000  1
  Ir  Ir19  1  0.379476  0.181478  0.000000  1
  Ir  Ir20  1  0.197451  0.818469  0.000000  1
  Ir  Ir21  1  0.801454  0.621236  0.000000  1
  Ir  Ir22  1  0.871163  0.508048  0.500000  1
  Ir  Ir23  1  0.491334  0.364681  0.500000  1
  Ir  Ir24  1  0.635119  0.125955  0.500000  1
  Ir  Ir25  1  0.126568  0.636295  0.500000  1
  Ir  Ir26  1  0.361663  0.490477  0.500000  1
  Ir  Ir27  1  0.506106  0.868353  0.500000  1
  Ir  Ir28  1  0.000526  0.000068  0.000000  1
  Ir  Ir29  1  0.457642  0.997096  0.000000  1
  Ru  Ru30  1  0.710525  0.710930  0.500000  1
  Ru  Ru31  1  0.001501  0.290788  0.500000  1
  Ru  Ru32  1  0.544776  0.547182  0.000000  1
  Ru  Ru33  1  0.000757  0.454341  0.000000  1
  Ru  Ru34  1  0.819666  0.199833  0.000000  1
  Ru  Ru35  1  0.288770  0.000180  0.500000  1
