# generated using pymatgen
data_Sm2YHo7(In2Pd)4
_symmetry_space_group_name_H-M   'P 1'
_cell_length_a   3.62383300
_cell_length_b   8.17729221
_cell_length_c   18.34758672
_cell_angle_alpha   89.93763749
_cell_angle_beta   90.00000000
_cell_angle_gamma   90.00000000
_symmetry_Int_Tables_number   1
_chemical_formula_structural   Sm2YHo7(In2Pd)4
_chemical_formula_sum   'Sm2 Y1 Ho7 In8 Pd4'
_cell_volume   543.69630883
_cell_formula_units_Z   1
loop_
 _symmetry_equiv_pos_site_id
 _symmetry_equiv_pos_as_xyz
  1  'x, y, z'
loop_
 _atom_site_type_symbol
 _atom_site_label
 _atom_site_symmetry_multiplicity
 _atom_site_fract_x
 _atom_site_fract_y
 _atom_site_fract_z
 _atom_site_occupancy
  Sm  Sm0  1  0.000000  0.500002  0.500010  1
  Sm  Sm1  1  0.000000  0.000004  0.999980  1
  Y  Y2  1  0.000000  0.739317  0.280669  1
  Ho  Ho3  1  0.000000  0.260413  0.719552  1
  Ho  Ho4  1  0.000000  0.760399  0.780466  1
  Ho  Ho5  1  0.000000  0.239630  0.219538  1
  Ho  Ho6  1  0.000000  0.617450  0.083646  1
  Ho  Ho7  1  0.000000  0.382488  0.916296  1
  Ho  Ho8  1  0.000000  0.882456  0.583692  1
  Ho  Ho9  1  0.000000  0.117605  0.416318  1
  In  In10  1  0.500000  0.705656  0.931206  1
  In  In11  1  0.500000  0.294273  0.068798  1
  In  In12  1  0.500000  0.794440  0.431333  1
  In  In13  1  0.500000  0.205662  0.568819  1
  In  In14  1  0.500000  0.581775  0.651479  1
  In  In15  1  0.500000  0.418000  0.348553  1
  In  In16  1  0.500000  0.918322  0.151393  1
  In  In17  1  0.500000  0.081780  0.848537  1
  Pd  Pd18  1  0.500000  0.522623  0.195576  1
  Pd  Pd19  1  0.500000  0.476430  0.804044  1
  Pd  Pd20  1  0.500000  0.976461  0.695947  1
  Pd  Pd21  1  0.500000  0.024815  0.304149  1
