# generated using pymatgen
data_Tb13Dy7(ScTe3)4
_symmetry_space_group_name_H-M   'P 1'
_cell_length_a   4.14438900
_cell_length_b   11.50678005
_cell_length_c   21.26508610
_cell_angle_alpha   89.98906007
_cell_angle_beta   90.00000000
_cell_angle_gamma   90.00000000
_symmetry_Int_Tables_number   1
_chemical_formula_structural   Tb13Dy7(ScTe3)4
_chemical_formula_sum   'Tb13 Dy7 Sc4 Te12'
_cell_volume   1014.10158528
_cell_formula_units_Z   1
loop_
 _symmetry_equiv_pos_site_id
 _symmetry_equiv_pos_as_xyz
  1  'x, y, z'
loop_
 _atom_site_type_symbol
 _atom_site_label
 _atom_site_symmetry_multiplicity
 _atom_site_fract_x
 _atom_site_fract_y
 _atom_site_fract_z
 _atom_site_occupancy
  Tb  Tb0  1  0.250000  0.469300  0.339345  1
  Tb  Tb1  1  0.750000  0.530684  0.660878  1
  Tb  Tb2  1  0.750000  0.968929  0.160933  1
  Tb  Tb3  1  0.250000  0.030691  0.839050  1
  Tb  Tb4  1  0.250000  0.747589  0.228866  1
  Tb  Tb5  1  0.750000  0.252629  0.771174  1
  Tb  Tb6  1  0.750000  0.247338  0.271250  1
  Tb  Tb7  1  0.250000  0.752648  0.728778  1
  Tb  Tb8  1  0.250000  0.117136  0.032753  1
  Tb  Tb9  1  0.750000  0.882730  0.967016  1
  Tb  Tb10  1  0.750000  0.617250  0.467097  1
  Tb  Tb11  1  0.250000  0.382774  0.532893  1
  Tb  Tb12  1  0.250000  0.427440  0.140445  1
  Dy  Dy13  1  0.750000  0.571916  0.859919  1
  Dy  Dy14  1  0.750000  0.928259  0.360005  1
  Dy  Dy15  1  0.250000  0.071869  0.639998  1
  Dy  Dy16  1  0.250000  0.607836  0.993607  1
  Dy  Dy17  1  0.750000  0.392448  0.006101  1
  Dy  Dy18  1  0.750000  0.107515  0.506365  1
  Dy  Dy19  1  0.250000  0.892607  0.493650  1
  Sc  Sc20  1  0.250000  0.158603  0.391458  1
  Sc  Sc21  1  0.750000  0.841227  0.608558  1
  Sc  Sc22  1  0.750000  0.659402  0.108635  1
  Sc  Sc23  1  0.250000  0.341263  0.891268  1
  Te  Te24  1  0.250000  0.845018  0.076033  1
  Te  Te25  1  0.750000  0.155114  0.923797  1
  Te  Te26  1  0.750000  0.344608  0.423902  1
  Te  Te27  1  0.250000  0.655172  0.576165  1
  Te  Te28  1  0.250000  0.725451  0.375207  1
  Te  Te29  1  0.750000  0.274719  0.624780  1
  Te  Te30  1  0.750000  0.224480  0.124624  1
  Te  Te31  1  0.250000  0.774746  0.875155  1
  Te  Te32  1  0.250000  0.034109  0.264790  1
  Te  Te33  1  0.750000  0.965782  0.735187  1
  Te  Te34  1  0.750000  0.534949  0.235549  1
  Te  Te35  1  0.250000  0.465769  0.764769  1
