# generated using pymatgen
data_Nd16Cd4TcPd3
_symmetry_space_group_name_H-M   'P 1'
_cell_length_a   10.05447026
_cell_length_b   10.05447011
_cell_length_c   10.05447055
_cell_angle_alpha   59.42053848
_cell_angle_beta   59.42053756
_cell_angle_gamma   59.42053816
_symmetry_Int_Tables_number   1
_chemical_formula_structural   Nd16Cd4TcPd3
_chemical_formula_sum   'Nd16 Cd4 Tc1 Pd3'
_cell_volume   709.24845073
_cell_formula_units_Z   1
loop_
 _symmetry_equiv_pos_site_id
 _symmetry_equiv_pos_as_xyz
  1  'x, y, z'
loop_
 _atom_site_type_symbol
 _atom_site_label
 _atom_site_symmetry_multiplicity
 _atom_site_fract_x
 _atom_site_fract_y
 _atom_site_fract_z
 _atom_site_occupancy
  Nd  Nd0  1  0.352542  0.352542  0.352542  1
  Nd  Nd1  1  0.348012  0.348012  0.950373  1
  Nd  Nd2  1  0.348012  0.950373  0.348012  1
  Nd  Nd3  1  0.950373  0.348012  0.348012  1
  Nd  Nd4  1  0.816789  0.188740  0.188740  1
  Nd  Nd5  1  0.189866  0.807718  0.807718  1
  Nd  Nd6  1  0.188740  0.816789  0.188740  1
  Nd  Nd7  1  0.807718  0.189866  0.807718  1
  Nd  Nd8  1  0.188740  0.188740  0.816789  1
  Nd  Nd9  1  0.807718  0.807718  0.189866  1
  Nd  Nd10  1  0.934827  0.565061  0.565061  1
  Nd  Nd11  1  0.556810  0.938167  0.938167  1
  Nd  Nd12  1  0.565061  0.934827  0.565061  1
  Nd  Nd13  1  0.938167  0.556810  0.938167  1
  Nd  Nd14  1  0.565061  0.565061  0.934827  1
  Nd  Nd15  1  0.938167  0.938167  0.556810  1
  Cd  Cd16  1  0.579939  0.579939  0.579939  1
  Cd  Cd17  1  0.580261  0.580261  0.257035  1
  Cd  Cd18  1  0.580261  0.257035  0.580261  1
  Cd  Cd19  1  0.257035  0.580261  0.580261  1
  Tc  Tc20  1  0.142924  0.142924  0.142924  1
  Pd  Pd21  1  0.145649  0.145649  0.571680  1
  Pd  Pd22  1  0.145649  0.571680  0.145649  1
  Pd  Pd23  1  0.571680  0.145649  0.145649  1
