# generated using pymatgen
data_Sm8Tm12Si15Ag
_symmetry_space_group_name_H-M   'P 1'
_cell_length_a   7.42113618
_cell_length_b   7.68922698
_cell_length_c   14.65745222
_cell_angle_alpha   89.80779398
_cell_angle_beta   89.51446238
_cell_angle_gamma   90.18573616
_symmetry_Int_Tables_number   1
_chemical_formula_structural   Sm8Tm12Si15Ag
_chemical_formula_sum   'Sm8 Tm12 Si15 Ag1'
_cell_volume   836.35606268
_cell_formula_units_Z   1
loop_
 _symmetry_equiv_pos_site_id
 _symmetry_equiv_pos_as_xyz
  1  'x, y, z'
loop_
 _atom_site_type_symbol
 _atom_site_label
 _atom_site_symmetry_multiplicity
 _atom_site_fract_x
 _atom_site_fract_y
 _atom_site_fract_z
 _atom_site_occupancy
  Sm  Sm0  1  0.016504  0.178997  0.099145  1
  Sm  Sm1  1  0.983456  0.823116  0.903310  1
  Sm  Sm2  1  0.483241  0.678588  0.903131  1
  Sm  Sm3  1  0.986053  0.830422  0.598724  1
  Sm  Sm4  1  0.515312  0.321342  0.097340  1
  Sm  Sm5  1  0.011462  0.172171  0.398161  1
  Sm  Sm6  1  0.515722  0.319076  0.399015  1
  Sm  Sm7  1  0.490773  0.681488  0.600923  1
  Tm  Tm8  1  0.163753  0.507862  0.751720  1
  Tm  Tm9  1  0.837555  0.492528  0.251347  1
  Tm  Tm10  1  0.337138  0.005247  0.248801  1
  Tm  Tm11  1  0.665986  0.990983  0.751327  1
  Tm  Tm12  1  0.338988  0.174657  0.624754  1
  Tm  Tm13  1  0.665663  0.822341  0.375541  1
  Tm  Tm14  1  0.168538  0.674580  0.373910  1
  Tm  Tm15  1  0.671870  0.822928  0.123315  1
  Tm  Tm16  1  0.826737  0.325396  0.622983  1
  Tm  Tm17  1  0.327377  0.177484  0.877443  1
  Tm  Tm18  1  0.828110  0.320978  0.877877  1
  Tm  Tm19  1  0.171013  0.677571  0.123436  1
  Si  Si20  1  0.037461  0.117659  0.750698  1
  Si  Si21  1  0.964321  0.886186  0.249296  1
  Si  Si22  1  0.465013  0.611337  0.248158  1
  Si  Si23  1  0.536728  0.389266  0.752088  1
  Si  Si24  1  0.281659  0.877371  0.751161  1
  Si  Si25  1  0.716360  0.125026  0.248050  1
  Si  Si26  1  0.219090  0.372870  0.248460  1
  Si  Si27  1  0.783556  0.624406  0.752926  1
  Si  Si28  1  0.836501  0.534933  0.458756  1
  Si  Si29  1  0.338442  0.964268  0.461113  1
  Si  Si30  1  0.845916  0.533594  0.038627  1
  Si  Si31  1  0.658758  0.034049  0.537947  1
  Si  Si32  1  0.152270  0.466915  0.962026  1
  Si  Si33  1  0.653493  0.031925  0.960660  1
  Si  Si34  1  0.345669  0.967232  0.039646  1
  Ag  Ag35  1  0.159509  0.465210  0.538184  1
