# generated using pymatgen
data_Ce3Zr5(P3Ir4)4
_symmetry_space_group_name_H-M   'P 1'
_cell_length_a   12.82789600
_cell_length_b   12.82789653
_cell_length_c   4.01799800
_cell_angle_alpha   90.00000000
_cell_angle_beta   90.00000000
_cell_angle_gamma   119.99999348
_symmetry_Int_Tables_number   1
_chemical_formula_structural   Ce3Zr5(P3Ir4)4
_chemical_formula_sum   'Ce3 Zr5 P12 Ir16'
_cell_volume   572.59988299
_cell_formula_units_Z   1
loop_
 _symmetry_equiv_pos_site_id
 _symmetry_equiv_pos_as_xyz
  1  'x, y, z'
loop_
 _atom_site_type_symbol
 _atom_site_label
 _atom_site_symmetry_multiplicity
 _atom_site_fract_x
 _atom_site_fract_y
 _atom_site_fract_z
 _atom_site_occupancy
  Ce  Ce0  1  0.817336  0.817336  0.500000  1
  Ce  Ce1  1  0.182664  0.000000  0.500000  1
  Ce  Ce2  1  0.000000  0.182664  0.500000  1
  Zr  Zr3  1  0.450844  0.450844  0.000000  1
  Zr  Zr4  1  0.549156  0.000000  0.000000  1
  Zr  Zr5  1  0.000000  0.549156  0.000000  1
  Zr  Zr6  1  0.666667  0.333333  0.000000  1
  Zr  Zr7  1  0.333333  0.666667  0.000000  1
  P  P8  1  0.645772  0.645772  0.000000  1
  P  P9  1  0.354228  0.000000  0.000000  1
  P  P10  1  0.000000  0.354228  0.000000  1
  P  P11  1  0.484941  0.315817  0.500000  1
  P  P12  1  0.684183  0.169124  0.500000  1
  P  P13  1  0.830876  0.515059  0.500000  1
  P  P14  1  0.515059  0.830876  0.500000  1
  P  P15  1  0.169124  0.684183  0.500000  1
  P  P16  1  0.821207  0.000000  0.000000  1
  P  P17  1  0.000000  0.821207  0.000000  1
  P  P18  1  0.315817  0.484941  0.500000  1
  P  P19  1  0.178793  0.178793  0.000000  1
  Ir  Ir20  1  0.195271  0.373996  0.000000  1
  Ir  Ir21  1  0.178726  0.804729  0.000000  1
  Ir  Ir22  1  0.821274  0.626004  0.000000  1
  Ir  Ir23  1  0.804729  0.178726  0.000000  1
  Ir  Ir24  1  0.373996  0.195271  0.000000  1
  Ir  Ir25  1  0.139864  0.493588  0.500000  1
  Ir  Ir26  1  0.353723  0.860136  0.500000  1
  Ir  Ir27  1  0.506412  0.646277  0.500000  1
  Ir  Ir28  1  0.646277  0.506412  0.500000  1
  Ir  Ir29  1  0.860136  0.353723  0.500000  1
  Ir  Ir30  1  0.493588  0.139864  0.500000  1
  Ir  Ir31  1  0.000000  0.000000  0.000000  1
  Ir  Ir32  1  0.716936  0.000000  0.500000  1
  Ir  Ir33  1  0.000000  0.716936  0.500000  1
  Ir  Ir34  1  0.626004  0.821274  0.000000  1
  Ir  Ir35  1  0.283064  0.283064  0.500000  1
