# generated using pymatgen
data_Yb4YEr(SbO6)2
_symmetry_space_group_name_H-M   'P 1'
_cell_length_a   6.56284154
_cell_length_b   6.57785309
_cell_length_c   6.55691088
_cell_angle_alpha   91.77666371
_cell_angle_beta   91.69985700
_cell_angle_gamma   91.50663475
_symmetry_Int_Tables_number   1
_chemical_formula_structural   Yb4YEr(SbO6)2
_chemical_formula_sum   'Yb4 Y1 Er1 Sb2 O12'
_cell_volume   282.69245928
_cell_formula_units_Z   1
loop_
 _symmetry_equiv_pos_site_id
 _symmetry_equiv_pos_as_xyz
  1  'x, y, z'
loop_
 _atom_site_type_symbol
 _atom_site_label
 _atom_site_symmetry_multiplicity
 _atom_site_fract_x
 _atom_site_fract_y
 _atom_site_fract_z
 _atom_site_occupancy
  Yb  Yb0  1  0.563534  0.060629  0.752411  1
  Yb  Yb1  1  0.936972  0.245767  0.439227  1
  Yb  Yb2  1  0.248484  0.430067  0.938533  1
  Yb  Yb3  1  0.438427  0.946498  0.248253  1
  Y  Y4  1  0.751585  0.563604  0.060457  1
  Er  Er5  1  0.064631  0.753852  0.564191  1
  Sb  Sb6  1  0.499110  0.501722  0.500113  1
  Sb  Sb7  1  0.000833  0.000250  0.001481  1
  O  O8  1  0.038945  0.702506  0.910204  1
  O  O9  1  0.710417  0.909196  0.043766  1
  O  O10  1  0.919313  0.033054  0.705372  1
  O  O11  1  0.949429  0.291615  0.084179  1
  O  O12  1  0.289327  0.081001  0.957308  1
  O  O13  1  0.081086  0.950159  0.295384  1
  O  O14  1  0.797622  0.578003  0.428356  1
  O  O15  1  0.572878  0.435678  0.793708  1
  O  O16  1  0.419824  0.792213  0.567166  1
  O  O17  1  0.205538  0.438820  0.570347  1
  O  O18  1  0.438907  0.570089  0.205470  1
  O  O19  1  0.573137  0.215280  0.434074  1
