# generated using pymatgen
data_Pa5Nb3Fe11Co5P12
_symmetry_space_group_name_H-M   'P 1'
_cell_length_a   12.17739822
_cell_length_b   12.20640038
_cell_length_c   3.75004700
_cell_angle_alpha   90.00000000
_cell_angle_beta   90.00000000
_cell_angle_gamma   120.11930286
_symmetry_Int_Tables_number   1
_chemical_formula_structural   Pa5Nb3Fe11Co5P12
_chemical_formula_sum   'Pa5 Nb3 Fe11 Co5 P12'
_cell_volume   482.15437058
_cell_formula_units_Z   1
loop_
 _symmetry_equiv_pos_site_id
 _symmetry_equiv_pos_as_xyz
  1  'x, y, z'
loop_
 _atom_site_type_symbol
 _atom_site_label
 _atom_site_symmetry_multiplicity
 _atom_site_fract_x
 _atom_site_fract_y
 _atom_site_fract_z
 _atom_site_occupancy
  Pa  Pa0  1  0.814313  0.999063  0.500000  1
  Pa  Pa1  1  0.000729  0.814621  0.500000  1
  Pa  Pa2  1  0.184121  0.184347  0.500000  1
  Pa  Pa3  1  0.332575  0.668694  0.000000  1
  Pa  Pa4  1  0.667000  0.333445  0.000000  1
  Nb  Nb5  1  0.434722  0.999385  0.000000  1
  Nb  Nb6  1  0.000409  0.435148  0.000000  1
  Nb  Nb7  1  0.563878  0.564439  0.000000  1
  Fe  Fe8  1  0.277188  0.001529  0.500000  1
  Fe  Fe9  1  0.999859  0.276517  0.500000  1
  Fe  Fe10  1  0.723492  0.722179  0.500000  1
  Fe  Fe11  1  0.627824  0.806882  0.000000  1
  Fe  Fe12  1  0.192101  0.820873  0.000000  1
  Fe  Fe13  1  0.181620  0.373432  0.000000  1
  Fe  Fe14  1  0.374721  0.183068  0.000000  1
  Fe  Fe15  1  0.808829  0.625836  0.000000  1
  Fe  Fe16  1  0.816832  0.190437  0.000000  1
  Fe  Fe17  1  0.514735  0.873774  0.500000  1
  Fe  Fe18  1  0.127030  0.640917  0.500000  1
  Co  Co19  1  0.359306  0.486250  0.500000  1
  Co  Co20  1  0.488101  0.360361  0.500000  1
  Co  Co21  1  0.870843  0.509979  0.500000  1
  Co  Co22  1  0.639199  0.129202  0.500000  1
  Co  Co23  1  0.999977  0.000488  0.000000  1
  P  P24  1  0.182351  0.000559  0.000000  1
  P  P25  1  0.999714  0.182407  0.000000  1
  P  P26  1  0.818145  0.817304  0.000000  1
  P  P27  1  0.526824  0.695967  0.500000  1
  P  P28  1  0.305651  0.832543  0.500000  1
  P  P29  1  0.167573  0.474053  0.500000  1
  P  P30  1  0.472347  0.168193  0.500000  1
  P  P31  1  0.695695  0.527482  0.500000  1
  P  P32  1  0.831809  0.303388  0.500000  1
  P  P33  1  0.636139  0.996314  0.000000  1
  P  P34  1  0.003360  0.639505  0.000000  1
  P  P35  1  0.360989  0.361416  0.000000  1
