# generated using pymatgen
data_YbHf7(Nb3Si4)4
_symmetry_space_group_name_H-M   'P 1'
_cell_length_a   6.89144524
_cell_length_b   6.88661366
_cell_length_c   12.75427551
_cell_angle_alpha   90.00630006
_cell_angle_beta   89.98419942
_cell_angle_gamma   90.01815329
_symmetry_Int_Tables_number   1
_chemical_formula_structural   YbHf7(Nb3Si4)4
_chemical_formula_sum   'Yb1 Hf7 Nb12 Si16'
_cell_volume   605.30154524
_cell_formula_units_Z   1
loop_
 _symmetry_equiv_pos_site_id
 _symmetry_equiv_pos_as_xyz
  1  'x, y, z'
loop_
 _atom_site_type_symbol
 _atom_site_label
 _atom_site_symmetry_multiplicity
 _atom_site_fract_x
 _atom_site_fract_y
 _atom_site_fract_z
 _atom_site_occupancy
  Yb  Yb0  1  0.663395  0.004072  0.280779  1
  Hf  Hf1  1  0.004233  0.343690  0.217530  1
  Hf  Hf2  1  0.998659  0.660423  0.718800  1
  Hf  Hf3  1  0.160444  0.502063  0.469874  1
  Hf  Hf4  1  0.498446  0.838558  0.031938  1
  Hf  Hf5  1  0.840295  0.497982  0.967851  1
  Hf  Hf6  1  0.502447  0.159143  0.532466  1
  Hf  Hf7  1  0.340105  0.001585  0.781529  1
  Nb  Nb8  1  0.169789  0.170279  0.999020  1
  Nb  Nb9  1  0.831021  0.829863  0.501431  1
  Nb  Nb10  1  0.327429  0.666793  0.250321  1
  Nb  Nb11  1  0.670291  0.330372  0.749958  1
  Nb  Nb12  1  0.152093  0.994898  0.377694  1
  Nb  Nb13  1  0.847379  0.004089  0.874898  1
  Nb  Nb14  1  0.503835  0.652253  0.627265  1
  Nb  Nb15  1  0.347768  0.497721  0.872845  1
  Nb  Nb16  1  0.491947  0.347025  0.123598  1
  Nb  Nb17  1  0.651463  0.503215  0.375268  1
  Nb  Nb18  1  0.997798  0.153021  0.625554  1
  Nb  Nb19  1  0.002383  0.843033  0.120994  1
  Si  Si20  1  0.295428  0.041571  0.186626  1
  Si  Si21  1  0.700624  0.955712  0.686531  1
  Si  Si22  1  0.455524  0.798924  0.437524  1
  Si  Si23  1  0.200347  0.544436  0.062340  1
  Si  Si24  1  0.543086  0.199713  0.936213  1
  Si  Si25  1  0.800686  0.457566  0.563910  1
  Si  Si26  1  0.044555  0.300514  0.813595  1
  Si  Si27  1  0.956156  0.699156  0.313633  1
  Si  Si28  1  0.361225  0.293919  0.322676  1
  Si  Si29  1  0.636095  0.708281  0.823427  1
  Si  Si30  1  0.207825  0.863997  0.573171  1
  Si  Si31  1  0.135986  0.792935  0.927038  1
  Si  Si32  1  0.794752  0.136991  0.069801  1
  Si  Si33  1  0.866976  0.210078  0.430321  1
  Si  Si34  1  0.293123  0.364269  0.676768  1
  Si  Si35  1  0.706395  0.631855  0.176812  1
