# generated using pymatgen
data_La3Ce(In2Br5)4
_symmetry_space_group_name_H-M   'P 1'
_cell_length_a   8.69058319
_cell_length_b   9.30286400
_cell_length_c   13.55941348
_cell_angle_alpha   90.00000000
_cell_angle_beta   90.08173696
_cell_angle_gamma   90.00000000
_symmetry_Int_Tables_number   1
_chemical_formula_structural   La3Ce(In2Br5)4
_chemical_formula_sum   'La3 Ce1 In8 Br20'
_cell_volume   1096.24103712
_cell_formula_units_Z   1
loop_
 _symmetry_equiv_pos_site_id
 _symmetry_equiv_pos_as_xyz
  1  'x, y, z'
loop_
 _atom_site_type_symbol
 _atom_site_label
 _atom_site_symmetry_multiplicity
 _atom_site_fract_x
 _atom_site_fract_y
 _atom_site_fract_z
 _atom_site_occupancy
  La  La0  1  0.576455  0.750000  0.006277  1
  La  La1  1  0.076129  0.250000  0.493726  1
  La  La2  1  0.423475  0.250000  0.993646  1
  Ce  Ce3  1  0.923799  0.750000  0.506040  1
  In  In4  1  0.943117  0.005958  0.828437  1
  In  In5  1  0.056838  0.993968  0.171577  1
  In  In6  1  0.556933  0.494183  0.328930  1
  In  In7  1  0.056838  0.506032  0.171577  1
  In  In8  1  0.943117  0.494042  0.828437  1
  In  In9  1  0.443322  0.506120  0.671092  1
  In  In10  1  0.556933  0.005817  0.328930  1
  In  In11  1  0.443322  0.993880  0.671092  1
  Br  Br12  1  0.576155  0.750000  0.504639  1
  Br  Br13  1  0.169840  0.952981  0.426514  1
  Br  Br14  1  0.829764  0.044330  0.573398  1
  Br  Br15  1  0.328754  0.546063  0.925838  1
  Br  Br16  1  0.169840  0.547019  0.426514  1
  Br  Br17  1  0.342483  0.250000  0.207850  1
  Br  Br18  1  0.328754  0.953937  0.925838  1
  Br  Br19  1  0.829764  0.455670  0.573398  1
  Br  Br20  1  0.388255  0.750000  0.190179  1
  Br  Br21  1  0.671158  0.046041  0.074132  1
  Br  Br22  1  0.157552  0.250000  0.708112  1
  Br  Br23  1  0.611832  0.250000  0.809742  1
  Br  Br24  1  0.426475  0.250000  0.495581  1
  Br  Br25  1  0.109543  0.750000  0.688470  1
  Br  Br26  1  0.671158  0.453959  0.074132  1
  Br  Br27  1  0.073298  0.250000  0.995592  1
  Br  Br28  1  0.926620  0.750000  0.004584  1
  Br  Br29  1  0.843126  0.750000  0.294048  1
  Br  Br30  1  0.657329  0.750000  0.792292  1
  Br  Br31  1  0.888022  0.250000  0.309385  1
