# generated using pymatgen
data_Pr5NdTh4(AgSn3)2
_symmetry_space_group_name_H-M   'P 1'
_cell_length_a   9.64881200
_cell_length_b   9.64580765
_cell_length_c   6.65687100
_cell_angle_alpha   90.00000000
_cell_angle_beta   90.00000000
_cell_angle_gamma   120.01030379
_symmetry_Int_Tables_number   1
_chemical_formula_structural   Pr5NdTh4(AgSn3)2
_chemical_formula_sum   'Pr5 Nd1 Th4 Ag2 Sn6'
_cell_volume   536.49800736
_cell_formula_units_Z   1
loop_
 _symmetry_equiv_pos_site_id
 _symmetry_equiv_pos_as_xyz
  1  'x, y, z'
loop_
 _atom_site_type_symbol
 _atom_site_label
 _atom_site_symmetry_multiplicity
 _atom_site_fract_x
 _atom_site_fract_y
 _atom_site_fract_z
 _atom_site_occupancy
  Pr  Pr0  1  0.723086  0.000000  0.250000  1
  Pr  Pr1  1  0.999943  0.277184  0.750000  1
  Pr  Pr2  1  0.000100  0.722993  0.250000  1
  Pr  Pr3  1  0.722759  0.722816  0.750000  1
  Pr  Pr4  1  0.277106  0.277007  0.250000  1
  Nd  Nd5  1  0.277005  0.000000  0.750000  1
  Th  Th6  1  0.333259  0.666871  0.500160  1
  Th  Th7  1  0.666389  0.333129  0.500160  1
  Th  Th8  1  0.666389  0.333129  0.999840  1
  Th  Th9  1  0.333259  0.666871  0.999840  1
  Ag  Ag10  1  0.000733  0.000000  0.500681  1
  Ag  Ag11  1  0.000733  0.000000  0.999319  1
  Sn  Sn12  1  0.622701  0.000000  0.750000  1
  Sn  Sn13  1  0.376003  0.000000  0.250000  1
  Sn  Sn14  1  0.000723  0.624769  0.750000  1
  Sn  Sn15  1  0.000010  0.376162  0.250000  1
  Sn  Sn16  1  0.375954  0.375231  0.750000  1
  Sn  Sn17  1  0.623848  0.623838  0.250000  1
