# generated using pymatgen
data_Tb7Nd(Tm3Si4)4
_symmetry_space_group_name_H-M   'P 1'
_cell_length_a   7.62301761
_cell_length_b   7.62656775
_cell_length_c   14.04625639
_cell_angle_alpha   90.08829937
_cell_angle_beta   89.97995006
_cell_angle_gamma   89.95889641
_symmetry_Int_Tables_number   1
_chemical_formula_structural   Tb7Nd(Tm3Si4)4
_chemical_formula_sum   'Tb7 Nd1 Tm12 Si16'
_cell_volume   816.61244254
_cell_formula_units_Z   1
loop_
 _symmetry_equiv_pos_site_id
 _symmetry_equiv_pos_as_xyz
  1  'x, y, z'
loop_
 _atom_site_type_symbol
 _atom_site_label
 _atom_site_symmetry_multiplicity
 _atom_site_fract_x
 _atom_site_fract_y
 _atom_site_fract_z
 _atom_site_occupancy
  Tb  Tb0  1  0.641362  0.993375  0.458613  1
  Tb  Tb1  1  0.359152  0.006468  0.958074  1
  Tb  Tb2  1  0.993141  0.641260  0.541536  1
  Tb  Tb3  1  0.493461  0.858433  0.209039  1
  Tb  Tb4  1  0.506391  0.141380  0.708320  1
  Tb  Tb5  1  0.857996  0.493464  0.790791  1
  Tb  Tb6  1  0.141780  0.506790  0.291998  1
  Nd  Nd7  1  0.008493  0.356175  0.040585  1
  Tm  Tm8  1  0.492714  0.360862  0.124615  1
  Tm  Tm9  1  0.991979  0.139472  0.625774  1
  Tm  Tm10  1  0.859568  0.008168  0.873516  1
  Tm  Tm11  1  0.139646  0.991014  0.374395  1
  Tm  Tm12  1  0.508336  0.639687  0.623964  1
  Tm  Tm13  1  0.360596  0.492682  0.875211  1
  Tm  Tm14  1  0.639182  0.508152  0.376045  1
  Tm  Tm15  1  0.008378  0.859781  0.126357  1
  Tm  Tm16  1  0.317741  0.317899  0.500006  1
  Tm  Tm17  1  0.182305  0.818064  0.749707  1
  Tm  Tm18  1  0.817408  0.181266  0.250471  1
  Tm  Tm19  1  0.681011  0.682924  0.000005  1
  Si  Si20  1  0.292977  0.939366  0.562096  1
  Si  Si21  1  0.705426  0.058905  0.062047  1
  Si  Si22  1  0.939156  0.292755  0.437922  1
  Si  Si23  1  0.439594  0.206971  0.312289  1
  Si  Si24  1  0.560918  0.793031  0.811966  1
  Si  Si25  1  0.207070  0.439149  0.687852  1
  Si  Si26  1  0.791117  0.562859  0.188995  1
  Si  Si27  1  0.062093  0.710141  0.937132  1
  Si  Si28  1  0.796932  0.846746  0.686190  1
  Si  Si29  1  0.205554  0.151138  0.188257  1
  Si  Si30  1  0.846480  0.797182  0.313712  1
  Si  Si31  1  0.346812  0.703122  0.436302  1
  Si  Si32  1  0.650441  0.295834  0.935315  1
  Si  Si33  1  0.703017  0.346792  0.563798  1
  Si  Si34  1  0.298675  0.655609  0.063517  1
  Si  Si35  1  0.153099  0.203085  0.813588  1
