# generated using pymatgen
data_Nd3In3GePtRh
_symmetry_space_group_name_H-M   'P 1'
_cell_length_a   7.61239000
_cell_length_b   7.61238989
_cell_length_c   4.24371300
_cell_angle_alpha   90.00000000
_cell_angle_beta   90.00000000
_cell_angle_gamma   120.00000046
_symmetry_Int_Tables_number   1
_chemical_formula_structural   Nd3In3GePtRh
_chemical_formula_sum   'Nd3 In3 Ge1 Pt1 Rh1'
_cell_volume   212.97012649
_cell_formula_units_Z   1
loop_
 _symmetry_equiv_pos_site_id
 _symmetry_equiv_pos_as_xyz
  1  'x, y, z'
loop_
 _atom_site_type_symbol
 _atom_site_label
 _atom_site_symmetry_multiplicity
 _atom_site_fract_x
 _atom_site_fract_y
 _atom_site_fract_z
 _atom_site_occupancy
  Nd  Nd0  1  0.593480  0.005811  0.500000  1
  Nd  Nd1  1  0.412331  0.406520  0.500000  1
  Nd  Nd2  1  0.994189  0.587669  0.500000  1
  In  In3  1  0.249623  0.008889  0.000000  1
  In  In4  1  0.759265  0.750377  0.000000  1
  In  In5  1  0.991111  0.240735  0.000000  1
  Ge  Ge6  1  0.333333  0.666667  0.000000  1
  Pt  Pt7  1  0.666667  0.333333  0.000000  1
  Rh  Rh8  1  0.000000  0.000000  0.500000  1
