# generated using pymatgen
data_Y2Er2Al24Pd7Au2
_symmetry_space_group_name_H-M   'P 1'
_cell_length_a   7.58034973
_cell_length_b   7.58280133
_cell_length_c   13.17394216
_cell_angle_alpha   84.52688581
_cell_angle_beta   100.99077826
_cell_angle_gamma   119.83560067
_symmetry_Int_Tables_number   1
_chemical_formula_structural   Y2Er2Al24Pd7Au2
_chemical_formula_sum   'Y2 Er2 Al24 Pd7 Au2'
_cell_volume   644.82586410
_cell_formula_units_Z   1
loop_
 _symmetry_equiv_pos_site_id
 _symmetry_equiv_pos_as_xyz
  1  'x, y, z'
loop_
 _atom_site_type_symbol
 _atom_site_label
 _atom_site_symmetry_multiplicity
 _atom_site_fract_x
 _atom_site_fract_y
 _atom_site_fract_z
 _atom_site_occupancy
  Y  Y0  1  0.438408  0.830349  0.809622  1
  Y  Y1  1  0.561592  0.169651  0.190378  1
  Er  Er2  1  0.767660  0.501675  0.809565  1
  Er  Er3  1  0.232340  0.498325  0.190435  1
  Al  Al4  1  0.482981  0.166001  0.944651  1
  Al  Al5  1  0.517019  0.833999  0.055349  1
  Al  Al6  1  0.016121  0.161102  0.562442  1
  Al  Al7  1  0.983879  0.838898  0.437558  1
  Al  Al8  1  0.352981  0.839882  0.559977  1
  Al  Al9  1  0.647019  0.160118  0.440023  1
  Al  Al10  1  0.615940  0.839988  0.326004  1
  Al  Al11  1  0.384060  0.160012  0.673996  1
  Al  Al12  1  0.052782  0.493102  0.674347  1
  Al  Al13  1  0.947218  0.506898  0.325653  1
  Al  Al14  1  0.737187  0.845987  0.672472  1
  Al  Al15  1  0.262813  0.154013  0.327528  1
  Al  Al16  1  0.147179  0.500793  0.944613  1
  Al  Al17  1  0.852821  0.499207  0.055387  1
  Al  Al18  1  0.817753  0.832478  0.954772  1
  Al  Al19  1  0.182247  0.167522  0.045228  1
  Al  Al20  1  0.304757  0.500194  0.436847  1
  Al  Al21  1  0.695243  0.499806  0.563153  1
  Al  Al22  1  0.103796  0.835486  0.183435  1
  Al  Al23  1  0.896204  0.164514  0.816565  1
  Al  Al24  1  0.305458  0.365218  0.818126  1
  Al  Al25  1  0.694542  0.634782  0.181874  1
  Al  Al26  1  0.102466  0.956597  0.816219  1
  Al  Al27  1  0.897534  0.043403  0.183781  1
  Pd  Pd28  1  0.170948  0.827975  0.999743  1
  Pd  Pd29  1  0.829052  0.172025  0.000257  1
  Pd  Pd30  1  0.294801  0.832383  0.362437  1
  Pd  Pd31  1  0.705199  0.167617  0.637563  1
  Pd  Pd32  1  0.045112  0.824518  0.637093  1
  Pd  Pd33  1  0.954888  0.175482  0.362907  1
  Pd  Pd34  1  0.500000  0.500000  0.000000  1
  Au  Au35  1  0.389437  0.508568  0.637836  1
  Au  Au36  1  0.610563  0.491432  0.362164  1
