# generated using pymatgen
data_Dy9Ho(Bi2Ru)2
_symmetry_space_group_name_H-M   'P 1'
_cell_length_a   7.98501525
_cell_length_b   9.03397274
_cell_length_c   12.43373311
_cell_angle_alpha   90.01758384
_cell_angle_beta   89.99341071
_cell_angle_gamma   89.98656214
_symmetry_Int_Tables_number   1
_chemical_formula_structural   Dy9Ho(Bi2Ru)2
_chemical_formula_sum   'Dy18 Ho2 Bi8 Ru4'
_cell_volume   896.92479832
_cell_formula_units_Z   2
loop_
 _symmetry_equiv_pos_site_id
 _symmetry_equiv_pos_as_xyz
  1  'x, y, z'
loop_
 _atom_site_type_symbol
 _atom_site_label
 _atom_site_symmetry_multiplicity
 _atom_site_fract_x
 _atom_site_fract_y
 _atom_site_fract_z
 _atom_site_occupancy
  Dy  Dy0  1  0.343817  0.749997  0.706793  1
  Dy  Dy1  1  0.656183  0.250003  0.293207  1
  Dy  Dy2  1  0.843943  0.249801  0.793404  1
  Dy  Dy3  1  0.156057  0.750199  0.206596  1
  Dy  Dy4  1  0.878912  0.750469  0.807712  1
  Dy  Dy5  1  0.121088  0.249531  0.192288  1
  Dy  Dy6  1  0.378893  0.250051  0.692630  1
  Dy  Dy7  1  0.621107  0.749949  0.307370  1
  Dy  Dy8  1  0.676400  0.541347  0.563790  1
  Dy  Dy9  1  0.323600  0.458653  0.436210  1
  Dy  Dy10  1  0.176454  0.458740  0.936198  1
  Dy  Dy11  1  0.323667  0.041331  0.436145  1
  Dy  Dy12  1  0.823546  0.541260  0.063802  1
  Dy  Dy13  1  0.676333  0.958669  0.563855  1
  Dy  Dy14  1  0.053523  0.750017  0.496296  1
  Dy  Dy15  1  0.946477  0.249983  0.503704  1
  Dy  Dy16  1  0.553509  0.249587  0.003774  1
  Dy  Dy17  1  0.446491  0.750413  0.996226  1
  Ho  Ho18  1  0.824528  0.958514  0.063701  1
  Ho  Ho19  1  0.175472  0.041486  0.936299  1
  Bi  Bi20  1  0.571866  0.507864  0.827690  1
  Bi  Bi21  1  0.428134  0.492136  0.172310  1
  Bi  Bi22  1  0.071560  0.492246  0.672576  1
  Bi  Bi23  1  0.428786  0.007715  0.172346  1
  Bi  Bi24  1  0.928440  0.507754  0.327424  1
  Bi  Bi25  1  0.571214  0.992285  0.827654  1
  Bi  Bi26  1  0.928173  0.992153  0.327459  1
  Bi  Bi27  1  0.071827  0.007847  0.672541  1
  Ru  Ru28  1  0.073080  0.750518  0.989397  1
  Ru  Ru29  1  0.926920  0.249482  0.010603  1
  Ru  Ru30  1  0.573430  0.250038  0.510742  1
  Ru  Ru31  1  0.426570  0.749962  0.489258  1
