# generated using pymatgen
data_CePr2(GaNi)3
_symmetry_space_group_name_H-M   'P 1'
_cell_length_a   7.16271700
_cell_length_b   7.15597713
_cell_length_c   3.93761600
_cell_angle_alpha   90.00000000
_cell_angle_beta   90.00000000
_cell_angle_gamma   120.03114721
_symmetry_Int_Tables_number   1
_chemical_formula_structural   CePr2(GaNi)3
_chemical_formula_sum   'Ce1 Pr2 Ga3 Ni3'
_cell_volume   174.73275970
_cell_formula_units_Z   1
loop_
 _symmetry_equiv_pos_site_id
 _symmetry_equiv_pos_as_xyz
  1  'x, y, z'
loop_
 _atom_site_type_symbol
 _atom_site_label
 _atom_site_symmetry_multiplicity
 _atom_site_fract_x
 _atom_site_fract_y
 _atom_site_fract_z
 _atom_site_occupancy
  Ce  Ce0  1  0.581882  0.000000  0.500000  1
  Pr  Pr1  1  0.002411  0.584416  0.500000  1
  Pr  Pr2  1  0.417995  0.415584  0.500000  1
  Ga  Ga3  1  0.235001  0.000000  0.000000  1
  Ga  Ga4  1  0.763249  0.766878  0.000000  1
  Ga  Ga5  1  0.996372  0.233122  0.000000  1
  Ni  Ni6  1  0.660344  0.306282  0.000000  1
  Ni  Ni7  1  0.354061  0.693718  0.000000  1
  Ni  Ni8  1  0.988684  0.000000  0.500000  1
