# generated using pymatgen
data_LuTa3(SnRh5)2
_symmetry_space_group_name_H-M   'P 1'
_cell_length_a   4.09511800
_cell_length_b   5.61857305
_cell_length_c   11.06511100
_cell_angle_alpha   90.00752581
_cell_angle_beta   90.00000000
_cell_angle_gamma   90.00000000
_symmetry_Int_Tables_number   1
_chemical_formula_structural   LuTa3(SnRh5)2
_chemical_formula_sum   'Lu1 Ta3 Sn2 Rh10'
_cell_volume   254.59403442
_cell_formula_units_Z   1
loop_
 _symmetry_equiv_pos_site_id
 _symmetry_equiv_pos_as_xyz
  1  'x, y, z'
loop_
 _atom_site_type_symbol
 _atom_site_label
 _atom_site_symmetry_multiplicity
 _atom_site_fract_x
 _atom_site_fract_y
 _atom_site_fract_z
 _atom_site_occupancy
  Lu  Lu0  1  0.500000  0.315878  0.141775  1
  Ta  Ta1  1  0.500000  0.174523  0.640588  1
  Ta  Ta2  1  0.500000  0.818592  0.351372  1
  Ta  Ta3  1  0.500000  0.675186  0.856930  1
  Sn  Sn4  1  0.000000  0.502854  0.501264  1
  Sn  Sn5  1  0.000000  0.003404  0.997859  1
  Rh  Rh6  1  0.500000  0.206825  0.876821  1
  Rh  Rh7  1  0.500000  0.800498  0.114555  1
  Rh  Rh8  1  0.500000  0.708544  0.617954  1
  Rh  Rh9  1  0.500000  0.285257  0.395766  1
  Rh  Rh10  1  0.000000  0.439354  0.745374  1
  Rh  Rh11  1  0.000000  0.565692  0.258548  1
  Rh  Rh12  1  0.000000  0.999001  0.503238  1
  Rh  Rh13  1  0.000000  0.513569  0.991084  1
  Rh  Rh14  1  0.000000  0.050609  0.255894  1
  Rh  Rh15  1  0.000000  0.940214  0.750983  1
