# generated using pymatgen
data_Li6TaCd5Pd12
_symmetry_space_group_name_H-M   'P 1'
_cell_length_a   4.23440200
_cell_length_b   7.02633800
_cell_length_c   12.89077801
_cell_angle_alpha   90.00000000
_cell_angle_beta   90.00456381
_cell_angle_gamma   90.00000000
_symmetry_Int_Tables_number   1
_chemical_formula_structural   Li6TaCd5Pd12
_chemical_formula_sum   'Li6 Ta1 Cd5 Pd12'
_cell_volume   383.53080519
_cell_formula_units_Z   1
loop_
 _symmetry_equiv_pos_site_id
 _symmetry_equiv_pos_as_xyz
  1  'x, y, z'
loop_
 _atom_site_type_symbol
 _atom_site_label
 _atom_site_symmetry_multiplicity
 _atom_site_fract_x
 _atom_site_fract_y
 _atom_site_fract_z
 _atom_site_occupancy
  Li  Li0  1  0.000000  0.500000  0.000000  1
  Li  Li1  1  0.499969  0.000000  0.174784  1
  Li  Li2  1  0.999927  0.500000  0.336932  1
  Li  Li3  1  0.499999  0.000000  0.500000  1
  Li  Li4  1  0.000074  0.500000  0.663069  1
  Li  Li5  1  0.500032  0.000000  0.825216  1
  Ta  Ta6  1  0.000000  0.000000  0.000000  1
  Cd  Cd7  1  0.499985  0.500000  0.162762  1
  Cd  Cd8  1  0.999921  0.000000  0.333521  1
  Cd  Cd9  1  0.499999  0.500000  0.500000  1
  Cd  Cd10  1  0.000078  0.000000  0.666479  1
  Cd  Cd11  1  0.500016  0.500000  0.837238  1
  Pd  Pd12  1  0.499999  0.226599  0.000000  1
  Pd  Pd13  1  0.499999  0.773401  0.000000  1
  Pd  Pd14  1  0.999983  0.236857  0.158040  1
  Pd  Pd15  1  0.999983  0.763143  0.158040  1
  Pd  Pd16  1  0.499888  0.254159  0.330893  1
  Pd  Pd17  1  0.499888  0.745841  0.330893  1
  Pd  Pd18  1  0.000000  0.246716  0.500000  1
  Pd  Pd19  1  0.000000  0.753285  0.500000  1
  Pd  Pd20  1  0.500111  0.254159  0.669107  1
  Pd  Pd21  1  0.500111  0.745841  0.669107  1
  Pd  Pd22  1  0.000015  0.236857  0.841960  1
  Pd  Pd23  1  0.000015  0.763143  0.841960  1
