# generated using pymatgen
data_Dy7Ho12ThSn16
_symmetry_space_group_name_H-M   'P 1'
_cell_length_a   8.03804228
_cell_length_b   8.16596425
_cell_length_c   15.42880148
_cell_angle_alpha   89.94550071
_cell_angle_beta   89.90135651
_cell_angle_gamma   90.06524199
_symmetry_Int_Tables_number   1
_chemical_formula_structural   Dy7Ho12ThSn16
_chemical_formula_sum   'Dy7 Ho12 Th1 Sn16'
_cell_volume   1012.71869869
_cell_formula_units_Z   1
loop_
 _symmetry_equiv_pos_site_id
 _symmetry_equiv_pos_as_xyz
  1  'x, y, z'
loop_
 _atom_site_type_symbol
 _atom_site_label
 _atom_site_symmetry_multiplicity
 _atom_site_fract_x
 _atom_site_fract_y
 _atom_site_fract_z
 _atom_site_occupancy
  Dy  Dy0  1  0.021332  0.179144  0.597421  1
  Dy  Dy1  1  0.478759  0.679648  0.402351  1
  Dy  Dy2  1  0.978932  0.820444  0.097711  1
  Dy  Dy3  1  0.478871  0.679457  0.097833  1
  Dy  Dy4  1  0.978684  0.820571  0.402395  1
  Dy  Dy5  1  0.521565  0.320285  0.597854  1
  Dy  Dy6  1  0.021724  0.179267  0.902448  1
  Ho  Ho7  1  0.367414  0.836374  0.877795  1
  Ho  Ho8  1  0.867874  0.663837  0.622155  1
  Ho  Ho9  1  0.632396  0.163429  0.377827  1
  Ho  Ho10  1  0.132616  0.336460  0.122255  1
  Ho  Ho11  1  0.632479  0.163413  0.122493  1
  Ho  Ho12  1  0.132236  0.336401  0.377839  1
  Ho  Ho13  1  0.367673  0.836350  0.622068  1
  Ho  Ho14  1  0.867728  0.664133  0.877785  1
  Ho  Ho15  1  0.197689  0.503476  0.749552  1
  Ho  Ho16  1  0.698298  0.997409  0.749695  1
  Ho  Ho17  1  0.801777  0.497163  0.249921  1
  Ho  Ho18  1  0.301748  0.002850  0.250237  1
  Th  Th19  1  0.520690  0.320150  0.903008  1
  Sn  Sn20  1  0.292737  0.036214  0.041564  1
  Sn  Sn21  1  0.792764  0.463939  0.458300  1
  Sn  Sn22  1  0.707305  0.963913  0.541833  1
  Sn  Sn23  1  0.205935  0.536976  0.958501  1
  Sn  Sn24  1  0.707950  0.963690  0.958145  1
  Sn  Sn25  1  0.207399  0.535743  0.541851  1
  Sn  Sn26  1  0.292599  0.036018  0.458211  1
  Sn  Sn27  1  0.793528  0.464552  0.042121  1
  Sn  Sn28  1  0.565031  0.620287  0.750236  1
  Sn  Sn29  1  0.065011  0.880232  0.749992  1
  Sn  Sn30  1  0.434753  0.380504  0.250006  1
  Sn  Sn31  1  0.934870  0.119561  0.249958  1
  Sn  Sn32  1  0.328563  0.145607  0.748989  1
  Sn  Sn33  1  0.830759  0.352441  0.749760  1
  Sn  Sn34  1  0.670059  0.852631  0.249969  1
  Sn  Sn35  1  0.170252  0.647432  0.249924  1
