# generated using pymatgen
data_Cs2Dy2GaAgTe6
_symmetry_space_group_name_H-M   'P 1'
_cell_length_a   8.97072274
_cell_length_b   8.97072317
_cell_length_c   11.73546300
_cell_angle_alpha   90.00000000
_cell_angle_beta   90.00000000
_cell_angle_gamma   150.98347604
_symmetry_Int_Tables_number   1
_chemical_formula_structural   Cs2Dy2GaAgTe6
_chemical_formula_sum   'Cs2 Dy2 Ga1 Ag1 Te6'
_cell_volume   458.09149178
_cell_formula_units_Z   1
loop_
 _symmetry_equiv_pos_site_id
 _symmetry_equiv_pos_as_xyz
  1  'x, y, z'
loop_
 _atom_site_type_symbol
 _atom_site_label
 _atom_site_symmetry_multiplicity
 _atom_site_fract_x
 _atom_site_fract_y
 _atom_site_fract_z
 _atom_site_occupancy
  Cs  Cs0  1  0.747283  0.252715  0.250000  1
  Cs  Cs1  1  0.245575  0.754423  0.750000  1
  Dy  Dy2  1  0.005171  0.994829  0.979645  1
  Dy  Dy3  1  0.005171  0.994829  0.520355  1
  Ga  Ga4  1  0.461910  0.538088  0.250000  1
  Ag  Ag5  1  0.534997  0.465001  0.750000  1
  Te  Te6  1  0.385462  0.614536  0.058414  1
  Te  Te7  1  0.055631  0.944367  0.250000  1
  Te  Te8  1  0.385462  0.614536  0.441585  1
  Te  Te9  1  0.621881  0.378117  0.545872  1
  Te  Te10  1  0.929567  0.070431  0.750000  1
  Te  Te11  1  0.621881  0.378117  0.954128  1
