# generated using pymatgen
data_Li5Eu2Ag5
_symmetry_space_group_name_H-M   'P 1'
_cell_length_a   4.51762300
_cell_length_b   5.53266100
_cell_length_c   9.84327000
_cell_angle_alpha   90.00000000
_cell_angle_beta   90.00000000
_cell_angle_gamma   90.00000000
_symmetry_Int_Tables_number   1
_chemical_formula_structural   Li5Eu2Ag5
_chemical_formula_sum   'Li5 Eu2 Ag5'
_cell_volume   246.02738153
_cell_formula_units_Z   1
loop_
 _symmetry_equiv_pos_site_id
 _symmetry_equiv_pos_as_xyz
  1  'x, y, z'
loop_
 _atom_site_type_symbol
 _atom_site_label
 _atom_site_symmetry_multiplicity
 _atom_site_fract_x
 _atom_site_fract_y
 _atom_site_fract_z
 _atom_site_occupancy
  Li  Li0  1  0.500000  0.000000  0.000000  1
  Li  Li1  1  0.500000  0.747552  0.252339  1
  Li  Li2  1  0.500000  0.252448  0.747661  1
  Li  Li3  1  0.500000  0.252448  0.252339  1
  Li  Li4  1  0.500000  0.747552  0.747661  1
  Eu  Eu5  1  0.000000  0.500000  0.000000  1
  Eu  Eu6  1  0.000000  0.000000  0.500000  1
  Ag  Ag7  1  0.000000  0.500000  0.323131  1
  Ag  Ag8  1  0.000000  0.000000  0.832330  1
  Ag  Ag9  1  0.000000  0.000000  0.167670  1
  Ag  Ag10  1  0.000000  0.500000  0.676869  1
  Ag  Ag11  1  0.500000  0.500000  0.500000  1
