# generated using pymatgen
data_ScZn2InNi2
_symmetry_space_group_name_H-M   'P 1'
_cell_length_a   5.01733235
_cell_length_b   5.01733288
_cell_length_c   5.01552100
_cell_angle_alpha   60.01195179
_cell_angle_beta   60.01194826
_cell_angle_gamma   61.98658563
_symmetry_Int_Tables_number   1
_chemical_formula_structural   ScZn2InNi2
_chemical_formula_sum   'Sc1 Zn2 In1 Ni2'
_cell_volume   90.55788155
_cell_formula_units_Z   1
loop_
 _symmetry_equiv_pos_site_id
 _symmetry_equiv_pos_as_xyz
  1  'x, y, z'
loop_
 _atom_site_type_symbol
 _atom_site_label
 _atom_site_symmetry_multiplicity
 _atom_site_fract_x
 _atom_site_fract_y
 _atom_site_fract_z
 _atom_site_occupancy
  Sc  Sc0  1  0.242930  0.242930  0.257070  1
  Zn  Zn1  1  0.626033  0.626033  0.622766  1
  Zn  Zn2  1  0.626033  0.626033  0.125167  1
  In  In3  1  0.003248  0.003248  0.996752  1
  Ni  Ni4  1  0.625978  0.125777  0.624122  1
  Ni  Ni5  1  0.125777  0.625978  0.624122  1
