# generated using pymatgen
data_Y3RuPt2Pb3
_symmetry_space_group_name_H-M   'P 1'
_cell_length_a   7.86244600
_cell_length_b   7.86244552
_cell_length_c   3.81975500
_cell_angle_alpha   90.00000000
_cell_angle_beta   90.00000000
_cell_angle_gamma   119.99999359
_symmetry_Int_Tables_number   1
_chemical_formula_structural   Y3RuPt2Pb3
_chemical_formula_sum   'Y3 Ru1 Pt2 Pb3'
_cell_volume   204.49443456
_cell_formula_units_Z   1
loop_
 _symmetry_equiv_pos_site_id
 _symmetry_equiv_pos_as_xyz
  1  'x, y, z'
loop_
 _atom_site_type_symbol
 _atom_site_label
 _atom_site_symmetry_multiplicity
 _atom_site_fract_x
 _atom_site_fract_y
 _atom_site_fract_z
 _atom_site_occupancy
  Y  Y0  1  0.400439  0.000000  0.500000  1
  Y  Y1  1  0.000000  0.400439  0.500000  1
  Y  Y2  1  0.599561  0.599561  0.500000  1
  Ru  Ru3  1  0.000000  0.000000  0.500000  1
  Pt  Pt4  1  0.333333  0.666667  0.000000  1
  Pt  Pt5  1  0.666667  0.333333  0.000000  1
  Pb  Pb6  1  0.736834  0.000000  0.000000  1
  Pb  Pb7  1  0.000000  0.736834  0.000000  1
  Pb  Pb8  1  0.263166  0.263166  0.000000  1
