# generated using pymatgen
data_Th2CoP4Os3
_symmetry_space_group_name_H-M   'P 1'
_cell_length_a   4.17488000
_cell_length_b   4.17488000
_cell_length_c   9.34295900
_cell_angle_alpha   90.00000000
_cell_angle_beta   90.00000000
_cell_angle_gamma   90.00000000
_symmetry_Int_Tables_number   1
_chemical_formula_structural   Th2CoP4Os3
_chemical_formula_sum   'Th2 Co1 P4 Os3'
_cell_volume   162.84425321
_cell_formula_units_Z   1
loop_
 _symmetry_equiv_pos_site_id
 _symmetry_equiv_pos_as_xyz
  1  'x, y, z'
loop_
 _atom_site_type_symbol
 _atom_site_label
 _atom_site_symmetry_multiplicity
 _atom_site_fract_x
 _atom_site_fract_y
 _atom_site_fract_z
 _atom_site_occupancy
  Th  Th0  1  0.000000  0.500000  0.259663  1
  Th  Th1  1  0.500000  0.000000  0.740126  1
  Co  Co2  1  0.500000  0.000000  0.386465  1
  P  P3  1  0.000000  0.000000  0.491988  1
  P  P4  1  0.500000  0.500000  0.491988  1
  P  P5  1  0.000000  0.500000  0.871466  1
  P  P6  1  0.500000  0.000000  0.136613  1
  Os  Os7  1  0.000000  0.000000  0.004409  1
  Os  Os8  1  0.500000  0.500000  0.004409  1
  Os  Os9  1  0.000000  0.500000  0.612873  1
