# generated using pymatgen
data_Tb5Y11(ZnCo)4
_symmetry_space_group_name_H-M   'P 1'
_cell_length_a   9.38056454
_cell_length_b   9.40128870
_cell_length_c   9.39917065
_cell_angle_alpha   60.05854314
_cell_angle_beta   60.03862078
_cell_angle_gamma   60.04834151
_symmetry_Int_Tables_number   1
_chemical_formula_structural   Tb5Y11(ZnCo)4
_chemical_formula_sum   'Tb5 Y11 Zn4 Co4'
_cell_volume   586.77019051
_cell_formula_units_Z   1
loop_
 _symmetry_equiv_pos_site_id
 _symmetry_equiv_pos_as_xyz
  1  'x, y, z'
loop_
 _atom_site_type_symbol
 _atom_site_label
 _atom_site_symmetry_multiplicity
 _atom_site_fract_x
 _atom_site_fract_y
 _atom_site_fract_z
 _atom_site_occupancy
  Tb  Tb0  1  0.600124  0.600018  0.600216  1
  Tb  Tb1  1  0.600667  0.600064  0.199289  1
  Tb  Tb2  1  0.600517  0.199454  0.600151  1
  Tb  Tb3  1  0.199285  0.600333  0.600581  1
  Tb  Tb4  1  0.059216  0.440538  0.440324  1
  Y  Y5  1  0.440572  0.059518  0.059359  1
  Y  Y6  1  0.440613  0.059048  0.440672  1
  Y  Y7  1  0.059478  0.440755  0.059310  1
  Y  Y8  1  0.440514  0.440798  0.058954  1
  Y  Y9  1  0.059418  0.059408  0.440621  1
  Y  Y10  1  0.187819  0.812165  0.812174  1
  Y  Y11  1  0.812218  0.187742  0.187788  1
  Y  Y12  1  0.812365  0.187737  0.812041  1
  Y  Y13  1  0.187926  0.811911  0.187881  1
  Y  Y14  1  0.812256  0.811946  0.187858  1
  Y  Y15  1  0.187866  0.187774  0.811992  1
  Zn  Zn16  1  0.826650  0.826793  0.826699  1
  Zn  Zn17  1  0.826550  0.827046  0.519840  1
  Zn  Zn18  1  0.826618  0.519745  0.827013  1
  Zn  Zn19  1  0.519887  0.826787  0.826682  1
  Co  Co20  1  0.391075  0.392588  0.392626  1
  Co  Co21  1  0.392381  0.392305  0.822924  1
  Co  Co22  1  0.392392  0.822890  0.392337  1
  Co  Co23  1  0.823591  0.392637  0.392667  1
