# generated using pymatgen
data_Sc6Al6Cu2Si3Au
_symmetry_space_group_name_H-M   'P 1'
_cell_length_a   6.67331600
_cell_length_b   6.67331757
_cell_length_c   8.04883300
_cell_angle_alpha   90.00000000
_cell_angle_beta   90.00000000
_cell_angle_gamma   119.99999220
_symmetry_Int_Tables_number   1
_chemical_formula_structural   Sc6Al6Cu2Si3Au
_chemical_formula_sum   'Sc6 Al6 Cu2 Si3 Au1'
_cell_volume   310.41812087
_cell_formula_units_Z   1
loop_
 _symmetry_equiv_pos_site_id
 _symmetry_equiv_pos_as_xyz
  1  'x, y, z'
loop_
 _atom_site_type_symbol
 _atom_site_label
 _atom_site_symmetry_multiplicity
 _atom_site_fract_x
 _atom_site_fract_y
 _atom_site_fract_z
 _atom_site_occupancy
  Sc  Sc0  1  0.587528  0.001423  0.743426  1
  Sc  Sc1  1  0.998577  0.586104  0.743426  1
  Sc  Sc2  1  0.413896  0.412472  0.743426  1
  Sc  Sc3  1  0.998564  0.586086  0.256373  1
  Sc  Sc4  1  0.587522  0.001436  0.256373  1
  Sc  Sc5  1  0.413914  0.412478  0.256373  1
  Al  Al6  1  0.755535  0.758177  0.000064  1
  Al  Al7  1  0.241823  0.997358  0.000064  1
  Al  Al8  1  0.002642  0.244465  0.000064  1
  Al  Al9  1  0.759540  0.759515  0.500042  1
  Al  Al10  1  0.240485  0.000025  0.500042  1
  Al  Al11  1  0.999975  0.240460  0.500042  1
  Cu  Cu12  1  0.000000  0.000000  0.750734  1
  Cu  Cu13  1  0.000000  0.000000  0.249490  1
  Si  Si14  1  0.666667  0.333333  0.999914  1
  Si  Si15  1  0.666667  0.333333  0.499904  1
  Si  Si16  1  0.333333  0.666667  0.499912  1
  Au  Au17  1  0.333333  0.666667  0.000333  1
