# generated using pymatgen
data_Tm4ZnCo
_symmetry_space_group_name_H-M   'P 1'
_cell_length_a   9.20946196
_cell_length_b   9.20946190
_cell_length_c   9.20946200
_cell_angle_alpha   59.99999964
_cell_angle_beta   59.99999985
_cell_angle_gamma   59.99999761
_symmetry_Int_Tables_number   1
_chemical_formula_structural   Tm4ZnCo
_chemical_formula_sum   'Tm16 Zn4 Co4'
_cell_volume   552.31618097
_cell_formula_units_Z   4
loop_
 _symmetry_equiv_pos_site_id
 _symmetry_equiv_pos_as_xyz
  1  'x, y, z'
loop_
 _atom_site_type_symbol
 _atom_site_label
 _atom_site_symmetry_multiplicity
 _atom_site_fract_x
 _atom_site_fract_y
 _atom_site_fract_z
 _atom_site_occupancy
  Tm  Tm0  1  0.350517  0.350517  0.350517  1
  Tm  Tm1  1  0.350517  0.350517  0.948450  1
  Tm  Tm2  1  0.350517  0.948450  0.350517  1
  Tm  Tm3  1  0.948450  0.350517  0.350517  1
  Tm  Tm4  1  0.809553  0.190447  0.190447  1
  Tm  Tm5  1  0.190447  0.809553  0.809553  1
  Tm  Tm6  1  0.190447  0.809553  0.190447  1
  Tm  Tm7  1  0.809553  0.190447  0.809553  1
  Tm  Tm8  1  0.190447  0.190447  0.809553  1
  Tm  Tm9  1  0.809553  0.809553  0.190447  1
  Tm  Tm10  1  0.937813  0.562187  0.562187  1
  Tm  Tm11  1  0.562187  0.937813  0.937813  1
  Tm  Tm12  1  0.562187  0.937813  0.562187  1
  Tm  Tm13  1  0.937813  0.562187  0.937813  1
  Tm  Tm14  1  0.562187  0.562187  0.937813  1
  Tm  Tm15  1  0.937813  0.937813  0.562187  1
  Zn  Zn16  1  0.577647  0.577647  0.577647  1
  Zn  Zn17  1  0.577647  0.577647  0.267059  1
  Zn  Zn18  1  0.577647  0.267059  0.577647  1
  Zn  Zn19  1  0.267059  0.577647  0.577647  1
  Co  Co20  1  0.142127  0.142127  0.142127  1
  Co  Co21  1  0.142127  0.142127  0.573621  1
  Co  Co22  1  0.142127  0.573621  0.142127  1
  Co  Co23  1  0.573621  0.142127  0.142127  1
