# generated using pymatgen
data_SmCu4Hg
_symmetry_space_group_name_H-M   'P 1'
_cell_length_a   5.16197347
_cell_length_b   5.16197374
_cell_length_c   5.16197300
_cell_angle_alpha   59.99999836
_cell_angle_beta   59.99999657
_cell_angle_gamma   60.00000321
_symmetry_Int_Tables_number   1
_chemical_formula_structural   SmCu4Hg
_chemical_formula_sum   'Sm1 Cu4 Hg1'
_cell_volume   97.25955624
_cell_formula_units_Z   1
loop_
 _symmetry_equiv_pos_site_id
 _symmetry_equiv_pos_as_xyz
  1  'x, y, z'
loop_
 _atom_site_type_symbol
 _atom_site_label
 _atom_site_symmetry_multiplicity
 _atom_site_fract_x
 _atom_site_fract_y
 _atom_site_fract_z
 _atom_site_occupancy
  Sm  Sm0  1  0.250000  0.250000  0.250000  1
  Cu  Cu1  1  0.625792  0.625792  0.625792  1
  Cu  Cu2  1  0.625792  0.625792  0.122623  1
  Cu  Cu3  1  0.625792  0.122623  0.625792  1
  Cu  Cu4  1  0.122623  0.625792  0.625792  1
  Hg  Hg5  1  0.000000  0.000000  0.000000  1
