# generated using pymatgen
data_Hf6Ti2Re3Os
_symmetry_space_group_name_H-M   'P 1'
_cell_length_a   8.61146791
_cell_length_b   8.61146759
_cell_length_c   8.60751000
_cell_angle_alpha   60.01520136
_cell_angle_beta   60.01520258
_cell_angle_gamma   60.03017868
_symmetry_Int_Tables_number   1
_chemical_formula_structural   Hf6Ti2Re3Os
_chemical_formula_sum   'Hf12 Ti4 Re6 Os2'
_cell_volume   451.56019245
_cell_formula_units_Z   2
loop_
 _symmetry_equiv_pos_site_id
 _symmetry_equiv_pos_as_xyz
  1  'x, y, z'
loop_
 _atom_site_type_symbol
 _atom_site_label
 _atom_site_symmetry_multiplicity
 _atom_site_fract_x
 _atom_site_fract_y
 _atom_site_fract_z
 _atom_site_occupancy
  Hf  Hf0  1  0.807103  0.807103  0.192897  1
  Hf  Hf1  1  0.192690  0.192690  0.807310  1
  Hf  Hf2  1  0.807202  0.192709  0.807326  1
  Hf  Hf3  1  0.192709  0.807202  0.192763  1
  Hf  Hf4  1  0.192709  0.807202  0.807326  1
  Hf  Hf5  1  0.807202  0.192709  0.192763  1
  Hf  Hf6  1  0.443311  0.443311  0.056689  1
  Hf  Hf7  1  0.056975  0.056975  0.443025  1
  Hf  Hf8  1  0.442521  0.056906  0.443529  1
  Hf  Hf9  1  0.056906  0.442521  0.057044  1
  Hf  Hf10  1  0.056906  0.442521  0.443529  1
  Hf  Hf11  1  0.442521  0.056906  0.057044  1
  Ti  Ti12  1  0.122579  0.626692  0.625365  1
  Ti  Ti13  1  0.626692  0.122579  0.625365  1
  Ti  Ti14  1  0.625765  0.625765  0.123898  1
  Ti  Ti15  1  0.625765  0.625765  0.624572  1
  Re  Re16  1  0.753098  0.415305  0.415798  1
  Re  Re17  1  0.415305  0.753098  0.415798  1
  Re  Re18  1  0.415365  0.415365  0.753386  1
  Re  Re19  1  0.415365  0.415365  0.415882  1
  Re  Re20  1  0.497563  0.834105  0.834167  1
  Re  Re21  1  0.834105  0.497563  0.834167  1
  Os  Os22  1  0.834822  0.834822  0.495313  1
  Os  Os23  1  0.834822  0.834822  0.835044  1
