# generated using pymatgen
data_Al4Hg11(SbBr4)4
_symmetry_space_group_name_H-M   'P 1'
_cell_length_a   8.27542372
_cell_length_b   8.27542387
_cell_length_c   24.41699464
_cell_angle_alpha   82.73249702
_cell_angle_beta   82.73249795
_cell_angle_gamma   60.88794738
_symmetry_Int_Tables_number   1
_chemical_formula_structural   Al4Hg11(SbBr4)4
_chemical_formula_sum   'Al4 Hg11 Sb4 Br16'
_cell_volume   1445.08606490
_cell_formula_units_Z   1
loop_
 _symmetry_equiv_pos_site_id
 _symmetry_equiv_pos_as_xyz
  1  'x, y, z'
loop_
 _atom_site_type_symbol
 _atom_site_label
 _atom_site_symmetry_multiplicity
 _atom_site_fract_x
 _atom_site_fract_y
 _atom_site_fract_z
 _atom_site_occupancy
  Al  Al0  1  0.635480  0.635480  0.120864  1
  Al  Al1  1  0.364520  0.364520  0.879136  1
  Al  Al2  1  0.752919  0.752919  0.619901  1
  Al  Al3  1  0.247081  0.247081  0.380099  1
  Hg  Hg4  1  0.032981  0.032981  0.888845  1
  Hg  Hg5  1  0.767131  0.767131  0.282218  1
  Hg  Hg6  1  0.481209  0.481209  0.555543  1
  Hg  Hg7  1  0.726853  0.233707  0.725766  1
  Hg  Hg8  1  0.273147  0.766293  0.274234  1
  Hg  Hg9  1  0.766293  0.273147  0.274234  1
  Hg  Hg10  1  0.233707  0.726853  0.725766  1
  Hg  Hg11  1  0.518791  0.518791  0.444457  1
  Hg  Hg12  1  0.967019  0.967019  0.111155  1
  Hg  Hg13  1  0.000000  0.000000  0.000000  1
  Hg  Hg14  1  0.232869  0.232869  0.717782  1
  Sb  Sb15  1  0.946031  0.946031  0.226482  1
  Sb  Sb16  1  0.053969  0.053969  0.773518  1
  Sb  Sb17  1  0.583043  0.583043  0.330906  1
  Sb  Sb18  1  0.416957  0.416957  0.669094  1
  Br  Br19  1  0.522532  0.072306  0.843201  1
  Br  Br20  1  0.087041  0.087041  0.415267  1
  Br  Br21  1  0.526105  0.526105  0.843362  1
  Br  Br22  1  0.450142  0.901502  0.592124  1
  Br  Br23  1  0.738611  0.738611  0.716384  1
  Br  Br24  1  0.339182  0.339182  0.974139  1
  Br  Br25  1  0.477468  0.927694  0.156799  1
  Br  Br26  1  0.927694  0.477468  0.156799  1
  Br  Br27  1  0.473895  0.473895  0.156638  1
  Br  Br28  1  0.549858  0.098498  0.407876  1
  Br  Br29  1  0.660818  0.660818  0.025861  1
  Br  Br30  1  0.901502  0.450142  0.592124  1
  Br  Br31  1  0.261389  0.261389  0.283616  1
  Br  Br32  1  0.098498  0.549858  0.407876  1
  Br  Br33  1  0.912959  0.912959  0.584733  1
  Br  Br34  1  0.072306  0.522532  0.843201  1
