# generated using pymatgen
data_Na2P2PbO8
_symmetry_space_group_name_H-M   'P 1'
_cell_length_a   5.01847600
_cell_length_b   5.01847676
_cell_length_c   9.17894300
_cell_angle_alpha   90.00000000
_cell_angle_beta   90.00000000
_cell_angle_gamma   120.00000820
_symmetry_Int_Tables_number   1
_chemical_formula_structural   Na2P2PbO8
_chemical_formula_sum   'Na2 P2 Pb1 O8'
_cell_volume   200.20136642
_cell_formula_units_Z   1
loop_
 _symmetry_equiv_pos_site_id
 _symmetry_equiv_pos_as_xyz
  1  'x, y, z'
loop_
 _atom_site_type_symbol
 _atom_site_label
 _atom_site_symmetry_multiplicity
 _atom_site_fract_x
 _atom_site_fract_y
 _atom_site_fract_z
 _atom_site_occupancy
  Na  Na0  1  0.666667  0.333333  0.356068  1
  Na  Na1  1  0.333333  0.666666  0.643933  1
  P  P2  1  0.333333  0.666666  0.206971  1
  P  P3  1  0.666667  0.333333  0.793029  1
  Pb  Pb4  1  0.000000  0.000000  0.000000  1
  O  O5  1  0.322029  0.365761  0.150776  1
  O  O6  1  0.043734  0.677972  0.150776  1
  O  O7  1  0.634237  0.956266  0.150776  1
  O  O8  1  0.333333  0.666666  0.373761  1
  O  O9  1  0.666667  0.333333  0.626240  1
  O  O10  1  0.365760  0.043732  0.849225  1
  O  O11  1  0.956267  0.322029  0.849225  1
  O  O12  1  0.677972  0.634239  0.849225  1
