# generated using pymatgen
data_Eu2PPt8
_symmetry_space_group_name_H-M   'P 1'
_cell_length_a   9.27250245
_cell_length_b   9.27250218
_cell_length_c   4.31697600
_cell_angle_alpha   90.00000000
_cell_angle_beta   90.00000000
_cell_angle_gamma   145.75172111
_symmetry_Int_Tables_number   1
_chemical_formula_structural   Eu2PPt8
_chemical_formula_sum   'Eu2 P1 Pt8'
_cell_volume   208.88741020
_cell_formula_units_Z   1
loop_
 _symmetry_equiv_pos_site_id
 _symmetry_equiv_pos_as_xyz
  1  'x, y, z'
loop_
 _atom_site_type_symbol
 _atom_site_label
 _atom_site_symmetry_multiplicity
 _atom_site_fract_x
 _atom_site_fract_y
 _atom_site_fract_z
 _atom_site_occupancy
  Eu  Eu0  1  0.617553  0.372569  0.500000  1
  Eu  Eu1  1  0.372569  0.617553  0.500000  1
  P  P2  1  0.220008  0.220008  0.000000  1
  Pt  Pt3  1  0.110599  0.890892  0.000000  1
  Pt  Pt4  1  0.890892  0.110599  0.000000  1
  Pt  Pt5  1  0.491174  0.987672  0.000000  1
  Pt  Pt6  1  0.987672  0.491174  0.000000  1
  Pt  Pt7  1  0.194106  0.790960  0.500000  1
  Pt  Pt8  1  0.790960  0.194106  0.500000  1
  Pt  Pt9  1  0.009188  0.009188  0.500000  1
  Pt  Pt10  1  0.628878  0.628878  0.000000  1
