# generated using pymatgen
data_Sc2Pa2Ge6Os7
_symmetry_space_group_name_H-M   'P 1'
_cell_length_a   7.21791293
_cell_length_b   7.21791269
_cell_length_c   7.15808083
_cell_angle_alpha   109.53003575
_cell_angle_beta   109.53003353
_cell_angle_gamma   109.69056959
_symmetry_Int_Tables_number   1
_chemical_formula_structural   Sc2Pa2Ge6Os7
_chemical_formula_sum   'Sc2 Pa2 Ge6 Os7'
_cell_volume   285.87604479
_cell_formula_units_Z   1
loop_
 _symmetry_equiv_pos_site_id
 _symmetry_equiv_pos_as_xyz
  1  'x, y, z'
loop_
 _atom_site_type_symbol
 _atom_site_label
 _atom_site_symmetry_multiplicity
 _atom_site_fract_x
 _atom_site_fract_y
 _atom_site_fract_z
 _atom_site_occupancy
  Sc  Sc0  1  0.000000  0.500000  0.000000  1
  Sc  Sc1  1  0.500000  0.000000  0.000000  1
  Pa  Pa2  1  0.000000  0.000000  0.500000  1
  Pa  Pa3  1  0.500000  0.500000  0.500000  1
  Ge  Ge4  1  0.691075  0.691075  0.000000  1
  Ge  Ge5  1  0.308262  0.992316  0.300577  1
  Ge  Ge6  1  0.992316  0.308262  0.300577  1
  Ge  Ge7  1  0.308925  0.308925  0.000000  1
  Ge  Ge8  1  0.691738  0.007684  0.699423  1
  Ge  Ge9  1  0.007684  0.691738  0.699423  1
  Os  Os10  1  0.750000  0.250000  0.500000  1
  Os  Os11  1  0.750161  0.498225  0.248386  1
  Os  Os12  1  0.501775  0.249839  0.751614  1
  Os  Os13  1  0.249839  0.501775  0.751614  1
  Os  Os14  1  0.250000  0.750000  0.500000  1
  Os  Os15  1  0.498225  0.750161  0.248386  1
  Os  Os16  1  0.000000  0.000000  0.000000  1
