# generated using pymatgen
data_Nb12Fe7Ru5N4
_symmetry_space_group_name_H-M   'P 1'
_cell_length_a   8.16980325
_cell_length_b   8.19009809
_cell_length_c   8.19009900
_cell_angle_alpha   60.00000037
_cell_angle_beta   59.91779199
_cell_angle_gamma   59.91778621
_symmetry_Int_Tables_number   1
_chemical_formula_structural   Nb12Fe7Ru5N4
_chemical_formula_sum   'Nb12 Fe7 Ru5 N4'
_cell_volume   387.02059385
_cell_formula_units_Z   1
loop_
 _symmetry_equiv_pos_site_id
 _symmetry_equiv_pos_as_xyz
  1  'x, y, z'
loop_
 _atom_site_type_symbol
 _atom_site_label
 _atom_site_symmetry_multiplicity
 _atom_site_fract_x
 _atom_site_fract_y
 _atom_site_fract_z
 _atom_site_occupancy
  Nb  Nb0  1  0.806739  0.808070  0.192595  1
  Nb  Nb1  1  0.190752  0.195824  0.806712  1
  Nb  Nb2  1  0.806739  0.192595  0.808070  1
  Nb  Nb3  1  0.190752  0.806712  0.195824  1
  Nb  Nb4  1  0.190752  0.806712  0.806712  1
  Nb  Nb5  1  0.806739  0.192595  0.192595  1
  Nb  Nb6  1  0.443696  0.443618  0.056343  1
  Nb  Nb7  1  0.054545  0.055055  0.445200  1
  Nb  Nb8  1  0.443696  0.056343  0.443618  1
  Nb  Nb9  1  0.054545  0.445200  0.055055  1
  Nb  Nb10  1  0.054545  0.445200  0.445200  1
  Nb  Nb11  1  0.443696  0.056343  0.056343  1
  Fe  Fe12  1  0.107153  0.630949  0.630949  1
  Fe  Fe13  1  0.634885  0.113329  0.625893  1
  Fe  Fe14  1  0.634885  0.625893  0.113329  1
  Fe  Fe15  1  0.634885  0.625893  0.625893  1
  Fe  Fe16  1  0.833062  0.503011  0.831963  1
  Fe  Fe17  1  0.833062  0.831963  0.503011  1
  Fe  Fe18  1  0.833062  0.831963  0.831963  1
  Ru  Ru19  1  0.746833  0.417723  0.417723  1
  Ru  Ru20  1  0.417121  0.745172  0.418854  1
  Ru  Ru21  1  0.417121  0.418854  0.745172  1
  Ru  Ru22  1  0.417121  0.418854  0.418854  1
  Ru  Ru23  1  0.504008  0.831997  0.831997  1
  N  N24  1  0.624291  0.125236  0.125236  1
  N  N25  1  0.125105  0.623406  0.125744  1
  N  N26  1  0.125105  0.125744  0.623406  1
  N  N27  1  0.125105  0.125744  0.125744  1
