# generated using pymatgen
data_Dy2Ga(Ni2P)6
_symmetry_space_group_name_H-M   'P 1'
_cell_length_a   9.10257900
_cell_length_b   9.10258005
_cell_length_c   3.67029800
_cell_angle_alpha   90.00000000
_cell_angle_beta   90.00000000
_cell_angle_gamma   120.00000709
_symmetry_Int_Tables_number   1
_chemical_formula_structural   Dy2Ga(Ni2P)6
_chemical_formula_sum   'Dy2 Ga1 Ni12 P6'
_cell_volume   263.36671782
_cell_formula_units_Z   1
loop_
 _symmetry_equiv_pos_site_id
 _symmetry_equiv_pos_as_xyz
  1  'x, y, z'
loop_
 _atom_site_type_symbol
 _atom_site_label
 _atom_site_symmetry_multiplicity
 _atom_site_fract_x
 _atom_site_fract_y
 _atom_site_fract_z
 _atom_site_occupancy
  Dy  Dy0  1  0.666667  0.333333  0.000000  1
  Dy  Dy1  1  0.000000  0.000000  0.500000  1
  Ga  Ga2  1  0.333333  0.666667  0.000000  1
  Ni  Ni3  1  0.717565  0.100312  0.500000  1
  Ni  Ni4  1  0.899688  0.617253  0.500000  1
  Ni  Ni5  1  0.382747  0.282435  0.500000  1
  Ni  Ni6  1  0.770303  0.728990  0.000000  1
  Ni  Ni7  1  0.271010  0.041312  0.000000  1
  Ni  Ni8  1  0.958688  0.229697  0.000000  1
  Ni  Ni9  1  0.567626  0.769481  0.500000  1
  Ni  Ni10  1  0.230519  0.798145  0.500000  1
  Ni  Ni11  1  0.201855  0.432374  0.500000  1
  Ni  Ni12  1  0.496302  0.959590  0.000000  1
  Ni  Ni13  1  0.040410  0.536711  0.000000  1
  Ni  Ni14  1  0.463289  0.503698  0.000000  1
  P  P15  1  0.443603  0.071139  0.500000  1
  P  P16  1  0.928861  0.372464  0.500000  1
  P  P17  1  0.627536  0.556397  0.500000  1
  P  P18  1  0.738196  0.958222  0.000000  1
  P  P19  1  0.041778  0.779974  0.000000  1
  P  P20  1  0.220026  0.261804  0.000000  1
