# generated using pymatgen
data_Sr4YbHo(RuO6)2
_symmetry_space_group_name_H-M   'P 1'
_cell_length_a   5.77219847
_cell_length_b   5.87405808
_cell_length_c   8.23269520
_cell_angle_alpha   90.26816407
_cell_angle_beta   90.38353386
_cell_angle_gamma   89.99355036
_symmetry_Int_Tables_number   1
_chemical_formula_structural   Sr4YbHo(RuO6)2
_chemical_formula_sum   'Sr4 Yb1 Ho1 Ru2 O12'
_cell_volume   279.13033700
_cell_formula_units_Z   1
loop_
 _symmetry_equiv_pos_site_id
 _symmetry_equiv_pos_as_xyz
  1  'x, y, z'
loop_
 _atom_site_type_symbol
 _atom_site_label
 _atom_site_symmetry_multiplicity
 _atom_site_fract_x
 _atom_site_fract_y
 _atom_site_fract_z
 _atom_site_occupancy
  Sr  Sr0  1  0.009628  0.044219  0.253872  1
  Sr  Sr1  1  0.490579  0.540281  0.254710  1
  Sr  Sr2  1  0.509421  0.459719  0.745290  1
  Sr  Sr3  1  0.990372  0.955781  0.746128  1
  Yb  Yb4  1  0.999999  0.500001  0.500000  1
  Ho  Ho5  1  0.500000  0.000000  0.999999  1
  Ru  Ru6  1  0.000000  0.500001  0.000000  1
  Ru  Ru7  1  0.499999  0.000000  0.500001  1
  O  O8  1  0.273346  0.302336  0.040274  1
  O  O9  1  0.194086  0.774510  0.042261  1
  O  O10  1  0.924444  0.480061  0.229297  1
  O  O11  1  0.576971  0.979737  0.264662  1
  O  O12  1  0.310468  0.270147  0.459100  1
  O  O13  1  0.230919  0.806650  0.460945  1
  O  O14  1  0.769082  0.193349  0.539054  1
  O  O15  1  0.689533  0.729853  0.540902  1
  O  O16  1  0.423027  0.020263  0.735338  1
  O  O17  1  0.075557  0.519939  0.770703  1
  O  O18  1  0.805915  0.225490  0.957739  1
  O  O19  1  0.726653  0.697663  0.959726  1
