# generated using pymatgen
data_Yb6ThPt7
_symmetry_space_group_name_H-M   'P 1'
_cell_length_a   6.02099577
_cell_length_b   7.77184126
_cell_length_c   7.77183925
_cell_angle_alpha   113.57619846
_cell_angle_beta   104.96564205
_cell_angle_gamma   104.96563184
_symmetry_Int_Tables_number   1
_chemical_formula_structural   Yb6ThPt7
_chemical_formula_sum   'Yb6 Th1 Pt7'
_cell_volume   293.95014508
_cell_formula_units_Z   1
loop_
 _symmetry_equiv_pos_site_id
 _symmetry_equiv_pos_as_xyz
  1  'x, y, z'
loop_
 _atom_site_type_symbol
 _atom_site_label
 _atom_site_symmetry_multiplicity
 _atom_site_fract_x
 _atom_site_fract_y
 _atom_site_fract_z
 _atom_site_occupancy
  Yb  Yb0  1  0.352621  0.437365  0.144057  1
  Yb  Yb1  1  0.208565  0.855943  0.293309  1
  Yb  Yb2  1  0.084743  0.293308  0.437365  1
  Yb  Yb3  1  0.915257  0.706692  0.562635  1
  Yb  Yb4  1  0.791435  0.144057  0.706692  1
  Yb  Yb5  1  0.647379  0.562635  0.855943  1
  Th  Th6  1  0.500000  0.000000  0.000000  1
  Pt  Pt7  1  0.000000  0.000000  0.000000  1
  Pt  Pt8  1  0.849374  0.416487  0.138204  1
  Pt  Pt9  1  0.711170  0.861796  0.278283  1
  Pt  Pt10  1  0.567113  0.278283  0.416487  1
  Pt  Pt11  1  0.432889  0.721717  0.583514  1
  Pt  Pt12  1  0.288830  0.138204  0.721718  1
  Pt  Pt13  1  0.150626  0.583513  0.861796  1
