# generated using pymatgen
data_Li3Y3AlSiAs
_symmetry_space_group_name_H-M   'P 1'
_cell_length_a   7.12090200
_cell_length_b   7.12090234
_cell_length_c   4.24100800
_cell_angle_alpha   90.00000000
_cell_angle_beta   90.00000000
_cell_angle_gamma   119.99998913
_symmetry_Int_Tables_number   1
_chemical_formula_structural   Li3Y3AlSiAs
_chemical_formula_sum   'Li3 Y3 Al1 Si1 As1'
_cell_volume   186.23864771
_cell_formula_units_Z   1
loop_
 _symmetry_equiv_pos_site_id
 _symmetry_equiv_pos_as_xyz
  1  'x, y, z'
loop_
 _atom_site_type_symbol
 _atom_site_label
 _atom_site_symmetry_multiplicity
 _atom_site_fract_x
 _atom_site_fract_y
 _atom_site_fract_z
 _atom_site_occupancy
  Li  Li0  1  0.245290  0.999785  0.500000  1
  Li  Li1  1  0.754495  0.754710  0.500000  1
  Li  Li2  1  0.000215  0.245505  0.500000  1
  Y  Y3  1  0.993060  0.563360  0.000000  1
  Y  Y4  1  0.570300  0.006940  0.000000  1
  Y  Y5  1  0.436640  0.429700  0.000000  1
  Al  Al6  1  0.000000  0.000000  0.000000  1
  Si  Si7  1  0.666667  0.333333  0.500000  1
  As  As8  1  0.333333  0.666667  0.500000  1
