# generated using pymatgen
data_Tb3Tl3CuPd2
_symmetry_space_group_name_H-M   'P 1'
_cell_length_a   7.75220700
_cell_length_b   7.75220831
_cell_length_c   3.80305100
_cell_angle_alpha   90.00000000
_cell_angle_beta   90.00000000
_cell_angle_gamma   119.99999014
_symmetry_Int_Tables_number   1
_chemical_formula_structural   Tb3Tl3CuPd2
_chemical_formula_sum   'Tb3 Tl3 Cu1 Pd2'
_cell_volume   197.93090905
_cell_formula_units_Z   1
loop_
 _symmetry_equiv_pos_site_id
 _symmetry_equiv_pos_as_xyz
  1  'x, y, z'
loop_
 _atom_site_type_symbol
 _atom_site_label
 _atom_site_symmetry_multiplicity
 _atom_site_fract_x
 _atom_site_fract_y
 _atom_site_fract_z
 _atom_site_occupancy
  Tb  Tb0  1  0.000000  0.405849  0.000000  1
  Tb  Tb1  1  0.594151  0.594151  0.000000  1
  Tb  Tb2  1  0.405849  0.000000  0.000000  1
  Tl  Tl3  1  0.000000  0.742297  0.500000  1
  Tl  Tl4  1  0.257703  0.257703  0.500000  1
  Tl  Tl5  1  0.742297  0.000000  0.500000  1
  Cu  Cu6  1  0.000000  0.000000  0.000000  1
  Pd  Pd7  1  0.333333  0.666667  0.500000  1
  Pd  Pd8  1  0.666667  0.333333  0.500000  1
