# generated using pymatgen
data_La13Yb7Ir12
_symmetry_space_group_name_H-M   'P 1'
_cell_length_a   11.22924380
_cell_length_b   11.32730759
_cell_length_c   6.47951127
_cell_angle_alpha   89.88570702
_cell_angle_beta   90.24633013
_cell_angle_gamma   90.09651160
_symmetry_Int_Tables_number   1
_chemical_formula_structural   La13Yb7Ir12
_chemical_formula_sum   'La13 Yb7 Ir12'
_cell_volume   824.16461911
_cell_formula_units_Z   1
loop_
 _symmetry_equiv_pos_site_id
 _symmetry_equiv_pos_as_xyz
  1  'x, y, z'
loop_
 _atom_site_type_symbol
 _atom_site_label
 _atom_site_symmetry_multiplicity
 _atom_site_fract_x
 _atom_site_fract_y
 _atom_site_fract_z
 _atom_site_occupancy
  La  La0  1  0.712382  0.915526  0.390842  1
  La  La1  1  0.586276  0.792785  0.886507  1
  La  La2  1  0.585849  0.209600  0.384969  1
  La  La3  1  0.405138  0.794818  0.386041  1
  La  La4  1  0.410191  0.204833  0.886022  1
  La  La5  1  0.212419  0.408375  0.613573  1
  La  La6  1  0.213678  0.590444  0.112906  1
  La  La7  1  0.788607  0.408043  0.113210  1
  La  La8  1  0.786669  0.589807  0.612154  1
  La  La9  1  0.910428  0.713215  0.115148  1
  La  La10  1  0.907340  0.284056  0.619158  1
  La  La11  1  0.092115  0.714824  0.616035  1
  La  La12  1  0.093245  0.284173  0.118754  1
  Yb  Yb13  1  0.291183  0.084571  0.383771  1
  Yb  Yb14  1  0.289857  0.915957  0.884884  1
  Yb  Yb15  1  0.708366  0.086389  0.886192  1
  Yb  Yb16  1  0.005880  0.001806  0.497468  1
  Yb  Yb17  1  0.999574  0.000659  0.996642  1
  Yb  Yb18  1  0.500221  0.499160  0.995115  1
  Yb  Yb19  1  0.498439  0.501321  0.495794  1
  Ir  Ir20  1  0.848172  0.157696  0.252738  1
  Ir  Ir21  1  0.848927  0.842332  0.747243  1
  Ir  Ir22  1  0.152257  0.159980  0.751765  1
  Ir  Ir23  1  0.150826  0.839619  0.248807  1
  Ir  Ir24  1  0.654430  0.346288  0.746739  1
  Ir  Ir25  1  0.654421  0.657843  0.248121  1
  Ir  Ir26  1  0.345996  0.344649  0.245540  1
  Ir  Ir27  1  0.344263  0.653921  0.746476  1
  Ir  Ir28  1  0.501250  0.999403  0.125124  1
  Ir  Ir29  1  0.501232  0.999245  0.623754  1
  Ir  Ir30  1  0.000437  0.499636  0.884989  1
  Ir  Ir31  1  0.999935  0.499024  0.383519  1
