# generated using pymatgen
data_Ti5Mn24
_symmetry_space_group_name_H-M   'P 1'
_cell_length_a   7.60019974
_cell_length_b   7.60019944
_cell_length_c   7.60019900
_cell_angle_alpha   109.47122212
_cell_angle_beta   109.47122133
_cell_angle_gamma   109.47121696
_symmetry_Int_Tables_number   1
_chemical_formula_structural   Ti5Mn24
_chemical_formula_sum   'Ti5 Mn24'
_cell_volume   337.95048657
_cell_formula_units_Z   1
loop_
 _symmetry_equiv_pos_site_id
 _symmetry_equiv_pos_as_xyz
  1  'x, y, z'
loop_
 _atom_site_type_symbol
 _atom_site_label
 _atom_site_symmetry_multiplicity
 _atom_site_fract_x
 _atom_site_fract_y
 _atom_site_fract_z
 _atom_site_occupancy
  Ti  Ti0  1  0.000000  0.000000  0.000000  1
  Ti  Ti1  1  0.622937  0.000000  0.000000  1
  Ti  Ti2  1  0.000000  0.622937  0.000000  1
  Ti  Ti3  1  0.000000  0.000000  0.622937  1
  Ti  Ti4  1  0.377063  0.377063  0.377063  1
  Mn  Mn5  1  0.390835  0.672447  0.000000  1
  Mn  Mn6  1  0.718388  0.327553  0.327553  1
  Mn  Mn7  1  0.390835  0.000000  0.672447  1
  Mn  Mn8  1  0.672447  0.390835  0.000000  1
  Mn  Mn9  1  0.000000  0.390835  0.672447  1
  Mn  Mn10  1  0.327553  0.718388  0.327553  1
  Mn  Mn11  1  0.327553  0.327553  0.718388  1
  Mn  Mn12  1  0.000000  0.672447  0.390835  1
  Mn  Mn13  1  0.672447  0.000000  0.390835  1
  Mn  Mn14  1  0.609165  0.609165  0.281612  1
  Mn  Mn15  1  0.281612  0.609165  0.609165  1
  Mn  Mn16  1  0.609165  0.281612  0.609165  1
  Mn  Mn17  1  0.373492  0.194741  0.000000  1
  Mn  Mn18  1  0.178751  0.805259  0.805259  1
  Mn  Mn19  1  0.373492  0.000000  0.194741  1
  Mn  Mn20  1  0.194741  0.373492  0.000000  1
  Mn  Mn21  1  0.000000  0.373492  0.194741  1
  Mn  Mn22  1  0.805259  0.178751  0.805259  1
  Mn  Mn23  1  0.805259  0.805259  0.178751  1
  Mn  Mn24  1  0.000000  0.194741  0.373492  1
  Mn  Mn25  1  0.194741  0.000000  0.373492  1
  Mn  Mn26  1  0.626508  0.626508  0.821249  1
  Mn  Mn27  1  0.821249  0.626508  0.626508  1
  Mn  Mn28  1  0.626508  0.821249  0.626508  1
