# generated using pymatgen
data_Dy8Ti2VSi16Tc9
_symmetry_space_group_name_H-M   'P 1'
_cell_length_a   6.76871717
_cell_length_b   6.76871674
_cell_length_c   12.94823426
_cell_angle_alpha   90.00852307
_cell_angle_beta   89.99147929
_cell_angle_gamma   89.19695986
_symmetry_Int_Tables_number   1
_chemical_formula_structural   Dy8Ti2VSi16Tc9
_chemical_formula_sum   'Dy8 Ti2 V1 Si16 Tc9'
_cell_volume   593.17192611
_cell_formula_units_Z   1
loop_
 _symmetry_equiv_pos_site_id
 _symmetry_equiv_pos_as_xyz
  1  'x, y, z'
loop_
 _atom_site_type_symbol
 _atom_site_label
 _atom_site_symmetry_multiplicity
 _atom_site_fract_x
 _atom_site_fract_y
 _atom_site_fract_z
 _atom_site_occupancy
  Dy  Dy0  1  0.997601  0.662420  0.027432  1
  Dy  Dy1  1  0.003078  0.337140  0.527112  1
  Dy  Dy2  1  0.662420  0.997601  0.972568  1
  Dy  Dy3  1  0.177913  0.489381  0.784412  1
  Dy  Dy4  1  0.820168  0.511803  0.282265  1
  Dy  Dy5  1  0.489381  0.177913  0.215588  1
  Dy  Dy6  1  0.511803  0.820168  0.717735  1
  Dy  Dy7  1  0.337140  0.003078  0.472888  1
  Ti  Ti8  1  0.843595  0.157266  0.750876  1
  Ti  Ti9  1  0.157266  0.843595  0.249124  1
  V  V10  1  0.333656  0.333656  0.000000  1
  Si  Si11  1  0.014825  0.737752  0.443823  1
  Si  Si12  1  0.985052  0.264081  0.944891  1
  Si  Si13  1  0.737752  0.014825  0.556177  1
  Si  Si14  1  0.196629  0.470085  0.182171  1
  Si  Si15  1  0.804306  0.529817  0.682660  1
  Si  Si16  1  0.470085  0.196629  0.817829  1
  Si  Si17  1  0.529817  0.804306  0.317340  1
  Si  Si18  1  0.264081  0.985052  0.055109  1
  Si  Si19  1  0.788189  0.882788  0.181836  1
  Si  Si20  1  0.319677  0.601860  0.559158  1
  Si  Si21  1  0.681416  0.396497  0.059005  1
  Si  Si22  1  0.601860  0.319677  0.440842  1
  Si  Si23  1  0.396497  0.681416  0.940995  1
  Si  Si24  1  0.116272  0.212213  0.317020  1
  Si  Si25  1  0.212213  0.116272  0.682980  1
  Si  Si26  1  0.882788  0.788189  0.818164  1
  Tc  Tc27  1  0.306458  0.527634  0.366131  1
  Tc  Tc28  1  0.816903  0.019663  0.365383  1
  Tc  Tc29  1  0.983115  0.180961  0.136005  1
  Tc  Tc30  1  0.019663  0.816903  0.634617  1
  Tc  Tc31  1  0.527634  0.306458  0.633869  1
  Tc  Tc32  1  0.180961  0.983115  0.863995  1
  Tc  Tc33  1  0.666560  0.666560  0.500000  1
  Tc  Tc34  1  0.471361  0.691864  0.134935  1
  Tc  Tc35  1  0.691864  0.471361  0.865065  1
