# generated using pymatgen
data_Yb3Pr16YGa12
_symmetry_space_group_name_H-M   'P 1'
_cell_length_a   7.89072000
_cell_length_b   7.89072000
_cell_length_c   14.69781300
_cell_angle_alpha   90.00000000
_cell_angle_beta   90.00000000
_cell_angle_gamma   90.00000000
_symmetry_Int_Tables_number   1
_chemical_formula_structural   Yb3Pr16YGa12
_chemical_formula_sum   'Yb3 Pr16 Y1 Ga12'
_cell_volume   915.13672295
_cell_formula_units_Z   1
loop_
 _symmetry_equiv_pos_site_id
 _symmetry_equiv_pos_as_xyz
  1  'x, y, z'
loop_
 _atom_site_type_symbol
 _atom_site_label
 _atom_site_symmetry_multiplicity
 _atom_site_fract_x
 _atom_site_fract_y
 _atom_site_fract_z
 _atom_site_occupancy
  Yb  Yb0  1  0.000000  0.500000  0.241335  1
  Yb  Yb1  1  0.500000  0.000000  0.258547  1
  Yb  Yb2  1  0.500000  0.000000  0.758937  1
  Pr  Pr3  1  0.822523  0.831324  0.602189  1
  Pr  Pr4  1  0.177154  0.830134  0.102621  1
  Pr  Pr5  1  0.169832  0.823277  0.397633  1
  Pr  Pr6  1  0.830168  0.176723  0.397633  1
  Pr  Pr7  1  0.676723  0.669832  0.397633  1
  Pr  Pr8  1  0.668676  0.322523  0.602189  1
  Pr  Pr9  1  0.331324  0.677477  0.602189  1
  Pr  Pr10  1  0.669866  0.677154  0.102621  1
  Pr  Pr11  1  0.677374  0.330311  0.897582  1
  Pr  Pr12  1  0.830311  0.822626  0.897582  1
  Pr  Pr13  1  0.323277  0.330168  0.397633  1
  Pr  Pr14  1  0.177477  0.168676  0.602189  1
  Pr  Pr15  1  0.822846  0.169866  0.102621  1
  Pr  Pr16  1  0.322626  0.669689  0.897582  1
  Pr  Pr17  1  0.330134  0.322846  0.102621  1
  Pr  Pr18  1  0.169689  0.177374  0.897582  1
  Y  Y19  1  0.000000  0.500000  0.738094  1
  Ga  Ga20  1  0.616839  0.383377  0.250077  1
  Ga  Ga21  1  0.114023  0.877863  0.750216  1
  Ga  Ga22  1  0.377863  0.385977  0.750216  1
  Ga  Ga23  1  0.383161  0.616623  0.250077  1
  Ga  Ga24  1  0.883377  0.883161  0.250077  1
  Ga  Ga25  1  0.622137  0.614023  0.750216  1
  Ga  Ga26  1  0.000000  0.500000  0.506912  1
  Ga  Ga27  1  0.885977  0.122137  0.750216  1
  Ga  Ga28  1  0.500000  0.000000  0.495723  1
  Ga  Ga29  1  0.500000  0.000000  0.996589  1
  Ga  Ga30  1  0.116623  0.116839  0.250077  1
  Ga  Ga31  1  0.000000  0.500000  0.002594  1
