# generated using pymatgen
data_Li3Ce2Pr2Si8Rh
_symmetry_space_group_name_H-M   'P 1'
_cell_length_a   3.89520400
_cell_length_b   7.56308511
_cell_length_c   10.41165557
_cell_angle_alpha   89.95059238
_cell_angle_beta   90.00000000
_cell_angle_gamma   90.00000000
_symmetry_Int_Tables_number   1
_chemical_formula_structural   Li3Ce2Pr2Si8Rh
_chemical_formula_sum   'Li3 Ce2 Pr2 Si8 Rh1'
_cell_volume   306.72475389
_cell_formula_units_Z   1
loop_
 _symmetry_equiv_pos_site_id
 _symmetry_equiv_pos_as_xyz
  1  'x, y, z'
loop_
 _atom_site_type_symbol
 _atom_site_label
 _atom_site_symmetry_multiplicity
 _atom_site_fract_x
 _atom_site_fract_y
 _atom_site_fract_z
 _atom_site_occupancy
  Li  Li0  1  0.250000  0.492333  0.111514  1
  Li  Li1  1  0.750000  0.004393  0.604133  1
  Li  Li2  1  0.750000  0.500192  0.890681  1
  Ce  Ce3  1  0.750000  0.862163  0.134735  1
  Ce  Ce4  1  0.750000  0.369975  0.365836  1
  Pr  Pr5  1  0.250000  0.138521  0.868833  1
  Pr  Pr6  1  0.250000  0.643031  0.626816  1
  Si  Si7  1  0.250000  0.219731  0.559113  1
  Si  Si8  1  0.250000  0.727198  0.930046  1
  Si  Si9  1  0.750000  0.793146  0.423711  1
  Si  Si10  1  0.750000  0.266155  0.082722  1
  Si  Si11  1  0.250000  0.671664  0.320459  1
  Si  Si12  1  0.250000  0.156898  0.194896  1
  Si  Si13  1  0.750000  0.328919  0.672412  1
  Si  Si14  1  0.750000  0.835308  0.821207  1
  Rh  Rh15  1  0.250000  0.990370  0.392886  1
