# generated using pymatgen
data_Dy12Co4BiRh
_symmetry_space_group_name_H-M   'P 1'
_cell_length_a   8.33803683
_cell_length_b   8.33803728
_cell_length_c   8.33803673
_cell_angle_alpha   110.97733941
_cell_angle_beta   110.57632439
_cell_angle_gamma   106.89067376
_symmetry_Int_Tables_number   1
_chemical_formula_structural   Dy12Co4BiRh
_chemical_formula_sum   'Dy12 Co4 Bi1 Rh1'
_cell_volume   445.56031516
_cell_formula_units_Z   1
loop_
 _symmetry_equiv_pos_site_id
 _symmetry_equiv_pos_as_xyz
  1  'x, y, z'
loop_
 _atom_site_type_symbol
 _atom_site_label
 _atom_site_symmetry_multiplicity
 _atom_site_fract_x
 _atom_site_fract_y
 _atom_site_fract_z
 _atom_site_occupancy
  Dy  Dy0  1  0.816062  0.709972  0.526034  1
  Dy  Dy1  1  0.183938  0.290028  0.473966  1
  Dy  Dy2  1  0.183938  0.709972  0.893909  1
  Dy  Dy3  1  0.816062  0.290028  0.106091  1
  Dy  Dy4  1  0.688017  0.378907  0.690890  1
  Dy  Dy5  1  0.311983  0.621093  0.309110  1
  Dy  Dy6  1  0.688017  0.997126  0.309110  1
  Dy  Dy7  1  0.311983  0.002874  0.690890  1
  Dy  Dy8  1  0.593540  0.790868  0.802672  1
  Dy  Dy9  1  0.406460  0.209132  0.197328  1
  Dy  Dy10  1  0.988197  0.790868  0.197328  1
  Dy  Dy11  1  0.011803  0.209132  0.802672  1
  Co  Co12  1  0.622759  0.000000  0.622759  1
  Co  Co13  1  0.377241  0.000000  0.377241  1
  Co  Co14  1  0.110971  0.610971  0.500000  1
  Co  Co15  1  0.889029  0.389029  0.500000  1
  Bi  Bi16  1  0.500000  0.500000  0.000000  1
  Rh  Rh17  1  0.000000  0.000000  0.000000  1
