# generated using pymatgen
data_Rb8Ho2O7
_symmetry_space_group_name_H-M   'P 1'
_cell_length_a   18.97940900
_cell_length_b   7.23871578
_cell_length_c   7.30177107
_cell_angle_alpha   61.09144088
_cell_angle_beta   90.00000000
_cell_angle_gamma   90.00000000
_symmetry_Int_Tables_number   1
_chemical_formula_structural   Rb8Ho2O7
_chemical_formula_sum   'Rb16 Ho4 O14'
_cell_volume   878.16304199
_cell_formula_units_Z   2
loop_
 _symmetry_equiv_pos_site_id
 _symmetry_equiv_pos_as_xyz
  1  'x, y, z'
loop_
 _atom_site_type_symbol
 _atom_site_label
 _atom_site_symmetry_multiplicity
 _atom_site_fract_x
 _atom_site_fract_y
 _atom_site_fract_z
 _atom_site_occupancy
  Rb  Rb0  1  0.503918  0.027801  0.238039  1
  Rb  Rb1  1  0.003918  0.472199  0.761961  1
  Rb  Rb2  1  0.496082  0.972199  0.761961  1
  Rb  Rb3  1  0.996082  0.527801  0.238039  1
  Rb  Rb4  1  0.703912  0.045361  0.224173  1
  Rb  Rb5  1  0.203912  0.454639  0.775827  1
  Rb  Rb6  1  0.296088  0.954639  0.775827  1
  Rb  Rb7  1  0.796088  0.545361  0.224173  1
  Rb  Rb8  1  0.088325  0.995967  0.356359  1
  Rb  Rb9  1  0.588325  0.504033  0.643641  1
  Rb  Rb10  1  0.911675  0.004033  0.643641  1
  Rb  Rb11  1  0.411675  0.495967  0.356359  1
  Rb  Rb12  1  0.808500  0.452512  0.783102  1
  Rb  Rb13  1  0.308500  0.047488  0.216898  1
  Rb  Rb14  1  0.191500  0.547488  0.216898  1
  Rb  Rb15  1  0.691500  0.952512  0.783102  1
  Ho  Ho16  1  0.598627  0.498724  0.151296  1
  Ho  Ho17  1  0.098627  0.001276  0.848704  1
  Ho  Ho18  1  0.401373  0.501276  0.848704  1
  Ho  Ho19  1  0.901373  0.998724  0.151296  1
  O  O20  1  0.500000  0.500000  0.000000  1
  O  O21  1  0.000000  0.000000  0.000000  1
  O  O22  1  0.181053  0.008017  0.046194  1
  O  O23  1  0.681053  0.491983  0.953806  1
  O  O24  1  0.818947  0.991983  0.953806  1
  O  O25  1  0.318947  0.508017  0.046194  1
  O  O26  1  0.893149  0.283280  0.171932  1
  O  O27  1  0.393149  0.216720  0.828068  1
  O  O28  1  0.106851  0.716720  0.828068  1
  O  O29  1  0.606851  0.783280  0.171932  1
  O  O30  1  0.600471  0.220924  0.451001  1
  O  O31  1  0.100471  0.279076  0.548999  1
  O  O32  1  0.399529  0.779076  0.548999  1
  O  O33  1  0.899529  0.720924  0.451001  1
