# generated using pymatgen
data_Eu8Al3Si12Pt
_symmetry_space_group_name_H-M   'P 1'
_cell_length_a   8.28274700
_cell_length_b   8.28274821
_cell_length_c   8.48644700
_cell_angle_alpha   90.00000000
_cell_angle_beta   90.00000000
_cell_angle_gamma   119.99999118
_symmetry_Int_Tables_number   1
_chemical_formula_structural   Eu8Al3Si12Pt
_chemical_formula_sum   'Eu8 Al3 Si12 Pt1'
_cell_volume   504.20300384
_cell_formula_units_Z   1
loop_
 _symmetry_equiv_pos_site_id
 _symmetry_equiv_pos_as_xyz
  1  'x, y, z'
loop_
 _atom_site_type_symbol
 _atom_site_label
 _atom_site_symmetry_multiplicity
 _atom_site_fract_x
 _atom_site_fract_y
 _atom_site_fract_z
 _atom_site_occupancy
  Eu  Eu0  1  0.500087  0.499913  0.749072  1
  Eu  Eu1  1  0.501317  0.498683  0.250885  1
  Eu  Eu2  1  0.999825  0.499913  0.749072  1
  Eu  Eu3  1  0.997366  0.498683  0.250885  1
  Eu  Eu4  1  0.500087  0.000175  0.749072  1
  Eu  Eu5  1  0.501317  0.002634  0.250885  1
  Eu  Eu6  1  0.000000  0.000000  0.749830  1
  Eu  Eu7  1  0.000000  0.000000  0.250417  1
  Al  Al8  1  0.666667  0.333333  0.997529  1
  Al  Al9  1  0.333333  0.666667  0.002706  1
  Al  Al10  1  0.333333  0.666667  0.497592  1
  Si  Si11  1  0.835828  0.164172  0.999975  1
  Si  Si12  1  0.163781  0.836219  0.999851  1
  Si  Si13  1  0.328343  0.164172  0.999975  1
  Si  Si14  1  0.160785  0.839215  0.500134  1
  Si  Si15  1  0.672438  0.836219  0.999851  1
  Si  Si16  1  0.831774  0.168226  0.500152  1
  Si  Si17  1  0.835828  0.671657  0.999975  1
  Si  Si18  1  0.678430  0.839215  0.500134  1
  Si  Si19  1  0.163781  0.327562  0.999851  1
  Si  Si20  1  0.336452  0.168226  0.500152  1
  Si  Si21  1  0.160785  0.321570  0.500134  1
  Si  Si22  1  0.831774  0.663548  0.500152  1
  Pt  Pt23  1  0.666667  0.333333  0.501717  1
