# generated using pymatgen
data_Ho5Er7TcOs3
_symmetry_space_group_name_H-M   'P 1'
_cell_length_a   6.26670616
_cell_length_b   7.38116077
_cell_length_c   8.99189023
_cell_angle_alpha   89.99643998
_cell_angle_beta   90.02567059
_cell_angle_gamma   90.07949820
_symmetry_Int_Tables_number   1
_chemical_formula_structural   Ho5Er7TcOs3
_chemical_formula_sum   'Ho5 Er7 Tc1 Os3'
_cell_volume   415.92452611
_cell_formula_units_Z   1
loop_
 _symmetry_equiv_pos_site_id
 _symmetry_equiv_pos_as_xyz
  1  'x, y, z'
loop_
 _atom_site_type_symbol
 _atom_site_label
 _atom_site_symmetry_multiplicity
 _atom_site_fract_x
 _atom_site_fract_y
 _atom_site_fract_z
 _atom_site_occupancy
  Ho  Ho0  1  0.334895  0.675171  0.062566  1
  Ho  Ho1  1  0.871137  0.539152  0.250082  1
  Ho  Ho2  1  0.627323  0.039368  0.250073  1
  Ho  Ho3  1  0.129725  0.460256  0.749907  1
  Ho  Ho4  1  0.369805  0.961063  0.749890  1
  Er  Er5  1  0.165848  0.175569  0.437289  1
  Er  Er6  1  0.666618  0.324329  0.562424  1
  Er  Er7  1  0.834336  0.824831  0.936972  1
  Er  Er8  1  0.666739  0.324196  0.937496  1
  Er  Er9  1  0.834364  0.824781  0.563018  1
  Er  Er10  1  0.335069  0.674989  0.437588  1
  Er  Er11  1  0.165774  0.175488  0.062667  1
  Tc  Tc12  1  0.039060  0.882926  0.250109  1
  Os  Os13  1  0.459879  0.381980  0.250126  1
  Os  Os14  1  0.959117  0.118496  0.750000  1
  Os  Os15  1  0.540310  0.617406  0.749793  1
