# generated using pymatgen
data_SrCo5P3
_symmetry_space_group_name_H-M   'P 1'
_cell_length_a   6.05697684
_cell_length_b   6.05697672
_cell_length_c   11.50674800
_cell_angle_alpha   90.00000000
_cell_angle_beta   90.00000000
_cell_angle_gamma   145.18621780
_symmetry_Int_Tables_number   1
_chemical_formula_structural   SrCo5P3
_chemical_formula_sum   'Sr2 Co10 P6'
_cell_volume   241.00879275
_cell_formula_units_Z   2
loop_
 _symmetry_equiv_pos_site_id
 _symmetry_equiv_pos_as_xyz
  1  'x, y, z'
loop_
 _atom_site_type_symbol
 _atom_site_label
 _atom_site_symmetry_multiplicity
 _atom_site_fract_x
 _atom_site_fract_y
 _atom_site_fract_z
 _atom_site_occupancy
  Sr  Sr0  1  0.337605  0.662395  0.250000  1
  Sr  Sr1  1  0.662395  0.337605  0.750000  1
  Co  Co2  1  0.054994  0.945006  0.142525  1
  Co  Co3  1  0.054994  0.945006  0.357475  1
  Co  Co4  1  0.697180  0.302820  0.434410  1
  Co  Co5  1  0.302820  0.697180  0.565590  1
  Co  Co6  1  0.302820  0.697180  0.934410  1
  Co  Co7  1  0.697180  0.302820  0.065590  1
  Co  Co8  1  0.500000  0.500000  0.500000  1
  Co  Co9  1  0.500000  0.500000  0.000000  1
  Co  Co10  1  0.945006  0.054994  0.642525  1
  Co  Co11  1  0.945006  0.054994  0.857475  1
  P  P12  1  0.607459  0.392541  0.250000  1
  P  P13  1  0.392541  0.607459  0.750000  1
  P  P14  1  0.117708  0.882292  0.536850  1
  P  P15  1  0.882292  0.117708  0.463150  1
  P  P16  1  0.882292  0.117708  0.036850  1
  P  P17  1  0.117708  0.882292  0.963150  1
