# generated using pymatgen
data_Y4ErPd15
_symmetry_space_group_name_H-M   'P 1'
_cell_length_a   4.12522600
_cell_length_b   4.12522600
_cell_length_c   20.79172800
_cell_angle_alpha   90.00000000
_cell_angle_beta   90.00000000
_cell_angle_gamma   90.00000000
_symmetry_Int_Tables_number   1
_chemical_formula_structural   Y4ErPd15
_chemical_formula_sum   'Y4 Er1 Pd15'
_cell_volume   353.82301399
_cell_formula_units_Z   1
loop_
 _symmetry_equiv_pos_site_id
 _symmetry_equiv_pos_as_xyz
  1  'x, y, z'
loop_
 _atom_site_type_symbol
 _atom_site_label
 _atom_site_symmetry_multiplicity
 _atom_site_fract_x
 _atom_site_fract_y
 _atom_site_fract_z
 _atom_site_occupancy
  Y  Y0  1  0.000000  0.000000  0.199183  1
  Y  Y1  1  0.000000  0.000000  0.400320  1
  Y  Y2  1  0.000000  0.000000  0.599680  1
  Y  Y3  1  0.000000  0.000000  0.800817  1
  Er  Er4  1  0.000000  0.000000  0.000000  1
  Pd  Pd5  1  0.500000  0.500000  0.000000  1
  Pd  Pd6  1  0.500000  0.500000  0.198879  1
  Pd  Pd7  1  0.500000  0.500000  0.399920  1
  Pd  Pd8  1  0.500000  0.500000  0.600080  1
  Pd  Pd9  1  0.500000  0.500000  0.801121  1
  Pd  Pd10  1  0.500000  0.000000  0.098261  1
  Pd  Pd11  1  0.500000  0.000000  0.299967  1
  Pd  Pd12  1  0.500000  0.000000  0.500000  1
  Pd  Pd13  1  0.500000  0.000000  0.700033  1
  Pd  Pd14  1  0.500000  0.000000  0.901739  1
  Pd  Pd15  1  0.000000  0.500000  0.098261  1
  Pd  Pd16  1  0.000000  0.500000  0.299967  1
  Pd  Pd17  1  0.000000  0.500000  0.500000  1
  Pd  Pd18  1  0.000000  0.500000  0.700033  1
  Pd  Pd19  1  0.000000  0.500000  0.901739  1
