# generated using pymatgen
data_Nd8CdCo2Hg
_symmetry_space_group_name_H-M   'P 1'
_cell_length_a   9.81002612
_cell_length_b   9.81002642
_cell_length_c   9.81192500
_cell_angle_alpha   59.99360111
_cell_angle_beta   59.99360009
_cell_angle_gamma   60.14060088
_symmetry_Int_Tables_number   1
_chemical_formula_structural   Nd8CdCo2Hg
_chemical_formula_sum   'Nd16 Cd2 Co4 Hg2'
_cell_volume   668.33901192
_cell_formula_units_Z   2
loop_
 _symmetry_equiv_pos_site_id
 _symmetry_equiv_pos_as_xyz
  1  'x, y, z'
loop_
 _atom_site_type_symbol
 _atom_site_label
 _atom_site_symmetry_multiplicity
 _atom_site_fract_x
 _atom_site_fract_y
 _atom_site_fract_z
 _atom_site_occupancy
  Nd  Nd0  1  0.809791  0.187752  0.191102  1
  Nd  Nd1  1  0.187752  0.809791  0.811355  1
  Nd  Nd2  1  0.187752  0.809791  0.191102  1
  Nd  Nd3  1  0.809791  0.187752  0.811355  1
  Nd  Nd4  1  0.188445  0.188445  0.811555  1
  Nd  Nd5  1  0.806896  0.806896  0.193104  1
  Nd  Nd6  1  0.940076  0.559939  0.562164  1
  Nd  Nd7  1  0.559939  0.940076  0.937821  1
  Nd  Nd8  1  0.559940  0.940076  0.562164  1
  Nd  Nd9  1  0.940076  0.559939  0.937821  1
  Nd  Nd10  1  0.560765  0.560764  0.939236  1
  Nd  Nd11  1  0.938744  0.938744  0.561256  1
  Nd  Nd12  1  0.346660  0.346660  0.345786  1
  Nd  Nd13  1  0.346660  0.346660  0.960893  1
  Nd  Nd14  1  0.347746  0.957540  0.347356  1
  Nd  Nd15  1  0.957540  0.347746  0.347356  1
  Cd  Cd16  1  0.580304  0.264595  0.577551  1
  Cd  Cd17  1  0.264595  0.580304  0.577551  1
  Co  Co18  1  0.141341  0.141341  0.138888  1
  Co  Co19  1  0.141341  0.141341  0.578432  1
  Co  Co20  1  0.140801  0.577711  0.140744  1
  Co  Co21  1  0.577711  0.140801  0.140744  1
  Hg  Hg22  1  0.582667  0.582667  0.585897  1
  Hg  Hg23  1  0.582667  0.582667  0.248769  1
