# generated using pymatgen
data_AcBr35
_symmetry_space_group_name_H-M   'P 1'
_cell_length_a   16.38152633
_cell_length_b   11.68528830
_cell_length_c   11.06168000
_cell_angle_alpha   88.81408621
_cell_angle_beta   66.02770458
_cell_angle_gamma   92.31545319
_symmetry_Int_Tables_number   1
_chemical_formula_structural   AcBr35
_chemical_formula_sum   'Ac1 Br35'
_cell_volume   1931.63325510
_cell_formula_units_Z   1
loop_
 _symmetry_equiv_pos_site_id
 _symmetry_equiv_pos_as_xyz
  1  'x, y, z'
loop_
 _atom_site_type_symbol
 _atom_site_label
 _atom_site_symmetry_multiplicity
 _atom_site_fract_x
 _atom_site_fract_y
 _atom_site_fract_z
 _atom_site_occupancy
  Ac  Ac0  1  0.217794  0.398640  0.429972  1
  Br  Br1  1  0.502561  0.282466  0.522382  1
  Br  Br2  1  0.750427  0.572811  0.569516  1
  Br  Br3  1  0.495018  0.702308  0.751603  1
  Br  Br4  1  0.042259  0.881401  0.870062  1
  Br  Br5  1  0.882340  0.163993  0.013437  1
  Br  Br6  1  0.634683  0.328804  0.299729  1
  Br  Br7  1  0.629539  0.342782  0.837235  1
  Br  Br8  1  0.364841  0.788230  0.711362  1
  Br  Br9  1  0.355598  0.576829  0.217086  1
  Br  Br10  1  0.663642  0.146054  0.815212  1
  Br  Br11  1  0.887767  0.529408  0.377546  1
  Br  Br12  1  0.049396  0.930631  0.641689  1
  Br  Br13  1  0.877638  0.115069  0.247367  1
  Br  Br14  1  0.885613  0.214723  0.793337  1
  Br  Br15  1  0.653684  0.048173  0.238944  1
  Br  Br16  1  0.016741  0.826927  0.111478  1
  Br  Br17  1  0.372878  0.003022  0.726827  1
  Br  Br18  1  0.875479  0.318871  0.321213  1
  Br  Br19  1  0.872043  0.920851  0.712771  1
  Br  Br20  1  0.898613  0.651457  0.774873  1
  Br  Br21  1  0.345069  0.015741  0.222499  1
  Br  Br22  1  0.361000  0.285608  0.214914  1
  Br  Br23  1  0.617193  0.611952  0.796681  1
  Br  Br24  1  0.096006  0.445827  0.315472  1
  Br  Br25  1  0.708208  0.913419  0.791314  1
  Br  Br26  1  0.879875  0.446765  0.793227  1
  Br  Br27  1  0.509702  0.031267  0.229029  1
  Br  Br28  1  0.141814  0.243975  0.659572  1
  Br  Br29  1  0.677136  0.766475  0.277749  1
  Br  Br30  1  0.846492  0.795841  0.197160  1
  Br  Br31  1  0.374303  0.221555  0.744622  1
  Br  Br32  1  0.326709  0.516394  0.601952  1
  Br  Br33  1  0.654835  0.547437  0.286691  1
  Br  Br34  1  0.200083  0.618162  0.631371  1
  Br  Br35  1  0.333021  0.796133  0.254110  1
