# generated using pymatgen
data_Y3Er5CrOs3C8
_symmetry_space_group_name_H-M   'P 1'
_cell_length_a   5.06387200
_cell_length_b   6.46284548
_cell_length_c   9.69453770
_cell_angle_alpha   90.05934798
_cell_angle_beta   90.00000000
_cell_angle_gamma   90.00000000
_symmetry_Int_Tables_number   1
_chemical_formula_structural   Y3Er5CrOs3C8
_chemical_formula_sum   'Y3 Er5 Cr1 Os3 C8'
_cell_volume   317.27318057
_cell_formula_units_Z   1
loop_
 _symmetry_equiv_pos_site_id
 _symmetry_equiv_pos_as_xyz
  1  'x, y, z'
loop_
 _atom_site_type_symbol
 _atom_site_label
 _atom_site_symmetry_multiplicity
 _atom_site_fract_x
 _atom_site_fract_y
 _atom_site_fract_z
 _atom_site_occupancy
  Y  Y0  1  0.750000  0.470518  0.783501  1
  Y  Y1  1  0.750000  0.971747  0.714911  1
  Y  Y2  1  0.250000  0.030735  0.285873  1
  Er  Er3  1  0.250000  0.679878  0.558303  1
  Er  Er4  1  0.750000  0.322574  0.445554  1
  Er  Er5  1  0.750000  0.820723  0.053508  1
  Er  Er6  1  0.250000  0.175737  0.942866  1
  Er  Er7  1  0.250000  0.531335  0.213166  1
  Cr  Cr8  1  0.250000  0.724197  0.865541  1
  Os  Os9  1  0.750000  0.278981  0.133959  1
  Os  Os10  1  0.750000  0.778842  0.365630  1
  Os  Os11  1  0.250000  0.224152  0.635318  1
  C  C12  1  0.250000  0.463191  0.764323  1
  C  C13  1  0.750000  0.544476  0.240969  1
  C  C14  1  0.750000  0.043836  0.258531  1
  C  C15  1  0.250000  0.950065  0.744664  1
  C  C16  1  0.250000  0.818648  0.044795  1
  C  C17  1  0.750000  0.172006  0.948722  1
  C  C18  1  0.750000  0.670900  0.551893  1
  C  C19  1  0.250000  0.327457  0.447969  1
