# generated using pymatgen
data_AlZn2Pd5
_symmetry_space_group_name_H-M   'P 1'
_cell_length_a   4.12008800
_cell_length_b   5.43570500
_cell_length_c   10.56858300
_cell_angle_alpha   90.00000000
_cell_angle_beta   90.00000000
_cell_angle_gamma   90.00000000
_symmetry_Int_Tables_number   1
_chemical_formula_structural   AlZn2Pd5
_chemical_formula_sum   'Al2 Zn4 Pd10'
_cell_volume   236.68957716
_cell_formula_units_Z   2
loop_
 _symmetry_equiv_pos_site_id
 _symmetry_equiv_pos_as_xyz
  1  'x, y, z'
loop_
 _atom_site_type_symbol
 _atom_site_label
 _atom_site_symmetry_multiplicity
 _atom_site_fract_x
 _atom_site_fract_y
 _atom_site_fract_z
 _atom_site_occupancy
  Al  Al0  1  0.000000  0.000000  0.000000  1
  Al  Al1  1  0.000000  0.500000  0.500000  1
  Zn  Zn2  1  0.500000  0.162691  0.359989  1
  Zn  Zn3  1  0.500000  0.837309  0.640011  1
  Zn  Zn4  1  0.500000  0.662691  0.140011  1
  Zn  Zn5  1  0.500000  0.337309  0.859989  1
  Pd  Pd6  1  0.500000  0.181164  0.106218  1
  Pd  Pd7  1  0.500000  0.818836  0.893782  1
  Pd  Pd8  1  0.500000  0.681164  0.393782  1
  Pd  Pd9  1  0.500000  0.318836  0.606218  1
  Pd  Pd10  1  0.000000  0.000000  0.500000  1
  Pd  Pd11  1  0.000000  0.500000  0.000000  1
  Pd  Pd12  1  0.000000  0.901488  0.233411  1
  Pd  Pd13  1  0.000000  0.098512  0.766589  1
  Pd  Pd14  1  0.000000  0.401488  0.266589  1
  Pd  Pd15  1  0.000000  0.598512  0.733411  1
