# generated using pymatgen
data_La17Tb2InIr12
_symmetry_space_group_name_H-M   'P 1'
_cell_length_a   11.40481500
_cell_length_b   11.40481500
_cell_length_c   6.50994200
_cell_angle_alpha   90.00000000
_cell_angle_beta   90.00000000
_cell_angle_gamma   90.00000000
_symmetry_Int_Tables_number   1
_chemical_formula_structural   La17Tb2InIr12
_chemical_formula_sum   'La17 Tb2 In1 Ir12'
_cell_volume   846.74688770
_cell_formula_units_Z   1
loop_
 _symmetry_equiv_pos_site_id
 _symmetry_equiv_pos_as_xyz
  1  'x, y, z'
loop_
 _atom_site_type_symbol
 _atom_site_label
 _atom_site_symmetry_multiplicity
 _atom_site_fract_x
 _atom_site_fract_y
 _atom_site_fract_z
 _atom_site_occupancy
  La  La0  1  0.279214  0.086029  0.389579  1
  La  La1  1  0.290835  0.910268  0.885835  1
  La  La2  1  0.709165  0.089732  0.885835  1
  La  La3  1  0.720786  0.913971  0.389579  1
  La  La4  1  0.589528  0.788943  0.889964  1
  La  La5  1  0.586857  0.210435  0.384806  1
  La  La6  1  0.413143  0.789565  0.384806  1
  La  La7  1  0.410472  0.211057  0.889964  1
  La  La8  1  0.210435  0.413143  0.615194  1
  La  La9  1  0.211057  0.589528  0.110036  1
  La  La10  1  0.788943  0.410472  0.110036  1
  La  La11  1  0.789565  0.586857  0.615194  1
  La  La12  1  0.910268  0.709165  0.114165  1
  La  La13  1  0.913971  0.279214  0.610421  1
  La  La14  1  0.086029  0.720786  0.610421  1
  La  La15  1  0.089732  0.290835  0.114165  1
  La  La16  1  0.000000  0.000000  0.000000  1
  Tb  Tb17  1  0.500000  0.500000  0.000000  1
  Tb  Tb18  1  0.500000  0.500000  0.500000  1
  In  In19  1  0.000000  0.000000  0.500000  1
  Ir  Ir20  1  0.845131  0.156211  0.243001  1
  Ir  Ir21  1  0.843789  0.845131  0.756999  1
  Ir  Ir22  1  0.156211  0.154869  0.756999  1
  Ir  Ir23  1  0.154869  0.843789  0.243001  1
  Ir  Ir24  1  0.649921  0.351732  0.746529  1
  Ir  Ir25  1  0.648268  0.649921  0.253471  1
  Ir  Ir26  1  0.351732  0.350079  0.253471  1
  Ir  Ir27  1  0.350079  0.648268  0.746529  1
  Ir  Ir28  1  0.500000  0.000000  0.120276  1
  Ir  Ir29  1  0.500000  0.000000  0.614272  1
  Ir  Ir30  1  0.000000  0.500000  0.879724  1
  Ir  Ir31  1  0.000000  0.500000  0.385728  1
