# generated using pymatgen
data_DyHo10ErIr4
_symmetry_space_group_name_H-M   'P 1'
_cell_length_a   6.36219339
_cell_length_b   7.22460023
_cell_length_c   9.16905412
_cell_angle_alpha   90.00101765
_cell_angle_beta   90.01821015
_cell_angle_gamma   89.99662453
_symmetry_Int_Tables_number   1
_chemical_formula_structural   DyHo10ErIr4
_chemical_formula_sum   'Dy1 Ho10 Er1 Ir4'
_cell_volume   421.44916738
_cell_formula_units_Z   1
loop_
 _symmetry_equiv_pos_site_id
 _symmetry_equiv_pos_as_xyz
  1  'x, y, z'
loop_
 _atom_site_type_symbol
 _atom_site_label
 _atom_site_symmetry_multiplicity
 _atom_site_fract_x
 _atom_site_fract_y
 _atom_site_fract_z
 _atom_site_occupancy
  Dy  Dy0  1  0.869420  0.534281  0.249916  1
  Ho  Ho1  1  0.328701  0.677307  0.062231  1
  Ho  Ho2  1  0.171825  0.177077  0.437478  1
  Ho  Ho3  1  0.671509  0.322586  0.562649  1
  Ho  Ho4  1  0.828354  0.823018  0.937564  1
  Ho  Ho5  1  0.671530  0.322490  0.937519  1
  Ho  Ho6  1  0.828253  0.822944  0.562547  1
  Ho  Ho7  1  0.328759  0.677260  0.437725  1
  Ho  Ho8  1  0.630843  0.034580  0.249877  1
  Ho  Ho9  1  0.130891  0.465537  0.750096  1
  Ho  Ho10  1  0.368942  0.965698  0.750120  1
  Er  Er11  1  0.171785  0.176809  0.062588  1
  Ir  Ir12  1  0.045862  0.883448  0.249768  1
  Ir  Ir13  1  0.453199  0.382110  0.249730  1
  Ir  Ir14  1  0.954814  0.117404  0.750221  1
  Ir  Ir15  1  0.545313  0.617450  0.749970  1
