# generated using pymatgen
data_Nb2AlB2Ir2Ru3
_symmetry_space_group_name_H-M   'P 1'
_cell_length_a   9.48153200
_cell_length_b   9.35112100
_cell_length_c   2.96354400
_cell_angle_alpha   90.00000000
_cell_angle_beta   90.00000000
_cell_angle_gamma   90.00000000
_symmetry_Int_Tables_number   1
_chemical_formula_structural   Nb2AlB2Ir2Ru3
_chemical_formula_sum   'Nb4 Al2 B4 Ir4 Ru6'
_cell_volume   262.75656238
_cell_formula_units_Z   2
loop_
 _symmetry_equiv_pos_site_id
 _symmetry_equiv_pos_as_xyz
  1  'x, y, z'
loop_
 _atom_site_type_symbol
 _atom_site_label
 _atom_site_symmetry_multiplicity
 _atom_site_fract_x
 _atom_site_fract_y
 _atom_site_fract_z
 _atom_site_occupancy
  Nb  Nb0  1  0.822530  0.675357  0.000000  1
  Nb  Nb1  1  0.177470  0.324643  0.000000  1
  Nb  Nb2  1  0.322530  0.824643  0.000000  1
  Nb  Nb3  1  0.677470  0.175357  0.000000  1
  Al  Al4  1  0.500000  0.500000  0.000000  1
  Al  Al5  1  0.000000  0.000000  0.000000  1
  B  B6  1  0.626899  0.880056  0.000000  1
  B  B7  1  0.373101  0.119944  0.000000  1
  B  B8  1  0.126899  0.619944  0.000000  1
  B  B9  1  0.873101  0.380056  0.000000  1
  Ir  Ir10  1  0.568657  0.715567  0.500000  1
  Ir  Ir11  1  0.431343  0.284433  0.500000  1
  Ir  Ir12  1  0.068657  0.784433  0.500000  1
  Ir  Ir13  1  0.931343  0.215567  0.500000  1
  Ru  Ru14  1  0.284622  0.569449  0.500000  1
  Ru  Ru15  1  0.715378  0.430551  0.500000  1
  Ru  Ru16  1  0.215378  0.069449  0.500000  1
  Ru  Ru17  1  0.784622  0.930551  0.500000  1
  Ru  Ru18  1  0.500000  0.000000  0.500000  1
  Ru  Ru19  1  0.000000  0.500000  0.500000  1
