# generated using pymatgen
data_Dy6Si24OsRu7
_symmetry_space_group_name_H-M   'P 1'
_cell_length_a   10.12970845
_cell_length_b   10.12970928
_cell_length_c   8.15596302
_cell_angle_alpha   89.99686818
_cell_angle_beta   89.99686559
_cell_angle_gamma   132.52365370
_symmetry_Int_Tables_number   1
_chemical_formula_structural   Dy6Si24OsRu7
_chemical_formula_sum   'Dy6 Si24 Os1 Ru7'
_cell_volume   616.78768908
_cell_formula_units_Z   1
loop_
 _symmetry_equiv_pos_site_id
 _symmetry_equiv_pos_as_xyz
  1  'x, y, z'
loop_
 _atom_site_type_symbol
 _atom_site_label
 _atom_site_symmetry_multiplicity
 _atom_site_fract_x
 _atom_site_fract_y
 _atom_site_fract_z
 _atom_site_occupancy
  Dy  Dy0  1  0.499936  0.500064  0.500000  1
  Dy  Dy1  1  0.000018  0.999982  0.000000  1
  Dy  Dy2  1  0.502358  0.002385  0.750195  1
  Dy  Dy3  1  0.997615  0.497642  0.249805  1
  Dy  Dy4  1  0.497746  0.997438  0.249706  1
  Dy  Dy5  1  0.002562  0.502254  0.750294  1
  Si  Si6  1  0.795596  0.204404  0.500000  1
  Si  Si7  1  0.294961  0.705039  0.000000  1
  Si  Si8  1  0.205074  0.794926  0.500000  1
  Si  Si9  1  0.705166  0.294834  0.000000  1
  Si  Si10  1  0.332481  0.332657  0.833742  1
  Si  Si11  1  0.667343  0.667519  0.166258  1
  Si  Si12  1  0.166730  0.166520  0.332835  1
  Si  Si13  1  0.833480  0.833270  0.667165  1
  Si  Si14  1  0.122166  0.887987  0.728924  1
  Si  Si15  1  0.112013  0.877834  0.271076  1
  Si  Si16  1  0.612003  0.377967  0.227184  1
  Si  Si17  1  0.622033  0.387997  0.772816  1
  Si  Si18  1  0.877213  0.111189  0.270542  1
  Si  Si19  1  0.888811  0.122787  0.729458  1
  Si  Si20  1  0.387881  0.622461  0.771866  1
  Si  Si21  1  0.377539  0.612119  0.228134  1
  Si  Si22  1  0.344069  0.110795  0.505428  1
  Si  Si23  1  0.889205  0.655931  0.494572  1
  Si  Si24  1  0.387757  0.154117  0.005115  1
  Si  Si25  1  0.845883  0.612243  0.994885  1
  Si  Si26  1  0.653970  0.887758  0.493714  1
  Si  Si27  1  0.112242  0.346030  0.506286  1
  Si  Si28  1  0.611996  0.845585  0.994824  1
  Si  Si29  1  0.154415  0.388004  0.005176  1
  Os  Os30  1  0.669215  0.330785  0.500000  1
  Ru  Ru31  1  0.169277  0.830723  0.000000  1
  Ru  Ru32  1  0.330779  0.669221  0.500000  1
  Ru  Ru33  1  0.830752  0.169248  0.000000  1
  Ru  Ru34  1  0.127349  0.127728  0.626878  1
  Ru  Ru35  1  0.872272  0.872651  0.373122  1
  Ru  Ru36  1  0.374173  0.374079  0.127899  1
  Ru  Ru37  1  0.625921  0.625827  0.872101  1
