# generated using pymatgen
data_Dy2HoSn3HgIr2
_symmetry_space_group_name_H-M   'P 1'
_cell_length_a   7.59478439
_cell_length_b   7.60364370
_cell_length_c   4.03757500
_cell_angle_alpha   90.00000000
_cell_angle_beta   90.00000000
_cell_angle_gamma   119.92498549
_symmetry_Int_Tables_number   1
_chemical_formula_structural   Dy2HoSn3HgIr2
_chemical_formula_sum   'Dy2 Ho1 Sn3 Hg1 Ir2'
_cell_volume   202.07669332
_cell_formula_units_Z   1
loop_
 _symmetry_equiv_pos_site_id
 _symmetry_equiv_pos_as_xyz
  1  'x, y, z'
loop_
 _atom_site_type_symbol
 _atom_site_label
 _atom_site_symmetry_multiplicity
 _atom_site_fract_x
 _atom_site_fract_y
 _atom_site_fract_z
 _atom_site_occupancy
  Dy  Dy0  1  0.389325  0.411091  0.500000  1
  Dy  Dy1  1  0.588717  0.978406  0.500000  1
  Ho  Ho2  1  0.022664  0.611444  0.500000  1
  Sn  Sn3  1  0.745820  0.752704  0.000000  1
  Sn  Sn4  1  0.247031  0.992392  0.000000  1
  Sn  Sn5  1  0.007280  0.254594  0.000000  1
  Hg  Hg6  1  0.667217  0.333813  0.000000  1
  Ir  Ir7  1  0.332025  0.666129  0.000000  1
  Ir  Ir8  1  0.999921  0.999427  0.500000  1
