# generated using pymatgen
data_Nb3GeIrN
_symmetry_space_group_name_H-M   'P 1'
_cell_length_a   7.03219900
_cell_length_b   7.03219900
_cell_length_c   7.03219900
_cell_angle_alpha   90.00000000
_cell_angle_beta   90.00000000
_cell_angle_gamma   90.00000000
_symmetry_Int_Tables_number   1
_chemical_formula_structural   Nb3GeIrN
_chemical_formula_sum   'Nb12 Ge4 Ir4 N4'
_cell_volume   347.75505867
_cell_formula_units_Z   4
loop_
 _symmetry_equiv_pos_site_id
 _symmetry_equiv_pos_as_xyz
  1  'x, y, z'
loop_
 _atom_site_type_symbol
 _atom_site_label
 _atom_site_symmetry_multiplicity
 _atom_site_fract_x
 _atom_site_fract_y
 _atom_site_fract_z
 _atom_site_occupancy
  Nb  Nb0  1  0.790596  0.952219  0.382486  1
  Nb  Nb1  1  0.709404  0.047781  0.882486  1
  Nb  Nb2  1  0.209404  0.452219  0.117514  1
  Nb  Nb3  1  0.290596  0.547781  0.617514  1
  Nb  Nb4  1  0.952219  0.382486  0.790596  1
  Nb  Nb5  1  0.047781  0.882486  0.709404  1
  Nb  Nb6  1  0.452219  0.117514  0.209404  1
  Nb  Nb7  1  0.547781  0.617514  0.290596  1
  Nb  Nb8  1  0.382486  0.790596  0.952219  1
  Nb  Nb9  1  0.882486  0.709404  0.047781  1
  Nb  Nb10  1  0.117514  0.209404  0.452219  1
  Nb  Nb11  1  0.617514  0.290596  0.547781  1
  Ge  Ge12  1  0.569399  0.430601  0.930601  1
  Ge  Ge13  1  0.430601  0.930601  0.569399  1
  Ge  Ge14  1  0.930601  0.569399  0.430601  1
  Ge  Ge15  1  0.069399  0.069399  0.069399  1
  Ir  Ir16  1  0.177900  0.822100  0.322100  1
  Ir  Ir17  1  0.322100  0.177900  0.822100  1
  Ir  Ir18  1  0.822100  0.322100  0.177900  1
  Ir  Ir19  1  0.677900  0.677900  0.677900  1
  N  N20  1  0.871894  0.128106  0.628106  1
  N  N21  1  0.628106  0.871894  0.128106  1
  N  N22  1  0.128106  0.628106  0.871894  1
  N  N23  1  0.371894  0.371894  0.371894  1
