# generated using pymatgen
data_RbGa11O17
_symmetry_space_group_name_H-M   'P 1'
_cell_length_a   12.48290895
_cell_length_b   12.48290885
_cell_length_c   12.48290922
_cell_angle_alpha   27.43415081
_cell_angle_beta   27.43414897
_cell_angle_gamma   27.43414846
_symmetry_Int_Tables_number   1
_chemical_formula_structural   RbGa11O17
_chemical_formula_sum   'Rb1 Ga11 O17'
_cell_volume   364.40117318
_cell_formula_units_Z   1
loop_
 _symmetry_equiv_pos_site_id
 _symmetry_equiv_pos_as_xyz
  1  'x, y, z'
loop_
 _atom_site_type_symbol
 _atom_site_label
 _atom_site_symmetry_multiplicity
 _atom_site_fract_x
 _atom_site_fract_y
 _atom_site_fract_z
 _atom_site_occupancy
  Rb  Rb0  1  0.829912  0.829912  0.829912  1
  Ga  Ga1  1  0.591863  0.097934  0.097934  1
  Ga  Ga2  1  0.999741  0.999741  0.999741  1
  Ga  Ga3  1  0.097934  0.097934  0.591863  1
  Ga  Ga4  1  0.097934  0.591863  0.097934  1
  Ga  Ga5  1  0.449871  0.449871  0.449871  1
  Ga  Ga6  1  0.550131  0.550131  0.550131  1
  Ga  Ga7  1  0.349418  0.349418  0.349418  1
  Ga  Ga8  1  0.650225  0.650225  0.650225  1
  Ga  Ga9  1  0.903008  0.404939  0.903008  1
  Ga  Ga10  1  0.903008  0.903008  0.404939  1
  Ga  Ga11  1  0.404939  0.903008  0.903008  1
  O  O12  1  0.296202  0.296202  0.296202  1
  O  O13  1  0.093756  0.093756  0.093756  1
  O  O14  1  0.809676  0.281173  0.809676  1
  O  O15  1  0.718332  0.190492  0.190492  1
  O  O16  1  0.600701  0.089195  0.600701  1
  O  O17  1  0.909245  0.400289  0.400289  1
  O  O18  1  0.600701  0.600701  0.089195  1
  O  O19  1  0.499944  0.499944  0.499944  1
  O  O20  1  0.190492  0.190492  0.718332  1
  O  O21  1  0.809676  0.809676  0.281173  1
  O  O22  1  0.400289  0.400289  0.909245  1
  O  O23  1  0.089195  0.600701  0.600701  1
  O  O24  1  0.400289  0.909245  0.400289  1
  O  O25  1  0.281173  0.809676  0.809676  1
  O  O26  1  0.190492  0.718332  0.190492  1
  O  O27  1  0.703757  0.703757  0.703757  1
  O  O28  1  0.906413  0.906413  0.906413  1
