# generated using pymatgen
data_Ho2Er3SnSb2
_symmetry_space_group_name_H-M   'P 1'
_cell_length_a   8.90178653
_cell_length_b   8.87955428
_cell_length_c   6.35868200
_cell_angle_alpha   90.00000000
_cell_angle_beta   90.00000000
_cell_angle_gamma   119.91741559
_symmetry_Int_Tables_number   1
_chemical_formula_structural   Ho2Er3SnSb2
_chemical_formula_sum   'Ho4 Er6 Sn2 Sb4'
_cell_volume   435.63913575
_cell_formula_units_Z   2
loop_
 _symmetry_equiv_pos_site_id
 _symmetry_equiv_pos_as_xyz
  1  'x, y, z'
loop_
 _atom_site_type_symbol
 _atom_site_label
 _atom_site_symmetry_multiplicity
 _atom_site_fract_x
 _atom_site_fract_y
 _atom_site_fract_z
 _atom_site_occupancy
  Ho  Ho0  1  0.000827  0.243433  0.250000  1
  Ho  Ho1  1  0.000827  0.757394  0.750000  1
  Ho  Ho2  1  0.243722  0.242147  0.750000  1
  Ho  Ho3  1  0.243722  0.001576  0.250000  1
  Er  Er4  1  0.333710  0.666855  0.000000  1
  Er  Er5  1  0.665143  0.332571  0.500000  1
  Er  Er6  1  0.665143  0.332571  0.000000  1
  Er  Er7  1  0.333710  0.666855  0.500000  1
  Er  Er8  1  0.755554  0.999184  0.750000  1
  Er  Er9  1  0.755554  0.756370  0.250000  1
  Sn  Sn10  1  0.392385  0.999003  0.750000  1
  Sn  Sn11  1  0.392385  0.393383  0.250000  1
  Sb  Sb12  1  0.999079  0.609074  0.250000  1
  Sb  Sb13  1  0.999079  0.390006  0.750000  1
  Sb  Sb14  1  0.609580  0.609611  0.750000  1
  Sb  Sb15  1  0.609580  0.999969  0.250000  1
