# generated using pymatgen
data_Y2Ho8TlPb5
_symmetry_space_group_name_H-M   'P 1'
_cell_length_a   9.02261000
_cell_length_b   9.02565384
_cell_length_c   6.65675500
_cell_angle_alpha   90.00000000
_cell_angle_beta   90.00000000
_cell_angle_gamma   119.98884470
_symmetry_Int_Tables_number   1
_chemical_formula_structural   Y2Ho8TlPb5
_chemical_formula_sum   'Y2 Ho8 Tl1 Pb5'
_cell_volume   469.51867503
_cell_formula_units_Z   1
loop_
 _symmetry_equiv_pos_site_id
 _symmetry_equiv_pos_as_xyz
  1  'x, y, z'
loop_
 _atom_site_type_symbol
 _atom_site_label
 _atom_site_symmetry_multiplicity
 _atom_site_fract_x
 _atom_site_fract_y
 _atom_site_fract_z
 _atom_site_occupancy
  Y  Y0  1  0.237456  0.237275  0.750000  1
  Y  Y1  1  0.000181  0.762725  0.750000  1
  Ho  Ho2  1  0.336158  0.669830  0.001800  1
  Ho  Ho3  1  0.666329  0.330170  0.498200  1
  Ho  Ho4  1  0.666329  0.330170  0.001800  1
  Ho  Ho5  1  0.336158  0.669830  0.498200  1
  Ho  Ho6  1  0.239021  0.000000  0.250000  1
  Ho  Ho7  1  0.995424  0.234051  0.250000  1
  Ho  Ho8  1  0.761373  0.765949  0.250000  1
  Ho  Ho9  1  0.762099  0.000000  0.750000  1
  Tl  Tl10  1  0.603465  0.000000  0.250000  1
  Pb  Pb11  1  0.605045  0.604257  0.750000  1
  Pb  Pb12  1  0.000788  0.395743  0.750000  1
  Pb  Pb13  1  0.999846  0.605481  0.250000  1
  Pb  Pb14  1  0.394365  0.394519  0.250000  1
  Pb  Pb15  1  0.395963  0.000000  0.750000  1
