# generated using pymatgen
data_Tm9Lu(Sn3P)2
_symmetry_space_group_name_H-M   'P 1'
_cell_length_a   8.93679000
_cell_length_b   8.93678972
_cell_length_c   6.59839300
_cell_angle_alpha   90.00000000
_cell_angle_beta   90.00000000
_cell_angle_gamma   119.99998623
_symmetry_Int_Tables_number   1
_chemical_formula_structural   Tm9Lu(Sn3P)2
_chemical_formula_sum   'Tm9 Lu1 Sn6 P2'
_cell_volume   456.38563111
_cell_formula_units_Z   1
loop_
 _symmetry_equiv_pos_site_id
 _symmetry_equiv_pos_as_xyz
  1  'x, y, z'
loop_
 _atom_site_type_symbol
 _atom_site_label
 _atom_site_symmetry_multiplicity
 _atom_site_fract_x
 _atom_site_fract_y
 _atom_site_fract_z
 _atom_site_occupancy
  Tm  Tm0  1  0.666667  0.333333  0.000000  1
  Tm  Tm1  1  0.333333  0.666667  0.000000  1
  Tm  Tm2  1  0.333333  0.666667  0.500000  1
  Tm  Tm3  1  0.758144  0.758093  0.749964  1
  Tm  Tm4  1  0.241907  0.000050  0.749964  1
  Tm  Tm5  1  0.999950  0.241856  0.749964  1
  Tm  Tm6  1  0.241907  0.241856  0.250036  1
  Tm  Tm7  1  0.758144  0.000050  0.250036  1
  Tm  Tm8  1  0.999950  0.758093  0.250036  1
  Lu  Lu9  1  0.666667  0.333333  0.500000  1
  Sn  Sn10  1  0.398890  0.398783  0.749905  1
  Sn  Sn11  1  0.601217  0.000107  0.749905  1
  Sn  Sn12  1  0.999893  0.601110  0.749905  1
  Sn  Sn13  1  0.601217  0.601110  0.250095  1
  Sn  Sn14  1  0.398890  0.000107  0.250095  1
  Sn  Sn15  1  0.999893  0.398783  0.250095  1
  P  P16  1  0.000000  0.000000  0.000000  1
  P  P17  1  0.000000  0.000000  0.500000  1
