# generated using pymatgen
data_Sm3Zn3Pt2Au
_symmetry_space_group_name_H-M   'P 1'
_cell_length_a   7.58030900
_cell_length_b   7.58030911
_cell_length_c   3.82901600
_cell_angle_alpha   90.00000000
_cell_angle_beta   90.00000000
_cell_angle_gamma   120.00000389
_symmetry_Int_Tables_number   1
_chemical_formula_structural   Sm3Zn3Pt2Au
_chemical_formula_sum   'Sm3 Zn3 Pt2 Au1'
_cell_volume   190.54239546
_cell_formula_units_Z   1
loop_
 _symmetry_equiv_pos_site_id
 _symmetry_equiv_pos_as_xyz
  1  'x, y, z'
loop_
 _atom_site_type_symbol
 _atom_site_label
 _atom_site_symmetry_multiplicity
 _atom_site_fract_x
 _atom_site_fract_y
 _atom_site_fract_z
 _atom_site_occupancy
  Sm  Sm0  1  0.410812  0.000000  0.000000  1
  Sm  Sm1  1  0.000000  0.410812  0.000000  1
  Sm  Sm2  1  0.589188  0.589188  0.000000  1
  Zn  Zn3  1  0.741267  0.000000  0.500000  1
  Zn  Zn4  1  0.000000  0.741267  0.500000  1
  Zn  Zn5  1  0.258733  0.258733  0.500000  1
  Pt  Pt6  1  0.333333  0.666667  0.500000  1
  Pt  Pt7  1  0.666667  0.333333  0.500000  1
  Au  Au8  1  0.000000  0.000000  0.000000  1
