# generated using pymatgen
data_La4ThP12Ru19
_symmetry_space_group_name_H-M   'P 1'
_cell_length_a   12.70397700
_cell_length_b   12.70397828
_cell_length_c   4.04199600
_cell_angle_alpha   90.00000000
_cell_angle_beta   90.00000000
_cell_angle_gamma   119.99999927
_symmetry_Int_Tables_number   1
_chemical_formula_structural   La4ThP12Ru19
_chemical_formula_sum   'La4 Th1 P12 Ru19'
_cell_volume   564.94472207
_cell_formula_units_Z   1
loop_
 _symmetry_equiv_pos_site_id
 _symmetry_equiv_pos_as_xyz
  1  'x, y, z'
loop_
 _atom_site_type_symbol
 _atom_site_label
 _atom_site_symmetry_multiplicity
 _atom_site_fract_x
 _atom_site_fract_y
 _atom_site_fract_z
 _atom_site_occupancy
  La  La0  1  0.183324  0.183412  0.500000  1
  La  La1  1  0.816588  0.999912  0.500000  1
  La  La2  1  0.000088  0.816676  0.500000  1
  La  La3  1  0.666667  0.333333  0.000000  1
  Th  Th4  1  0.333333  0.666667  0.000000  1
  P  P5  1  0.811064  0.811039  0.000000  1
  P  P6  1  0.188961  0.000025  0.000000  1
  P  P7  1  0.999975  0.188936  0.000000  1
  P  P8  1  0.170502  0.475023  0.500000  1
  P  P9  1  0.524977  0.695478  0.500000  1
  P  P10  1  0.304522  0.829498  0.500000  1
  P  P11  1  0.695110  0.524920  0.500000  1
  P  P12  1  0.829809  0.304890  0.500000  1
  P  P13  1  0.475080  0.170191  0.500000  1
  P  P14  1  0.376116  0.375065  0.000000  1
  P  P15  1  0.624935  0.001052  0.000000  1
  P  P16  1  0.998948  0.623884  0.000000  1
  Ru  Ru17  1  0.554094  0.554702  0.000000  1
  Ru  Ru18  1  0.445298  0.999392  0.000000  1
  Ru  Ru19  1  0.000608  0.445906  0.000000  1
  Ru  Ru20  1  0.713815  0.714062  0.500000  1
  Ru  Ru21  1  0.285938  0.999753  0.500000  1
  Ru  Ru22  1  0.000247  0.286185  0.500000  1
  Ru  Ru23  1  0.185264  0.379744  0.000000  1
  Ru  Ru24  1  0.620256  0.805520  0.000000  1
  Ru  Ru25  1  0.194480  0.814736  0.000000  1
  Ru  Ru26  1  0.805580  0.621659  0.000000  1
  Ru  Ru27  1  0.816079  0.194420  0.000000  1
  Ru  Ru28  1  0.378341  0.183921  0.000000  1
  Ru  Ru29  1  0.367119  0.494165  0.500000  1
  Ru  Ru30  1  0.505835  0.872955  0.500000  1
  Ru  Ru31  1  0.127045  0.632881  0.500000  1
  Ru  Ru32  1  0.876195  0.509329  0.500000  1
  Ru  Ru33  1  0.633135  0.123805  0.500000  1
  Ru  Ru34  1  0.490671  0.366865  0.500000  1
  Ru  Ru35  1  0.000000  0.000000  0.000000  1
