# generated using pymatgen
data_Nd3Sm(DyB5)4
_symmetry_space_group_name_H-M   'P 1'
_cell_length_a   7.13533665
_cell_length_b   7.12656668
_cell_length_c   7.16122100
_cell_angle_alpha   76.87229328
_cell_angle_beta   90.08921182
_cell_angle_gamma   89.94830634
_symmetry_Int_Tables_number   1
_chemical_formula_structural   Nd3Sm(DyB5)4
_chemical_formula_sum   'Nd3 Sm1 Dy4 B20'
_cell_volume   354.63396332
_cell_formula_units_Z   1
loop_
 _symmetry_equiv_pos_site_id
 _symmetry_equiv_pos_as_xyz
  1  'x, y, z'
loop_
 _atom_site_type_symbol
 _atom_site_label
 _atom_site_symmetry_multiplicity
 _atom_site_fract_x
 _atom_site_fract_y
 _atom_site_fract_z
 _atom_site_occupancy
  Nd  Nd0  1  0.188416  0.222104  0.877715  1
  Nd  Nd1  1  0.311682  0.221927  0.377498  1
  Nd  Nd2  1  0.811417  0.778528  0.122796  1
  Sm  Sm3  1  0.690247  0.773787  0.624883  1
  Dy  Dy4  1  0.315728  0.752911  0.254223  1
  Dy  Dy5  1  0.815800  0.247192  0.245621  1
  Dy  Dy6  1  0.684444  0.246651  0.745339  1
  Dy  Dy7  1  0.184229  0.752840  0.754316  1
  B  B8  1  0.504818  0.314674  0.039849  1
  B  B9  1  0.003773  0.685448  0.460223  1
  B  B10  1  0.495763  0.685609  0.959129  1
  B  B11  1  0.995284  0.314383  0.540233  1
  B  B12  1  0.485659  0.925942  0.924798  1
  B  B13  1  0.984127  0.073408  0.574952  1
  B  B14  1  0.514967  0.074316  0.073053  1
  B  B15  1  0.012494  0.925566  0.426552  1
  B  B16  1  0.327145  0.496559  0.040150  1
  B  B17  1  0.826671  0.503948  0.459781  1
  B  B18  1  0.673356  0.503920  0.959429  1
  B  B19  1  0.173013  0.496456  0.540453  1
  B  B20  1  0.910106  0.499202  0.910183  1
  B  B21  1  0.410586  0.502371  0.589297  1
  B  B22  1  0.090119  0.501688  0.089585  1
  B  B23  1  0.589902  0.499665  0.410401  1
  B  B24  1  0.960862  0.497286  0.673454  1
  B  B25  1  0.461436  0.503227  0.826248  1
  B  B26  1  0.038777  0.502900  0.326681  1
  B  B27  1  0.539179  0.497494  0.173157  1
