# generated using pymatgen
data_U2SbO2
_symmetry_space_group_name_H-M   'P 1'
_cell_length_a   6.80995046
_cell_length_b   6.80994984
_cell_length_c   6.80995046
_cell_angle_alpha   146.77406812
_cell_angle_beta   146.77406299
_cell_angle_gamma   47.69842954
_symmetry_Int_Tables_number   1
_chemical_formula_structural   U2SbO2
_chemical_formula_sum   'U2 Sb1 O2'
_cell_volume   94.44376530
_cell_formula_units_Z   1
loop_
 _symmetry_equiv_pos_site_id
 _symmetry_equiv_pos_as_xyz
  1  'x, y, z'
loop_
 _atom_site_type_symbol
 _atom_site_label
 _atom_site_symmetry_multiplicity
 _atom_site_fract_x
 _atom_site_fract_y
 _atom_site_fract_z
 _atom_site_occupancy
  U  U0  1  0.649616  0.649616  0.000000  1
  U  U1  1  0.350384  0.350384  0.000000  1
  Sb  Sb2  1  0.000000  0.000000  0.000000  1
  O  O3  1  0.250000  0.750000  0.500000  1
  O  O4  1  0.750000  0.250000  0.500000  1
