# generated using pymatgen
data_Li3Sm4Co10Ni7P12
_symmetry_space_group_name_H-M   'P 1'
_cell_length_a   3.75093000
_cell_length_b   10.41900371
_cell_length_c   12.01101650
_cell_angle_alpha   90.39547966
_cell_angle_beta   90.00000000
_cell_angle_gamma   90.00000000
_symmetry_Int_Tables_number   1
_chemical_formula_structural   Li3Sm4Co10Ni7P12
_chemical_formula_sum   'Li3 Sm4 Co10 Ni7 P12'
_cell_volume   469.39079675
_cell_formula_units_Z   1
loop_
 _symmetry_equiv_pos_site_id
 _symmetry_equiv_pos_as_xyz
  1  'x, y, z'
loop_
 _atom_site_type_symbol
 _atom_site_label
 _atom_site_symmetry_multiplicity
 _atom_site_fract_x
 _atom_site_fract_y
 _atom_site_fract_z
 _atom_site_occupancy
  Li  Li0  1  0.250000  0.701384  0.992371  1
  Li  Li1  1  0.250000  0.799632  0.491735  1
  Li  Li2  1  0.750000  0.298190  0.006637  1
  Sm  Sm3  1  0.250000  0.581366  0.702835  1
  Sm  Sm4  1  0.250000  0.918065  0.202928  1
  Sm  Sm5  1  0.750000  0.418002  0.295608  1
  Sm  Sm6  1  0.750000  0.080968  0.796936  1
  Co  Co7  1  0.250000  0.275633  0.671026  1
  Co  Co8  1  0.750000  0.720028  0.327773  1
  Co  Co9  1  0.250000  0.881596  0.698115  1
  Co  Co10  1  0.250000  0.619541  0.198812  1
  Co  Co11  1  0.750000  0.118696  0.304324  1
  Co  Co12  1  0.750000  0.378748  0.797829  1
  Co  Co13  1  0.250000  0.466912  0.931538  1
  Co  Co14  1  0.250000  0.033039  0.433764  1
  Co  Co15  1  0.750000  0.531920  0.066438  1
  Co  Co16  1  0.750000  0.968678  0.565972  1
  Ni  Ni17  1  0.750000  0.208942  0.510540  1
  Ni  Ni18  1  0.250000  0.405836  0.485815  1
  Ni  Ni19  1  0.250000  0.094571  0.990155  1
  Ni  Ni20  1  0.750000  0.590662  0.511829  1
  Ni  Ni21  1  0.750000  0.907294  0.011445  1
  Ni  Ni22  1  0.250000  0.221075  0.175744  1
  Ni  Ni23  1  0.750000  0.779402  0.827563  1
  P  P24  1  0.250000  0.425963  0.112182  1
  P  P25  1  0.250000  0.076133  0.611765  1
  P  P26  1  0.750000  0.572867  0.886256  1
  P  P27  1  0.750000  0.922487  0.386632  1
  P  P28  1  0.250000  0.275977  0.857161  1
  P  P29  1  0.250000  0.224781  0.365321  1
  P  P30  1  0.750000  0.722697  0.142457  1
  P  P31  1  0.750000  0.778879  0.640977  1
  P  P32  1  0.250000  0.605716  0.388418  1
  P  P33  1  0.250000  0.899514  0.892276  1
  P  P34  1  0.750000  0.391777  0.607884  1
  P  P35  1  0.750000  0.103031  0.110940  1
