# generated using pymatgen
data_Dy5YAl16Os6Ru
_symmetry_space_group_name_H-M   'P 1'
_cell_length_a   8.95847766
_cell_length_b   8.95792217
_cell_length_c   8.95792228
_cell_angle_alpha   60.00409389
_cell_angle_beta   59.99795580
_cell_angle_gamma   59.99795877
_symmetry_Int_Tables_number   1
_chemical_formula_structural   Dy5YAl16Os6Ru
_chemical_formula_sum   'Dy5 Y1 Al16 Os6 Ru1'
_cell_volume   508.31604249
_cell_formula_units_Z   1
loop_
 _symmetry_equiv_pos_site_id
 _symmetry_equiv_pos_as_xyz
  1  'x, y, z'
loop_
 _atom_site_type_symbol
 _atom_site_label
 _atom_site_symmetry_multiplicity
 _atom_site_fract_x
 _atom_site_fract_y
 _atom_site_fract_z
 _atom_site_occupancy
  Dy  Dy0  1  0.712146  0.711566  0.287854  1
  Dy  Dy1  1  0.288434  0.711566  0.287854  1
  Dy  Dy2  1  0.712294  0.287706  0.287706  1
  Dy  Dy3  1  0.288434  0.287854  0.711566  1
  Dy  Dy4  1  0.712146  0.287854  0.711566  1
  Y  Y5  1  0.288366  0.711634  0.711634  1
  Al  Al6  1  0.879005  0.878843  0.363146  1
  Al  Al7  1  0.879005  0.363146  0.878843  1
  Al  Al8  1  0.362149  0.879189  0.879189  1
  Al  Al9  1  0.879473  0.879189  0.879189  1
  Al  Al10  1  0.120811  0.120527  0.637851  1
  Al  Al11  1  0.120811  0.637851  0.120527  1
  Al  Al12  1  0.636854  0.120995  0.120995  1
  Al  Al13  1  0.121157  0.120995  0.120995  1
  Al  Al14  1  0.668053  0.667633  0.996262  1
  Al  Al15  1  0.668053  0.996262  0.667633  1
  Al  Al16  1  0.996987  0.667980  0.667980  1
  Al  Al17  1  0.667052  0.667980  0.667980  1
  Al  Al18  1  0.332020  0.332948  0.003013  1
  Al  Al19  1  0.332020  0.003013  0.332948  1
  Al  Al20  1  0.003738  0.331947  0.331947  1
  Al  Al21  1  0.332367  0.331947  0.331947  1
  Os  Os22  1  0.999739  0.000261  0.500179  1
  Os  Os23  1  0.499821  0.000261  0.500179  1
  Os  Os24  1  0.999971  0.500029  0.500029  1
  Os  Os25  1  0.499821  0.500179  0.000261  1
  Os  Os26  1  0.999739  0.500179  0.000261  1
  Os  Os27  1  0.499971  0.000029  0.000029  1
  Ru  Ru28  1  0.999566  0.000434  0.000434  1
