# generated using pymatgen
data_LiUIBr5
_symmetry_space_group_name_H-M   'P 1'
_cell_length_a   7.76834333
_cell_length_b   7.33985374
_cell_length_c   7.08890376
_cell_angle_alpha   78.79792556
_cell_angle_beta   81.41807958
_cell_angle_gamma   117.87260446
_symmetry_Int_Tables_number   1
_chemical_formula_structural   LiUIBr5
_chemical_formula_sum   'Li1 U1 I1 Br5'
_cell_volume   336.80277190
_cell_formula_units_Z   1
loop_
 _symmetry_equiv_pos_site_id
 _symmetry_equiv_pos_as_xyz
  1  'x, y, z'
loop_
 _atom_site_type_symbol
 _atom_site_label
 _atom_site_symmetry_multiplicity
 _atom_site_fract_x
 _atom_site_fract_y
 _atom_site_fract_z
 _atom_site_occupancy
  Li  Li0  1  0.911175  0.119004  0.496731  1
  U  U1  1  0.996277  0.004666  0.997905  1
  I  I2  1  0.635638  0.958726  0.264014  1
  Br  Br3  1  0.222450  0.252202  0.207933  1
  Br  Br4  1  0.768995  0.764886  0.785821  1
  Br  Br5  1  0.032067  0.354924  0.732591  1
  Br  Br6  1  0.331980  0.065621  0.767928  1
  Br  Br7  1  0.935420  0.645972  0.247077  1
