# generated using pymatgen
data_Yb2Lu2Os5Ru3
_symmetry_space_group_name_H-M   'P 1'
_cell_length_a   5.25279825
_cell_length_b   5.19496488
_cell_length_c   8.90184374
_cell_angle_alpha   89.99455057
_cell_angle_beta   89.88183055
_cell_angle_gamma   119.66415570
_symmetry_Int_Tables_number   1
_chemical_formula_structural   Yb2Lu2Os5Ru3
_chemical_formula_sum   'Yb2 Lu2 Os5 Ru3'
_cell_volume   211.07775321
_cell_formula_units_Z   1
loop_
 _symmetry_equiv_pos_site_id
 _symmetry_equiv_pos_as_xyz
  1  'x, y, z'
loop_
 _atom_site_type_symbol
 _atom_site_label
 _atom_site_symmetry_multiplicity
 _atom_site_fract_x
 _atom_site_fract_y
 _atom_site_fract_z
 _atom_site_occupancy
  Yb  Yb0  1  0.329875  0.664857  0.060795  1
  Yb  Yb1  1  0.661678  0.330862  0.940470  1
  Lu  Lu2  1  0.668869  0.334483  0.570775  1
  Lu  Lu3  1  0.335576  0.667787  0.428422  1
  Os  Os4  1  0.174295  0.344319  0.746010  1
  Os  Os5  1  0.174278  0.829928  0.745920  1
  Os  Os6  1  0.661639  0.830910  0.749832  1
  Os  Os7  1  0.835933  0.660393  0.251606  1
  Os  Os8  1  0.835840  0.175432  0.251507  1
  Ru  Ru9  1  0.989232  0.994746  0.499259  1
  Ru  Ru10  1  0.982339  0.990977  0.000375  1
  Ru  Ru11  1  0.350444  0.175306  0.255029  1
