# generated using pymatgen
data_La7Nd3(USe10)2
_symmetry_space_group_name_H-M   'P 1'
_cell_length_a   7.98402564
_cell_length_b   8.56898159
_cell_length_c   12.61286315
_cell_angle_alpha   90.00270527
_cell_angle_beta   90.01737016
_cell_angle_gamma   90.04262500
_symmetry_Int_Tables_number   1
_chemical_formula_structural   La7Nd3(USe10)2
_chemical_formula_sum   'La7 Nd3 U2 Se20'
_cell_volume   862.90835937
_cell_formula_units_Z   1
loop_
 _symmetry_equiv_pos_site_id
 _symmetry_equiv_pos_as_xyz
  1  'x, y, z'
loop_
 _atom_site_type_symbol
 _atom_site_label
 _atom_site_symmetry_multiplicity
 _atom_site_fract_x
 _atom_site_fract_y
 _atom_site_fract_z
 _atom_site_occupancy
  La  La0  1  0.528427  0.501815  0.323578  1
  La  La1  1  0.970958  0.997006  0.823302  1
  La  La2  1  0.478349  0.998238  0.677313  1
  La  La3  1  0.022284  0.501069  0.176238  1
  La  La4  1  0.477825  0.501258  0.677666  1
  La  La5  1  0.022324  0.998809  0.176781  1
  La  La6  1  0.528960  0.998600  0.323366  1
  Nd  Nd7  1  0.972807  0.499290  0.821376  1
  Nd  Nd8  1  0.078362  0.750263  0.490984  1
  Nd  Nd9  1  0.421916  0.749996  0.991041  1
  U  U10  1  0.942581  0.250771  0.506037  1
  U  U11  1  0.556808  0.251398  0.005657  1
  Se  Se12  1  0.837370  0.971257  0.595535  1
  Se  Se13  1  0.661660  0.529331  0.096209  1
  Se  Se14  1  0.165848  0.448115  0.404470  1
  Se  Se15  1  0.334840  0.052139  0.904301  1
  Se  Se16  1  0.165821  0.052726  0.404709  1
  Se  Se17  1  0.331858  0.447508  0.905240  1
  Se  Se18  1  0.838034  0.529279  0.596565  1
  Se  Se19  1  0.663280  0.972435  0.094995  1
  Se  Se20  1  0.827429  0.750183  0.309483  1
  Se  Se21  1  0.674431  0.747520  0.810502  1
  Se  Se22  1  0.165377  0.251576  0.683041  1
  Se  Se23  1  0.333590  0.249574  0.182229  1
  Se  Se24  1  0.462692  0.750609  0.499020  1
  Se  Se25  1  0.036975  0.747076  0.997552  1
  Se  Se26  1  0.551622  0.250052  0.501605  1
  Se  Se27  1  0.947936  0.252422  0.999602  1
  Se  Se28  1  0.196330  0.747431  0.719394  1
  Se  Se29  1  0.302115  0.750571  0.218922  1
  Se  Se30  1  0.810079  0.250124  0.291470  1
  Se  Se31  1  0.691113  0.251558  0.791819  1
