# generated using pymatgen
data_CsTb(SeO3)2
_symmetry_space_group_name_H-M   'P 1'
_cell_length_a   8.97462800
_cell_length_b   8.97462800
_cell_length_c   8.97462800
_cell_angle_alpha   90.00000000
_cell_angle_beta   90.00000000
_cell_angle_gamma   90.00000000
_symmetry_Int_Tables_number   1
_chemical_formula_structural   CsTb(SeO3)2
_chemical_formula_sum   'Cs4 Tb4 Se8 O24'
_cell_volume   722.85196860
_cell_formula_units_Z   4
loop_
 _symmetry_equiv_pos_site_id
 _symmetry_equiv_pos_as_xyz
  1  'x, y, z'
loop_
 _atom_site_type_symbol
 _atom_site_label
 _atom_site_symmetry_multiplicity
 _atom_site_fract_x
 _atom_site_fract_y
 _atom_site_fract_z
 _atom_site_occupancy
  Cs  Cs0  1  0.500000  0.500000  0.000000  1
  Cs  Cs1  1  0.500000  0.000000  0.500000  1
  Cs  Cs2  1  0.000000  0.500000  0.500000  1
  Cs  Cs3  1  0.000000  0.000000  0.000000  1
  Tb  Tb4  1  0.500000  0.000000  0.000000  1
  Tb  Tb5  1  0.500000  0.500000  0.500000  1
  Tb  Tb6  1  0.000000  0.000000  0.500000  1
  Tb  Tb7  1  0.000000  0.500000  0.000000  1
  Se  Se8  1  0.262611  0.737389  0.237389  1
  Se  Se9  1  0.737389  0.237389  0.262611  1
  Se  Se10  1  0.237389  0.262611  0.737389  1
  Se  Se11  1  0.762611  0.762611  0.762611  1
  Se  Se12  1  0.737389  0.262611  0.762611  1
  Se  Se13  1  0.262611  0.762611  0.737389  1
  Se  Se14  1  0.762611  0.737389  0.262611  1
  Se  Se15  1  0.237389  0.237389  0.237389  1
  O  O16  1  0.179449  0.661022  0.081190  1
  O  O17  1  0.820551  0.161022  0.418810  1
  O  O18  1  0.320551  0.338978  0.581190  1
  O  O19  1  0.679449  0.838978  0.918810  1
  O  O20  1  0.081190  0.179449  0.661022  1
  O  O21  1  0.418810  0.820551  0.161022  1
  O  O22  1  0.581190  0.320551  0.338978  1
  O  O23  1  0.918810  0.679449  0.838978  1
  O  O24  1  0.661022  0.081190  0.179449  1
  O  O25  1  0.161022  0.418810  0.820551  1
  O  O26  1  0.338978  0.581190  0.320551  1
  O  O27  1  0.838978  0.918810  0.679449  1
  O  O28  1  0.820551  0.338978  0.918810  1
  O  O29  1  0.179449  0.838978  0.581190  1
  O  O30  1  0.679449  0.661022  0.418810  1
  O  O31  1  0.320551  0.161022  0.081190  1
  O  O32  1  0.918810  0.820551  0.338978  1
  O  O33  1  0.581190  0.179449  0.838978  1
  O  O34  1  0.418810  0.679449  0.661022  1
  O  O35  1  0.081190  0.320551  0.161022  1
  O  O36  1  0.338978  0.918810  0.820551  1
  O  O37  1  0.838978  0.581190  0.179449  1
  O  O38  1  0.661022  0.418810  0.679449  1
  O  O39  1  0.161022  0.081190  0.320551  1
