# generated using pymatgen
data_HoLuNi2Pb
_symmetry_space_group_name_H-M   'P 1'
_cell_length_a   7.39625955
_cell_length_b   7.39626060
_cell_length_c   3.73548000
_cell_angle_alpha   90.00000000
_cell_angle_beta   90.00000000
_cell_angle_gamma   149.95693687
_symmetry_Int_Tables_number   1
_chemical_formula_structural   HoLuNi2Pb
_chemical_formula_sum   'Ho1 Lu1 Ni2 Pb1'
_cell_volume   102.30706871
_cell_formula_units_Z   1
loop_
 _symmetry_equiv_pos_site_id
 _symmetry_equiv_pos_as_xyz
  1  'x, y, z'
loop_
 _atom_site_type_symbol
 _atom_site_label
 _atom_site_symmetry_multiplicity
 _atom_site_fract_x
 _atom_site_fract_y
 _atom_site_fract_z
 _atom_site_occupancy
  Ho  Ho0  1  0.640344  0.359656  0.500000  1
  Lu  Lu1  1  0.358323  0.641677  0.500000  1
  Ni  Ni2  1  0.801780  0.198220  0.000000  1
  Ni  Ni3  1  0.200994  0.799006  0.000000  1
  Pb  Pb4  1  0.998559  0.001441  0.000000  1
