# generated using pymatgen
data_Li4Dy3NpSi8
_symmetry_space_group_name_H-M   'P 1'
_cell_length_a   3.79182000
_cell_length_b   7.58233916
_cell_length_c   10.16781839
_cell_angle_alpha   90.03642456
_cell_angle_beta   90.00000000
_cell_angle_gamma   90.00000000
_symmetry_Int_Tables_number   1
_chemical_formula_structural   Li4Dy3NpSi8
_chemical_formula_sum   'Li4 Dy3 Np1 Si8'
_cell_volume   292.33351754
_cell_formula_units_Z   1
loop_
 _symmetry_equiv_pos_site_id
 _symmetry_equiv_pos_as_xyz
  1  'x, y, z'
loop_
 _atom_site_type_symbol
 _atom_site_label
 _atom_site_symmetry_multiplicity
 _atom_site_fract_x
 _atom_site_fract_y
 _atom_site_fract_z
 _atom_site_occupancy
  Li  Li0  1  0.250000  0.989221  0.392211  1
  Li  Li1  1  0.250000  0.490458  0.106254  1
  Li  Li2  1  0.750000  0.010169  0.608507  1
  Li  Li3  1  0.750000  0.509201  0.892601  1
  Dy  Dy4  1  0.250000  0.138480  0.864208  1
  Dy  Dy5  1  0.250000  0.637283  0.635371  1
  Dy  Dy6  1  0.750000  0.864195  0.135475  1
  Np  Np7  1  0.750000  0.360077  0.362818  1
  Si  Si8  1  0.250000  0.236507  0.565660  1
  Si  Si9  1  0.250000  0.732849  0.932412  1
  Si  Si10  1  0.750000  0.768743  0.431237  1
  Si  Si11  1  0.750000  0.266118  0.068392  1
  Si  Si12  1  0.250000  0.652983  0.320644  1
  Si  Si13  1  0.250000  0.160578  0.183407  1
  Si  Si14  1  0.750000  0.340522  0.681571  1
  Si  Si15  1  0.750000  0.842613  0.819231  1
