# generated using pymatgen
data_Ho3TlIn3NiRh
_symmetry_space_group_name_H-M   'P 1'
_cell_length_a   7.93462100
_cell_length_b   7.93462008
_cell_length_c   3.68032500
_cell_angle_alpha   90.00000000
_cell_angle_beta   90.00000000
_cell_angle_gamma   120.00000080
_symmetry_Int_Tables_number   1
_chemical_formula_structural   Ho3TlIn3NiRh
_chemical_formula_sum   'Ho3 Tl1 In3 Ni1 Rh1'
_cell_volume   200.66384244
_cell_formula_units_Z   1
loop_
 _symmetry_equiv_pos_site_id
 _symmetry_equiv_pos_as_xyz
  1  'x, y, z'
loop_
 _atom_site_type_symbol
 _atom_site_label
 _atom_site_symmetry_multiplicity
 _atom_site_fract_x
 _atom_site_fract_y
 _atom_site_fract_z
 _atom_site_occupancy
  Ho  Ho0  1  0.964981  0.580019  0.500000  1
  Ho  Ho1  1  0.419981  0.384962  0.500000  1
  Ho  Ho2  1  0.615038  0.035019  0.500000  1
  Tl  Tl3  1  0.333333  0.666667  0.000000  1
  In  In4  1  0.248434  0.002255  0.000000  1
  In  In5  1  0.753820  0.751566  0.000000  1
  In  In6  1  0.997745  0.246180  0.000000  1
  Ni  Ni7  1  0.000000  0.000000  0.500000  1
  Rh  Rh8  1  0.666667  0.333333  0.000000  1
