# generated using pymatgen
data_Dy2ErHf(Al3Ir)6
_symmetry_space_group_name_H-M   'P 1'
_cell_length_a   7.53224602
_cell_length_b   7.52324757
_cell_length_c   9.42489700
_cell_angle_alpha   90.00000000
_cell_angle_beta   90.00000000
_cell_angle_gamma   119.59145733
_symmetry_Int_Tables_number   1
_chemical_formula_structural   Dy2ErHf(Al3Ir)6
_chemical_formula_sum   'Dy2 Er1 Hf1 Al18 Ir6'
_cell_volume   464.41933729
_cell_formula_units_Z   1
loop_
 _symmetry_equiv_pos_site_id
 _symmetry_equiv_pos_as_xyz
  1  'x, y, z'
loop_
 _atom_site_type_symbol
 _atom_site_label
 _atom_site_symmetry_multiplicity
 _atom_site_fract_x
 _atom_site_fract_y
 _atom_site_fract_z
 _atom_site_occupancy
  Dy  Dy0  1  0.005363  0.327486  0.750000  1
  Dy  Dy1  1  0.329085  0.006213  0.750000  1
  Er  Er2  1  0.671316  0.995882  0.250000  1
  Hf  Hf3  1  0.997735  0.673416  0.250000  1
  Al  Al4  1  0.125510  0.123143  0.250000  1
  Al  Al5  1  0.870904  0.869544  0.750000  1
  Al  Al6  1  0.999883  0.337924  0.079274  1
  Al  Al7  1  0.999099  0.664930  0.929960  1
  Al  Al8  1  0.999099  0.664930  0.570040  1
  Al  Al9  1  0.332628  0.997997  0.420624  1
  Al  Al10  1  0.999883  0.337924  0.420726  1
  Al  Al11  1  0.664608  0.998057  0.573673  1
  Al  Al12  1  0.664608  0.998057  0.926327  1
  Al  Al13  1  0.332628  0.997997  0.079376  1
  Al  Al14  1  0.333752  0.333861  0.549692  1
  Al  Al15  1  0.669059  0.667027  0.443174  1
  Al  Al16  1  0.669059  0.667027  0.056826  1
  Al  Al17  1  0.333752  0.333861  0.950308  1
  Al  Al18  1  0.336059  0.549704  0.250000  1
  Al  Al19  1  0.660900  0.452413  0.750000  1
  Al  Al20  1  0.555470  0.344504  0.250000  1
  Al  Al21  1  0.451002  0.659582  0.750000  1
  Ir  Ir22  1  0.672566  0.328551  0.001474  1
  Ir  Ir23  1  0.327769  0.672267  0.002241  1
  Ir  Ir24  1  0.327769  0.672267  0.497759  1
  Ir  Ir25  1  0.672566  0.328551  0.498526  1
  Ir  Ir26  1  0.998964  0.998441  0.001785  1
  Ir  Ir27  1  0.998964  0.998441  0.498215  1
