# generated using pymatgen
data_Li(ThPd4)3
_symmetry_space_group_name_H-M   'P 1'
_cell_length_a   5.89089900
_cell_length_b   5.89089859
_cell_length_c   9.59170700
_cell_angle_alpha   90.00000000
_cell_angle_beta   90.00000000
_cell_angle_gamma   119.99999669
_symmetry_Int_Tables_number   1
_chemical_formula_structural   Li(ThPd4)3
_chemical_formula_sum   'Li1 Th3 Pd12'
_cell_volume   288.26351189
_cell_formula_units_Z   1
loop_
 _symmetry_equiv_pos_site_id
 _symmetry_equiv_pos_as_xyz
  1  'x, y, z'
loop_
 _atom_site_type_symbol
 _atom_site_label
 _atom_site_symmetry_multiplicity
 _atom_site_fract_x
 _atom_site_fract_y
 _atom_site_fract_z
 _atom_site_occupancy
  Li  Li0  1  0.333333  0.666667  0.250000  1
  Th  Th1  1  0.000000  0.000000  0.488010  1
  Th  Th2  1  0.000000  0.000000  0.011990  1
  Th  Th3  1  0.666667  0.333333  0.750000  1
  Pd  Pd4  1  0.496857  0.503143  0.495201  1
  Pd  Pd5  1  0.496857  0.993714  0.495201  1
  Pd  Pd6  1  0.006286  0.503143  0.495201  1
  Pd  Pd7  1  0.496857  0.503143  0.004799  1
  Pd  Pd8  1  0.496857  0.993714  0.004799  1
  Pd  Pd9  1  0.006286  0.503143  0.004799  1
  Pd  Pd10  1  0.824792  0.649584  0.250000  1
  Pd  Pd11  1  0.350416  0.175208  0.250000  1
  Pd  Pd12  1  0.824792  0.175208  0.250000  1
  Pd  Pd13  1  0.172622  0.345244  0.750000  1
  Pd  Pd14  1  0.654756  0.827378  0.750000  1
  Pd  Pd15  1  0.172622  0.827378  0.750000  1
