# generated using pymatgen
data_TbYTm4FeBi2
_symmetry_space_group_name_H-M   'P 1'
_cell_length_a   8.25349200
_cell_length_b   8.27195608
_cell_length_c   4.17106900
_cell_angle_alpha   90.00000000
_cell_angle_beta   90.00000000
_cell_angle_gamma   120.14406979
_symmetry_Int_Tables_number   1
_chemical_formula_structural   TbYTm4FeBi2
_chemical_formula_sum   'Tb1 Y1 Tm4 Fe1 Bi2'
_cell_volume   246.25873493
_cell_formula_units_Z   1
loop_
 _symmetry_equiv_pos_site_id
 _symmetry_equiv_pos_as_xyz
  1  'x, y, z'
loop_
 _atom_site_type_symbol
 _atom_site_label
 _atom_site_symmetry_multiplicity
 _atom_site_fract_x
 _atom_site_fract_y
 _atom_site_fract_z
 _atom_site_occupancy
  Tb  Tb0  1  0.609183  0.999999  0.000000  1
  Y  Y1  1  0.999470  0.609484  0.000000  1
  Tm  Tm2  1  0.231057  0.001062  0.500000  1
  Tm  Tm3  1  0.000445  0.229005  0.500000  1
  Tm  Tm4  1  0.770899  0.771501  0.500000  1
  Tm  Tm5  1  0.386973  0.387460  0.000000  1
  Fe  Fe6  1  0.004061  0.002746  0.000000  1
  Bi  Bi7  1  0.332263  0.664268  0.500000  1
  Bi  Bi8  1  0.665648  0.334474  0.500000  1
