# generated using pymatgen
data_Ba20In2Si9Au
_symmetry_space_group_name_H-M   'P 1'
_cell_length_a   8.54822000
_cell_length_b   8.54822000
_cell_length_c   17.37987500
_cell_angle_alpha   90.00000000
_cell_angle_beta   90.00000000
_cell_angle_gamma   90.00000000
_symmetry_Int_Tables_number   1
_chemical_formula_structural   Ba20In2Si9Au
_chemical_formula_sum   'Ba20 In2 Si9 Au1'
_cell_volume   1269.98335862
_cell_formula_units_Z   1
loop_
 _symmetry_equiv_pos_site_id
 _symmetry_equiv_pos_as_xyz
  1  'x, y, z'
loop_
 _atom_site_type_symbol
 _atom_site_label
 _atom_site_symmetry_multiplicity
 _atom_site_fract_x
 _atom_site_fract_y
 _atom_site_fract_z
 _atom_site_occupancy
  Ba  Ba0  1  0.315159  0.670164  0.112771  1
  Ba  Ba1  1  0.170164  0.184841  0.112771  1
  Ba  Ba2  1  0.500000  0.000000  0.732098  1
  Ba  Ba3  1  0.323142  0.683505  0.393634  1
  Ba  Ba4  1  0.668824  0.684911  0.887040  1
  Ba  Ba5  1  0.183505  0.176858  0.393634  1
  Ba  Ba6  1  0.676858  0.316495  0.393634  1
  Ba  Ba7  1  0.168315  0.807768  0.606715  1
  Ba  Ba8  1  0.331176  0.315089  0.887040  1
  Ba  Ba9  1  0.184911  0.831176  0.887040  1
  Ba  Ba10  1  0.500000  0.000000  0.241679  1
  Ba  Ba11  1  0.831685  0.192232  0.606715  1
  Ba  Ba12  1  0.307768  0.331685  0.606715  1
  Ba  Ba13  1  0.816495  0.823142  0.393634  1
  Ba  Ba14  1  0.815089  0.168824  0.887040  1
  Ba  Ba15  1  0.829836  0.815159  0.112771  1
  Ba  Ba16  1  0.000000  0.500000  0.264287  1
  Ba  Ba17  1  0.000000  0.500000  0.767165  1
  Ba  Ba18  1  0.684841  0.329836  0.112771  1
  Ba  Ba19  1  0.692232  0.668315  0.606715  1
  In  In20  1  0.000000  0.500000  0.991709  1
  In  In21  1  0.500000  0.000000  0.008486  1
  Si  Si22  1  0.099820  0.101389  0.745710  1
  Si  Si23  1  0.398611  0.599820  0.745710  1
  Si  Si24  1  0.600628  0.600186  0.253735  1
  Si  Si25  1  0.100186  0.899372  0.253735  1
  Si  Si26  1  0.601389  0.400180  0.745710  1
  Si  Si27  1  0.900180  0.898611  0.745710  1
  Si  Si28  1  0.399372  0.399814  0.253735  1
  Si  Si29  1  0.899814  0.100628  0.253735  1
  Si  Si30  1  0.000000  0.500000  0.487312  1
  Au  Au31  1  0.500000  0.000000  0.508840  1
