# generated using pymatgen
data_Ir2Se13I5
_symmetry_space_group_name_H-M   'P 1'
_cell_length_a   9.15804838
_cell_length_b   9.15805013
_cell_length_c   9.42716913
_cell_angle_alpha   109.30920615
_cell_angle_beta   109.30920721
_cell_angle_gamma   109.39957770
_symmetry_Int_Tables_number   1
_chemical_formula_structural   Ir2Se13I5
_chemical_formula_sum   'Ir2 Se13 I5'
_cell_volume   611.60047332
_cell_formula_units_Z   1
loop_
 _symmetry_equiv_pos_site_id
 _symmetry_equiv_pos_as_xyz
  1  'x, y, z'
loop_
 _atom_site_type_symbol
 _atom_site_label
 _atom_site_symmetry_multiplicity
 _atom_site_fract_x
 _atom_site_fract_y
 _atom_site_fract_z
 _atom_site_occupancy
  Ir  Ir0  1  0.248058  0.251942  0.250000  1
  Ir  Ir1  1  0.749361  0.750639  0.750000  1
  Se  Se2  1  0.008667  0.491333  0.250000  1
  Se  Se3  1  0.933047  0.180067  0.168010  1
  Se  Se4  1  0.164255  0.931891  0.156008  1
  Se  Se5  1  0.166065  0.181415  0.944592  1
  Se  Se6  1  0.697726  0.672434  0.449834  1
  Se  Se7  1  0.432502  0.669568  0.656563  1
  Se  Se8  1  0.654381  0.428952  0.663458  1
  Se  Se9  1  0.071048  0.845619  0.836542  1
  Se  Se10  1  0.830432  0.067498  0.843437  1
  Se  Se11  1  0.827566  0.802274  0.050166  1
  Se  Se12  1  0.318585  0.333935  0.555408  1
  Se  Se13  1  0.568109  0.335745  0.343992  1
  Se  Se14  1  0.319933  0.566953  0.331990  1
  I  I15  1  0.226966  0.967208  0.496060  1
  I  I16  1  0.532792  0.273034  0.003940  1
  I  I17  1  0.756372  0.020868  0.486089  1
  I  I18  1  0.479132  0.743628  0.013911  1
  I  I19  1  0.015002  0.484998  0.750000  1
