# generated using pymatgen
data_TiReIr5Rh
_symmetry_space_group_name_H-M   'P 1'
_cell_length_a   5.50127686
_cell_length_b   5.50127633
_cell_length_c   4.42269100
_cell_angle_alpha   90.00000000
_cell_angle_beta   90.00000000
_cell_angle_gamma   119.79437420
_symmetry_Int_Tables_number   1
_chemical_formula_structural   TiReIr5Rh
_chemical_formula_sum   'Ti1 Re1 Ir5 Rh1'
_cell_volume   116.15564880
_cell_formula_units_Z   1
loop_
 _symmetry_equiv_pos_site_id
 _symmetry_equiv_pos_as_xyz
  1  'x, y, z'
loop_
 _atom_site_type_symbol
 _atom_site_label
 _atom_site_symmetry_multiplicity
 _atom_site_fract_x
 _atom_site_fract_y
 _atom_site_fract_z
 _atom_site_occupancy
  Ti  Ti0  1  0.333395  0.666605  0.750000  1
  Re  Re1  1  0.666376  0.333624  0.250000  1
  Ir  Ir2  1  0.164596  0.329250  0.250000  1
  Ir  Ir3  1  0.670750  0.835404  0.250000  1
  Ir  Ir4  1  0.831653  0.663615  0.750000  1
  Ir  Ir5  1  0.336385  0.168347  0.750000  1
  Ir  Ir6  1  0.831831  0.168169  0.750000  1
  Rh  Rh7  1  0.165013  0.834987  0.250000  1
