# generated using pymatgen
data_Tb5Er5In8Pd3Pt
_symmetry_space_group_name_H-M   'P 1'
_cell_length_a   3.62167400
_cell_length_b   8.16695305
_cell_length_c   18.22657716
_cell_angle_alpha   89.95168138
_cell_angle_beta   90.00000000
_cell_angle_gamma   90.00000000
_symmetry_Int_Tables_number   1
_chemical_formula_structural   Tb5Er5In8Pd3Pt
_chemical_formula_sum   'Tb5 Er5 In8 Pd3 Pt1'
_cell_volume   539.10626460
_cell_formula_units_Z   1
loop_
 _symmetry_equiv_pos_site_id
 _symmetry_equiv_pos_as_xyz
  1  'x, y, z'
loop_
 _atom_site_type_symbol
 _atom_site_label
 _atom_site_symmetry_multiplicity
 _atom_site_fract_x
 _atom_site_fract_y
 _atom_site_fract_z
 _atom_site_occupancy
  Tb  Tb0  1  0.000000  0.500798  0.499726  1
  Tb  Tb1  1  0.000000  0.998850  0.000052  1
  Tb  Tb2  1  0.000000  0.735888  0.280936  1
  Tb  Tb3  1  0.000000  0.260879  0.717843  1
  Tb  Tb4  1  0.000000  0.760666  0.782136  1
  Er  Er5  1  0.000000  0.244856  0.218559  1
  Er  Er6  1  0.000000  0.617288  0.085593  1
  Er  Er7  1  0.000000  0.381433  0.916120  1
  Er  Er8  1  0.000000  0.881430  0.583695  1
  Er  Er9  1  0.000000  0.118026  0.415360  1
  In  In10  1  0.500000  0.703270  0.934235  1
  In  In11  1  0.500000  0.293890  0.065966  1
  In  In12  1  0.500000  0.796819  0.433655  1
  In  In13  1  0.500000  0.204060  0.565731  1
  In  In14  1  0.500000  0.581708  0.650506  1
  In  In15  1  0.500000  0.416023  0.350396  1
  In  In16  1  0.500000  0.923156  0.150627  1
  In  In17  1  0.500000  0.081606  0.849437  1
  Pd  Pd18  1  0.500000  0.475363  0.805048  1
  Pd  Pd19  1  0.500000  0.975720  0.694795  1
  Pd  Pd20  1  0.500000  0.027110  0.303915  1
  Pt  Pt21  1  0.500000  0.521161  0.195670  1
