# generated using pymatgen
data_Pr16Zn3InCo4
_symmetry_space_group_name_H-M   'P 1'
_cell_length_a   9.82493704
_cell_length_b   9.82540527
_cell_length_c   9.82492161
_cell_angle_alpha   60.03483074
_cell_angle_beta   60.03256807
_cell_angle_gamma   60.03488651
_symmetry_Int_Tables_number   1
_chemical_formula_structural   Pr16Zn3InCo4
_chemical_formula_sum   'Pr16 Zn3 In1 Co4'
_cell_volume   671.16586585
_cell_formula_units_Z   1
loop_
 _symmetry_equiv_pos_site_id
 _symmetry_equiv_pos_as_xyz
  1  'x, y, z'
loop_
 _atom_site_type_symbol
 _atom_site_label
 _atom_site_symmetry_multiplicity
 _atom_site_fract_x
 _atom_site_fract_y
 _atom_site_fract_z
 _atom_site_occupancy
  Pr  Pr0  1  0.347771  0.347689  0.347770  1
  Pr  Pr1  1  0.348556  0.348482  0.955646  1
  Pr  Pr2  1  0.348526  0.955675  0.348526  1
  Pr  Pr3  1  0.955645  0.348482  0.348555  1
  Pr  Pr4  1  0.808597  0.190571  0.190575  1
  Pr  Pr5  1  0.190612  0.807039  0.806952  1
  Pr  Pr6  1  0.190581  0.808641  0.190581  1
  Pr  Pr7  1  0.806997  0.190612  0.806998  1
  Pr  Pr8  1  0.190575  0.190571  0.808597  1
  Pr  Pr9  1  0.806952  0.807040  0.190612  1
  Pr  Pr10  1  0.946391  0.561677  0.561683  1
  Pr  Pr11  1  0.559579  0.939234  0.939231  1
  Pr  Pr12  1  0.561678  0.946393  0.561678  1
  Pr  Pr13  1  0.939231  0.559580  0.939230  1
  Pr  Pr14  1  0.561683  0.561677  0.946391  1
  Pr  Pr15  1  0.939232  0.939234  0.559578  1
  Zn  Zn16  1  0.576689  0.576687  0.264617  1
  Zn  Zn17  1  0.576687  0.264618  0.576687  1
  Zn  Zn18  1  0.264617  0.576687  0.576689  1
  In  In19  1  0.575868  0.575877  0.575868  1
  Co  Co20  1  0.140668  0.140668  0.140669  1
  Co  Co21  1  0.142339  0.142336  0.578187  1
  Co  Co22  1  0.142336  0.578190  0.142336  1
  Co  Co23  1  0.578187  0.142336  0.142339  1
