# generated using pymatgen
data_Ce3Al12Si2Ru
_symmetry_space_group_name_H-M   'P 1'
_cell_length_a   9.68375000
_cell_length_b   9.68374870
_cell_length_c   4.18252800
_cell_angle_alpha   90.00000000
_cell_angle_beta   90.00000000
_cell_angle_gamma   120.00000445
_symmetry_Int_Tables_number   1
_chemical_formula_structural   Ce3Al12Si2Ru
_chemical_formula_sum   'Ce3 Al12 Si2 Ru1'
_cell_volume   339.66949754
_cell_formula_units_Z   1
loop_
 _symmetry_equiv_pos_site_id
 _symmetry_equiv_pos_as_xyz
  1  'x, y, z'
loop_
 _atom_site_type_symbol
 _atom_site_label
 _atom_site_symmetry_multiplicity
 _atom_site_fract_x
 _atom_site_fract_y
 _atom_site_fract_z
 _atom_site_occupancy
  Ce  Ce0  1  0.000000  0.408225  0.000000  1
  Ce  Ce1  1  0.591775  0.591775  0.000000  1
  Ce  Ce2  1  0.408225  0.000000  0.000000  1
  Al  Al3  1  0.000000  0.745400  0.000000  1
  Al  Al4  1  0.254600  0.254600  0.000000  1
  Al  Al5  1  0.745400  0.000000  0.000000  1
  Al  Al6  1  0.000000  0.166220  0.500000  1
  Al  Al7  1  0.833780  0.833780  0.500000  1
  Al  Al8  1  0.166220  0.000000  0.500000  1
  Al  Al9  1  0.292950  0.470677  0.500000  1
  Al  Al10  1  0.177726  0.707050  0.500000  1
  Al  Al11  1  0.529323  0.822274  0.500000  1
  Al  Al12  1  0.822274  0.529323  0.500000  1
  Al  Al13  1  0.707050  0.177726  0.500000  1
  Al  Al14  1  0.470677  0.292950  0.500000  1
  Si  Si15  1  0.666667  0.333333  0.000000  1
  Si  Si16  1  0.333333  0.666667  0.000000  1
  Ru  Ru17  1  0.000000  0.000000  0.000000  1
