# generated using pymatgen
data_Ac4Mn5Ag3O20
_symmetry_space_group_name_H-M   'P 1'
_cell_length_a   6.00210700
_cell_length_b   8.01255907
_cell_length_c   9.07726300
_cell_angle_alpha   89.17875154
_cell_angle_beta   90.00000000
_cell_angle_gamma   90.00000000
_symmetry_Int_Tables_number   1
_chemical_formula_structural   Ac4Mn5Ag3O20
_chemical_formula_sum   'Ac4 Mn5 Ag3 O20'
_cell_volume   436.50103936
_cell_formula_units_Z   1
loop_
 _symmetry_equiv_pos_site_id
 _symmetry_equiv_pos_as_xyz
  1  'x, y, z'
loop_
 _atom_site_type_symbol
 _atom_site_label
 _atom_site_symmetry_multiplicity
 _atom_site_fract_x
 _atom_site_fract_y
 _atom_site_fract_z
 _atom_site_occupancy
  Ac  Ac0  1  0.000000  0.350318  0.678308  1
  Ac  Ac1  1  0.000000  0.650882  0.324222  1
  Ac  Ac2  1  0.000000  0.844323  0.824131  1
  Ac  Ac3  1  0.000000  0.157778  0.174709  1
  Mn  Mn4  1  0.500000  0.408804  0.349131  1
  Mn  Mn5  1  0.263561  0.498704  0.004030  1
  Mn  Mn6  1  0.740012  0.005478  0.497706  1
  Mn  Mn7  1  0.736439  0.498704  0.004030  1
  Mn  Mn8  1  0.259988  0.005478  0.497706  1
  Ag  Ag9  1  0.500000  0.062653  0.839891  1
  Ag  Ag10  1  0.500000  0.938664  0.157383  1
  Ag  Ag11  1  0.500000  0.559660  0.654608  1
  O  O12  1  0.242518  0.914190  0.300458  1
  O  O13  1  0.243458  0.091752  0.697132  1
  O  O14  1  0.744006  0.409293  0.208634  1
  O  O15  1  0.755773  0.587583  0.800573  1
  O  O16  1  0.756542  0.091752  0.697132  1
  O  O17  1  0.757482  0.914190  0.300458  1
  O  O18  1  0.244227  0.587583  0.800573  1
  O  O19  1  0.255994  0.409293  0.208634  1
  O  O20  1  0.500000  0.357792  0.949547  1
  O  O21  1  0.500000  0.641354  0.056018  1
  O  O22  1  0.500000  0.866928  0.553460  1
  O  O23  1  0.500000  0.154135  0.435926  1
  O  O24  1  0.267088  0.999464  0.998299  1
  O  O25  1  0.721624  0.493084  0.493049  1
  O  O26  1  0.732912  0.999464  0.998299  1
  O  O27  1  0.278376  0.493084  0.493049  1
  O  O28  1  0.000000  0.154873  0.452439  1
  O  O29  1  0.000000  0.853924  0.545087  1
  O  O30  1  0.000000  0.648215  0.049726  1
  O  O31  1  0.000000  0.350600  0.955653  1
