# generated using pymatgen
data_La3PrAl18(OsPt2)2
_symmetry_space_group_name_H-M   'P 1'
_cell_length_a   7.70251623
_cell_length_b   7.70201249
_cell_length_c   9.66113300
_cell_angle_alpha   90.00002969
_cell_angle_beta   89.99966274
_cell_angle_gamma   119.46044392
_symmetry_Int_Tables_number   1
_chemical_formula_structural   La3PrAl18(OsPt2)2
_chemical_formula_sum   'La3 Pr1 Al18 Os2 Pt4'
_cell_volume   499.03519583
_cell_formula_units_Z   1
loop_
 _symmetry_equiv_pos_site_id
 _symmetry_equiv_pos_as_xyz
  1  'x, y, z'
loop_
 _atom_site_type_symbol
 _atom_site_label
 _atom_site_symmetry_multiplicity
 _atom_site_fract_x
 _atom_site_fract_y
 _atom_site_fract_z
 _atom_site_occupancy
  La  La0  1  0.994531  0.670160  0.249998  1
  La  La1  1  0.005150  0.330103  0.750002  1
  La  La2  1  0.670613  0.994845  0.250000  1
  Pr  Pr3  1  0.330895  0.005415  0.749997  1
  Al  Al4  1  0.129536  0.129210  0.249999  1
  Al  Al5  1  0.872643  0.871835  0.750001  1
  Al  Al6  1  0.003158  0.329821  0.073705  1
  Al  Al7  1  0.997957  0.671368  0.925249  1
  Al  Al8  1  0.997956  0.671367  0.574751  1
  Al  Al9  1  0.329579  0.002792  0.427102  1
  Al  Al10  1  0.003158  0.329823  0.426297  1
  Al  Al11  1  0.669629  0.997024  0.574539  1
  Al  Al12  1  0.669628  0.997024  0.925463  1
  Al  Al13  1  0.329579  0.002791  0.072896  1
  Al  Al14  1  0.330250  0.329487  0.550207  1
  Al  Al15  1  0.669308  0.669359  0.451668  1
  Al  Al16  1  0.669307  0.669359  0.048331  1
  Al  Al17  1  0.330249  0.329484  0.949795  1
  Al  Al18  1  0.341935  0.542781  0.249999  1
  Al  Al19  1  0.657058  0.455968  0.750001  1
  Al  Al20  1  0.542174  0.341522  0.249999  1
  Al  Al21  1  0.457023  0.659152  0.750000  1
  Os  Os22  1  0.999599  0.999781  0.000213  1
  Os  Os23  1  0.999598  0.999781  0.499787  1
  Pt  Pt24  1  0.670735  0.329021  0.000029  1
  Pt  Pt25  1  0.329005  0.670851  0.999976  1
  Pt  Pt26  1  0.329007  0.670852  0.500022  1
  Pt  Pt27  1  0.670737  0.329022  0.499973  1
