# generated using pymatgen
data_Tb4Y2Cd23P
_symmetry_space_group_name_H-M   'P 1'
_cell_length_a   9.98279220
_cell_length_b   9.98279358
_cell_length_c   9.91585400
_cell_angle_alpha   60.22155599
_cell_angle_beta   60.22157792
_cell_angle_gamma   60.18456043
_symmetry_Int_Tables_number   1
_chemical_formula_structural   Tb4Y2Cd23P
_chemical_formula_sum   'Tb4 Y2 Cd23 P1'
_cell_volume   702.05597690
_cell_formula_units_Z   1
loop_
 _symmetry_equiv_pos_site_id
 _symmetry_equiv_pos_as_xyz
  1  'x, y, z'
loop_
 _atom_site_type_symbol
 _atom_site_label
 _atom_site_symmetry_multiplicity
 _atom_site_fract_x
 _atom_site_fract_y
 _atom_site_fract_z
 _atom_site_occupancy
  Tb  Tb0  1  0.802556  0.802517  0.197450  1
  Tb  Tb1  1  0.198048  0.802310  0.198093  1
  Tb  Tb2  1  0.802326  0.198057  0.198090  1
  Tb  Tb3  1  0.197372  0.197406  0.802303  1
  Y  Y4  1  0.802480  0.197230  0.802046  1
  Y  Y5  1  0.197221  0.802500  0.802038  1
  Cd  Cd6  1  0.836171  0.836270  0.489939  1
  Cd  Cd7  1  0.834758  0.490290  0.837104  1
  Cd  Cd8  1  0.490227  0.834868  0.837108  1
  Cd  Cd9  1  0.837426  0.837522  0.837473  1
  Cd  Cd10  1  0.164177  0.164082  0.509139  1
  Cd  Cd11  1  0.165312  0.509398  0.163202  1
  Cd  Cd12  1  0.509470  0.165199  0.163207  1
  Cd  Cd13  1  0.162361  0.162262  0.162471  1
  Cd  Cd14  1  0.622071  0.622100  0.135178  1
  Cd  Cd15  1  0.621396  0.135249  0.621613  1
  Cd  Cd16  1  0.135307  0.621388  0.621573  1
  Cd  Cd17  1  0.622153  0.622184  0.619561  1
  Cd  Cd18  1  0.377501  0.377470  0.865547  1
  Cd  Cd19  1  0.378655  0.864752  0.377970  1
  Cd  Cd20  1  0.864697  0.378661  0.378011  1
  Cd  Cd21  1  0.378189  0.378156  0.380355  1
  Cd  Cd22  1  0.999990  0.999993  0.500204  1
  Cd  Cd23  1  0.499864  0.000064  0.500005  1
  Cd  Cd24  1  0.000066  0.499858  0.500008  1
  Cd  Cd25  1  0.500059  0.500057  0.999805  1
  Cd  Cd26  1  0.999969  0.500164  0.999891  1
  Cd  Cd27  1  0.500163  0.999975  0.999896  1
  Cd  Cd28  1  0.499991  0.499988  0.500696  1
  P  P29  1  0.000021  0.000031  0.000026  1
