# generated using pymatgen
data_Hf4Ti3TcP4
_symmetry_space_group_name_H-M   'P 1'
_cell_length_a   3.52383900
_cell_length_b   6.71263827
_cell_length_c   8.07789140
_cell_angle_alpha   89.99697342
_cell_angle_beta   90.00000000
_cell_angle_gamma   90.00000000
_symmetry_Int_Tables_number   1
_chemical_formula_structural   Hf4Ti3TcP4
_chemical_formula_sum   'Hf4 Ti3 Tc1 P4'
_cell_volume   191.07651514
_cell_formula_units_Z   1
loop_
 _symmetry_equiv_pos_site_id
 _symmetry_equiv_pos_as_xyz
  1  'x, y, z'
loop_
 _atom_site_type_symbol
 _atom_site_label
 _atom_site_symmetry_multiplicity
 _atom_site_fract_x
 _atom_site_fract_y
 _atom_site_fract_z
 _atom_site_occupancy
  Hf  Hf0  1  0.250000  0.533784  0.167412  1
  Hf  Hf1  1  0.750000  0.460495  0.832152  1
  Hf  Hf2  1  0.750000  0.965661  0.670115  1
  Hf  Hf3  1  0.250000  0.037001  0.326905  1
  Ti  Ti4  1  0.250000  0.634866  0.561798  1
  Ti  Ti5  1  0.750000  0.361252  0.440936  1
  Ti  Ti6  1  0.750000  0.868918  0.057398  1
  Tc  Tc7  1  0.250000  0.136946  0.940384  1
  P  P8  1  0.250000  0.760508  0.858933  1
  P  P9  1  0.750000  0.240963  0.143012  1
  P  P10  1  0.750000  0.738280  0.360754  1
  P  P11  1  0.250000  0.261325  0.640199  1
