# generated using pymatgen
data_Y7HoTi10(NbSi8)2
_symmetry_space_group_name_H-M   'P 1'
_cell_length_a   7.05955614
_cell_length_b   7.05770310
_cell_length_c   12.98247926
_cell_angle_alpha   90.00321303
_cell_angle_beta   90.02200275
_cell_angle_gamma   90.01222394
_symmetry_Int_Tables_number   1
_chemical_formula_structural   Y7HoTi10(NbSi8)2
_chemical_formula_sum   'Y7 Ho1 Ti10 Nb2 Si16'
_cell_volume   646.84224511
_cell_formula_units_Z   1
loop_
 _symmetry_equiv_pos_site_id
 _symmetry_equiv_pos_as_xyz
  1  'x, y, z'
loop_
 _atom_site_type_symbol
 _atom_site_label
 _atom_site_symmetry_multiplicity
 _atom_site_fract_x
 _atom_site_fract_y
 _atom_site_fract_z
 _atom_site_occupancy
  Y  Y0  1  0.341213  0.002243  0.466449  1
  Y  Y1  1  0.497487  0.840280  0.716779  1
  Y  Y2  1  0.501767  0.158359  0.216239  1
  Y  Y3  1  0.840925  0.497970  0.283258  1
  Y  Y4  1  0.158683  0.502321  0.783614  1
  Y  Y5  1  0.659265  0.997801  0.966754  1
  Y  Y6  1  0.002578  0.340367  0.533317  1
  Ho  Ho7  1  0.998820  0.658180  0.033613  1
  Ti  Ti8  1  0.827034  0.173620  0.749987  1
  Ti  Ti9  1  0.672933  0.673546  0.500134  1
  Ti  Ti10  1  0.152503  0.009217  0.876163  1
  Ti  Ti11  1  0.490582  0.652095  0.125414  1
  Ti  Ti12  1  0.508018  0.348371  0.625712  1
  Ti  Ti13  1  0.651410  0.491866  0.874930  1
  Ti  Ti14  1  0.347196  0.509233  0.373917  1
  Ti  Ti15  1  0.848701  0.991533  0.375150  1
  Ti  Ti16  1  0.009358  0.151918  0.124512  1
  Ti  Ti17  1  0.991922  0.848335  0.624365  1
  Nb  Nb18  1  0.326425  0.326913  0.999942  1
  Nb  Nb19  1  0.173433  0.826541  0.249907  1
  Si  Si20  1  0.201727  0.130015  0.684698  1
  Si  Si21  1  0.369447  0.702674  0.934412  1
  Si  Si22  1  0.630291  0.298167  0.434902  1
  Si  Si23  1  0.703266  0.370469  0.065295  1
  Si  Si24  1  0.298286  0.630063  0.565326  1
  Si  Si25  1  0.797463  0.869214  0.184239  1
  Si  Si26  1  0.130072  0.202889  0.315709  1
  Si  Si27  1  0.869797  0.797907  0.815416  1
  Si  Si28  1  0.291114  0.952186  0.063625  1
  Si  Si29  1  0.547923  0.790581  0.314799  1
  Si  Si30  1  0.453801  0.208548  0.813563  1
  Si  Si31  1  0.790772  0.546934  0.685379  1
  Si  Si32  1  0.208188  0.453066  0.186062  1
  Si  Si33  1  0.709146  0.046900  0.564720  1
  Si  Si34  1  0.952207  0.291231  0.935208  1
  Si  Si35  1  0.046248  0.708446  0.436489  1
