# generated using pymatgen
data_Ce2Fe2Co7P7W3
_symmetry_space_group_name_H-M   'P 1'
_cell_length_a   9.10724801
_cell_length_b   9.10533140
_cell_length_c   3.75194900
_cell_angle_alpha   90.00000000
_cell_angle_beta   90.00000000
_cell_angle_gamma   119.85535193
_symmetry_Int_Tables_number   1
_chemical_formula_structural   Ce2Fe2Co7P7W3
_chemical_formula_sum   'Ce2 Fe2 Co7 P7 W3'
_cell_volume   269.83709298
_cell_formula_units_Z   1
loop_
 _symmetry_equiv_pos_site_id
 _symmetry_equiv_pos_as_xyz
  1  'x, y, z'
loop_
 _atom_site_type_symbol
 _atom_site_label
 _atom_site_symmetry_multiplicity
 _atom_site_fract_x
 _atom_site_fract_y
 _atom_site_fract_z
 _atom_site_occupancy
  Ce  Ce0  1  0.335006  0.667389  0.000000  1
  Ce  Ce1  1  0.999698  0.999580  0.500000  1
  Fe  Fe2  1  0.510677  0.054773  0.000000  1
  Fe  Fe3  1  0.544826  0.489630  0.000000  1
  Co  Co4  1  0.732588  0.965915  0.000000  1
  Co  Co5  1  0.233865  0.268267  0.000000  1
  Co  Co6  1  0.034882  0.765164  0.000000  1
  Co  Co7  1  0.944672  0.456322  0.000000  1
  Co  Co8  1  0.104061  0.385799  0.500000  1
  Co  Co9  1  0.280837  0.894751  0.500000  1
  Co  Co10  1  0.614043  0.719455  0.500000  1
  P  P11  1  0.971201  0.227813  0.000000  1
  P  P12  1  0.257392  0.028759  0.000000  1
  P  P13  1  0.771884  0.742428  0.000000  1
  P  P14  1  0.073335  0.625032  0.500000  1
  P  P15  1  0.551269  0.928412  0.500000  1
  P  P16  1  0.377097  0.449870  0.500000  1
  P  P17  1  0.664090  0.331732  0.000000  1
  W  W18  1  0.766560  0.213664  0.500000  1
  W  W19  1  0.445665  0.232100  0.500000  1
  W  W20  1  0.786353  0.553142  0.500000  1
