# generated using pymatgen
data_Pr6Mn(TcC4)3
_symmetry_space_group_name_H-M   'P 1'
_cell_length_a   8.37831200
_cell_length_b   8.37831134
_cell_length_c   5.38291000
_cell_angle_alpha   90.00000000
_cell_angle_beta   90.00000000
_cell_angle_gamma   119.99998576
_symmetry_Int_Tables_number   1
_chemical_formula_structural   Pr6Mn(TcC4)3
_chemical_formula_sum   'Pr6 Mn1 Tc3 C12'
_cell_volume   327.23581989
_cell_formula_units_Z   1
loop_
 _symmetry_equiv_pos_site_id
 _symmetry_equiv_pos_as_xyz
  1  'x, y, z'
loop_
 _atom_site_type_symbol
 _atom_site_label
 _atom_site_symmetry_multiplicity
 _atom_site_fract_x
 _atom_site_fract_y
 _atom_site_fract_z
 _atom_site_occupancy
  Pr  Pr0  1  0.618056  0.691349  0.750000  1
  Pr  Pr1  1  0.930204  0.615458  0.250000  1
  Pr  Pr2  1  0.685252  0.069796  0.250000  1
  Pr  Pr3  1  0.308651  0.926706  0.750000  1
  Pr  Pr4  1  0.073294  0.381944  0.750000  1
  Pr  Pr5  1  0.384542  0.314748  0.250000  1
  Mn  Mn6  1  0.333333  0.666667  0.250000  1
  Tc  Tc7  1  0.000000  0.000000  0.496211  1
  Tc  Tc8  1  0.000000  0.000000  0.003789  1
  Tc  Tc9  1  0.666667  0.333333  0.750000  1
  C  C10  1  0.956967  0.776300  0.750000  1
  C  C11  1  0.191059  0.954419  0.250000  1
  C  C12  1  0.763361  0.808941  0.250000  1
  C  C13  1  0.223700  0.180667  0.750000  1
  C  C14  1  0.819333  0.043033  0.750000  1
  C  C15  1  0.045581  0.236639  0.250000  1
  C  C16  1  0.867728  0.588413  0.750000  1
  C  C17  1  0.279870  0.854494  0.250000  1
  C  C18  1  0.574623  0.720130  0.250000  1
  C  C19  1  0.411587  0.279314  0.750000  1
  C  C20  1  0.145506  0.425377  0.250000  1
  C  C21  1  0.720686  0.132272  0.750000  1
