# generated using pymatgen
data_Np(AgBr3)2
_symmetry_space_group_name_H-M   'P 1'
_cell_length_a   7.06473939
_cell_length_b   7.06132122
_cell_length_c   8.27294166
_cell_angle_alpha   115.30471760
_cell_angle_beta   90.01383982
_cell_angle_gamma   119.96042238
_symmetry_Int_Tables_number   1
_chemical_formula_structural   Np(AgBr3)2
_chemical_formula_sum   'Np1 Ag2 Br6'
_cell_volume   310.98425514
_cell_formula_units_Z   1
loop_
 _symmetry_equiv_pos_site_id
 _symmetry_equiv_pos_as_xyz
  1  'x, y, z'
loop_
 _atom_site_type_symbol
 _atom_site_label
 _atom_site_symmetry_multiplicity
 _atom_site_fract_x
 _atom_site_fract_y
 _atom_site_fract_z
 _atom_site_occupancy
  Np  Np0  1  0.000000  0.000000  0.000000  1
  Ag  Ag1  1  0.673917  0.347694  0.021690  1
  Ag  Ag2  1  0.326083  0.652307  0.978310  1
  Br  Br3  1  0.082360  0.476370  0.228968  1
  Br  Br4  1  0.393748  0.146317  0.228651  1
  Br  Br5  1  0.752805  0.835074  0.228738  1
  Br  Br6  1  0.247196  0.164926  0.771262  1
  Br  Br7  1  0.606252  0.853683  0.771349  1
  Br  Br8  1  0.917641  0.523630  0.771032  1
