# generated using pymatgen
data_Y12Ho4Cd3AgIr4
_symmetry_space_group_name_H-M   'P 1'
_cell_length_a   9.65097484
_cell_length_b   9.65097459
_cell_length_c   9.65097481
_cell_angle_alpha   59.86213388
_cell_angle_beta   59.86213442
_cell_angle_gamma   59.86214035
_symmetry_Int_Tables_number   1
_chemical_formula_structural   Y12Ho4Cd3AgIr4
_chemical_formula_sum   'Y12 Ho4 Cd3 Ag1 Ir4'
_cell_volume   633.63295401
_cell_formula_units_Z   1
loop_
 _symmetry_equiv_pos_site_id
 _symmetry_equiv_pos_as_xyz
  1  'x, y, z'
loop_
 _atom_site_type_symbol
 _atom_site_label
 _atom_site_symmetry_multiplicity
 _atom_site_fract_x
 _atom_site_fract_y
 _atom_site_fract_z
 _atom_site_occupancy
  Y  Y0  1  0.809632  0.189803  0.189803  1
  Y  Y1  1  0.188019  0.809452  0.809452  1
  Y  Y2  1  0.189803  0.809632  0.189803  1
  Y  Y3  1  0.809452  0.188019  0.809452  1
  Y  Y4  1  0.189803  0.189803  0.809632  1
  Y  Y5  1  0.809452  0.809452  0.188019  1
  Y  Y6  1  0.936821  0.561095  0.561095  1
  Y  Y7  1  0.561623  0.936845  0.936845  1
  Y  Y8  1  0.561095  0.936821  0.561095  1
  Y  Y9  1  0.936845  0.561623  0.936845  1
  Y  Y10  1  0.561095  0.561095  0.936821  1
  Y  Y11  1  0.936845  0.936845  0.561623  1
  Ho  Ho12  1  0.348853  0.348853  0.348853  1
  Ho  Ho13  1  0.349167  0.349167  0.954410  1
  Ho  Ho14  1  0.349167  0.954410  0.349167  1
  Ho  Ho15  1  0.954410  0.349167  0.349167  1
  Cd  Cd16  1  0.581136  0.581136  0.259359  1
  Cd  Cd17  1  0.581136  0.259359  0.581136  1
  Cd  Cd18  1  0.259359  0.581136  0.581136  1
  Ag  Ag19  1  0.582689  0.582689  0.582689  1
  Ir  Ir20  1  0.142578  0.142578  0.142578  1
  Ir  Ir21  1  0.143708  0.143708  0.573606  1
  Ir  Ir22  1  0.143708  0.573606  0.143708  1
  Ir  Ir23  1  0.573606  0.143708  0.143708  1
