# generated using pymatgen
data_NdY3(BeSi3)2
_symmetry_space_group_name_H-M   'P 1'
_cell_length_a   7.86413800
_cell_length_b   7.86413812
_cell_length_c   8.24355300
_cell_angle_alpha   90.00000000
_cell_angle_beta   90.00000000
_cell_angle_gamma   119.99999109
_symmetry_Int_Tables_number   1
_chemical_formula_structural   NdY3(BeSi3)2
_chemical_formula_sum   'Nd2 Y6 Be4 Si12'
_cell_volume   441.51693219
_cell_formula_units_Z   2
loop_
 _symmetry_equiv_pos_site_id
 _symmetry_equiv_pos_as_xyz
  1  'x, y, z'
loop_
 _atom_site_type_symbol
 _atom_site_label
 _atom_site_symmetry_multiplicity
 _atom_site_fract_x
 _atom_site_fract_y
 _atom_site_fract_z
 _atom_site_occupancy
  Nd  Nd0  1  0.000000  0.000000  0.250000  1
  Nd  Nd1  1  0.000000  0.000000  0.750000  1
  Y  Y2  1  0.499411  0.500589  0.250000  1
  Y  Y3  1  0.499411  0.998822  0.250000  1
  Y  Y4  1  0.001178  0.500589  0.250000  1
  Y  Y5  1  0.500589  0.499411  0.750000  1
  Y  Y6  1  0.500589  0.001178  0.750000  1
  Y  Y7  1  0.998822  0.499411  0.750000  1
  Be  Be8  1  0.333333  0.666667  0.498184  1
  Be  Be9  1  0.666667  0.333333  0.501816  1
  Be  Be10  1  0.666667  0.333333  0.998184  1
  Be  Be11  1  0.333333  0.666667  0.001816  1
  Si  Si12  1  0.173306  0.826694  0.500533  1
  Si  Si13  1  0.173306  0.346613  0.500533  1
  Si  Si14  1  0.653387  0.826694  0.500533  1
  Si  Si15  1  0.826694  0.173306  0.499467  1
  Si  Si16  1  0.826694  0.653387  0.499467  1
  Si  Si17  1  0.346613  0.173306  0.499467  1
  Si  Si18  1  0.826694  0.173306  0.000533  1
  Si  Si19  1  0.826694  0.653387  0.000533  1
  Si  Si20  1  0.346613  0.173306  0.000533  1
  Si  Si21  1  0.173306  0.826694  0.999467  1
  Si  Si22  1  0.173306  0.346613  0.999467  1
  Si  Si23  1  0.653387  0.826694  0.999467  1
