# generated using pymatgen
data_Tm8B24MoIrRh2
_symmetry_space_group_name_H-M   'P 1'
_cell_length_a   3.62527000
_cell_length_b   9.11825567
_cell_length_c   11.48096772
_cell_angle_alpha   90.27098307
_cell_angle_beta   90.00000000
_cell_angle_gamma   90.00000000
_symmetry_Int_Tables_number   1
_chemical_formula_structural   Tm8B24MoIrRh2
_chemical_formula_sum   'Tm8 B24 Mo1 Ir1 Rh2'
_cell_volume   379.51221714
_cell_formula_units_Z   1
loop_
 _symmetry_equiv_pos_site_id
 _symmetry_equiv_pos_as_xyz
  1  'x, y, z'
loop_
 _atom_site_type_symbol
 _atom_site_label
 _atom_site_symmetry_multiplicity
 _atom_site_fract_x
 _atom_site_fract_y
 _atom_site_fract_z
 _atom_site_occupancy
  Tm  Tm0  1  0.500000  0.318328  0.410186  1
  Tm  Tm1  1  0.500000  0.677177  0.584387  1
  Tm  Tm2  1  0.500000  0.179526  0.917386  1
  Tm  Tm3  1  0.500000  0.823291  0.087546  1
  Tm  Tm4  1  0.500000  0.444783  0.125895  1
  Tm  Tm5  1  0.500000  0.556096  0.872226  1
  Tm  Tm6  1  0.500000  0.056902  0.627932  1
  Tm  Tm7  1  0.500000  0.944928  0.374128  1
  B  B8  1  0.000000  0.106997  0.472610  1
  B  B9  1  0.000000  0.892086  0.530420  1
  B  B10  1  0.000000  0.395448  0.969417  1
  B  B11  1  0.000000  0.608117  0.028602  1
  B  B12  1  0.000000  0.131894  0.317392  1
  B  B13  1  0.000000  0.867416  0.683449  1
  B  B14  1  0.000000  0.368346  0.816520  1
  B  B15  1  0.000000  0.632901  0.183624  1
  B  B16  1  0.000000  0.051652  0.064284  1
  B  B17  1  0.000000  0.946108  0.933583  1
  B  B18  1  0.000000  0.445594  0.564903  1
  B  B19  1  0.000000  0.552740  0.434070  1
  B  B20  1  0.000000  0.482592  0.287237  1
  B  B21  1  0.000000  0.518040  0.711758  1
  B  B22  1  0.000000  0.017816  0.787057  1
  B  B23  1  0.000000  0.979154  0.213950  1
  B  B24  1  0.000000  0.251239  0.078036  1
  B  B25  1  0.000000  0.750832  0.920400  1
  B  B26  1  0.000000  0.250337  0.579105  1
  B  B27  1  0.000000  0.748802  0.421399  1
  B  B28  1  0.000000  0.295665  0.236184  1
  B  B29  1  0.000000  0.706195  0.763711  1
  B  B30  1  0.000000  0.207690  0.736641  1
  B  B31  1  0.000000  0.792185  0.266010  1
  Mo  Mo32  1  0.500000  0.137994  0.179089  1
  Ir  Ir33  1  0.500000  0.860935  0.820639  1
  Rh  Rh34  1  0.500000  0.361596  0.678968  1
  Rh  Rh35  1  0.500000  0.638600  0.321258  1
