# generated using pymatgen
data_Tb18Dy2Ir11Au
_symmetry_space_group_name_H-M   'P 1'
_cell_length_a   11.00106024
_cell_length_b   11.00106007
_cell_length_c   6.37407075
_cell_angle_alpha   90.00477334
_cell_angle_beta   90.00477264
_cell_angle_gamma   89.47210735
_symmetry_Int_Tables_number   1
_chemical_formula_structural   Tb18Dy2Ir11Au
_chemical_formula_sum   'Tb18 Dy2 Ir11 Au1'
_cell_volume   771.37848548
_cell_formula_units_Z   1
loop_
 _symmetry_equiv_pos_site_id
 _symmetry_equiv_pos_as_xyz
  1  'x, y, z'
loop_
 _atom_site_type_symbol
 _atom_site_label
 _atom_site_symmetry_multiplicity
 _atom_site_fract_x
 _atom_site_fract_y
 _atom_site_fract_z
 _atom_site_occupancy
  Tb  Tb0  1  0.289882  0.088166  0.377364  1
  Tb  Tb1  1  0.293040  0.910567  0.877018  1
  Tb  Tb2  1  0.703981  0.084503  0.865803  1
  Tb  Tb3  1  0.704993  0.903897  0.381187  1
  Tb  Tb4  1  0.588200  0.790765  0.879997  1
  Tb  Tb5  1  0.579182  0.210157  0.378716  1
  Tb  Tb6  1  0.410352  0.790870  0.378671  1
  Tb  Tb7  1  0.409296  0.207973  0.878741  1
  Tb  Tb8  1  0.209235  0.411800  0.620003  1
  Tb  Tb9  1  0.209130  0.589648  0.121329  1
  Tb  Tb10  1  0.789843  0.420818  0.121284  1
  Tb  Tb11  1  0.792027  0.590704  0.621259  1
  Tb  Tb12  1  0.911834  0.710118  0.122636  1
  Tb  Tb13  1  0.915497  0.296019  0.634197  1
  Tb  Tb14  1  0.089433  0.706960  0.622982  1
  Tb  Tb15  1  0.096103  0.295007  0.118813  1
  Tb  Tb16  1  0.003164  0.995555  0.501106  1
  Tb  Tb17  1  0.004445  0.996836  0.998894  1
  Dy  Dy18  1  0.498823  0.499067  0.998680  1
  Dy  Dy19  1  0.500933  0.501177  0.501320  1
  Ir  Ir20  1  0.846718  0.848195  0.749499  1
  Ir  Ir21  1  0.151805  0.153282  0.750501  1
  Ir  Ir22  1  0.155676  0.844324  0.250000  1
  Ir  Ir23  1  0.654992  0.345008  0.750000  1
  Ir  Ir24  1  0.653427  0.651746  0.248358  1
  Ir  Ir25  1  0.348254  0.346573  0.251642  1
  Ir  Ir26  1  0.346666  0.653334  0.750000  1
  Ir  Ir27  1  0.500452  0.999926  0.125977  1
  Ir  Ir28  1  0.499338  0.000246  0.621756  1
  Ir  Ir29  1  0.999754  0.500662  0.878244  1
  Ir  Ir30  1  0.000074  0.499548  0.374023  1
  Au  Au31  1  0.843451  0.156549  0.250000  1
