# generated using pymatgen
data_DyY2Tm3MnSb2
_symmetry_space_group_name_H-M   'P 1'
_cell_length_a   8.10409700
_cell_length_b   8.11491802
_cell_length_c   4.25537500
_cell_angle_alpha   90.00000000
_cell_angle_beta   90.00000000
_cell_angle_gamma   119.95588667
_symmetry_Int_Tables_number   1
_chemical_formula_structural   DyY2Tm3MnSb2
_chemical_formula_sum   'Dy1 Y2 Tm3 Mn1 Sb2'
_cell_volume   242.46559117
_cell_formula_units_Z   1
loop_
 _symmetry_equiv_pos_site_id
 _symmetry_equiv_pos_as_xyz
  1  'x, y, z'
loop_
 _atom_site_type_symbol
 _atom_site_label
 _atom_site_symmetry_multiplicity
 _atom_site_fract_x
 _atom_site_fract_y
 _atom_site_fract_z
 _atom_site_occupancy
  Dy  Dy0  1  0.604798  0.000000  0.000000  1
  Y  Y1  1  0.999932  0.602660  0.000000  1
  Y  Y2  1  0.397272  0.397340  0.000000  1
  Tm  Tm3  1  0.234481  0.000000  0.500000  1
  Tm  Tm4  1  0.999763  0.234492  0.500000  1
  Tm  Tm5  1  0.765271  0.765508  0.500000  1
  Mn  Mn6  1  0.998243  0.000000  0.000000  1
  Sb  Sb7  1  0.333732  0.667225  0.500000  1
  Sb  Sb8  1  0.666510  0.332775  0.500000  1
