# generated using pymatgen
data_Ca2In5Ag6
_symmetry_space_group_name_H-M   'P 1'
_cell_length_a   9.53438200
_cell_length_b   9.53438200
_cell_length_c   9.53438200
_cell_angle_alpha   90.00000000
_cell_angle_beta   90.00000000
_cell_angle_gamma   90.00000000
_symmetry_Int_Tables_number   1
_chemical_formula_structural   Ca2In5Ag6
_chemical_formula_sum   'Ca6 In15 Ag18'
_cell_volume   866.71765762
_cell_formula_units_Z   3
loop_
 _symmetry_equiv_pos_site_id
 _symmetry_equiv_pos_as_xyz
  1  'x, y, z'
loop_
 _atom_site_type_symbol
 _atom_site_label
 _atom_site_symmetry_multiplicity
 _atom_site_fract_x
 _atom_site_fract_y
 _atom_site_fract_z
 _atom_site_occupancy
  Ca  Ca0  1  0.500000  0.808541  0.000000  1
  Ca  Ca1  1  0.500000  0.191459  0.000000  1
  Ca  Ca2  1  0.808541  0.000000  0.500000  1
  Ca  Ca3  1  0.000000  0.500000  0.808541  1
  Ca  Ca4  1  0.000000  0.500000  0.191459  1
  Ca  Ca5  1  0.191459  0.000000  0.500000  1
  In  In6  1  0.282049  0.282049  0.717951  1
  In  In7  1  0.717951  0.717951  0.282049  1
  In  In8  1  0.717951  0.282049  0.717951  1
  In  In9  1  0.500000  0.000000  0.332350  1
  In  In10  1  0.500000  0.000000  0.667650  1
  In  In11  1  0.332350  0.500000  0.000000  1
  In  In12  1  0.667650  0.500000  0.000000  1
  In  In13  1  0.000000  0.332350  0.500000  1
  In  In14  1  0.717951  0.717951  0.717951  1
  In  In15  1  0.282049  0.717951  0.282049  1
  In  In16  1  0.000000  0.667650  0.500000  1
  In  In17  1  0.282049  0.717951  0.717951  1
  In  In18  1  0.717951  0.282049  0.282049  1
  In  In19  1  0.282049  0.282049  0.282049  1
  In  In20  1  0.000000  0.000000  0.000000  1
  Ag  Ag21  1  0.841743  0.739350  0.000000  1
  Ag  Ag22  1  0.260650  0.000000  0.158257  1
  Ag  Ag23  1  0.000000  0.158257  0.739350  1
  Ag  Ag24  1  0.158257  0.260650  0.000000  1
  Ag  Ag25  1  0.841743  0.260650  0.000000  1
  Ag  Ag26  1  0.727625  0.500000  0.500000  1
  Ag  Ag27  1  0.000000  0.841743  0.739350  1
  Ag  Ag28  1  0.158257  0.739350  0.000000  1
  Ag  Ag29  1  0.739350  0.000000  0.158257  1
  Ag  Ag30  1  0.000000  0.158257  0.260650  1
  Ag  Ag31  1  0.500000  0.500000  0.272375  1
  Ag  Ag32  1  0.500000  0.500000  0.727625  1
  Ag  Ag33  1  0.500000  0.727625  0.500000  1
  Ag  Ag34  1  0.260650  0.000000  0.841743  1
  Ag  Ag35  1  0.272375  0.500000  0.500000  1
  Ag  Ag36  1  0.739350  0.000000  0.841743  1
  Ag  Ag37  1  0.000000  0.841743  0.260650  1
  Ag  Ag38  1  0.500000  0.272375  0.500000  1
