# generated using pymatgen
data_BaSb12Ru3Pt
_symmetry_space_group_name_H-M   'P 1'
_cell_length_a   8.19604076
_cell_length_b   8.19604032
_cell_length_c   8.19985900
_cell_angle_alpha   109.48066401
_cell_angle_beta   109.48066290
_cell_angle_gamma   109.46177432
_symmetry_Int_Tables_number   1
_chemical_formula_structural   BaSb12Ru3Pt
_chemical_formula_sum   'Ba1 Sb12 Ru3 Pt1'
_cell_volume   423.97678263
_cell_formula_units_Z   1
loop_
 _symmetry_equiv_pos_site_id
 _symmetry_equiv_pos_as_xyz
  1  'x, y, z'
loop_
 _atom_site_type_symbol
 _atom_site_label
 _atom_site_symmetry_multiplicity
 _atom_site_fract_x
 _atom_site_fract_y
 _atom_site_fract_z
 _atom_site_occupancy
  Ba  Ba0  1  0.000000  0.000000  0.000000  1
  Sb  Sb1  1  0.160240  0.810410  0.659659  1
  Sb  Sb2  1  0.158799  0.499603  0.339935  1
  Sb  Sb3  1  0.500397  0.659196  0.840332  1
  Sb  Sb4  1  0.340804  0.841201  0.181136  1
  Sb  Sb5  1  0.810410  0.650170  0.150751  1
  Sb  Sb6  1  0.650170  0.839760  0.499419  1
  Sb  Sb7  1  0.189590  0.349830  0.849249  1
  Sb  Sb8  1  0.659196  0.158799  0.818864  1
  Sb  Sb9  1  0.349830  0.160240  0.500581  1
  Sb  Sb10  1  0.499603  0.340804  0.159668  1
  Sb  Sb11  1  0.841201  0.500397  0.660065  1
  Sb  Sb12  1  0.839760  0.189590  0.340341  1
  Ru  Ru13  1  0.500000  0.500000  0.500000  1
  Ru  Ru14  1  0.500000  0.000000  0.000000  1
  Ru  Ru15  1  0.000000  0.500000  0.000000  1
  Pt  Pt16  1  0.000000  0.000000  0.500000  1
