# generated using pymatgen
data_Ba3Dy(BO3)3
_symmetry_space_group_name_H-M   'P 1'
_cell_length_a   8.22751831
_cell_length_b   8.22751925
_cell_length_c   8.22751840
_cell_angle_alpha   105.59340054
_cell_angle_beta   105.59340793
_cell_angle_gamma   105.59340896
_symmetry_Int_Tables_number   1
_chemical_formula_structural   Ba3Dy(BO3)3
_chemical_formula_sum   'Ba6 Dy2 B6 O18'
_cell_volume   480.51102448
_cell_formula_units_Z   2
loop_
 _symmetry_equiv_pos_site_id
 _symmetry_equiv_pos_as_xyz
  1  'x, y, z'
loop_
 _atom_site_type_symbol
 _atom_site_label
 _atom_site_symmetry_multiplicity
 _atom_site_fract_x
 _atom_site_fract_y
 _atom_site_fract_z
 _atom_site_occupancy
  Ba  Ba0  1  0.348686  0.734743  0.840802  1
  Ba  Ba1  1  0.840802  0.348686  0.734743  1
  Ba  Ba2  1  0.734743  0.840802  0.348686  1
  Ba  Ba3  1  0.651314  0.265257  0.159198  1
  Ba  Ba4  1  0.159198  0.651314  0.265257  1
  Ba  Ba5  1  0.265257  0.159198  0.651314  1
  Dy  Dy6  1  0.500000  0.500000  0.500000  1
  Dy  Dy7  1  0.000000  0.000000  0.000000  1
  B  B8  1  0.710784  0.624002  0.956394  1
  B  B9  1  0.956394  0.710784  0.624002  1
  B  B10  1  0.624002  0.956394  0.710784  1
  B  B11  1  0.043606  0.289216  0.375998  1
  B  B12  1  0.375998  0.043606  0.289216  1
  B  B13  1  0.289216  0.375998  0.043606  1
  O  O14  1  0.064438  0.805188  0.551981  1
  O  O15  1  0.551981  0.064438  0.805188  1
  O  O16  1  0.426072  0.490552  0.211969  1
  O  O17  1  0.490552  0.211969  0.426072  1
  O  O18  1  0.211969  0.426072  0.490552  1
  O  O19  1  0.788031  0.573928  0.509448  1
  O  O20  1  0.573928  0.509448  0.788031  1
  O  O21  1  0.509448  0.788031  0.573928  1
  O  O22  1  0.255801  0.189867  0.984991  1
  O  O23  1  0.189867  0.984991  0.255801  1
  O  O24  1  0.984991  0.255801  0.189867  1
  O  O25  1  0.744199  0.810133  0.015009  1
  O  O26  1  0.810133  0.015009  0.744199  1
  O  O27  1  0.015009  0.744199  0.810133  1
  O  O28  1  0.194812  0.448019  0.935562  1
  O  O29  1  0.448019  0.935562  0.194812  1
  O  O30  1  0.935562  0.194812  0.448019  1
  O  O31  1  0.805188  0.551981  0.064438  1
