# generated using pymatgen
data_Dy12Co4CuPb
_symmetry_space_group_name_H-M   'P 1'
_cell_length_a   8.29957013
_cell_length_b   8.29957063
_cell_length_c   8.29957060
_cell_angle_alpha   106.89160200
_cell_angle_beta   110.30622982
_cell_angle_gamma   111.24768865
_symmetry_Int_Tables_number   1
_chemical_formula_structural   Dy12Co4CuPb
_chemical_formula_sum   'Dy12 Co4 Cu1 Pb1'
_cell_volume   439.39708088
_cell_formula_units_Z   1
loop_
 _symmetry_equiv_pos_site_id
 _symmetry_equiv_pos_as_xyz
  1  'x, y, z'
loop_
 _atom_site_type_symbol
 _atom_site_label
 _atom_site_symmetry_multiplicity
 _atom_site_fract_x
 _atom_site_fract_y
 _atom_site_fract_z
 _atom_site_occupancy
  Dy  Dy0  1  0.475582  0.290632  0.184951  1
  Dy  Dy1  1  0.105681  0.290632  0.815049  1
  Dy  Dy2  1  0.894319  0.709368  0.184951  1
  Dy  Dy3  1  0.524418  0.709368  0.815049  1
  Dy  Dy4  1  0.305860  0.620384  0.314524  1
  Dy  Dy5  1  0.305860  0.991336  0.685476  1
  Dy  Dy6  1  0.694140  0.379616  0.685476  1
  Dy  Dy7  1  0.694140  0.008664  0.314524  1
  Dy  Dy8  1  0.199942  0.214433  0.414373  1
  Dy  Dy9  1  0.800058  0.785567  0.585627  1
  Dy  Dy10  1  0.199942  0.785567  0.985508  1
  Dy  Dy11  1  0.800058  0.214433  0.014492  1
  Co  Co12  1  0.500000  0.612467  0.112467  1
  Co  Co13  1  0.500000  0.387533  0.887533  1
  Co  Co14  1  0.376766  0.000000  0.376766  1
  Co  Co15  1  0.623234  0.000000  0.623234  1
  Cu  Cu16  1  0.000000  0.000000  0.000000  1
  Pb  Pb17  1  0.000000  0.500000  0.500000  1
