# generated using pymatgen
data_LaSmEr4Ta2O14
_symmetry_space_group_name_H-M   'P 1'
_cell_length_a   6.47741572
_cell_length_b   6.47741579
_cell_length_c   7.58339928
_cell_angle_alpha   89.97468916
_cell_angle_beta   90.02530608
_cell_angle_gamma   109.16755895
_symmetry_Int_Tables_number   1
_chemical_formula_structural   LaSmEr4Ta2O14
_chemical_formula_sum   'La1 Sm1 Er4 Ta2 O14'
_cell_volume   300.53708539
_cell_formula_units_Z   1
loop_
 _symmetry_equiv_pos_site_id
 _symmetry_equiv_pos_as_xyz
  1  'x, y, z'
loop_
 _atom_site_type_symbol
 _atom_site_label
 _atom_site_symmetry_multiplicity
 _atom_site_fract_x
 _atom_site_fract_y
 _atom_site_fract_z
 _atom_site_occupancy
  La  La0  1  0.500000  0.500000  0.500000  1
  Sm  Sm1  1  0.500000  0.500000  0.000000  1
  Er  Er2  1  0.532846  0.001390  0.751508  1
  Er  Er3  1  0.001390  0.532846  0.248492  1
  Er  Er4  1  0.467154  0.998610  0.248492  1
  Er  Er5  1  0.998610  0.467154  0.751508  1
  Ta  Ta6  1  0.000000  0.000000  0.500000  1
  Ta  Ta7  1  0.000000  0.000000  0.000000  1
  O  O8  1  0.679076  0.933482  0.466880  1
  O  O9  1  0.933482  0.679076  0.533120  1
  O  O10  1  0.678583  0.930129  0.032669  1
  O  O11  1  0.930129  0.678583  0.967331  1
  O  O12  1  0.320924  0.066518  0.533120  1
  O  O13  1  0.066518  0.320924  0.466880  1
  O  O14  1  0.321417  0.069871  0.967331  1
  O  O15  1  0.069871  0.321417  0.032669  1
  O  O16  1  0.934624  0.065376  0.749980  1
  O  O17  1  0.065376  0.934624  0.250020  1
  O  O18  1  0.362799  0.637200  0.755490  1
  O  O19  1  0.637200  0.362799  0.244510  1
  O  O20  1  0.643921  0.356079  0.754457  1
  O  O21  1  0.356079  0.643921  0.245543  1
