# generated using pymatgen
data_TbEr2CoSn6
_symmetry_space_group_name_H-M   'P 1'
_cell_length_a   8.45848315
_cell_length_b   8.45848335
_cell_length_c   13.12472900
_cell_angle_alpha   90.00000000
_cell_angle_beta   90.00000000
_cell_angle_gamma   148.85436054
_symmetry_Int_Tables_number   1
_chemical_formula_structural   TbEr2CoSn6
_chemical_formula_sum   'Tb2 Er4 Co2 Sn12'
_cell_volume   485.67599533
_cell_formula_units_Z   2
loop_
 _symmetry_equiv_pos_site_id
 _symmetry_equiv_pos_as_xyz
  1  'x, y, z'
loop_
 _atom_site_type_symbol
 _atom_site_label
 _atom_site_symmetry_multiplicity
 _atom_site_fract_x
 _atom_site_fract_y
 _atom_site_fract_z
 _atom_site_occupancy
  Tb  Tb0  1  0.899844  0.100156  0.093336  1
  Tb  Tb1  1  0.100156  0.899844  0.593336  1
  Er  Er2  1  0.899693  0.100307  0.750170  1
  Er  Er3  1  0.101250  0.898750  0.906140  1
  Er  Er4  1  0.100307  0.899693  0.250170  1
  Er  Er5  1  0.898750  0.101250  0.406140  1
  Co  Co6  1  0.300247  0.699753  0.250343  1
  Co  Co7  1  0.699753  0.300247  0.750343  1
  Sn  Sn8  1  0.755923  0.244077  0.571874  1
  Sn  Sn9  1  0.427150  0.572850  0.575653  1
  Sn  Sn10  1  0.572435  0.427565  0.423169  1
  Sn  Sn11  1  0.733597  0.266403  0.250130  1
  Sn  Sn12  1  0.266403  0.733597  0.750130  1
  Sn  Sn13  1  0.244077  0.755923  0.071874  1
  Sn  Sn14  1  0.244932  0.755068  0.428668  1
  Sn  Sn15  1  0.572850  0.427150  0.075653  1
  Sn  Sn16  1  0.454677  0.545323  0.250517  1
  Sn  Sn17  1  0.545323  0.454677  0.750517  1
  Sn  Sn18  1  0.755068  0.244932  0.928668  1
  Sn  Sn19  1  0.427565  0.572435  0.923169  1
