# generated using pymatgen
data_MnV3Cr2
_symmetry_space_group_name_H-M   'P 1'
_cell_length_a   4.09612214
_cell_length_b   4.09477761
_cell_length_c   5.03929485
_cell_angle_alpha   89.98896358
_cell_angle_beta   89.99772891
_cell_angle_gamma   120.00307887
_symmetry_Int_Tables_number   1
_chemical_formula_structural   MnV3Cr2
_chemical_formula_sum   'Mn1 V3 Cr2'
_cell_volume   73.19646909
_cell_formula_units_Z   1
loop_
 _symmetry_equiv_pos_site_id
 _symmetry_equiv_pos_as_xyz
  1  'x, y, z'
loop_
 _atom_site_type_symbol
 _atom_site_label
 _atom_site_symmetry_multiplicity
 _atom_site_fract_x
 _atom_site_fract_y
 _atom_site_fract_z
 _atom_site_occupancy
  Mn  Mn0  1  0.050673  0.055858  0.519398  1
  V  V1  1  0.384049  0.722477  0.684918  1
  V  V2  1  0.717472  0.389200  0.353860  1
  V  V3  1  0.050762  0.055833  0.019378  1
  Cr  Cr4  1  0.384006  0.722518  0.185631  1
  Cr  Cr5  1  0.717287  0.389170  0.853187  1
