# generated using pymatgen
data_K2TmLu3(Cu3Se5)2
_symmetry_space_group_name_H-M   'P 1'
_cell_length_a   4.08162000
_cell_length_b   7.47963069
_cell_length_c   16.75942708
_cell_angle_alpha   89.98942243
_cell_angle_beta   90.00000000
_cell_angle_gamma   74.16612852
_symmetry_Int_Tables_number   1
_chemical_formula_structural   K2TmLu3(Cu3Se5)2
_chemical_formula_sum   'K2 Tm1 Lu3 Cu6 Se10'
_cell_volume   492.23515357
_cell_formula_units_Z   1
loop_
 _symmetry_equiv_pos_site_id
 _symmetry_equiv_pos_as_xyz
  1  'x, y, z'
loop_
 _atom_site_type_symbol
 _atom_site_label
 _atom_site_symmetry_multiplicity
 _atom_site_fract_x
 _atom_site_fract_y
 _atom_site_fract_z
 _atom_site_occupancy
  K  K0  1  0.061394  0.877212  0.250020  1
  K  K1  1  0.938622  0.122759  0.749995  1
  Tm  Tm2  1  0.191662  0.616676  0.907101  1
  Lu  Lu3  1  0.808460  0.383081  0.092928  1
  Lu  Lu4  1  0.808443  0.383116  0.407108  1
  Lu  Lu5  1  0.191578  0.616843  0.592846  1
  Cu  Cu6  1  0.584749  0.830503  0.028936  1
  Cu  Cu7  1  0.340109  0.319782  0.250021  1
  Cu  Cu8  1  0.584755  0.830490  0.471056  1
  Cu  Cu9  1  0.415238  0.169523  0.528930  1
  Cu  Cu10  1  0.659849  0.680303  0.750027  1
  Cu  Cu11  1  0.415166  0.169668  0.971029  1
  Se  Se12  1  0.167263  0.665473  0.072688  1
  Se  Se13  1  0.439509  0.120982  0.119007  1
  Se  Se14  1  0.749750  0.500501  0.249994  1
  Se  Se15  1  0.439501  0.120998  0.380999  1
  Se  Se16  1  0.167365  0.665269  0.427912  1
  Se  Se17  1  0.832658  0.334684  0.572056  1
  Se  Se18  1  0.560517  0.878968  0.619022  1
  Se  Se19  1  0.250469  0.499064  0.749403  1
  Se  Se20  1  0.559754  0.880495  0.880829  1
  Se  Se21  1  0.833196  0.333608  0.928093  1
