# generated using pymatgen
data_Nd2UCo2Si7
_symmetry_space_group_name_H-M   'P 1'
_cell_length_a   4.06676646
_cell_length_b   4.09870000
_cell_length_c   12.46515373
_cell_angle_alpha   90.00000000
_cell_angle_beta   99.38835754
_cell_angle_gamma   90.00000000
_symmetry_Int_Tables_number   1
_chemical_formula_structural   Nd2UCo2Si7
_chemical_formula_sum   'Nd2 U1 Co2 Si7'
_cell_volume   204.99178647
_cell_formula_units_Z   1
loop_
 _symmetry_equiv_pos_site_id
 _symmetry_equiv_pos_as_xyz
  1  'x, y, z'
loop_
 _atom_site_type_symbol
 _atom_site_label
 _atom_site_symmetry_multiplicity
 _atom_site_fract_x
 _atom_site_fract_y
 _atom_site_fract_z
 _atom_site_occupancy
  Nd  Nd0  1  0.317202  0.000000  0.634406  1
  Nd  Nd1  1  0.682798  0.000000  0.365594  1
  U  U2  1  0.000000  0.500000  0.000000  1
  Co  Co3  1  0.125116  0.500000  0.250231  1
  Co  Co4  1  0.874884  0.500000  0.749769  1
  Si  Si5  1  0.500000  0.000000  0.000000  1
  Si  Si6  1  0.415016  0.500000  0.830031  1
  Si  Si7  1  0.584984  0.500000  0.169969  1
  Si  Si8  1  0.084859  0.000000  0.169717  1
  Si  Si9  1  0.915141  0.000000  0.830283  1
  Si  Si10  1  0.220721  0.500000  0.441441  1
  Si  Si11  1  0.779279  0.500000  0.558559  1
