# generated using pymatgen
data_Tm7Lu3(Zn2Bi)2
_symmetry_space_group_name_H-M   'P 1'
_cell_length_a   8.52263985
_cell_length_b   8.52263971
_cell_length_c   8.51997431
_cell_angle_alpha   123.83985565
_cell_angle_beta   123.83985553
_cell_angle_gamma   83.50254599
_symmetry_Int_Tables_number   1
_chemical_formula_structural   Tm7Lu3(Zn2Bi)2
_chemical_formula_sum   'Tm7 Lu3 Zn4 Bi2'
_cell_volume   409.17368073
_cell_formula_units_Z   1
loop_
 _symmetry_equiv_pos_site_id
 _symmetry_equiv_pos_as_xyz
  1  'x, y, z'
loop_
 _atom_site_type_symbol
 _atom_site_label
 _atom_site_symmetry_multiplicity
 _atom_site_fract_x
 _atom_site_fract_y
 _atom_site_fract_z
 _atom_site_occupancy
  Tm  Tm0  1  0.205019  0.705019  0.194453  1
  Tm  Tm1  1  0.489617  0.989617  0.195137  1
  Tm  Tm2  1  0.294692  0.489360  0.500089  1
  Tm  Tm3  1  0.010619  0.205179  0.500069  1
  Tm  Tm4  1  0.510514  0.010514  0.805174  1
  Tm  Tm5  1  0.705179  0.510619  0.500069  1
  Tm  Tm6  1  0.989360  0.794692  0.500089  1
  Lu  Lu7  1  0.999904  0.000137  0.999852  1
  Lu  Lu8  1  0.500137  0.499904  0.999852  1
  Lu  Lu9  1  0.794199  0.294199  0.804849  1
  Zn  Zn10  1  0.138605  0.638605  0.777045  1
  Zn  Zn11  1  0.861454  0.361454  0.222639  1
  Zn  Zn12  1  0.638702  0.861902  0.500300  1
  Zn  Zn13  1  0.361902  0.138702  0.500300  1
  Bi  Bi14  1  0.249969  0.250128  0.000042  1
  Bi  Bi15  1  0.750128  0.749969  0.000042  1
