# generated using pymatgen
data_Er2Pa2TlInPd4
_symmetry_space_group_name_H-M   'P 1'
_cell_length_a   7.91594223
_cell_length_b   7.77841023
_cell_length_c   3.62880400
_cell_angle_alpha   90.00000000
_cell_angle_beta   90.00000000
_cell_angle_gamma   89.97226177
_symmetry_Int_Tables_number   1
_chemical_formula_structural   Er2Pa2TlInPd4
_chemical_formula_sum   'Er2 Pa2 Tl1 In1 Pd4'
_cell_volume   223.43794103
_cell_formula_units_Z   1
loop_
 _symmetry_equiv_pos_site_id
 _symmetry_equiv_pos_as_xyz
  1  'x, y, z'
loop_
 _atom_site_type_symbol
 _atom_site_label
 _atom_site_symmetry_multiplicity
 _atom_site_fract_x
 _atom_site_fract_y
 _atom_site_fract_z
 _atom_site_occupancy
  Er  Er0  1  0.174418  0.327603  0.500000  1
  Er  Er1  1  0.671913  0.174578  0.500000  1
  Pa  Pa2  1  0.330338  0.831242  0.500000  1
  Pa  Pa3  1  0.827849  0.666572  0.500000  1
  Tl  Tl4  1  0.996542  0.008781  0.000000  1
  In  In5  1  0.496359  0.491388  0.000000  1
  Pd  Pd6  1  0.374892  0.117062  0.000000  1
  Pd  Pd7  1  0.870785  0.386710  0.000000  1
  Pd  Pd8  1  0.130402  0.638949  0.000000  1
  Pd  Pd9  1  0.626502  0.857116  0.000000  1
