# generated using pymatgen
data_DyEr15(Ga3Ir)2
_symmetry_space_group_name_H-M   'P 1'
_cell_length_a   9.98381900
_cell_length_b   9.98389022
_cell_length_c   6.95926800
_cell_angle_alpha   90.00029591
_cell_angle_beta   90.00157660
_cell_angle_gamma   119.99938665
_symmetry_Int_Tables_number   1
_chemical_formula_structural   DyEr15(Ga3Ir)2
_chemical_formula_sum   'Dy1 Er15 Ga6 Ir2'
_cell_volume   600.74943796
_cell_formula_units_Z   1
loop_
 _symmetry_equiv_pos_site_id
 _symmetry_equiv_pos_as_xyz
  1  'x, y, z'
loop_
 _atom_site_type_symbol
 _atom_site_label
 _atom_site_symmetry_multiplicity
 _atom_site_fract_x
 _atom_site_fract_y
 _atom_site_fract_z
 _atom_site_occupancy
  Dy  Dy0  1  0.000004  0.000001  0.267896  1
  Er  Er1  1  0.000022  0.999999  0.767485  1
  Er  Er2  1  0.171193  0.828817  0.990945  1
  Er  Er3  1  0.828814  0.171171  0.491406  1
  Er  Er4  1  0.171177  0.342376  0.990972  1
  Er  Er5  1  0.657628  0.828824  0.990962  1
  Er  Er6  1  0.342348  0.171180  0.491405  1
  Er  Er7  1  0.828820  0.657654  0.491391  1
  Er  Er8  1  0.333332  0.666673  0.663391  1
  Er  Er9  1  0.666657  0.333330  0.163162  1
  Er  Er10  1  0.465799  0.534213  0.295127  1
  Er  Er11  1  0.534225  0.465779  0.795118  1
  Er  Er12  1  0.465795  0.931576  0.295107  1
  Er  Er13  1  0.068418  0.534202  0.295138  1
  Er  Er14  1  0.931563  0.465779  0.795124  1
  Er  Er15  1  0.534205  0.068434  0.795122  1
  Ga  Ga16  1  0.163559  0.836439  0.542229  1
  Ga  Ga17  1  0.836403  0.163574  0.041809  1
  Ga  Ga18  1  0.163556  0.327115  0.542214  1
  Ga  Ga19  1  0.672888  0.836449  0.542217  1
  Ga  Ga20  1  0.327177  0.163584  0.041793  1
  Ga  Ga21  1  0.836409  0.672820  0.041788  1
  Ir  Ir22  1  0.333340  0.666684  0.057330  1
  Ir  Ir23  1  0.666668  0.333328  0.556987  1
