# generated using pymatgen
data_La10Mg4Os5Ru
_symmetry_space_group_name_H-M   'P 1'
_cell_length_a   8.76891944
_cell_length_b   8.76086202
_cell_length_c   8.76086260
_cell_angle_alpha   109.57361562
_cell_angle_beta   109.38595926
_cell_angle_gamma   109.41701304
_symmetry_Int_Tables_number   1
_chemical_formula_structural   La10Mg4Os5Ru
_chemical_formula_sum   'La10 Mg4 Os5 Ru1'
_cell_volume   518.34085896
_cell_formula_units_Z   1
loop_
 _symmetry_equiv_pos_site_id
 _symmetry_equiv_pos_as_xyz
  1  'x, y, z'
loop_
 _atom_site_type_symbol
 _atom_site_label
 _atom_site_symmetry_multiplicity
 _atom_site_fract_x
 _atom_site_fract_y
 _atom_site_fract_z
 _atom_site_occupancy
  La  La0  1  0.790521  0.999331  0.999822  1
  La  La1  1  0.250000  0.317460  0.067460  1
  La  La2  1  0.709481  0.709303  0.208812  1
  La  La3  1  0.184580  0.933748  0.251476  1
  La  La4  1  0.999751  0.499775  0.289667  1
  La  La5  1  0.750000  0.182428  0.432428  1
  La  La6  1  0.500250  0.789917  0.500023  1
  La  La7  1  0.933421  0.750589  0.681962  1
  La  La8  1  0.315420  0.566896  0.749168  1
  La  La9  1  0.566579  0.248541  0.817167  1
  Mg  Mg10  1  0.411057  0.999978  0.000057  1
  Mg  Mg11  1  0.499894  0.410981  0.500020  1
  Mg  Mg12  1  0.088943  0.089000  0.588921  1
  Mg  Mg13  1  0.000106  0.500126  0.911086  1
  Os  Os14  1  0.380358  0.749929  0.129991  1
  Os  Os15  1  0.630472  0.380907  0.250166  1
  Os  Os16  1  0.119642  0.249633  0.369571  1
  Os  Os17  1  0.250000  0.870196  0.620197  1
  Os  Os18  1  0.869527  0.119694  0.750435  1
  Ru  Ru19  1  0.750000  0.631573  0.881573  1
