# generated using pymatgen
data_Ho7Tm3IrOs3
_symmetry_space_group_name_H-M   'P 1'
_cell_length_a   6.35407916
_cell_length_b   7.31692459
_cell_length_c   8.33559492
_cell_angle_alpha   96.76052225
_cell_angle_beta   112.34937332
_cell_angle_gamma   90.05714290
_symmetry_Int_Tables_number   1
_chemical_formula_structural   Ho7Tm3IrOs3
_chemical_formula_sum   'Ho7 Tm3 Ir1 Os3'
_cell_volume   355.49568559
_cell_formula_units_Z   1
loop_
 _symmetry_equiv_pos_site_id
 _symmetry_equiv_pos_as_xyz
  1  'x, y, z'
loop_
 _atom_site_type_symbol
 _atom_site_label
 _atom_site_symmetry_multiplicity
 _atom_site_fract_x
 _atom_site_fract_y
 _atom_site_fract_z
 _atom_site_occupancy
  Ho  Ho0  1  0.969755  0.915860  0.179681  1
  Ho  Ho1  1  0.789728  0.581700  0.817976  1
  Ho  Ho2  1  0.025763  0.083485  0.814991  1
  Ho  Ho3  1  0.209113  0.419072  0.180141  1
  Ho  Ho4  1  0.649610  0.816741  0.439007  1
  Ho  Ho5  1  0.210001  0.681906  0.562325  1
  Ho  Ho6  1  0.351156  0.181909  0.563495  1
  Tm  Tm7  1  0.792987  0.319637  0.438590  1
  Tm  Tm8  1  0.422726  0.748906  0.999322  1
  Tm  Tm9  1  0.577900  0.250659  0.999899  1
  Ir  Ir10  1  0.395900  0.076910  0.220509  1
  Os  Os11  1  0.821925  0.575177  0.217463  1
  Os  Os12  1  0.607020  0.924629  0.783101  1
  Os  Os13  1  0.176419  0.423412  0.783500  1
