# generated using pymatgen
data_Sm8Dy11ScSi15Ag
_symmetry_space_group_name_H-M   'P 1'
_cell_length_a   7.46265382
_cell_length_b   7.73254611
_cell_length_c   14.73960418
_cell_angle_alpha   89.92975400
_cell_angle_beta   89.57098914
_cell_angle_gamma   90.34858013
_symmetry_Int_Tables_number   1
_chemical_formula_structural   Sm8Dy11ScSi15Ag
_chemical_formula_sum   'Sm8 Dy11 Sc1 Si15 Ag1'
_cell_volume   850.51322787
_cell_formula_units_Z   1
loop_
 _symmetry_equiv_pos_site_id
 _symmetry_equiv_pos_as_xyz
  1  'x, y, z'
loop_
 _atom_site_type_symbol
 _atom_site_label
 _atom_site_symmetry_multiplicity
 _atom_site_fract_x
 _atom_site_fract_y
 _atom_site_fract_z
 _atom_site_occupancy
  Sm  Sm0  1  0.019321  0.179849  0.099952  1
  Sm  Sm1  1  0.983112  0.821991  0.905407  1
  Sm  Sm2  1  0.479413  0.682309  0.903179  1
  Sm  Sm3  1  0.982862  0.828670  0.598943  1
  Sm  Sm4  1  0.516806  0.319674  0.096806  1
  Sm  Sm5  1  0.013215  0.173431  0.396168  1
  Sm  Sm6  1  0.516770  0.317081  0.397604  1
  Sm  Sm7  1  0.488931  0.684570  0.601165  1
  Dy  Dy8  1  0.163005  0.510519  0.752672  1
  Dy  Dy9  1  0.838750  0.491514  0.250398  1
  Dy  Dy10  1  0.337590  0.004514  0.247168  1
  Dy  Dy11  1  0.665586  0.988676  0.751692  1
  Dy  Dy12  1  0.338069  0.175119  0.624068  1
  Dy  Dy13  1  0.665175  0.821477  0.374421  1
  Dy  Dy14  1  0.168721  0.674355  0.373444  1
  Dy  Dy15  1  0.672014  0.821241  0.122175  1
  Dy  Dy16  1  0.827201  0.325017  0.622140  1
  Dy  Dy17  1  0.326972  0.179792  0.879602  1
  Dy  Dy18  1  0.828087  0.321480  0.880392  1
  Sc  Sc19  1  0.171524  0.677675  0.125387  1
  Si  Si20  1  0.037921  0.115356  0.751312  1
  Si  Si21  1  0.966881  0.885021  0.247218  1
  Si  Si22  1  0.460675  0.607807  0.244357  1
  Si  Si23  1  0.536902  0.394034  0.752412  1
  Si  Si24  1  0.277514  0.878645  0.751573  1
  Si  Si25  1  0.720219  0.124057  0.247273  1
  Si  Si26  1  0.221705  0.375615  0.246194  1
  Si  Si27  1  0.780245  0.623293  0.753260  1
  Si  Si28  1  0.835183  0.533894  0.458252  1
  Si  Si29  1  0.339951  0.966055  0.460448  1
  Si  Si30  1  0.857273  0.534851  0.041440  1
  Si  Si31  1  0.657543  0.033001  0.536959  1
  Si  Si32  1  0.154991  0.471997  0.967818  1
  Si  Si33  1  0.651366  0.030287  0.961244  1
  Si  Si34  1  0.338655  0.960459  0.040320  1
  Ag  Ag35  1  0.159851  0.466675  0.537133  1
