# generated using pymatgen
data_Dy8Ti10NbSi16Os
_symmetry_space_group_name_H-M   'P 1'
_cell_length_a   7.02004148
_cell_length_b   7.00719090
_cell_length_c   12.92255899
_cell_angle_alpha   90.18221697
_cell_angle_beta   90.07512796
_cell_angle_gamma   90.03036147
_symmetry_Int_Tables_number   1
_chemical_formula_structural   Dy8Ti10NbSi16Os
_chemical_formula_sum   'Dy8 Ti10 Nb1 Si16 Os1'
_cell_volume   635.66678582
_cell_formula_units_Z   1
loop_
 _symmetry_equiv_pos_site_id
 _symmetry_equiv_pos_as_xyz
  1  'x, y, z'
loop_
 _atom_site_type_symbol
 _atom_site_label
 _atom_site_symmetry_multiplicity
 _atom_site_fract_x
 _atom_site_fract_y
 _atom_site_fract_z
 _atom_site_occupancy
  Dy  Dy0  1  0.999409  0.657864  0.035311  1
  Dy  Dy1  1  0.001035  0.341461  0.531429  1
  Dy  Dy2  1  0.660373  0.996501  0.966719  1
  Dy  Dy3  1  0.158925  0.501086  0.783418  1
  Dy  Dy4  1  0.839705  0.495669  0.282816  1
  Dy  Dy5  1  0.501096  0.159575  0.218789  1
  Dy  Dy6  1  0.496986  0.839474  0.715410  1
  Dy  Dy7  1  0.342340  0.001822  0.466683  1
  Ti  Ti8  1  0.010847  0.158079  0.128056  1
  Ti  Ti9  1  0.996554  0.841283  0.621685  1
  Ti  Ti10  1  0.508094  0.345198  0.625703  1
  Ti  Ti11  1  0.153840  0.006799  0.874114  1
  Ti  Ti12  1  0.670111  0.671523  0.498584  1
  Ti  Ti13  1  0.826010  0.172271  0.750489  1
  Ti  Ti14  1  0.174674  0.826283  0.250891  1
  Ti  Ti15  1  0.329262  0.328007  0.001090  1
  Ti  Ti16  1  0.496823  0.654999  0.123960  1
  Ti  Ti17  1  0.653731  0.493210  0.875818  1
  Nb  Nb18  1  0.844337  0.991735  0.375378  1
  Si  Si19  1  0.048799  0.707681  0.435563  1
  Si  Si20  1  0.955147  0.290111  0.936111  1
  Si  Si21  1  0.708879  0.046899  0.565948  1
  Si  Si22  1  0.210059  0.456923  0.187751  1
  Si  Si23  1  0.790395  0.546741  0.685214  1
  Si  Si24  1  0.454821  0.208712  0.815139  1
  Si  Si25  1  0.541518  0.785846  0.312133  1
  Si  Si26  1  0.291625  0.954120  0.064156  1
  Si  Si27  1  0.796550  0.870088  0.183094  1
  Si  Si28  1  0.299137  0.630083  0.563351  1
  Si  Si29  1  0.702154  0.368177  0.066410  1
  Si  Si30  1  0.623702  0.303275  0.434621  1
  Si  Si31  1  0.368881  0.702885  0.933697  1
  Si  Si32  1  0.131977  0.207096  0.317530  1
  Si  Si33  1  0.200064  0.130617  0.683073  1
  Si  Si34  1  0.869745  0.797605  0.815191  1
  Os  Os35  1  0.342391  0.510309  0.374678  1
