# generated using pymatgen
data_Ta10Ga4Cu
_symmetry_space_group_name_H-M   'P 1'
_cell_length_a   9.84312900
_cell_length_b   9.84312900
_cell_length_c   5.18265900
_cell_angle_alpha   90.00000000
_cell_angle_beta   90.00000000
_cell_angle_gamma   90.00000000
_symmetry_Int_Tables_number   1
_chemical_formula_structural   Ta10Ga4Cu
_chemical_formula_sum   'Ta20 Ga8 Cu2'
_cell_volume   502.13325952
_cell_formula_units_Z   2
loop_
 _symmetry_equiv_pos_site_id
 _symmetry_equiv_pos_as_xyz
  1  'x, y, z'
loop_
 _atom_site_type_symbol
 _atom_site_label
 _atom_site_symmetry_multiplicity
 _atom_site_fract_x
 _atom_site_fract_y
 _atom_site_fract_z
 _atom_site_occupancy
  Ta  Ta0  1  0.400242  0.400242  0.000000  1
  Ta  Ta1  1  0.900242  0.099758  0.500000  1
  Ta  Ta2  1  0.099758  0.900242  0.500000  1
  Ta  Ta3  1  0.599758  0.599758  0.000000  1
  Ta  Ta4  1  0.130359  0.464609  0.000000  1
  Ta  Ta5  1  0.964609  0.369641  0.500000  1
  Ta  Ta6  1  0.035391  0.630359  0.500000  1
  Ta  Ta7  1  0.869641  0.535391  0.000000  1
  Ta  Ta8  1  0.369641  0.964609  0.500000  1
  Ta  Ta9  1  0.630359  0.035391  0.500000  1
  Ta  Ta10  1  0.464609  0.130359  0.000000  1
  Ta  Ta11  1  0.535391  0.869641  0.000000  1
  Ta  Ta12  1  0.181433  0.181433  0.251426  1
  Ta  Ta13  1  0.681433  0.318567  0.751426  1
  Ta  Ta14  1  0.318567  0.681433  0.751426  1
  Ta  Ta15  1  0.818567  0.818567  0.251426  1
  Ta  Ta16  1  0.318567  0.681433  0.248574  1
  Ta  Ta17  1  0.681433  0.318567  0.248574  1
  Ta  Ta18  1  0.181433  0.181433  0.748574  1
  Ta  Ta19  1  0.818567  0.818567  0.748574  1
  Ga  Ga20  1  0.257946  0.935376  0.000000  1
  Ga  Ga21  1  0.435376  0.242054  0.500000  1
  Ga  Ga22  1  0.564624  0.757946  0.500000  1
  Ga  Ga23  1  0.742054  0.064624  0.000000  1
  Ga  Ga24  1  0.242054  0.435376  0.500000  1
  Ga  Ga25  1  0.757946  0.564624  0.500000  1
  Ga  Ga26  1  0.935376  0.257946  0.000000  1
  Ga  Ga27  1  0.064624  0.742054  0.000000  1
  Cu  Cu28  1  0.000000  0.000000  0.000000  1
  Cu  Cu29  1  0.500000  0.500000  0.500000  1
