# generated using pymatgen
data_Ca9La3(GeIr)8
_symmetry_space_group_name_H-M   'P 1'
_cell_length_a   5.76388510
_cell_length_b   7.91204760
_cell_length_c   13.71353140
_cell_angle_alpha   89.99531284
_cell_angle_beta   90.02579640
_cell_angle_gamma   89.56984139
_symmetry_Int_Tables_number   1
_chemical_formula_structural   Ca9La3(GeIr)8
_chemical_formula_sum   'Ca9 La3 Ge8 Ir8'
_cell_volume   625.37602330
_cell_formula_units_Z   1
loop_
 _symmetry_equiv_pos_site_id
 _symmetry_equiv_pos_as_xyz
  1  'x, y, z'
loop_
 _atom_site_type_symbol
 _atom_site_label
 _atom_site_symmetry_multiplicity
 _atom_site_fract_x
 _atom_site_fract_y
 _atom_site_fract_z
 _atom_site_occupancy
  Ca  Ca0  1  0.635023  0.250949  0.252599  1
  Ca  Ca1  1  0.365499  0.744413  0.749551  1
  Ca  Ca2  1  0.361669  0.742193  0.253723  1
  Ca  Ca3  1  0.638975  0.261090  0.747918  1
  Ca  Ca4  1  0.139508  0.398820  0.102749  1
  Ca  Ca5  1  0.860273  0.599385  0.898867  1
  Ca  Ca6  1  0.863382  0.605630  0.597438  1
  Ca  Ca7  1  0.850843  0.891283  0.397591  1
  Ca  Ca8  1  0.141092  0.399524  0.398898  1
  La  La9  1  0.150270  0.103599  0.595151  1
  La  La10  1  0.156709  0.111010  0.902490  1
  La  La11  1  0.843664  0.890333  0.097712  1
  Ge  Ge12  1  0.149994  0.094034  0.251746  1
  Ge  Ge13  1  0.842710  0.906899  0.750657  1
  Ge  Ge14  1  0.846268  0.595678  0.251604  1
  Ge  Ge15  1  0.153127  0.402401  0.748829  1
  Ge  Ge16  1  0.630715  0.253302  0.001359  1
  Ge  Ge17  1  0.367917  0.747315  0.000178  1
  Ge  Ge18  1  0.387444  0.748973  0.497982  1
  Ge  Ge19  1  0.622927  0.251338  0.498949  1
  Ir  Ir20  1  0.371182  0.035781  0.094837  1
  Ir  Ir21  1  0.627165  0.963028  0.907525  1
  Ir  Ir22  1  0.632474  0.968162  0.592012  1
  Ir  Ir23  1  0.633644  0.530614  0.410012  1
  Ir  Ir24  1  0.362559  0.035684  0.408872  1
  Ir  Ir25  1  0.366517  0.466981  0.589097  1
  Ir  Ir26  1  0.370430  0.463079  0.910280  1
  Ir  Ir27  1  0.628021  0.538503  0.091375  1
