# generated using pymatgen
data_CaAs2Pd3
_symmetry_space_group_name_H-M   'P 1'
_cell_length_a   4.05921000
_cell_length_b   8.72695305
_cell_length_c   10.14672546
_cell_angle_alpha   107.12866449
_cell_angle_beta   90.00000000
_cell_angle_gamma   103.44828082
_symmetry_Int_Tables_number   1
_chemical_formula_structural   CaAs2Pd3
_chemical_formula_sum   'Ca3 As6 Pd9'
_cell_volume   333.17309899
_cell_formula_units_Z   3
loop_
 _symmetry_equiv_pos_site_id
 _symmetry_equiv_pos_as_xyz
  1  'x, y, z'
loop_
 _atom_site_type_symbol
 _atom_site_label
 _atom_site_symmetry_multiplicity
 _atom_site_fract_x
 _atom_site_fract_y
 _atom_site_fract_z
 _atom_site_occupancy
  Ca  Ca0  1  0.847882  0.695762  0.303582  1
  Ca  Ca1  1  0.152118  0.304238  0.696418  1
  Ca  Ca2  1  0.000000  0.000000  0.000000  1
  As  As3  1  0.800717  0.601434  0.865900  1
  As  As4  1  0.199283  0.398566  0.134100  1
  As  As5  1  0.540591  0.081181  0.781439  1
  As  As6  1  0.459409  0.918819  0.218561  1
  As  As7  1  0.636178  0.272354  0.452981  1
  As  As8  1  0.363822  0.727646  0.547019  1
  Pd  Pd9  1  0.955168  0.910337  0.674206  1
  Pd  Pd10  1  0.044832  0.089663  0.325794  1
  Pd  Pd11  1  0.777243  0.554487  0.608769  1
  Pd  Pd12  1  0.222757  0.445513  0.391231  1
  Pd  Pd13  1  0.376454  0.752907  0.801191  1
  Pd  Pd14  1  0.623546  0.247093  0.198809  1
  Pd  Pd15  1  0.500000  0.000000  0.500000  1
  Pd  Pd16  1  0.681495  0.362989  0.963741  1
  Pd  Pd17  1  0.318505  0.637011  0.036259  1
