# generated using pymatgen
data_Tm4Lu8TcRu3
_symmetry_space_group_name_H-M   'P 1'
_cell_length_a   6.21573500
_cell_length_b   7.29280711
_cell_length_c   8.93675400
_cell_angle_alpha   90.00000000
_cell_angle_beta   90.00000000
_cell_angle_gamma   89.99005370
_symmetry_Int_Tables_number   1
_chemical_formula_structural   Tm4Lu8TcRu3
_chemical_formula_sum   'Tm4 Lu8 Tc1 Ru3'
_cell_volume   405.10445043
_cell_formula_units_Z   1
loop_
 _symmetry_equiv_pos_site_id
 _symmetry_equiv_pos_as_xyz
  1  'x, y, z'
loop_
 _atom_site_type_symbol
 _atom_site_label
 _atom_site_symmetry_multiplicity
 _atom_site_fract_x
 _atom_site_fract_y
 _atom_site_fract_z
 _atom_site_occupancy
  Tm  Tm0  1  0.871072  0.539734  0.250000  1
  Tm  Tm1  1  0.625304  0.041155  0.250000  1
  Tm  Tm2  1  0.130535  0.458262  0.750000  1
  Tm  Tm3  1  0.369522  0.958408  0.750000  1
  Lu  Lu4  1  0.335567  0.675951  0.063877  1
  Lu  Lu5  1  0.165360  0.175770  0.436535  1
  Lu  Lu6  1  0.665434  0.323958  0.563522  1
  Lu  Lu7  1  0.837103  0.825250  0.937630  1
  Lu  Lu8  1  0.665434  0.323958  0.936478  1
  Lu  Lu9  1  0.837103  0.825250  0.562370  1
  Lu  Lu10  1  0.335567  0.675951  0.436123  1
  Lu  Lu11  1  0.165360  0.175770  0.063465  1
  Tc  Tc12  1  0.037827  0.883415  0.250000  1
  Ru  Ru13  1  0.459750  0.383386  0.250000  1
  Ru  Ru14  1  0.958613  0.117753  0.750000  1
  Ru  Ru15  1  0.540448  0.616028  0.750000  1
