# generated using pymatgen
data_Nd3Pa(CdPt2)2
_symmetry_space_group_name_H-M   'P 1'
_cell_length_a   7.92244805
_cell_length_b   7.92244895
_cell_length_c   3.77795800
_cell_angle_alpha   90.00000000
_cell_angle_beta   90.00000000
_cell_angle_gamma   91.99034374
_symmetry_Int_Tables_number   1
_chemical_formula_structural   Nd3Pa(CdPt2)2
_chemical_formula_sum   'Nd3 Pa1 Cd2 Pt4'
_cell_volume   236.98119436
_cell_formula_units_Z   1
loop_
 _symmetry_equiv_pos_site_id
 _symmetry_equiv_pos_as_xyz
  1  'x, y, z'
loop_
 _atom_site_type_symbol
 _atom_site_label
 _atom_site_symmetry_multiplicity
 _atom_site_fract_x
 _atom_site_fract_y
 _atom_site_fract_z
 _atom_site_occupancy
  Nd  Nd0  1  0.328110  0.828110  0.500000  1
  Nd  Nd1  1  0.169840  0.330005  0.500000  1
  Nd  Nd2  1  0.830005  0.669840  0.500000  1
  Pa  Pa3  1  0.666418  0.166418  0.500000  1
  Cd  Cd4  1  0.003862  0.000129  0.000000  1
  Cd  Cd5  1  0.500129  0.503862  0.000000  1
  Pt  Pt6  1  0.122151  0.622151  0.000000  1
  Pt  Pt7  1  0.852671  0.352671  0.000000  1
  Pt  Pt8  1  0.638700  0.888114  0.000000  1
  Pt  Pt9  1  0.388114  0.138700  0.000000  1
