# generated using pymatgen
data_DyErNb2(Fe4P3)2
_symmetry_space_group_name_H-M   'P 1'
_cell_length_a   3.67474600
_cell_length_b   10.46158100
_cell_length_c   12.38750100
_cell_angle_alpha   90.00000000
_cell_angle_beta   90.00000000
_cell_angle_gamma   90.00000000
_symmetry_Int_Tables_number   1
_chemical_formula_structural   DyErNb2(Fe4P3)2
_chemical_formula_sum   'Dy2 Er2 Nb4 Fe16 P12'
_cell_volume   476.22078916
_cell_formula_units_Z   2
loop_
 _symmetry_equiv_pos_site_id
 _symmetry_equiv_pos_as_xyz
  1  'x, y, z'
loop_
 _atom_site_type_symbol
 _atom_site_label
 _atom_site_symmetry_multiplicity
 _atom_site_fract_x
 _atom_site_fract_y
 _atom_site_fract_z
 _atom_site_occupancy
  Dy  Dy0  1  0.250000  0.585244  0.713507  1
  Dy  Dy1  1  0.250000  0.914756  0.213507  1
  Er  Er2  1  0.750000  0.414948  0.286093  1
  Er  Er3  1  0.750000  0.085052  0.786093  1
  Nb  Nb4  1  0.250000  0.705807  0.992697  1
  Nb  Nb5  1  0.250000  0.794193  0.492697  1
  Nb  Nb6  1  0.750000  0.294199  0.007116  1
  Nb  Nb7  1  0.750000  0.205801  0.507116  1
  Fe  Fe8  1  0.250000  0.418582  0.491750  1
  Fe  Fe9  1  0.250000  0.081419  0.991750  1
  Fe  Fe10  1  0.750000  0.580191  0.507093  1
  Fe  Fe11  1  0.750000  0.919809  0.007093  1
  Fe  Fe12  1  0.250000  0.214831  0.170821  1
  Fe  Fe13  1  0.250000  0.285169  0.670821  1
  Fe  Fe14  1  0.750000  0.786024  0.829565  1
  Fe  Fe15  1  0.750000  0.713976  0.329565  1
  Fe  Fe16  1  0.250000  0.882484  0.698004  1
  Fe  Fe17  1  0.250000  0.617516  0.198004  1
  Fe  Fe18  1  0.750000  0.118987  0.302327  1
  Fe  Fe19  1  0.750000  0.381013  0.802327  1
  Fe  Fe20  1  0.250000  0.464685  0.934397  1
  Fe  Fe21  1  0.250000  0.035315  0.434397  1
  Fe  Fe22  1  0.750000  0.534626  0.065954  1
  Fe  Fe23  1  0.750000  0.965374  0.565954  1
  P  P24  1  0.250000  0.423379  0.113001  1
  P  P25  1  0.250000  0.076621  0.613001  1
  P  P26  1  0.750000  0.576117  0.887631  1
  P  P27  1  0.750000  0.923883  0.387631  1
  P  P28  1  0.250000  0.275193  0.853238  1
  P  P29  1  0.250000  0.224807  0.353238  1
  P  P30  1  0.750000  0.723137  0.146994  1
  P  P31  1  0.750000  0.776863  0.646994  1
  P  P32  1  0.250000  0.595284  0.375070  1
  P  P33  1  0.250000  0.904716  0.875070  1
  P  P34  1  0.750000  0.403616  0.624741  1
  P  P35  1  0.750000  0.096384  0.124741  1
