# generated using pymatgen
data_LuCr3P4Rh3
_symmetry_space_group_name_H-M   'P 1'
_cell_length_a   6.96857000
_cell_length_b   6.96857117
_cell_length_c   3.59127600
_cell_angle_alpha   90.00000000
_cell_angle_beta   90.00000000
_cell_angle_gamma   119.99999444
_symmetry_Int_Tables_number   1
_chemical_formula_structural   LuCr3P4Rh3
_chemical_formula_sum   'Lu1 Cr3 P4 Rh3'
_cell_volume   151.03126017
_cell_formula_units_Z   1
loop_
 _symmetry_equiv_pos_site_id
 _symmetry_equiv_pos_as_xyz
  1  'x, y, z'
loop_
 _atom_site_type_symbol
 _atom_site_label
 _atom_site_symmetry_multiplicity
 _atom_site_fract_x
 _atom_site_fract_y
 _atom_site_fract_z
 _atom_site_occupancy
  Lu  Lu0  1  0.333333  0.666667  0.000000  1
  Cr  Cr1  1  0.251364  0.125682  0.000000  1
  Cr  Cr2  1  0.874318  0.748636  0.000000  1
  Cr  Cr3  1  0.874318  0.125682  0.000000  1
  P  P4  1  0.666667  0.333333  0.000000  1
  P  P5  1  0.717869  0.858935  0.500000  1
  P  P6  1  0.141065  0.282131  0.500000  1
  P  P7  1  0.141065  0.858935  0.500000  1
  Rh  Rh8  1  0.938976  0.469488  0.500000  1
  Rh  Rh9  1  0.530512  0.061024  0.500000  1
  Rh  Rh10  1  0.530512  0.469488  0.500000  1
