# generated using pymatgen
data_Li3Gd3ZnPt2
_symmetry_space_group_name_H-M   'P 1'
_cell_length_a   7.51533600
_cell_length_b   7.51533559
_cell_length_c   4.04192100
_cell_angle_alpha   90.00000000
_cell_angle_beta   90.00000000
_cell_angle_gamma   119.99999299
_symmetry_Int_Tables_number   1
_chemical_formula_structural   Li3Gd3ZnPt2
_chemical_formula_sum   'Li3 Gd3 Zn1 Pt2'
_cell_volume   197.70391242
_cell_formula_units_Z   1
loop_
 _symmetry_equiv_pos_site_id
 _symmetry_equiv_pos_as_xyz
  1  'x, y, z'
loop_
 _atom_site_type_symbol
 _atom_site_label
 _atom_site_symmetry_multiplicity
 _atom_site_fract_x
 _atom_site_fract_y
 _atom_site_fract_z
 _atom_site_occupancy
  Li  Li0  1  0.754530  0.754530  0.000000  1
  Li  Li1  1  0.000000  0.245470  0.000000  1
  Li  Li2  1  0.245470  0.000000  0.000000  1
  Gd  Gd3  1  0.576625  0.000000  0.500000  1
  Gd  Gd4  1  0.423375  0.423375  0.500000  1
  Gd  Gd5  1  0.000000  0.576625  0.500000  1
  Zn  Zn6  1  0.000000  0.000000  0.500000  1
  Pt  Pt7  1  0.333333  0.666667  0.000000  1
  Pt  Pt8  1  0.666667  0.333333  0.000000  1
