# generated using pymatgen
data_Ho3Lu13(ScIr3)4
_symmetry_space_group_name_H-M   'P 1'
_cell_length_a   10.61345007
_cell_length_b   10.63226917
_cell_length_c   6.19630413
_cell_angle_alpha   89.97993839
_cell_angle_beta   89.98705039
_cell_angle_gamma   89.99629880
_symmetry_Int_Tables_number   1
_chemical_formula_structural   Ho3Lu13(ScIr3)4
_chemical_formula_sum   'Ho3 Lu13 Sc4 Ir12'
_cell_volume   699.22223718
_cell_formula_units_Z   1
loop_
 _symmetry_equiv_pos_site_id
 _symmetry_equiv_pos_as_xyz
  1  'x, y, z'
loop_
 _atom_site_type_symbol
 _atom_site_label
 _atom_site_symmetry_multiplicity
 _atom_site_fract_x
 _atom_site_fract_y
 _atom_site_fract_z
 _atom_site_occupancy
  Ho  Ho0  1  0.912825  0.288194  0.624631  1
  Ho  Ho1  1  0.086778  0.712381  0.624772  1
  Ho  Ho2  1  0.087192  0.288036  0.124534  1
  Lu  Lu3  1  0.289861  0.085124  0.377153  1
  Lu  Lu4  1  0.289900  0.914760  0.877516  1
  Lu  Lu5  1  0.710142  0.085172  0.876867  1
  Lu  Lu6  1  0.710770  0.913975  0.376767  1
  Lu  Lu7  1  0.585979  0.789171  0.876968  1
  Lu  Lu8  1  0.585874  0.210708  0.376798  1
  Lu  Lu9  1  0.414230  0.789181  0.376663  1
  Lu  Lu10  1  0.414152  0.210821  0.876640  1
  Lu  Lu11  1  0.211573  0.414188  0.623227  1
  Lu  Lu12  1  0.211395  0.586265  0.123430  1
  Lu  Lu13  1  0.788218  0.414659  0.123424  1
  Lu  Lu14  1  0.788326  0.586496  0.623441  1
  Lu  Lu15  1  0.913210  0.711020  0.123609  1
  Sc  Sc16  1  0.999740  0.999903  0.498739  1
  Sc  Sc17  1  0.999490  0.999012  0.999168  1
  Sc  Sc18  1  0.500024  0.500179  0.999331  1
  Sc  Sc19  1  0.500193  0.500171  0.499087  1
  Ir  Ir20  1  0.848210  0.148639  0.248090  1
  Ir  Ir21  1  0.848646  0.850434  0.750736  1
  Ir  Ir22  1  0.151739  0.148470  0.748088  1
  Ir  Ir23  1  0.150562  0.850630  0.247256  1
  Ir  Ir24  1  0.648803  0.350024  0.750882  1
  Ir  Ir25  1  0.650267  0.650297  0.250102  1
  Ir  Ir26  1  0.351336  0.350047  0.250916  1
  Ir  Ir27  1  0.351259  0.649956  0.750905  1
  Ir  Ir28  1  0.500216  0.999981  0.123247  1
  Ir  Ir29  1  0.500065  0.999903  0.623171  1
  Ir  Ir30  1  0.999551  0.501107  0.877847  1
  Ir  Ir31  1  0.999474  0.501096  0.375998  1
