# generated using pymatgen
data_PmCuPt4
_symmetry_space_group_name_H-M   'P 1'
_cell_length_a   5.47193100
_cell_length_b   5.24021978
_cell_length_c   4.42743400
_cell_angle_alpha   90.00000000
_cell_angle_beta   90.00000000
_cell_angle_gamma   58.52134353
_symmetry_Int_Tables_number   1
_chemical_formula_structural   PmCuPt4
_chemical_formula_sum   'Pm1 Cu1 Pt4'
_cell_volume   108.26974039
_cell_formula_units_Z   1
loop_
 _symmetry_equiv_pos_site_id
 _symmetry_equiv_pos_as_xyz
  1  'x, y, z'
loop_
 _atom_site_type_symbol
 _atom_site_label
 _atom_site_symmetry_multiplicity
 _atom_site_fract_x
 _atom_site_fract_y
 _atom_site_fract_z
 _atom_site_occupancy
  Pm  Pm0  1  0.000051  0.000002  0.000000  1
  Cu  Cu1  1  0.500364  0.999999  0.499999  1
  Pt  Pt2  1  0.336668  0.326684  0.000000  1
  Pt  Pt3  1  0.663324  0.673319  0.000000  1
  Pt  Pt4  1  0.999986  0.499615  0.499999  1
  Pt  Pt5  1  0.499602  0.500384  0.499999  1
