# generated using pymatgen
data_Np4Al24ZnPd8
_symmetry_space_group_name_H-M   'P 1'
_cell_length_a   7.58511947
_cell_length_b   7.60602375
_cell_length_c   13.21224510
_cell_angle_alpha   84.45931372
_cell_angle_beta   78.93255710
_cell_angle_gamma   59.91231403
_symmetry_Int_Tables_number   1
_chemical_formula_structural   Np4Al24ZnPd8
_chemical_formula_sum   'Np4 Al24 Zn1 Pd8'
_cell_volume   647.27645292
_cell_formula_units_Z   1
loop_
 _symmetry_equiv_pos_site_id
 _symmetry_equiv_pos_as_xyz
  1  'x, y, z'
loop_
 _atom_site_type_symbol
 _atom_site_label
 _atom_site_symmetry_multiplicity
 _atom_site_fract_x
 _atom_site_fract_y
 _atom_site_fract_z
 _atom_site_occupancy
  Np  Np0  1  0.389619  0.172852  0.806303  1
  Np  Np1  1  0.604976  0.832493  0.192746  1
  Np  Np2  1  0.739466  0.497742  0.806269  1
  Np  Np3  1  0.266650  0.502218  0.191732  1
  Al  Al4  1  0.679680  0.835110  0.947208  1
  Al  Al5  1  0.318158  0.166654  0.053643  1
  Al  Al6  1  0.145390  0.838905  0.559075  1
  Al  Al7  1  0.856387  0.165192  0.435279  1
  Al  Al8  1  0.487769  0.160209  0.559000  1
  Al  Al9  1  0.520137  0.832785  0.437370  1
  Al  Al10  1  0.218772  0.163874  0.327834  1
  Al  Al11  1  0.779360  0.837231  0.674879  1
  Al  Al12  1  0.437250  0.508044  0.675458  1
  Al  Al13  1  0.564483  0.493157  0.327415  1
  Al  Al14  1  0.108666  0.153477  0.672756  1
  Al  Al15  1  0.889400  0.841043  0.329304  1
  Al  Al16  1  0.355911  0.497058  0.946499  1
  Al  Al17  1  0.646276  0.502965  0.053812  1
  Al  Al18  1  0.014709  0.169438  0.955810  1
  Al  Al19  1  0.984244  0.830725  0.046153  1
  Al  Al20  1  0.187903  0.500009  0.437012  1
  Al  Al21  1  0.806764  0.499639  0.559055  1
  Al  Al22  1  0.733890  0.164206  0.183087  1
  Al  Al23  1  0.267846  0.836002  0.817605  1
  Al  Al24  1  0.059851  0.633926  0.818804  1
  Al  Al25  1  0.939193  0.368989  0.184407  1
  Al  Al26  1  0.852622  0.043636  0.817992  1
  Al  Al27  1  0.144281  0.958427  0.182477  1
  Zn  Zn28  1  0.119962  0.489697  0.639407  1
  Pd  Pd29  1  0.880992  0.504485  0.363977  1
  Pd  Pd30  1  0.660781  0.169809  0.000076  1
  Pd  Pd31  1  0.339264  0.830365  0.999510  1
  Pd  Pd32  1  0.537922  0.168524  0.364210  1
  Pd  Pd33  1  0.460589  0.833017  0.635022  1
  Pd  Pd34  1  0.782057  0.172192  0.635585  1
  Pd  Pd35  1  0.218778  0.825358  0.362656  1
  Pd  Pd36  1  0.000001  0.500545  0.000570  1
