# generated using pymatgen
data_Re5RuRh2
_symmetry_space_group_name_H-M   'P 1'
_cell_length_a   5.53614200
_cell_length_b   5.55301759
_cell_length_c   4.39453200
_cell_angle_alpha   90.00000000
_cell_angle_beta   90.00000000
_cell_angle_gamma   119.89952171
_symmetry_Int_Tables_number   1
_chemical_formula_structural   Re5RuRh2
_chemical_formula_sum   'Re5 Ru1 Rh2'
_cell_volume   117.11657417
_cell_formula_units_Z   1
loop_
 _symmetry_equiv_pos_site_id
 _symmetry_equiv_pos_as_xyz
  1  'x, y, z'
loop_
 _atom_site_type_symbol
 _atom_site_label
 _atom_site_symmetry_multiplicity
 _atom_site_fract_x
 _atom_site_fract_y
 _atom_site_fract_z
 _atom_site_occupancy
  Re  Re0  1  0.678046  0.840153  0.250000  1
  Re  Re1  1  0.162108  0.840153  0.250000  1
  Re  Re2  1  0.838493  0.676987  0.750000  1
  Re  Re3  1  0.322458  0.163833  0.750000  1
  Re  Re4  1  0.841374  0.163833  0.750000  1
  Ru  Ru5  1  0.161512  0.323024  0.250000  1
  Rh  Rh6  1  0.331426  0.662853  0.750000  1
  Rh  Rh7  1  0.664583  0.329165  0.250000  1
