# generated using pymatgen
data_Dy2Ho3ErNiI10
_symmetry_space_group_name_H-M   'P 1'
_cell_length_a   7.68639039
_cell_length_b   9.64949843
_cell_length_c   9.67565661
_cell_angle_alpha   106.78574801
_cell_angle_beta   96.50672043
_cell_angle_gamma   104.01009386
_symmetry_Int_Tables_number   1
_chemical_formula_structural   Dy2Ho3ErNiI10
_chemical_formula_sum   'Dy2 Ho3 Er1 Ni1 I10'
_cell_volume   653.52784718
_cell_formula_units_Z   1
loop_
 _symmetry_equiv_pos_site_id
 _symmetry_equiv_pos_as_xyz
  1  'x, y, z'
loop_
 _atom_site_type_symbol
 _atom_site_label
 _atom_site_symmetry_multiplicity
 _atom_site_fract_x
 _atom_site_fract_y
 _atom_site_fract_z
 _atom_site_occupancy
  Dy  Dy0  1  0.035985  0.722094  0.917552  1
  Dy  Dy1  1  0.885981  0.958270  0.236003  1
  Ho  Ho2  1  0.334682  0.117984  0.159208  1
  Ho  Ho3  1  0.665576  0.882609  0.841141  1
  Ho  Ho4  1  0.964262  0.276318  0.081217  1
  Er  Er5  1  0.113463  0.041347  0.767250  1
  Ni  Ni6  1  0.000022  0.999728  0.000450  1
  I  I7  1  0.339841  0.445588  0.271569  1
  I  I8  1  0.658753  0.554785  0.726627  1
  I  I9  1  0.764293  0.252615  0.340196  1
  I  I10  1  0.236285  0.750072  0.658609  1
  I  I11  1  0.543685  0.186173  0.906144  1
  I  I12  1  0.455758  0.813834  0.093449  1
  I  I13  1  0.748521  0.917722  0.541739  1
  I  I14  1  0.254291  0.084203  0.460658  1
  I  I15  1  0.911346  0.624867  0.179118  1
  I  I16  1  0.087255  0.371790  0.819069  1
