# generated using pymatgen
data_YbPr15(HfIr3)4
_symmetry_space_group_name_H-M   'P 1'
_cell_length_a   6.39863467
_cell_length_b   11.23862689
_cell_length_c   11.25786297
_cell_angle_alpha   89.91829992
_cell_angle_beta   90.01663043
_cell_angle_gamma   89.53333228
_symmetry_Int_Tables_number   1
_chemical_formula_structural   YbPr15(HfIr3)4
_chemical_formula_sum   'Yb1 Pr15 Hf4 Ir12'
_cell_volume   809.54623852
_cell_formula_units_Z   1
loop_
 _symmetry_equiv_pos_site_id
 _symmetry_equiv_pos_as_xyz
  1  'x, y, z'
loop_
 _atom_site_type_symbol
 _atom_site_label
 _atom_site_symmetry_multiplicity
 _atom_site_fract_x
 _atom_site_fract_y
 _atom_site_fract_z
 _atom_site_occupancy
  Yb  Yb0  1  0.125577  0.037569  0.331335  1
  Pr  Pr1  1  0.368743  0.839724  0.534537  1
  Pr  Pr2  1  0.871295  0.666310  0.535318  1
  Pr  Pr3  1  0.872887  0.835467  0.963895  1
  Pr  Pr4  1  0.375146  0.662868  0.963200  1
  Pr  Pr5  1  0.874418  0.536355  0.834586  1
  Pr  Pr6  1  0.374070  0.963645  0.837169  1
  Pr  Pr7  1  0.373402  0.535586  0.662449  1
  Pr  Pr8  1  0.871892  0.964253  0.665705  1
  Pr  Pr9  1  0.625403  0.162635  0.462091  1
  Pr  Pr10  1  0.125258  0.329584  0.463576  1
  Pr  Pr11  1  0.126831  0.162543  0.039963  1
  Pr  Pr12  1  0.626471  0.334338  0.035942  1
  Pr  Pr13  1  0.123525  0.464114  0.166369  1
  Pr  Pr14  1  0.624080  0.035877  0.166546  1
  Pr  Pr15  1  0.624052  0.463511  0.335016  1
  Hf  Hf16  1  0.502382  0.750639  0.250209  1
  Hf  Hf17  1  0.002396  0.754410  0.250986  1
  Hf  Hf18  1  0.003165  0.249576  0.751327  1
  Hf  Hf19  1  0.502982  0.249121  0.750335  1
  Ir  Ir20  1  0.253513  0.884179  0.110526  1
  Ir  Ir21  1  0.752632  0.614929  0.115234  1
  Ir  Ir22  1  0.747243  0.888207  0.385943  1
  Ir  Ir23  1  0.250988  0.616828  0.386437  1
  Ir  Ir24  1  0.754076  0.112493  0.886790  1
  Ir  Ir25  1  0.250615  0.384768  0.886700  1
  Ir  Ir26  1  0.253409  0.113659  0.616564  1
  Ir  Ir27  1  0.750431  0.384296  0.613318  1
  Ir  Ir28  1  0.110140  0.750075  0.748772  1
  Ir  Ir29  1  0.607021  0.749974  0.748778  1
  Ir  Ir30  1  0.886645  0.251732  0.249906  1
  Ir  Ir31  1  0.389312  0.250737  0.250478  1
