# generated using pymatgen
data_Yb3Si2SnRh6
_symmetry_space_group_name_H-M   'P 1'
_cell_length_a   5.64644200
_cell_length_b   5.64644132
_cell_length_c   15.54365900
_cell_angle_alpha   90.00000000
_cell_angle_beta   90.00000000
_cell_angle_gamma   119.99999229
_symmetry_Int_Tables_number   1
_chemical_formula_structural   Yb3Si2SnRh6
_chemical_formula_sum   'Yb6 Si4 Sn2 Rh12'
_cell_volume   429.17420934
_cell_formula_units_Z   2
loop_
 _symmetry_equiv_pos_site_id
 _symmetry_equiv_pos_as_xyz
  1  'x, y, z'
loop_
 _atom_site_type_symbol
 _atom_site_label
 _atom_site_symmetry_multiplicity
 _atom_site_fract_x
 _atom_site_fract_y
 _atom_site_fract_z
 _atom_site_occupancy
  Yb  Yb0  1  0.666667  0.333333  0.955501  1
  Yb  Yb1  1  0.666667  0.333333  0.544499  1
  Yb  Yb2  1  0.333333  0.666667  0.044499  1
  Yb  Yb3  1  0.666667  0.333333  0.750000  1
  Yb  Yb4  1  0.333333  0.666667  0.455501  1
  Yb  Yb5  1  0.333333  0.666667  0.250000  1
  Si  Si6  1  0.666667  0.333333  0.250000  1
  Si  Si7  1  0.000000  0.000000  0.250000  1
  Si  Si8  1  0.000000  0.000000  0.750000  1
  Si  Si9  1  0.333333  0.666667  0.750000  1
  Sn  Sn10  1  0.000000  0.000000  0.500000  1
  Sn  Sn11  1  0.000000  0.000000  0.000000  1
  Rh  Rh12  1  0.167884  0.335768  0.860853  1
  Rh  Rh13  1  0.167884  0.335768  0.639147  1
  Rh  Rh14  1  0.664232  0.832116  0.860853  1
  Rh  Rh15  1  0.335768  0.167884  0.360853  1
  Rh  Rh16  1  0.832116  0.664232  0.360853  1
  Rh  Rh17  1  0.832116  0.167884  0.360853  1
  Rh  Rh18  1  0.832116  0.167884  0.139147  1
  Rh  Rh19  1  0.335768  0.167884  0.139147  1
  Rh  Rh20  1  0.664232  0.832116  0.639147  1
  Rh  Rh21  1  0.167884  0.832116  0.639147  1
  Rh  Rh22  1  0.832116  0.664232  0.139147  1
  Rh  Rh23  1  0.167884  0.832116  0.860853  1
