# generated using pymatgen
data_Zr2V3Si4
_symmetry_space_group_name_H-M   'P 1'
_cell_length_a   6.64089700
_cell_length_b   6.64089700
_cell_length_c   12.28662800
_cell_angle_alpha   90.00000000
_cell_angle_beta   90.00000000
_cell_angle_gamma   90.00000000
_symmetry_Int_Tables_number   1
_chemical_formula_structural   Zr2V3Si4
_chemical_formula_sum   'Zr8 V12 Si16'
_cell_volume   541.85888403
_cell_formula_units_Z   4
loop_
 _symmetry_equiv_pos_site_id
 _symmetry_equiv_pos_as_xyz
  1  'x, y, z'
loop_
 _atom_site_type_symbol
 _atom_site_label
 _atom_site_symmetry_multiplicity
 _atom_site_fract_x
 _atom_site_fract_y
 _atom_site_fract_z
 _atom_site_occupancy
  Zr  Zr0  1  0.002166  0.660462  0.030337  1
  Zr  Zr1  1  0.997834  0.339538  0.530337  1
  Zr  Zr2  1  0.660462  0.002166  0.969663  1
  Zr  Zr3  1  0.160462  0.497834  0.780337  1
  Zr  Zr4  1  0.839538  0.502166  0.280337  1
  Zr  Zr5  1  0.497834  0.160462  0.219663  1
  Zr  Zr6  1  0.502166  0.839538  0.719663  1
  Zr  Zr7  1  0.339538  0.997834  0.469663  1
  V  V8  1  0.340549  0.504791  0.376695  1
  V  V9  1  0.840549  0.995209  0.373305  1
  V  V10  1  0.004791  0.159451  0.126695  1
  V  V11  1  0.995209  0.840549  0.626695  1
  V  V12  1  0.659451  0.495209  0.876695  1
  V  V13  1  0.504791  0.340549  0.623305  1
  V  V14  1  0.495209  0.659451  0.123305  1
  V  V15  1  0.159451  0.004791  0.873305  1
  V  V16  1  0.667288  0.667288  0.500000  1
  V  V17  1  0.832712  0.167288  0.750000  1
  V  V18  1  0.167288  0.832712  0.250000  1
  V  V19  1  0.332712  0.332712  0.000000  1
  Si  Si20  1  0.040511  0.710578  0.435739  1
  Si  Si21  1  0.959489  0.289422  0.935739  1
  Si  Si22  1  0.710578  0.040511  0.564261  1
  Si  Si23  1  0.210578  0.459489  0.185739  1
  Si  Si24  1  0.789422  0.540511  0.685739  1
  Si  Si25  1  0.459489  0.210578  0.814261  1
  Si  Si26  1  0.540511  0.789422  0.314261  1
  Si  Si27  1  0.289422  0.959489  0.064261  1
  Si  Si28  1  0.873260  0.795087  0.820730  1
  Si  Si29  1  0.126740  0.204913  0.320730  1
  Si  Si30  1  0.795087  0.873260  0.179270  1
  Si  Si31  1  0.295087  0.626740  0.570730  1
  Si  Si32  1  0.704913  0.373260  0.070730  1
  Si  Si33  1  0.626740  0.295087  0.429270  1
  Si  Si34  1  0.373260  0.704913  0.929270  1
  Si  Si35  1  0.204913  0.126740  0.679270  1
