# generated using pymatgen
data_Gd3YLu(SiB4)2
_symmetry_space_group_name_H-M   'P 1'
_cell_length_a   7.24275826
_cell_length_b   7.24275706
_cell_length_c   8.10890000
_cell_angle_alpha   90.00000000
_cell_angle_beta   90.00000000
_cell_angle_gamma   89.97698757
_symmetry_Int_Tables_number   1
_chemical_formula_structural   Gd3YLu(SiB4)2
_chemical_formula_sum   'Gd6 Y2 Lu2 Si4 B16'
_cell_volume   425.37290010
_cell_formula_units_Z   2
loop_
 _symmetry_equiv_pos_site_id
 _symmetry_equiv_pos_as_xyz
  1  'x, y, z'
loop_
 _atom_site_type_symbol
 _atom_site_label
 _atom_site_symmetry_multiplicity
 _atom_site_fract_x
 _atom_site_fract_y
 _atom_site_fract_z
 _atom_site_occupancy
  Gd  Gd0  1  0.680228  0.180268  0.226974  1
  Gd  Gd1  1  0.319732  0.819772  0.773026  1
  Gd  Gd2  1  0.319732  0.819772  0.226974  1
  Gd  Gd3  1  0.819551  0.680449  0.226352  1
  Gd  Gd4  1  0.819551  0.680449  0.773648  1
  Gd  Gd5  1  0.680228  0.180268  0.773026  1
  Y  Y6  1  0.180360  0.319640  0.775867  1
  Y  Y7  1  0.180360  0.319640  0.224133  1
  Lu  Lu8  1  0.000215  0.000161  0.500000  1
  Lu  Lu9  1  0.499839  0.499785  0.500000  1
  Si  Si10  1  0.116685  0.614489  0.500000  1
  Si  Si11  1  0.885511  0.383315  0.500000  1
  Si  Si12  1  0.382884  0.117116  0.500000  1
  Si  Si13  1  0.614956  0.885044  0.500000  1
  B  B14  1  0.172683  0.039391  0.000000  1
  B  B15  1  0.827635  0.961001  0.000000  1
  B  B16  1  0.960666  0.172593  0.000000  1
  B  B17  1  0.327407  0.539334  0.000000  1
  B  B18  1  0.039371  0.827651  0.000000  1
  B  B19  1  0.672349  0.460629  0.000000  1
  B  B20  1  0.538999  0.672365  0.000000  1
  B  B21  1  0.460609  0.327317  0.000000  1
  B  B22  1  0.090007  0.589721  0.000000  1
  B  B23  1  0.910279  0.409993  0.000000  1
  B  B24  1  0.410002  0.089998  0.000000  1
  B  B25  1  0.590100  0.909900  0.000000  1
  B  B26  1  0.000168  0.000138  0.161609  1
  B  B27  1  0.000168  0.000138  0.838391  1
  B  B28  1  0.499862  0.499832  0.838391  1
  B  B29  1  0.499862  0.499832  0.161609  1
