# generated using pymatgen
data_La5PrIrO12
_symmetry_space_group_name_H-M   'P 1'
_cell_length_a   6.83737075
_cell_length_b   6.82555564
_cell_length_c   6.82217124
_cell_angle_alpha   98.29929563
_cell_angle_beta   98.50903456
_cell_angle_gamma   98.48876408
_symmetry_Int_Tables_number   1
_chemical_formula_structural   La5PrIrO12
_chemical_formula_sum   'La5 Pr1 Ir1 O12'
_cell_volume   306.90118493
_cell_formula_units_Z   1
loop_
 _symmetry_equiv_pos_site_id
 _symmetry_equiv_pos_as_xyz
  1  'x, y, z'
loop_
 _atom_site_type_symbol
 _atom_site_label
 _atom_site_symmetry_multiplicity
 _atom_site_fract_x
 _atom_site_fract_y
 _atom_site_fract_z
 _atom_site_occupancy
  La  La0  1  0.392761  0.856773  0.694787  1
  La  La1  1  0.694646  0.392764  0.855803  1
  La  La2  1  0.304748  0.605775  0.143611  1
  La  La3  1  0.606721  0.143739  0.305759  1
  La  La4  1  0.856896  0.694887  0.393889  1
  Pr  Pr5  1  0.143721  0.306065  0.609756  1
  Ir  Ir6  1  0.000345  0.000405  0.000437  1
  O  O7  1  0.066826  0.285553  0.964961  1
  O  O8  1  0.031683  0.935540  0.714518  1
  O  O9  1  0.403518  0.557591  0.822203  1
  O  O10  1  0.176901  0.592217  0.440943  1
  O  O11  1  0.715391  0.031328  0.933967  1
  O  O12  1  0.440181  0.176125  0.593518  1
  O  O13  1  0.559266  0.822343  0.405584  1
  O  O14  1  0.284725  0.968534  0.066323  1
  O  O15  1  0.822300  0.404856  0.559364  1
  O  O16  1  0.594857  0.441473  0.176975  1
  O  O17  1  0.970942  0.068528  0.286067  1
  O  O18  1  0.933572  0.715502  0.031536  1
