# generated using pymatgen
data_Ce3Si4Ir3Rh
_symmetry_space_group_name_H-M   'P 1'
_cell_length_a   4.03265883
_cell_length_b   4.18937923
_cell_length_c   12.61180722
_cell_angle_alpha   80.43945910
_cell_angle_beta   80.80029007
_cell_angle_gamma   89.99999947
_symmetry_Int_Tables_number   1
_chemical_formula_structural   Ce3Si4Ir3Rh
_chemical_formula_sum   'Ce3 Si4 Ir3 Rh1'
_cell_volume   207.32895102
_cell_formula_units_Z   1
loop_
 _symmetry_equiv_pos_site_id
 _symmetry_equiv_pos_as_xyz
  1  'x, y, z'
loop_
 _atom_site_type_symbol
 _atom_site_label
 _atom_site_symmetry_multiplicity
 _atom_site_fract_x
 _atom_site_fract_y
 _atom_site_fract_z
 _atom_site_occupancy
  Ce  Ce0  1  0.000088  0.000088  0.999825  1
  Ce  Ce1  1  0.855782  0.355782  0.288437  1
  Ce  Ce2  1  0.144238  0.644238  0.711523  1
  Si  Si3  1  0.697084  0.197084  0.605832  1
  Si  Si4  1  0.302762  0.802762  0.394475  1
  Si  Si5  1  0.451647  0.451647  0.096706  1
  Si  Si6  1  0.548385  0.548385  0.903229  1
  Ir  Ir7  1  0.598190  0.098190  0.803619  1
  Ir  Ir8  1  0.401793  0.901793  0.196414  1
  Ir  Ir9  1  0.250059  0.250059  0.499882  1
  Rh  Rh10  1  0.749971  0.749971  0.500057  1
