# generated using pymatgen
data_Nd16MgCd3Ni3Os
_symmetry_space_group_name_H-M   'P 1'
_cell_length_a   9.93597652
_cell_length_b   9.93597578
_cell_length_c   9.93597609
_cell_angle_alpha   59.60793868
_cell_angle_beta   59.60794186
_cell_angle_gamma   59.60794671
_symmetry_Int_Tables_number   1
_chemical_formula_structural   Nd16MgCd3Ni3Os
_chemical_formula_sum   'Nd16 Mg1 Cd3 Ni3 Os1'
_cell_volume   687.43154951
_cell_formula_units_Z   1
loop_
 _symmetry_equiv_pos_site_id
 _symmetry_equiv_pos_as_xyz
  1  'x, y, z'
loop_
 _atom_site_type_symbol
 _atom_site_label
 _atom_site_symmetry_multiplicity
 _atom_site_fract_x
 _atom_site_fract_y
 _atom_site_fract_z
 _atom_site_occupancy
  Nd  Nd0  1  0.597951  0.597951  0.597951  1
  Nd  Nd1  1  0.598753  0.598753  0.208210  1
  Nd  Nd2  1  0.598753  0.208210  0.598753  1
  Nd  Nd3  1  0.208210  0.598753  0.598753  1
  Nd  Nd4  1  0.060876  0.438798  0.438798  1
  Nd  Nd5  1  0.436676  0.060143  0.060143  1
  Nd  Nd6  1  0.438798  0.060876  0.438798  1
  Nd  Nd7  1  0.060143  0.436676  0.060143  1
  Nd  Nd8  1  0.438798  0.438798  0.060876  1
  Nd  Nd9  1  0.060143  0.060143  0.436676  1
  Nd  Nd10  1  0.188607  0.815126  0.815126  1
  Nd  Nd11  1  0.803562  0.190489  0.190489  1
  Nd  Nd12  1  0.815126  0.188607  0.815126  1
  Nd  Nd13  1  0.190489  0.803562  0.190489  1
  Nd  Nd14  1  0.815126  0.815126  0.188607  1
  Nd  Nd15  1  0.190489  0.190489  0.803562  1
  Mg  Mg16  1  0.825604  0.825604  0.825604  1
  Cd  Cd17  1  0.829609  0.829609  0.508983  1
  Cd  Cd18  1  0.829609  0.508983  0.829609  1
  Cd  Cd19  1  0.508983  0.829609  0.829609  1
  Ni  Ni20  1  0.393369  0.393369  0.824395  1
  Ni  Ni21  1  0.393369  0.824395  0.393369  1
  Ni  Ni22  1  0.824395  0.393369  0.393369  1
  Os  Os23  1  0.392562  0.392562  0.392562  1
