# generated using pymatgen
data_Nb12Ga7Co5N4
_symmetry_space_group_name_H-M   'P 1'
_cell_length_a   8.18263933
_cell_length_b   8.18263761
_cell_length_c   8.18263900
_cell_angle_alpha   60.10068912
_cell_angle_beta   60.10069662
_cell_angle_gamma   60.10069731
_symmetry_Int_Tables_number   1
_chemical_formula_structural   Nb12Ga7Co5N4
_chemical_formula_sum   'Nb12 Ga7 Co5 N4'
_cell_volume   388.28878912
_cell_formula_units_Z   1
loop_
 _symmetry_equiv_pos_site_id
 _symmetry_equiv_pos_as_xyz
  1  'x, y, z'
loop_
 _atom_site_type_symbol
 _atom_site_label
 _atom_site_symmetry_multiplicity
 _atom_site_fract_x
 _atom_site_fract_y
 _atom_site_fract_z
 _atom_site_occupancy
  Nb  Nb0  1  0.806813  0.806813  0.189521  1
  Nb  Nb1  1  0.192121  0.192121  0.806986  1
  Nb  Nb2  1  0.806813  0.189521  0.806813  1
  Nb  Nb3  1  0.192121  0.806986  0.192121  1
  Nb  Nb4  1  0.189521  0.806813  0.806813  1
  Nb  Nb5  1  0.806986  0.192121  0.192121  1
  Nb  Nb6  1  0.441137  0.441137  0.059558  1
  Nb  Nb7  1  0.052671  0.052671  0.447902  1
  Nb  Nb8  1  0.441137  0.059558  0.441137  1
  Nb  Nb9  1  0.052671  0.447902  0.052671  1
  Nb  Nb10  1  0.059558  0.441137  0.441137  1
  Nb  Nb11  1  0.447902  0.052671  0.052671  1
  Ga  Ga12  1  0.752213  0.416365  0.416365  1
  Ga  Ga13  1  0.416365  0.752213  0.416365  1
  Ga  Ga14  1  0.416365  0.416365  0.752213  1
  Ga  Ga15  1  0.416137  0.416137  0.416137  1
  Ga  Ga16  1  0.506009  0.833615  0.833615  1
  Ga  Ga17  1  0.833615  0.506009  0.833615  1
  Ga  Ga18  1  0.833615  0.833615  0.506009  1
  Co  Co19  1  0.127179  0.624052  0.624052  1
  Co  Co20  1  0.624052  0.127179  0.624052  1
  Co  Co21  1  0.624052  0.624052  0.127179  1
  Co  Co22  1  0.625038  0.625038  0.625038  1
  Co  Co23  1  0.838238  0.838238  0.838238  1
  N  N24  1  0.625957  0.123162  0.123162  1
  N  N25  1  0.123162  0.625957  0.123162  1
  N  N26  1  0.123162  0.123162  0.625957  1
  N  N27  1  0.125392  0.125392  0.125392  1
