# generated using pymatgen
data_Ho3Er5(AgPt)2
_symmetry_space_group_name_H-M   'P 1'
_cell_length_a   9.55604858
_cell_length_b   9.55604826
_cell_length_c   9.55605000
_cell_angle_alpha   60.00000092
_cell_angle_beta   60.00000202
_cell_angle_gamma   60.00000424
_symmetry_Int_Tables_number   1
_chemical_formula_structural   Ho3Er5(AgPt)2
_chemical_formula_sum   'Ho6 Er10 Ag4 Pt4'
_cell_volume   617.04966765
_cell_formula_units_Z   2
loop_
 _symmetry_equiv_pos_site_id
 _symmetry_equiv_pos_as_xyz
  1  'x, y, z'
loop_
 _atom_site_type_symbol
 _atom_site_label
 _atom_site_symmetry_multiplicity
 _atom_site_fract_x
 _atom_site_fract_y
 _atom_site_fract_z
 _atom_site_occupancy
  Ho  Ho0  1  0.934975  0.565025  0.565025  1
  Ho  Ho1  1  0.565025  0.934975  0.934975  1
  Ho  Ho2  1  0.565025  0.934975  0.565025  1
  Ho  Ho3  1  0.934975  0.565025  0.934975  1
  Ho  Ho4  1  0.565025  0.565025  0.934975  1
  Ho  Ho5  1  0.934975  0.934975  0.565025  1
  Er  Er6  1  0.354372  0.354372  0.354372  1
  Er  Er7  1  0.354372  0.354372  0.936884  1
  Er  Er8  1  0.354372  0.936884  0.354372  1
  Er  Er9  1  0.936884  0.354372  0.354372  1
  Er  Er10  1  0.811148  0.188852  0.188852  1
  Er  Er11  1  0.188852  0.811148  0.811148  1
  Er  Er12  1  0.188852  0.811148  0.188852  1
  Er  Er13  1  0.811148  0.188852  0.811148  1
  Er  Er14  1  0.188852  0.188852  0.811148  1
  Er  Er15  1  0.811148  0.811148  0.188852  1
  Ag  Ag16  1  0.582174  0.582174  0.582174  1
  Ag  Ag17  1  0.582174  0.582174  0.253479  1
  Ag  Ag18  1  0.582174  0.253479  0.582174  1
  Ag  Ag19  1  0.253479  0.582174  0.582174  1
  Pt  Pt20  1  0.143945  0.143945  0.143945  1
  Pt  Pt21  1  0.143945  0.143945  0.568165  1
  Pt  Pt22  1  0.143945  0.568165  0.143945  1
  Pt  Pt23  1  0.568165  0.143945  0.143945  1
