# generated using pymatgen
data_Pm4Tc3(IO8)3
_symmetry_space_group_name_H-M   'P 1'
_cell_length_a   7.67873958
_cell_length_b   6.99272764
_cell_length_c   11.33127046
_cell_angle_alpha   76.54644543
_cell_angle_beta   83.26276116
_cell_angle_gamma   111.11818904
_symmetry_Int_Tables_number   1
_chemical_formula_structural   Pm4Tc3(IO8)3
_chemical_formula_sum   'Pm4 Tc3 I3 O24'
_cell_volume   538.26112033
_cell_formula_units_Z   1
loop_
 _symmetry_equiv_pos_site_id
 _symmetry_equiv_pos_as_xyz
  1  'x, y, z'
loop_
 _atom_site_type_symbol
 _atom_site_label
 _atom_site_symmetry_multiplicity
 _atom_site_fract_x
 _atom_site_fract_y
 _atom_site_fract_z
 _atom_site_occupancy
  Pm  Pm0  1  0.194720  0.449361  0.572736  1
  Pm  Pm1  1  0.807569  0.578538  0.428007  1
  Pm  Pm2  1  0.542260  0.805015  0.908889  1
  Pm  Pm3  1  0.470919  0.192002  0.093251  1
  Tc  Tc4  1  0.305338  0.001128  0.457455  1
  Tc  Tc5  1  0.642453  0.345501  0.771934  1
  Tc  Tc6  1  0.355471  0.654481  0.223251  1
  I  I7  1  0.061241  0.298809  0.929392  1
  I  I8  1  0.944077  0.697976  0.079271  1
  I  I9  1  0.705813  0.004741  0.563457  1
  O  O10  1  0.584504  0.469249  0.629155  1
  O  O11  1  0.383285  0.517786  0.372629  1
  O  O12  1  0.543197  0.457855  0.876856  1
  O  O13  1  0.453829  0.533841  0.123186  1
  O  O14  1  0.518353  0.084576  0.747514  1
  O  O15  1  0.502576  0.907968  0.243526  1
  O  O16  1  0.892919  0.464499  0.721395  1
  O  O17  1  0.101700  0.550525  0.260437  1
  O  O18  1  0.664954  0.159667  0.924193  1
  O  O19  1  0.344890  0.848245  0.068266  1
  O  O20  1  0.900984  0.288375  0.518480  1
  O  O21  1  0.104337  0.722210  0.466297  1
  O  O22  1  0.385568  0.802264  0.556585  1
  O  O23  1  0.551008  0.201547  0.429044  1
  O  O24  1  0.206089  0.580699  0.915262  1
  O  O25  1  0.802245  0.418146  0.086819  1
  O  O26  1  0.173811  0.284846  0.781939  1
  O  O27  1  0.814402  0.711854  0.221201  1
  O  O28  1  0.759451  0.881486  0.708602  1
  O  O29  1  0.274549  0.097672  0.304909  1
  O  O30  1  0.843055  0.839961  0.967607  1
  O  O31  1  0.166067  0.156899  0.037681  1
  O  O32  1  0.184843  0.091492  0.555908  1
  O  O33  1  0.813524  0.900789  0.454867  1
