# generated using pymatgen
data_Zr6V2Co16Si7P5
_symmetry_space_group_name_H-M   'P 1'
_cell_length_a   12.09428557
_cell_length_b   12.09945969
_cell_length_c   3.65927300
_cell_angle_alpha   90.00000000
_cell_angle_beta   90.00000000
_cell_angle_gamma   119.98488508
_symmetry_Int_Tables_number   1
_chemical_formula_structural   Zr6V2Co16Si7P5
_chemical_formula_sum   'Zr6 V2 Co16 Si7 P5'
_cell_volume   463.80749822
_cell_formula_units_Z   1
loop_
 _symmetry_equiv_pos_site_id
 _symmetry_equiv_pos_as_xyz
  1  'x, y, z'
loop_
 _atom_site_type_symbol
 _atom_site_label
 _atom_site_symmetry_multiplicity
 _atom_site_fract_x
 _atom_site_fract_y
 _atom_site_fract_z
 _atom_site_occupancy
  Zr  Zr0  1  0.002343  0.558814  0.000000  1
  Zr  Zr1  1  0.663863  0.330896  0.000000  1
  Zr  Zr2  1  0.334049  0.666710  0.000000  1
  Zr  Zr3  1  0.813677  0.814827  0.500000  1
  Zr  Zr4  1  0.186438  0.003294  0.500000  1
  Zr  Zr5  1  0.998883  0.177154  0.500000  1
  V  V6  1  0.436089  0.438704  0.000000  1
  V  V7  1  0.563187  0.000954  0.000000  1
  Co  Co8  1  0.201444  0.373136  0.000000  1
  Co  Co9  1  0.179663  0.807767  0.000000  1
  Co  Co10  1  0.822148  0.631130  0.000000  1
  Co  Co11  1  0.801269  0.169507  0.000000  1
  Co  Co12  1  0.370969  0.198817  0.000000  1
  Co  Co13  1  0.132315  0.483135  0.500000  1
  Co  Co14  1  0.356585  0.877785  0.500000  1
  Co  Co15  1  0.513392  0.641713  0.500000  1
  Co  Co16  1  0.639497  0.522307  0.500000  1
  Co  Co17  1  0.877788  0.352865  0.500000  1
  Co  Co18  1  0.479610  0.125077  0.500000  1
  Co  Co19  1  0.000182  0.000237  0.000000  1
  Co  Co20  1  0.721280  0.997610  0.500000  1
  Co  Co21  1  0.003053  0.726997  0.500000  1
  Co  Co22  1  0.626347  0.824206  0.000000  1
  Co  Co23  1  0.277966  0.280034  0.500000  1
  Si  Si24  1  0.637726  0.641359  0.000000  1
  Si  Si25  1  0.361709  0.003867  0.000000  1
  Si  Si26  1  0.000029  0.345338  0.000000  1
  Si  Si27  1  0.482049  0.315364  0.500000  1
  Si  Si28  1  0.686073  0.167188  0.500000  1
  Si  Si29  1  0.821898  0.516293  0.500000  1
  Si  Si30  1  0.517415  0.833107  0.500000  1
  P  P31  1  0.177520  0.695225  0.500000  1
  P  P32  1  0.821267  0.996654  0.000000  1
  P  P33  1  0.000299  0.824254  0.000000  1
  P  P34  1  0.314665  0.481003  0.500000  1
  P  P35  1  0.177313  0.176666  0.000000  1
