# generated using pymatgen
data_Ta6MnSi6Ru3W2
_symmetry_space_group_name_H-M   'P 1'
_cell_length_a   7.49637381
_cell_length_b   7.47656713
_cell_length_c   7.49388794
_cell_angle_alpha   126.81869314
_cell_angle_beta   124.11436478
_cell_angle_gamma   80.85192509
_symmetry_Int_Tables_number   1
_chemical_formula_structural   Ta6MnSi6Ru3W2
_chemical_formula_sum   'Ta6 Mn1 Si6 Ru3 W2'
_cell_volume   268.25028628
_cell_formula_units_Z   1
loop_
 _symmetry_equiv_pos_site_id
 _symmetry_equiv_pos_as_xyz
  1  'x, y, z'
loop_
 _atom_site_type_symbol
 _atom_site_label
 _atom_site_symmetry_multiplicity
 _atom_site_fract_x
 _atom_site_fract_y
 _atom_site_fract_z
 _atom_site_occupancy
  Ta  Ta0  1  0.941130  0.913003  0.464252  1
  Ta  Ta1  1  0.055103  0.518654  0.955739  1
  Ta  Ta2  1  0.542164  0.511017  0.472892  1
  Ta  Ta3  1  0.466294  0.937438  0.979257  1
  Ta  Ta4  1  0.747430  0.080130  0.833708  1
  Ta  Ta5  1  0.249876  0.085499  0.332396  1
  Mn  Mn6  1  0.908545  0.250520  0.413421  1
  Si  Si7  1  0.723178  0.442591  0.229159  1
  Si  Si8  1  0.273624  0.504336  0.724305  1
  Si  Si9  1  0.676117  0.183370  0.516314  1
  Si  Si10  1  0.324060  0.839799  0.504889  1
  Si  Si11  1  0.165457  0.181655  0.007460  1
  Si  Si12  1  0.835713  0.846841  0.021103  1
  Ru  Ru13  1  0.092415  0.505099  0.344047  1
  Ru  Ru14  1  0.338362  0.251892  0.843879  1
  Ru  Ru15  1  0.660212  0.506067  0.914040  1
  W  W16  1  0.501157  0.750138  0.251414  1
  W  W17  1  0.999163  0.749753  0.749523  1
