# generated using pymatgen
data_Tb3HoAl18Ir5Au
_symmetry_space_group_name_H-M   'P 1'
_cell_length_a   7.59755121
_cell_length_b   7.59891038
_cell_length_c   9.48733501
_cell_angle_alpha   89.96676121
_cell_angle_beta   89.96603811
_cell_angle_gamma   119.70562450
_symmetry_Int_Tables_number   1
_chemical_formula_structural   Tb3HoAl18Ir5Au
_chemical_formula_sum   'Tb3 Ho1 Al18 Ir5 Au1'
_cell_volume   475.75149369
_cell_formula_units_Z   1
loop_
 _symmetry_equiv_pos_site_id
 _symmetry_equiv_pos_as_xyz
  1  'x, y, z'
loop_
 _atom_site_type_symbol
 _atom_site_label
 _atom_site_symmetry_multiplicity
 _atom_site_fract_x
 _atom_site_fract_y
 _atom_site_fract_z
 _atom_site_occupancy
  Tb  Tb0  1  0.993200  0.668126  0.250993  1
  Tb  Tb1  1  0.002654  0.328992  0.749197  1
  Tb  Tb2  1  0.670990  0.997483  0.250794  1
  Ho  Ho3  1  0.331756  0.006865  0.748770  1
  Al  Al4  1  0.127751  0.125766  0.250971  1
  Al  Al5  1  0.874587  0.872428  0.749040  1
  Al  Al6  1  0.011276  0.335005  0.078212  1
  Al  Al7  1  0.008316  0.675063  0.921868  1
  Al  Al8  1  0.001540  0.665798  0.573878  1
  Al  Al9  1  0.334509  0.998749  0.426827  1
  Al  Al10  1  0.000814  0.334399  0.425379  1
  Al  Al11  1  0.665213  0.999168  0.575003  1
  Al  Al12  1  0.664610  0.988812  0.921440  1
  Al  Al13  1  0.325421  0.992147  0.077422  1
  Al  Al14  1  0.332046  0.332052  0.551210  1
  Al  Al15  1  0.667631  0.667944  0.449247  1
  Al  Al16  1  0.665485  0.672830  0.059251  1
  Al  Al17  1  0.327217  0.334160  0.940287  1
  Al  Al18  1  0.340794  0.550470  0.251328  1
  Al  Al19  1  0.659667  0.457699  0.742561  1
  Al  Al20  1  0.541822  0.339856  0.257517  1
  Al  Al21  1  0.449451  0.659531  0.748678  1
  Ir  Ir22  1  0.328631  0.671382  0.999808  1
  Ir  Ir23  1  0.328536  0.671492  0.500184  1
  Ir  Ir24  1  0.672077  0.327462  0.500211  1
  Ir  Ir25  1  0.999980  0.000238  0.999790  1
  Ir  Ir26  1  0.000601  0.999659  0.500215  1
  Au  Au27  1  0.673426  0.326423  0.999918  1
