# generated using pymatgen
data_Pr5GeS4
_symmetry_space_group_name_H-M   'P 1'
_cell_length_a   7.20189974
_cell_length_b   7.20189982
_cell_length_c   7.20186921
_cell_angle_alpha   99.59658180
_cell_angle_beta   99.59643631
_cell_angle_gamma   131.80395312
_symmetry_Int_Tables_number   1
_chemical_formula_structural   Pr5GeS4
_chemical_formula_sum   'Pr5 Ge1 S4'
_cell_volume   254.18184032
_cell_formula_units_Z   1
loop_
 _symmetry_equiv_pos_site_id
 _symmetry_equiv_pos_as_xyz
  1  'x, y, z'
loop_
 _atom_site_type_symbol
 _atom_site_label
 _atom_site_symmetry_multiplicity
 _atom_site_fract_x
 _atom_site_fract_y
 _atom_site_fract_z
 _atom_site_occupancy
  Pr  Pr0  1  0.400440  0.802309  0.202749  1
  Pr  Pr1  1  0.000000  0.000000  0.000000  1
  Pr  Pr2  1  0.599560  0.197691  0.797251  1
  Pr  Pr3  1  0.197689  0.400438  0.598127  1
  Pr  Pr4  1  0.802311  0.599562  0.401873  1
  Ge  Ge5  1  0.500000  0.500000  0.000000  1
  S  S6  1  0.103075  0.700309  0.803382  1
  S  S7  1  0.700306  0.896927  0.597233  1
  S  S8  1  0.299694  0.103073  0.402767  1
  S  S9  1  0.896925  0.299691  0.196618  1
