# generated using pymatgen
data_Zr12Zn3Cu(Ir2N)4
_symmetry_space_group_name_H-M   'P 1'
_cell_length_a   8.54023571
_cell_length_b   8.56752397
_cell_length_c   8.54023700
_cell_angle_alpha   60.10530471
_cell_angle_beta   59.99999889
_cell_angle_gamma   60.10530953
_symmetry_Int_Tables_number   1
_chemical_formula_structural   Zr12Zn3Cu(Ir2N)4
_chemical_formula_sum   'Zr12 Zn3 Cu1 Ir8 N4'
_cell_volume   442.55734213
_cell_formula_units_Z   1
loop_
 _symmetry_equiv_pos_site_id
 _symmetry_equiv_pos_as_xyz
  1  'x, y, z'
loop_
 _atom_site_type_symbol
 _atom_site_label
 _atom_site_symmetry_multiplicity
 _atom_site_fract_x
 _atom_site_fract_y
 _atom_site_fract_z
 _atom_site_occupancy
  Zr  Zr0  1  0.806073  0.193272  0.194583  1
  Zr  Zr1  1  0.192616  0.807678  0.192616  1
  Zr  Zr2  1  0.807089  0.807678  0.192616  1
  Zr  Zr3  1  0.192616  0.807678  0.807089  1
  Zr  Zr4  1  0.806073  0.193272  0.806073  1
  Zr  Zr5  1  0.194583  0.193272  0.806073  1
  Zr  Zr6  1  0.443927  0.056728  0.055417  1
  Zr  Zr7  1  0.057384  0.442322  0.057384  1
  Zr  Zr8  1  0.442911  0.442322  0.057384  1
  Zr  Zr9  1  0.057384  0.442322  0.442911  1
  Zr  Zr10  1  0.443927  0.056728  0.443927  1
  Zr  Zr11  1  0.055417  0.056728  0.443927  1
  Zn  Zn12  1  0.625000  0.625000  0.125000  1
  Zn  Zn13  1  0.625000  0.625000  0.625000  1
  Zn  Zn14  1  0.125000  0.625000  0.625000  1
  Cu  Cu15  1  0.625000  0.125000  0.625000  1
  Ir  Ir16  1  0.415945  0.413530  0.754577  1
  Ir  Ir17  1  0.415945  0.413530  0.415945  1
  Ir  Ir18  1  0.754577  0.413530  0.415945  1
  Ir  Ir19  1  0.414542  0.756373  0.414542  1
  Ir  Ir20  1  0.834055  0.836470  0.495423  1
  Ir  Ir21  1  0.834055  0.836470  0.834055  1
  Ir  Ir22  1  0.495423  0.836470  0.834055  1
  Ir  Ir23  1  0.835458  0.493627  0.835458  1
  N  N24  1  0.125000  0.125000  0.625000  1
  N  N25  1  0.125000  0.125000  0.125000  1
  N  N26  1  0.625000  0.125000  0.125000  1
  N  N27  1  0.125000  0.625000  0.125000  1
