# generated using pymatgen
data_LaNdTh2(ZnRh)4
_symmetry_space_group_name_H-M   'P 1'
_cell_length_a   3.96710900
_cell_length_b   7.56653300
_cell_length_c   16.62191200
_cell_angle_alpha   90.00000000
_cell_angle_beta   90.00000000
_cell_angle_gamma   90.00000000
_symmetry_Int_Tables_number   1
_chemical_formula_structural   LaNdTh2(ZnRh)4
_chemical_formula_sum   'La2 Nd2 Th4 Zn8 Rh8'
_cell_volume   498.94427353
_cell_formula_units_Z   2
loop_
 _symmetry_equiv_pos_site_id
 _symmetry_equiv_pos_as_xyz
  1  'x, y, z'
loop_
 _atom_site_type_symbol
 _atom_site_label
 _atom_site_symmetry_multiplicity
 _atom_site_fract_x
 _atom_site_fract_y
 _atom_site_fract_z
 _atom_site_occupancy
  La  La0  1  0.750000  0.446670  0.215160  1
  La  La1  1  0.750000  0.946670  0.284840  1
  Nd  Nd2  1  0.250000  0.053824  0.714614  1
  Nd  Nd3  1  0.250000  0.553824  0.785386  1
  Th  Th4  1  0.750000  0.326541  0.441096  1
  Th  Th5  1  0.250000  0.673333  0.562710  1
  Th  Th6  1  0.750000  0.826541  0.058904  1
  Th  Th7  1  0.250000  0.173333  0.937290  1
  Zn  Zn8  1  0.250000  0.118444  0.150355  1
  Zn  Zn9  1  0.250000  0.992782  0.441209  1
  Zn  Zn10  1  0.750000  0.881557  0.845539  1
  Zn  Zn11  1  0.750000  0.005544  0.562020  1
  Zn  Zn12  1  0.250000  0.492782  0.058791  1
  Zn  Zn13  1  0.750000  0.381557  0.654461  1
  Zn  Zn14  1  0.750000  0.505544  0.937980  1
  Zn  Zn15  1  0.250000  0.618444  0.349645  1
  Rh  Rh16  1  0.750000  0.249575  0.819448  1
  Rh  Rh17  1  0.250000  0.252358  0.321799  1
  Rh  Rh18  1  0.250000  0.759521  0.939741  1
  Rh  Rh19  1  0.250000  0.259521  0.560259  1
  Rh  Rh20  1  0.250000  0.752358  0.178201  1
  Rh  Rh21  1  0.750000  0.739851  0.442679  1
  Rh  Rh22  1  0.750000  0.239851  0.057321  1
  Rh  Rh23  1  0.750000  0.749575  0.680552  1
