# generated using pymatgen
data_Sc3V(Tc2W)4
_symmetry_space_group_name_H-M   'P 1'
_cell_length_a   6.32346500
_cell_length_b   4.43905400
_cell_length_c   8.89047000
_cell_angle_alpha   90.00000000
_cell_angle_beta   90.00301093
_cell_angle_gamma   90.00000000
_symmetry_Int_Tables_number   1
_chemical_formula_structural   Sc3V(Tc2W)4
_chemical_formula_sum   'Sc3 V1 Tc8 W4'
_cell_volume   249.55729396
_cell_formula_units_Z   1
loop_
 _symmetry_equiv_pos_site_id
 _symmetry_equiv_pos_as_xyz
  1  'x, y, z'
loop_
 _atom_site_type_symbol
 _atom_site_label
 _atom_site_symmetry_multiplicity
 _atom_site_fract_x
 _atom_site_fract_y
 _atom_site_fract_z
 _atom_site_occupancy
  Sc  Sc0  1  0.750112  0.749999  0.373978  1
  Sc  Sc1  1  0.249913  0.250001  0.624993  1
  Sc  Sc2  1  0.749932  0.749999  0.876047  1
  V  V3  1  0.250082  0.250001  0.124999  1
  Tc  Tc4  1  0.008116  0.749999  0.124987  1
  Tc  Tc5  1  0.491975  0.749999  0.125004  1
  Tc  Tc6  1  0.004319  0.250001  0.367600  1
  Tc  Tc7  1  0.495803  0.250001  0.367617  1
  Tc  Tc8  1  0.499375  0.749999  0.624992  1
  Tc  Tc9  1  0.000504  0.749999  0.625011  1
  Tc  Tc10  1  0.495654  0.250001  0.882401  1
  Tc  Tc11  1  0.004187  0.250001  0.882397  1
  W  W12  1  0.750087  0.250001  0.125017  1
  W  W13  1  0.250059  0.749999  0.373678  1
  W  W14  1  0.749954  0.250001  0.625016  1
  W  W15  1  0.249927  0.749999  0.876266  1
