# generated using pymatgen
data_Y8Ho2Si6N
_symmetry_space_group_name_H-M   'P 1'
_cell_length_a   8.42437100
_cell_length_b   8.42436999
_cell_length_c   6.35424200
_cell_angle_alpha   90.00000000
_cell_angle_beta   90.00000000
_cell_angle_gamma   119.99999217
_symmetry_Int_Tables_number   1
_chemical_formula_structural   Y8Ho2Si6N
_chemical_formula_sum   'Y8 Ho2 Si6 N1'
_cell_volume   390.54342780
_cell_formula_units_Z   1
loop_
 _symmetry_equiv_pos_site_id
 _symmetry_equiv_pos_as_xyz
  1  'x, y, z'
loop_
 _atom_site_type_symbol
 _atom_site_label
 _atom_site_symmetry_multiplicity
 _atom_site_fract_x
 _atom_site_fract_y
 _atom_site_fract_z
 _atom_site_occupancy
  Y  Y0  1  0.666667  0.333333  0.000000  1
  Y  Y1  1  0.333333  0.666667  0.000000  1
  Y  Y2  1  0.000000  0.767234  0.266615  1
  Y  Y3  1  0.232766  0.232766  0.266615  1
  Y  Y4  1  0.767234  0.000000  0.266615  1
  Y  Y5  1  0.000000  0.232766  0.733385  1
  Y  Y6  1  0.767234  0.767234  0.733385  1
  Y  Y7  1  0.232766  0.000000  0.733385  1
  Ho  Ho8  1  0.333333  0.666667  0.500000  1
  Ho  Ho9  1  0.666667  0.333333  0.500000  1
  Si  Si10  1  0.000000  0.399809  0.252163  1
  Si  Si11  1  0.600191  0.600191  0.252163  1
  Si  Si12  1  0.399809  0.000000  0.252163  1
  Si  Si13  1  0.000000  0.600191  0.747837  1
  Si  Si14  1  0.399809  0.399809  0.747837  1
  Si  Si15  1  0.600191  0.000000  0.747837  1
  N  N16  1  0.000000  0.000000  0.500000  1
