# generated using pymatgen
data_Dy2ErSn3Ir2Rh
_symmetry_space_group_name_H-M   'P 1'
_cell_length_a   7.66522800
_cell_length_b   7.65615666
_cell_length_c   3.73843000
_cell_angle_alpha   90.00000000
_cell_angle_beta   90.00000000
_cell_angle_gamma   120.03919338
_symmetry_Int_Tables_number   1
_chemical_formula_structural   Dy2ErSn3Ir2Rh
_chemical_formula_sum   'Dy2 Er1 Sn3 Ir2 Rh1'
_cell_volume   189.92586732
_cell_formula_units_Z   1
loop_
 _symmetry_equiv_pos_site_id
 _symmetry_equiv_pos_as_xyz
  1  'x, y, z'
loop_
 _atom_site_type_symbol
 _atom_site_label
 _atom_site_symmetry_multiplicity
 _atom_site_fract_x
 _atom_site_fract_y
 _atom_site_fract_z
 _atom_site_occupancy
  Dy  Dy0  1  0.405241  0.405475  0.000000  1
  Dy  Dy1  1  0.999766  0.594525  0.000000  1
  Er  Er2  1  0.594685  0.000000  0.000000  1
  Sn  Sn3  1  0.736194  0.737191  0.500000  1
  Sn  Sn4  1  0.999002  0.262809  0.500000  1
  Sn  Sn5  1  0.264154  0.000000  0.500000  1
  Ir  Ir6  1  0.666295  0.331524  0.500000  1
  Ir  Ir7  1  0.334770  0.668476  0.500000  1
  Rh  Rh8  1  0.999894  0.000000  0.000000  1
