# generated using pymatgen
data_B2Pd4Rh
_symmetry_space_group_name_H-M   'P 1'
_cell_length_a   4.95552459
_cell_length_b   5.53218887
_cell_length_c   6.97292650
_cell_angle_alpha   95.99690851
_cell_angle_beta   110.81431232
_cell_angle_gamma   90.00000307
_symmetry_Int_Tables_number   1
_chemical_formula_structural   B2Pd4Rh
_chemical_formula_sum   'B4 Pd8 Rh2'
_cell_volume   177.56663357
_cell_formula_units_Z   2
loop_
 _symmetry_equiv_pos_site_id
 _symmetry_equiv_pos_as_xyz
  1  'x, y, z'
loop_
 _atom_site_type_symbol
 _atom_site_label
 _atom_site_symmetry_multiplicity
 _atom_site_fract_x
 _atom_site_fract_y
 _atom_site_fract_z
 _atom_site_occupancy
  B  B0  1  0.421158  0.070650  0.209553  1
  B  B1  1  0.788394  0.570650  0.209553  1
  B  B2  1  0.211606  0.429349  0.790446  1
  B  B3  1  0.578840  0.929348  0.790446  1
  Pd  Pd4  1  0.181255  0.418491  0.195049  1
  Pd  Pd5  1  0.013795  0.918493  0.195049  1
  Pd  Pd6  1  0.780273  0.313057  0.422422  1
  Pd  Pd7  1  0.642147  0.813057  0.422422  1
  Pd  Pd8  1  0.357852  0.186942  0.577579  1
  Pd  Pd9  1  0.219728  0.686943  0.577579  1
  Pd  Pd10  1  0.986205  0.081508  0.804950  1
  Pd  Pd11  1  0.818746  0.581508  0.804950  1
  Rh  Rh12  1  0.556730  0.250001  0.999999  1
  Rh  Rh13  1  0.443269  0.750000  0.999999  1
