# generated using pymatgen
data_Tb3Y3Cd23As
_symmetry_space_group_name_H-M   'P 1'
_cell_length_a   9.99098981
_cell_length_b   9.99098847
_cell_length_c   9.99316600
_cell_angle_alpha   60.00720595
_cell_angle_beta   60.00720376
_cell_angle_gamma   59.99999879
_symmetry_Int_Tables_number   1
_chemical_formula_structural   Tb3Y3Cd23As
_chemical_formula_sum   'Tb3 Y3 Cd23 As1'
_cell_volume   705.42745905
_cell_formula_units_Z   1
loop_
 _symmetry_equiv_pos_site_id
 _symmetry_equiv_pos_as_xyz
  1  'x, y, z'
loop_
 _atom_site_type_symbol
 _atom_site_label
 _atom_site_symmetry_multiplicity
 _atom_site_fract_x
 _atom_site_fract_y
 _atom_site_fract_z
 _atom_site_occupancy
  Tb  Tb0  1  0.795072  0.795072  0.204459  1
  Tb  Tb1  1  0.205397  0.795072  0.204459  1
  Tb  Tb2  1  0.795072  0.205397  0.204459  1
  Y  Y3  1  0.204854  0.204854  0.794741  1
  Y  Y4  1  0.795553  0.204854  0.794741  1
  Y  Y5  1  0.204854  0.795553  0.794741  1
  Cd  Cd6  1  0.836549  0.836549  0.490356  1
  Cd  Cd7  1  0.835532  0.493009  0.835929  1
  Cd  Cd8  1  0.493009  0.835532  0.835929  1
  Cd  Cd9  1  0.835532  0.835532  0.835929  1
  Cd  Cd10  1  0.164682  0.164682  0.505952  1
  Cd  Cd11  1  0.163718  0.508225  0.164336  1
  Cd  Cd12  1  0.508225  0.163718  0.164336  1
  Cd  Cd13  1  0.163718  0.163718  0.164336  1
  Cd  Cd14  1  0.620981  0.620981  0.137055  1
  Cd  Cd15  1  0.622042  0.134791  0.621125  1
  Cd  Cd16  1  0.134791  0.622042  0.621125  1
  Cd  Cd17  1  0.622042  0.622042  0.621125  1
  Cd  Cd18  1  0.377877  0.377877  0.866369  1
  Cd  Cd19  1  0.378916  0.864074  0.378093  1
  Cd  Cd20  1  0.864074  0.378916  0.378093  1
  Cd  Cd21  1  0.378916  0.378916  0.378093  1
  Cd  Cd22  1  0.000042  0.000042  0.500530  1
  Cd  Cd23  1  0.499386  0.000042  0.500530  1
  Cd  Cd24  1  0.000042  0.499386  0.500530  1
  Cd  Cd25  1  0.500049  0.500049  0.999791  1
  Cd  Cd26  1  0.000111  0.500049  0.999791  1
  Cd  Cd27  1  0.500049  0.000111  0.999791  1
  Cd  Cd28  1  0.499011  0.499011  0.502967  1
  As  As29  1  0.999903  0.999903  0.000291  1
