# generated using pymatgen
data_NdSmMg4(PaRh2)2
_symmetry_space_group_name_H-M   'P 1'
_cell_length_a   3.85843000
_cell_length_b   7.45201789
_cell_length_c   9.10964500
_cell_angle_alpha   91.34206762
_cell_angle_beta   90.00000000
_cell_angle_gamma   90.00000000
_symmetry_Int_Tables_number   1
_chemical_formula_structural   NdSmMg4(PaRh2)2
_chemical_formula_sum   'Nd1 Sm1 Mg4 Pa2 Rh4'
_cell_volume   261.85858488
_cell_formula_units_Z   1
loop_
 _symmetry_equiv_pos_site_id
 _symmetry_equiv_pos_as_xyz
  1  'x, y, z'
loop_
 _atom_site_type_symbol
 _atom_site_label
 _atom_site_symmetry_multiplicity
 _atom_site_fract_x
 _atom_site_fract_y
 _atom_site_fract_z
 _atom_site_occupancy
  Nd  Nd0  1  0.750000  0.470169  0.182501  1
  Sm  Sm1  1  0.250000  0.529371  0.814751  1
  Mg  Mg2  1  0.750000  0.854865  0.951298  1
  Mg  Mg3  1  0.250000  0.143838  0.047556  1
  Mg  Mg4  1  0.250000  0.641892  0.448997  1
  Mg  Mg5  1  0.750000  0.358912  0.552238  1
  Pa  Pa6  1  0.750000  0.969566  0.314135  1
  Pa  Pa7  1  0.250000  0.030611  0.686784  1
  Rh  Rh8  1  0.750000  0.785746  0.634976  1
  Rh  Rh9  1  0.250000  0.211809  0.366523  1
  Rh  Rh10  1  0.250000  0.779902  0.170438  1
  Rh  Rh11  1  0.750000  0.223319  0.829803  1
