# generated using pymatgen
data_Sc24Fe3Co5
_symmetry_space_group_name_H-M   'P 1'
_cell_length_a   5.82666057
_cell_length_b   8.46275400
_cell_length_c   13.09017399
_cell_angle_alpha   90.00000000
_cell_angle_beta   89.87324267
_cell_angle_gamma   90.00000000
_symmetry_Int_Tables_number   1
_chemical_formula_structural   Sc24Fe3Co5
_chemical_formula_sum   'Sc24 Fe3 Co5'
_cell_volume   645.46959926
_cell_formula_units_Z   1
loop_
 _symmetry_equiv_pos_site_id
 _symmetry_equiv_pos_as_xyz
  1  'x, y, z'
loop_
 _atom_site_type_symbol
 _atom_site_label
 _atom_site_symmetry_multiplicity
 _atom_site_fract_x
 _atom_site_fract_y
 _atom_site_fract_z
 _atom_site_occupancy
  Sc  Sc0  1  0.547004  0.750000  0.352807  1
  Sc  Sc1  1  0.045440  0.250000  0.147057  1
  Sc  Sc2  1  0.454242  0.250000  0.646947  1
  Sc  Sc3  1  0.952742  0.750000  0.853945  1
  Sc  Sc4  1  0.786329  0.750000  0.108252  1
  Sc  Sc5  1  0.284876  0.250000  0.390654  1
  Sc  Sc6  1  0.214408  0.250000  0.890193  1
  Sc  Sc7  1  0.714481  0.750000  0.609601  1
  Sc  Sc8  1  0.407963  0.932941  0.787632  1
  Sc  Sc9  1  0.909336  0.067781  0.711759  1
  Sc  Sc10  1  0.591635  0.431998  0.212110  1
  Sc  Sc11  1  0.090371  0.567821  0.287772  1
  Sc  Sc12  1  0.591635  0.068002  0.212110  1
  Sc  Sc13  1  0.090371  0.932179  0.287772  1
  Sc  Sc14  1  0.407963  0.567059  0.787632  1
  Sc  Sc15  1  0.909336  0.432219  0.711759  1
  Sc  Sc16  1  0.243770  0.937518  0.535314  1
  Sc  Sc17  1  0.746288  0.064983  0.965093  1
  Sc  Sc18  1  0.756300  0.437841  0.464715  1
  Sc  Sc19  1  0.256762  0.561388  0.036079  1
  Sc  Sc20  1  0.756300  0.062159  0.464715  1
  Sc  Sc21  1  0.256762  0.938612  0.036079  1
  Sc  Sc22  1  0.243770  0.562482  0.535314  1
  Sc  Sc23  1  0.746288  0.435017  0.965093  1
  Fe  Fe24  1  0.939161  0.750000  0.441161  1
  Fe  Fe25  1  0.439522  0.250000  0.058324  1
  Fe  Fe26  1  0.061278  0.250000  0.558927  1
  Co  Co27  1  0.554240  0.750000  0.940568  1
  Co  Co28  1  0.374440  0.750000  0.179557  1
  Co  Co29  1  0.873331  0.250000  0.319968  1
  Co  Co30  1  0.626949  0.250000  0.820206  1
  Co  Co31  1  0.126705  0.750000  0.680882  1
