# generated using pymatgen
data_Tb9Er(RuRh)2
_symmetry_space_group_name_H-M   'P 1'
_cell_length_a   6.39349745
_cell_length_b   7.23651256
_cell_length_c   8.58057387
_cell_angle_alpha   96.63159303
_cell_angle_beta   111.87336688
_cell_angle_gamma   90.00000061
_symmetry_Int_Tables_number   1
_chemical_formula_structural   Tb9Er(RuRh)2
_chemical_formula_sum   'Tb9 Er1 Ru2 Rh2'
_cell_volume   365.55058866
_cell_formula_units_Z   1
loop_
 _symmetry_equiv_pos_site_id
 _symmetry_equiv_pos_as_xyz
  1  'x, y, z'
loop_
 _atom_site_type_symbol
 _atom_site_label
 _atom_site_symmetry_multiplicity
 _atom_site_fract_x
 _atom_site_fract_y
 _atom_site_fract_z
 _atom_site_occupancy
  Tb  Tb0  1  0.793184  0.581255  0.812160  1
  Tb  Tb1  1  0.981024  0.918745  0.187840  1
  Tb  Tb2  1  0.207919  0.414380  0.184586  1
  Tb  Tb3  1  0.023333  0.085620  0.815414  1
  Tb  Tb4  1  0.208172  0.684125  0.565930  1
  Tb  Tb5  1  0.642243  0.815875  0.434070  1
  Tb  Tb6  1  0.791597  0.311890  0.436438  1
  Tb  Tb7  1  0.355159  0.188110  0.563562  1
  Tb  Tb8  1  0.422028  0.750000  0.000000  1
  Er  Er9  1  0.575665  0.250000  0.000000  1
  Ru  Ru10  1  0.398764  0.074242  0.219890  1
  Ru  Ru11  1  0.178874  0.425758  0.780110  1
  Rh  Rh12  1  0.600453  0.925415  0.778868  1
  Rh  Rh13  1  0.821584  0.574585  0.221132  1
