# generated using pymatgen
data_SrYb(GaSi)2
_symmetry_space_group_name_H-M   'P 1'
_cell_length_a   4.20297200
_cell_length_b   4.20297155
_cell_length_c   17.77132300
_cell_angle_alpha   90.00000000
_cell_angle_beta   90.00000000
_cell_angle_gamma   120.00000357
_symmetry_Int_Tables_number   1
_chemical_formula_structural   SrYb(GaSi)2
_chemical_formula_sum   'Sr2 Yb2 Ga4 Si4'
_cell_volume   271.87127453
_cell_formula_units_Z   2
loop_
 _symmetry_equiv_pos_site_id
 _symmetry_equiv_pos_as_xyz
  1  'x, y, z'
loop_
 _atom_site_type_symbol
 _atom_site_label
 _atom_site_symmetry_multiplicity
 _atom_site_fract_x
 _atom_site_fract_y
 _atom_site_fract_z
 _atom_site_occupancy
  Sr  Sr0  1  0.000000  0.000000  0.000000  1
  Sr  Sr1  1  0.000000  0.000000  0.500000  1
  Yb  Yb2  1  0.000000  0.000000  0.250000  1
  Yb  Yb3  1  0.000000  0.000000  0.750000  1
  Ga  Ga4  1  0.666666  0.333333  0.158413  1
  Ga  Ga5  1  0.666666  0.333333  0.341587  1
  Ga  Ga6  1  0.333333  0.666667  0.658413  1
  Ga  Ga7  1  0.333333  0.666667  0.841588  1
  Si  Si8  1  0.333333  0.666667  0.123341  1
  Si  Si9  1  0.333333  0.666667  0.376659  1
  Si  Si10  1  0.666666  0.333333  0.623340  1
  Si  Si11  1  0.666666  0.333333  0.876660  1
