# generated using pymatgen
data_Tb3Ho5(AlNi)2
_symmetry_space_group_name_H-M   'P 1'
_cell_length_a   9.39559392
_cell_length_b   9.39559277
_cell_length_c   9.39559400
_cell_angle_alpha   59.99999567
_cell_angle_beta   59.99999973
_cell_angle_gamma   59.99999780
_symmetry_Int_Tables_number   1
_chemical_formula_structural   Tb3Ho5(AlNi)2
_chemical_formula_sum   'Tb6 Ho10 Al4 Ni4'
_cell_volume   586.48599416
_cell_formula_units_Z   2
loop_
 _symmetry_equiv_pos_site_id
 _symmetry_equiv_pos_as_xyz
  1  'x, y, z'
loop_
 _atom_site_type_symbol
 _atom_site_label
 _atom_site_symmetry_multiplicity
 _atom_site_fract_x
 _atom_site_fract_y
 _atom_site_fract_z
 _atom_site_occupancy
  Tb  Tb0  1  0.936031  0.563969  0.563969  1
  Tb  Tb1  1  0.563969  0.936031  0.936031  1
  Tb  Tb2  1  0.563969  0.936031  0.563969  1
  Tb  Tb3  1  0.936031  0.563969  0.936031  1
  Tb  Tb4  1  0.563969  0.563969  0.936031  1
  Tb  Tb5  1  0.936031  0.936031  0.563969  1
  Ho  Ho6  1  0.350338  0.350338  0.350338  1
  Ho  Ho7  1  0.350338  0.350338  0.948987  1
  Ho  Ho8  1  0.350338  0.948987  0.350338  1
  Ho  Ho9  1  0.948987  0.350338  0.350338  1
  Ho  Ho10  1  0.809430  0.190570  0.190570  1
  Ho  Ho11  1  0.190570  0.809430  0.809430  1
  Ho  Ho12  1  0.190570  0.809430  0.190570  1
  Ho  Ho13  1  0.809430  0.190570  0.809430  1
  Ho  Ho14  1  0.190570  0.190570  0.809430  1
  Ho  Ho15  1  0.809430  0.809430  0.190570  1
  Al  Al16  1  0.576347  0.576347  0.576347  1
  Al  Al17  1  0.576347  0.576347  0.270959  1
  Al  Al18  1  0.576347  0.270959  0.576347  1
  Al  Al19  1  0.270959  0.576347  0.576347  1
  Ni  Ni20  1  0.142862  0.142862  0.142862  1
  Ni  Ni21  1  0.142862  0.142862  0.571414  1
  Ni  Ni22  1  0.142862  0.571414  0.142862  1
  Ni  Ni23  1  0.571414  0.142862  0.142862  1
