# generated using pymatgen
data_Cs2CeSm(GeSe4)2
_symmetry_space_group_name_H-M   'P 1'
_cell_length_a   6.89746235
_cell_length_b   7.21663543
_cell_length_c   18.86983300
_cell_angle_alpha   90.00000000
_cell_angle_beta   90.00000000
_cell_angle_gamma   90.07197030
_symmetry_Int_Tables_number   1
_chemical_formula_structural   Cs2CeSm(GeSe4)2
_chemical_formula_sum   'Cs4 Ce2 Sm2 Ge4 Se16'
_cell_volume   939.27295789
_cell_formula_units_Z   2
loop_
 _symmetry_equiv_pos_site_id
 _symmetry_equiv_pos_as_xyz
  1  'x, y, z'
loop_
 _atom_site_type_symbol
 _atom_site_label
 _atom_site_symmetry_multiplicity
 _atom_site_fract_x
 _atom_site_fract_y
 _atom_site_fract_z
 _atom_site_occupancy
  Cs  Cs0  1  0.996075  0.006971  0.031643  1
  Cs  Cs1  1  0.503924  0.993030  0.531644  1
  Cs  Cs2  1  0.496627  0.493070  0.968341  1
  Cs  Cs3  1  0.003375  0.506931  0.468342  1
  Ce  Ce4  1  0.207972  0.517398  0.726919  1
  Ce  Ce5  1  0.292027  0.482601  0.226920  1
  Sm  Sm6  1  0.706619  0.983042  0.272999  1
  Sm  Sm7  1  0.793381  0.016959  0.772999  1
  Ge  Ge8  1  0.288598  0.980742  0.834074  1
  Ge  Ge9  1  0.211402  0.019258  0.334074  1
  Ge  Ge10  1  0.788685  0.519911  0.166116  1
  Ge  Ge11  1  0.711317  0.480089  0.666116  1
  Se  Se12  1  0.401793  0.912968  0.717557  1
  Se  Se13  1  0.098208  0.087032  0.217557  1
  Se  Se14  1  0.896278  0.591484  0.283021  1
  Se  Se15  1  0.603721  0.408516  0.783022  1
  Se  Se16  1  0.093880  0.252789  0.847586  1
  Se  Se17  1  0.406121  0.747210  0.347585  1
  Se  Se18  1  0.598362  0.243601  0.153191  1
  Se  Se19  1  0.901636  0.756399  0.653191  1
  Se  Se20  1  0.052321  0.743353  0.855117  1
  Se  Se21  1  0.447680  0.256646  0.355117  1
  Se  Se22  1  0.557255  0.760769  0.145041  1
  Se  Se23  1  0.942746  0.239231  0.645041  1
  Se  Se24  1  0.439553  0.485172  0.590015  1
  Se  Se25  1  0.060446  0.514828  0.090015  1
  Se  Se26  1  0.936009  0.014784  0.408378  1
  Se  Se27  1  0.563991  0.985216  0.908377  1
