# generated using pymatgen
data_Hf10ZnCuSb6
_symmetry_space_group_name_H-M   'P 1'
_cell_length_a   8.57886800
_cell_length_b   8.57886783
_cell_length_c   5.76710700
_cell_angle_alpha   90.00000000
_cell_angle_beta   90.00000000
_cell_angle_gamma   119.99999296
_symmetry_Int_Tables_number   1
_chemical_formula_structural   Hf10ZnCuSb6
_chemical_formula_sum   'Hf10 Zn1 Cu1 Sb6'
_cell_volume   367.57725816
_cell_formula_units_Z   1
loop_
 _symmetry_equiv_pos_site_id
 _symmetry_equiv_pos_as_xyz
  1  'x, y, z'
loop_
 _atom_site_type_symbol
 _atom_site_label
 _atom_site_symmetry_multiplicity
 _atom_site_fract_x
 _atom_site_fract_y
 _atom_site_fract_z
 _atom_site_occupancy
  Hf  Hf0  1  0.666667  0.333333  0.000000  1
  Hf  Hf1  1  0.333333  0.666667  0.000000  1
  Hf  Hf2  1  0.333333  0.666667  0.500000  1
  Hf  Hf3  1  0.666667  0.333333  0.500000  1
  Hf  Hf4  1  0.733203  0.733203  0.751796  1
  Hf  Hf5  1  0.266797  0.000000  0.751796  1
  Hf  Hf6  1  0.000000  0.266797  0.751796  1
  Hf  Hf7  1  0.266797  0.266797  0.248204  1
  Hf  Hf8  1  0.733203  0.000000  0.248204  1
  Hf  Hf9  1  0.000000  0.733203  0.248204  1
  Zn  Zn10  1  0.000000  0.000000  0.500000  1
  Cu  Cu11  1  0.000000  0.000000  0.000000  1
  Sb  Sb12  1  0.385816  0.385816  0.749844  1
  Sb  Sb13  1  0.614184  0.000000  0.749844  1
  Sb  Sb14  1  0.000000  0.614184  0.749844  1
  Sb  Sb15  1  0.614184  0.614184  0.250156  1
  Sb  Sb16  1  0.385816  0.000000  0.250156  1
  Sb  Sb17  1  0.000000  0.385816  0.250156  1
