# generated using pymatgen
data_La3Cd(Rh2O7)2
_symmetry_space_group_name_H-M   'P 1'
_cell_length_a   7.31463906
_cell_length_b   7.48125651
_cell_length_c   7.48125600
_cell_angle_alpha   60.00000226
_cell_angle_beta   59.24358664
_cell_angle_gamma   59.24358398
_symmetry_Int_Tables_number   1
_chemical_formula_structural   La3Cd(Rh2O7)2
_chemical_formula_sum   'La3 Cd1 Rh4 O14'
_cell_volume   286.13158493
_cell_formula_units_Z   1
loop_
 _symmetry_equiv_pos_site_id
 _symmetry_equiv_pos_as_xyz
  1  'x, y, z'
loop_
 _atom_site_type_symbol
 _atom_site_label
 _atom_site_symmetry_multiplicity
 _atom_site_fract_x
 _atom_site_fract_y
 _atom_site_fract_z
 _atom_site_occupancy
  La  La0  1  0.125000  0.125000  0.125000  1
  La  La1  1  0.125000  0.625000  0.125000  1
  La  La2  1  0.125000  0.125000  0.625000  1
  Cd  Cd3  1  0.625000  0.125000  0.125000  1
  Rh  Rh4  1  0.625000  0.625000  0.125000  1
  Rh  Rh5  1  0.625000  0.625000  0.625000  1
  Rh  Rh6  1  0.625000  0.125000  0.625000  1
  Rh  Rh7  1  0.125000  0.625000  0.625000  1
  O  O8  1  0.698285  0.301350  0.301350  1
  O  O9  1  0.698285  0.699016  0.301350  1
  O  O10  1  0.291433  0.706520  0.295527  1
  O  O11  1  0.986935  0.004355  0.004355  1
  O  O12  1  0.698285  0.301350  0.699016  1
  O  O13  1  0.958567  0.543480  0.543480  1
  O  O14  1  0.291433  0.706520  0.706520  1
  O  O15  1  0.551715  0.948650  0.550984  1
  O  O16  1  0.263065  0.245645  0.245645  1
  O  O17  1  0.958567  0.543480  0.954473  1
  O  O18  1  0.551715  0.550984  0.948650  1
  O  O19  1  0.958567  0.954473  0.543480  1
  O  O20  1  0.551715  0.948650  0.948650  1
  O  O21  1  0.291433  0.295527  0.706520  1
