# generated using pymatgen
data_SmTlTe2(RhO6)2
_symmetry_space_group_name_H-M   'P 1'
_cell_length_a   5.27684800
_cell_length_b   5.27682975
_cell_length_c   9.90106600
_cell_angle_alpha   89.99991940
_cell_angle_beta   89.99985468
_cell_angle_gamma   120.00057804
_symmetry_Int_Tables_number   1
_chemical_formula_structural   SmTlTe2(RhO6)2
_chemical_formula_sum   'Sm1 Tl1 Te2 Rh2 O12'
_cell_volume   238.75788593
_cell_formula_units_Z   1
loop_
 _symmetry_equiv_pos_site_id
 _symmetry_equiv_pos_as_xyz
  1  'x, y, z'
loop_
 _atom_site_type_symbol
 _atom_site_label
 _atom_site_symmetry_multiplicity
 _atom_site_fract_x
 _atom_site_fract_y
 _atom_site_fract_z
 _atom_site_occupancy
  Sm  Sm0  1  0.000000  0.000001  0.000008  1
  Tl  Tl1  1  0.000003  0.000001  0.500011  1
  Te  Te2  1  0.666670  0.333338  0.253002  1
  Te  Te3  1  0.333331  0.666660  0.747013  1
  Rh  Rh4  1  0.333335  0.666677  0.251731  1
  Rh  Rh5  1  0.666666  0.333327  0.748175  1
  O  O6  1  0.644380  0.631516  0.141122  1
  O  O7  1  0.987137  0.355624  0.141122  1
  O  O8  1  0.368487  0.012865  0.141122  1
  O  O9  1  0.994730  0.631617  0.362647  1
  O  O10  1  0.368388  0.363120  0.362650  1
  O  O11  1  0.636883  0.005270  0.362649  1
  O  O12  1  0.363108  0.994720  0.637361  1
  O  O13  1  0.005282  0.368388  0.637363  1
  O  O14  1  0.631609  0.636889  0.637361  1
  O  O15  1  0.631513  0.987138  0.858889  1
  O  O16  1  0.012861  0.644371  0.858889  1
  O  O17  1  0.355626  0.368486  0.858889  1
