# generated using pymatgen
data_Dy7Co6Sn22Hg
_symmetry_space_group_name_H-M   'P 1'
_cell_length_a   9.69914400
_cell_length_b   9.69914341
_cell_length_c   10.01673300
_cell_angle_alpha   90.00000000
_cell_angle_beta   90.00000000
_cell_angle_gamma   119.99999518
_symmetry_Int_Tables_number   1
_chemical_formula_structural   Dy7Co6Sn22Hg
_chemical_formula_sum   'Dy7 Co6 Sn22 Hg1'
_cell_volume   816.06272017
_cell_formula_units_Z   1
loop_
 _symmetry_equiv_pos_site_id
 _symmetry_equiv_pos_as_xyz
  1  'x, y, z'
loop_
 _atom_site_type_symbol
 _atom_site_label
 _atom_site_symmetry_multiplicity
 _atom_site_fract_x
 _atom_site_fract_y
 _atom_site_fract_z
 _atom_site_occupancy
  Dy  Dy0  1  0.000000  0.000000  0.000000  1
  Dy  Dy1  1  0.478887  0.521113  0.305789  1
  Dy  Dy2  1  0.521113  0.478887  0.694211  1
  Dy  Dy3  1  0.478887  0.957774  0.305789  1
  Dy  Dy4  1  0.521113  0.042226  0.694211  1
  Dy  Dy5  1  0.042226  0.521113  0.305789  1
  Dy  Dy6  1  0.957774  0.478887  0.694211  1
  Co  Co7  1  0.832422  0.167578  0.197013  1
  Co  Co8  1  0.167578  0.832422  0.802987  1
  Co  Co9  1  0.832422  0.664843  0.197013  1
  Co  Co10  1  0.167578  0.335157  0.802987  1
  Co  Co11  1  0.335157  0.167578  0.197013  1
  Co  Co12  1  0.664843  0.832422  0.802987  1
  Sn  Sn13  1  0.345827  0.000000  0.000000  1
  Sn  Sn14  1  0.654173  0.000000  0.000000  1
  Sn  Sn15  1  0.000000  0.345827  0.000000  1
  Sn  Sn16  1  0.000000  0.654173  0.000000  1
  Sn  Sn17  1  0.654173  0.654173  0.000000  1
  Sn  Sn18  1  0.345827  0.345827  0.000000  1
  Sn  Sn19  1  0.333333  0.666667  0.818545  1
  Sn  Sn20  1  0.666667  0.333333  0.181455  1
  Sn  Sn21  1  0.781742  0.218258  0.452741  1
  Sn  Sn22  1  0.218258  0.781742  0.547259  1
  Sn  Sn23  1  0.781742  0.563485  0.452741  1
  Sn  Sn24  1  0.218258  0.436515  0.547259  1
  Sn  Sn25  1  0.436515  0.218258  0.452741  1
  Sn  Sn26  1  0.563485  0.781742  0.547259  1
  Sn  Sn27  1  0.333333  0.666667  0.118024  1
  Sn  Sn28  1  0.666667  0.333333  0.881976  1
  Sn  Sn29  1  0.116602  0.883398  0.271303  1
  Sn  Sn30  1  0.883398  0.116602  0.728697  1
  Sn  Sn31  1  0.116602  0.233203  0.271303  1
  Sn  Sn32  1  0.883398  0.766797  0.728697  1
  Sn  Sn33  1  0.766797  0.883398  0.271303  1
  Sn  Sn34  1  0.233203  0.116602  0.728697  1
  Hg  Hg35  1  0.000000  0.000000  0.500000  1
