# generated using pymatgen
data_TbPr2Y(Zn5Sn)2
_symmetry_space_group_name_H-M   'P 1'
_cell_length_a   8.50269209
_cell_length_b   8.50269133
_cell_length_c   9.06051000
_cell_angle_alpha   90.00000000
_cell_angle_beta   90.00000000
_cell_angle_gamma   149.73444024
_symmetry_Int_Tables_number   1
_chemical_formula_structural   TbPr2Y(Zn5Sn)2
_chemical_formula_sum   'Tb1 Pr2 Y1 Zn10 Sn2'
_cell_volume   330.14400290
_cell_formula_units_Z   1
loop_
 _symmetry_equiv_pos_site_id
 _symmetry_equiv_pos_as_xyz
  1  'x, y, z'
loop_
 _atom_site_type_symbol
 _atom_site_label
 _atom_site_symmetry_multiplicity
 _atom_site_fract_x
 _atom_site_fract_y
 _atom_site_fract_z
 _atom_site_occupancy
  Tb  Tb0  1  0.205046  0.794954  0.250000  1
  Pr  Pr1  1  0.999995  0.000005  0.500017  1
  Pr  Pr2  1  0.999995  0.000005  0.999983  1
  Y  Y3  1  0.795015  0.204985  0.750000  1
  Zn  Zn4  1  0.812669  0.187331  0.390510  1
  Zn  Zn5  1  0.187310  0.812690  0.609489  1
  Zn  Zn6  1  0.812669  0.187331  0.109490  1
  Zn  Zn7  1  0.187310  0.812690  0.890511  1
  Zn  Zn8  1  0.657873  0.342127  0.482598  1
  Zn  Zn9  1  0.342137  0.657863  0.517380  1
  Zn  Zn10  1  0.657873  0.342127  0.017402  1
  Zn  Zn11  1  0.342137  0.657863  0.982620  1
  Zn  Zn12  1  0.394225  0.605775  0.250000  1
  Zn  Zn13  1  0.605780  0.394220  0.750000  1
  Sn  Sn14  1  0.557068  0.442932  0.250000  1
  Sn  Sn15  1  0.442899  0.557101  0.750000  1
