# generated using pymatgen
data_Er3(SiIr)2
_symmetry_space_group_name_H-M   'P 1'
_cell_length_a   5.52973166
_cell_length_b   5.52973160
_cell_length_c   13.18515000
_cell_angle_alpha   90.00000000
_cell_angle_beta   90.00000000
_cell_angle_gamma   136.71352308
_symmetry_Int_Tables_number   1
_chemical_formula_structural   Er3(SiIr)2
_chemical_formula_sum   'Er6 Si4 Ir4'
_cell_volume   276.43529165
_cell_formula_units_Z   2
loop_
 _symmetry_equiv_pos_site_id
 _symmetry_equiv_pos_as_xyz
  1  'x, y, z'
loop_
 _atom_site_type_symbol
 _atom_site_label
 _atom_site_symmetry_multiplicity
 _atom_site_fract_x
 _atom_site_fract_y
 _atom_site_fract_z
 _atom_site_occupancy
  Er  Er0  1  0.773649  0.226351  0.604460  1
  Er  Er1  1  0.517991  0.482009  0.250000  1
  Er  Er2  1  0.226351  0.773649  0.395540  1
  Er  Er3  1  0.773649  0.226351  0.895540  1
  Er  Er4  1  0.482009  0.517991  0.750000  1
  Er  Er5  1  0.226351  0.773649  0.104460  1
  Si  Si6  1  0.061777  0.938223  0.590274  1
  Si  Si7  1  0.061777  0.938223  0.909726  1
  Si  Si8  1  0.938223  0.061777  0.409726  1
  Si  Si9  1  0.938223  0.061777  0.090274  1
  Ir  Ir10  1  0.811751  0.188249  0.250000  1
  Ir  Ir11  1  0.188249  0.811751  0.750000  1
  Ir  Ir12  1  0.500000  0.500000  0.000000  1
  Ir  Ir13  1  0.500000  0.500000  0.500000  1
