# generated using pymatgen
data_Ho3TmCo11(Ni3P4)3
_symmetry_space_group_name_H-M   'P 1'
_cell_length_a   3.66699000
_cell_length_b   10.25134202
_cell_length_c   11.80437418
_cell_angle_alpha   90.02176057
_cell_angle_beta   90.00000000
_cell_angle_gamma   90.00000000
_symmetry_Int_Tables_number   1
_chemical_formula_structural   Ho3TmCo11(Ni3P4)3
_chemical_formula_sum   'Ho3 Tm1 Co11 Ni9 P12'
_cell_volume   443.74491066
_cell_formula_units_Z   1
loop_
 _symmetry_equiv_pos_site_id
 _symmetry_equiv_pos_as_xyz
  1  'x, y, z'
loop_
 _atom_site_type_symbol
 _atom_site_label
 _atom_site_symmetry_multiplicity
 _atom_site_fract_x
 _atom_site_fract_y
 _atom_site_fract_z
 _atom_site_occupancy
  Ho  Ho0  1  0.250000  0.581356  0.703377  1
  Ho  Ho1  1  0.750000  0.419036  0.296321  1
  Ho  Ho2  1  0.750000  0.081033  0.796617  1
  Tm  Tm3  1  0.250000  0.918934  0.204495  1
  Co  Co4  1  0.250000  0.277341  0.675583  1
  Co  Co5  1  0.750000  0.777631  0.824450  1
  Co  Co6  1  0.750000  0.723499  0.324148  1
  Co  Co7  1  0.250000  0.880596  0.698245  1
  Co  Co8  1  0.250000  0.621435  0.197794  1
  Co  Co9  1  0.750000  0.119230  0.301729  1
  Co  Co10  1  0.750000  0.380743  0.801519  1
  Co  Co11  1  0.250000  0.465974  0.932632  1
  Co  Co12  1  0.250000  0.032205  0.432488  1
  Co  Co13  1  0.750000  0.534182  0.067081  1
  Co  Co14  1  0.750000  0.966769  0.567599  1
  Ni  Ni15  1  0.250000  0.711512  0.987767  1
  Ni  Ni16  1  0.250000  0.786426  0.490858  1
  Ni  Ni17  1  0.750000  0.284328  0.008426  1
  Ni  Ni18  1  0.750000  0.213021  0.510064  1
  Ni  Ni19  1  0.250000  0.409265  0.484656  1
  Ni  Ni20  1  0.250000  0.090883  0.986202  1
  Ni  Ni21  1  0.750000  0.591704  0.514905  1
  Ni  Ni22  1  0.750000  0.907463  0.016183  1
  Ni  Ni23  1  0.250000  0.223945  0.176210  1
  P  P24  1  0.250000  0.424815  0.113196  1
  P  P25  1  0.250000  0.079043  0.613359  1
  P  P26  1  0.750000  0.578975  0.886042  1
  P  P27  1  0.750000  0.920734  0.386373  1
  P  P28  1  0.250000  0.270710  0.865130  1
  P  P29  1  0.250000  0.228537  0.368090  1
  P  P30  1  0.750000  0.730419  0.135334  1
  P  P31  1  0.750000  0.771394  0.634566  1
  P  P32  1  0.250000  0.606158  0.387648  1
  P  P33  1  0.250000  0.894392  0.887566  1
  P  P34  1  0.750000  0.394768  0.612065  1
  P  P35  1  0.750000  0.101542  0.111280  1
