# generated using pymatgen
data_Tb4PaVOs6
_symmetry_space_group_name_H-M   'P 1'
_cell_length_a   5.30577835
_cell_length_b   5.30577792
_cell_length_c   9.14325100
_cell_angle_alpha   90.00000000
_cell_angle_beta   90.00000000
_cell_angle_gamma   115.95434661
_symmetry_Int_Tables_number   1
_chemical_formula_structural   Tb4PaVOs6
_chemical_formula_sum   'Tb4 Pa1 V1 Os6'
_cell_volume   231.43423811
_cell_formula_units_Z   1
loop_
 _symmetry_equiv_pos_site_id
 _symmetry_equiv_pos_as_xyz
  1  'x, y, z'
loop_
 _atom_site_type_symbol
 _atom_site_label
 _atom_site_symmetry_multiplicity
 _atom_site_fract_x
 _atom_site_fract_y
 _atom_site_fract_z
 _atom_site_occupancy
  Tb  Tb0  1  0.330968  0.669032  0.446032  1
  Tb  Tb1  1  0.667101  0.332899  0.573018  1
  Tb  Tb2  1  0.667101  0.332899  0.926982  1
  Tb  Tb3  1  0.330968  0.669032  0.053968  1
  Pa  Pa4  1  0.844655  0.155345  0.250000  1
  V  V5  1  0.144884  0.855116  0.750000  1
  Os  Os6  1  0.007117  0.992883  0.509888  1
  Os  Os7  1  0.007117  0.992883  0.990112  1
  Os  Os8  1  0.828582  0.644991  0.250000  1
  Os  Os9  1  0.355009  0.171418  0.250000  1
  Os  Os10  1  0.178173  0.361676  0.750000  1
  Os  Os11  1  0.638324  0.821827  0.750000  1
