# generated using pymatgen
data_Hf16Co4MoAu3
_symmetry_space_group_name_H-M   'P 1'
_cell_length_a   8.65745029
_cell_length_b   8.59546516
_cell_length_c   8.59546400
_cell_angle_alpha   59.99999676
_cell_angle_beta   60.23655794
_cell_angle_gamma   60.23655882
_symmetry_Int_Tables_number   1
_chemical_formula_structural   Hf16Co4MoAu3
_chemical_formula_sum   'Hf16 Co4 Mo1 Au3'
_cell_volume   453.89703224
_cell_formula_units_Z   1
loop_
 _symmetry_equiv_pos_site_id
 _symmetry_equiv_pos_as_xyz
  1  'x, y, z'
loop_
 _atom_site_type_symbol
 _atom_site_label
 _atom_site_symmetry_multiplicity
 _atom_site_fract_x
 _atom_site_fract_y
 _atom_site_fract_z
 _atom_site_occupancy
  Hf  Hf0  1  0.070324  0.643226  0.643226  1
  Hf  Hf1  1  0.650139  0.052541  0.648661  1
  Hf  Hf2  1  0.650139  0.648661  0.052541  1
  Hf  Hf3  1  0.650139  0.648661  0.648661  1
  Hf  Hf4  1  0.811024  0.802712  0.193131  1
  Hf  Hf5  1  0.190439  0.188401  0.810580  1
  Hf  Hf6  1  0.811024  0.193131  0.802712  1
  Hf  Hf7  1  0.190439  0.810580  0.188401  1
  Hf  Hf8  1  0.190439  0.810580  0.810580  1
  Hf  Hf9  1  0.811024  0.193131  0.193131  1
  Hf  Hf10  1  0.436286  0.437478  0.063118  1
  Hf  Hf11  1  0.048979  0.073712  0.438654  1
  Hf  Hf12  1  0.436286  0.063118  0.437478  1
  Hf  Hf13  1  0.048979  0.438654  0.073712  1
  Hf  Hf14  1  0.048979  0.438654  0.438654  1
  Hf  Hf15  1  0.436286  0.063118  0.063118  1
  Co  Co16  1  0.426269  0.857910  0.857910  1
  Co  Co17  1  0.865326  0.429173  0.852751  1
  Co  Co18  1  0.865326  0.852751  0.429173  1
  Co  Co19  1  0.865326  0.852751  0.852751  1
  Mo  Mo20  1  0.744842  0.418386  0.418386  1
  Au  Au21  1  0.417329  0.761512  0.410579  1
  Au  Au22  1  0.417329  0.410579  0.761512  1
  Au  Au23  1  0.417329  0.410579  0.410579  1
