# generated using pymatgen
data_DyHo3(Sc3Ge4)2
_symmetry_space_group_name_H-M   'P 1'
_cell_length_a   7.23010737
_cell_length_b   7.47863855
_cell_length_c   14.08334535
_cell_angle_alpha   89.91626039
_cell_angle_beta   89.89650076
_cell_angle_gamma   90.10537339
_symmetry_Int_Tables_number   1
_chemical_formula_structural   DyHo3(Sc3Ge4)2
_chemical_formula_sum   'Dy2 Ho6 Sc12 Ge16'
_cell_volume   761.50228534
_cell_formula_units_Z   2
loop_
 _symmetry_equiv_pos_site_id
 _symmetry_equiv_pos_as_xyz
  1  'x, y, z'
loop_
 _atom_site_type_symbol
 _atom_site_label
 _atom_site_symmetry_multiplicity
 _atom_site_fract_x
 _atom_site_fract_y
 _atom_site_fract_z
 _atom_site_occupancy
  Dy  Dy0  1  0.002482  0.176702  0.096460  1
  Dy  Dy1  1  0.997518  0.823298  0.903540  1
  Ho  Ho2  1  0.498189  0.676103  0.903363  1
  Ho  Ho3  1  0.998259  0.823173  0.596517  1
  Ho  Ho4  1  0.501811  0.323897  0.096637  1
  Ho  Ho5  1  0.001741  0.176827  0.403483  1
  Ho  Ho6  1  0.501865  0.323580  0.403809  1
  Ho  Ho7  1  0.498135  0.676420  0.596191  1
  Sc  Sc8  1  0.170610  0.500279  0.749738  1
  Sc  Sc9  1  0.829390  0.499721  0.250262  1
  Sc  Sc10  1  0.329730  0.999940  0.250359  1
  Sc  Sc11  1  0.670270  0.000060  0.749641  1
  Sc  Sc12  1  0.338075  0.168878  0.625091  1
  Sc  Sc13  1  0.661925  0.831122  0.374909  1
  Sc  Sc14  1  0.162111  0.668823  0.375331  1
  Sc  Sc15  1  0.662314  0.830511  0.125498  1
  Sc  Sc16  1  0.837889  0.331177  0.624669  1
  Sc  Sc17  1  0.337686  0.169489  0.874502  1
  Sc  Sc18  1  0.837219  0.331470  0.875213  1
  Sc  Sc19  1  0.162781  0.668530  0.124787  1
  Ge  Ge20  1  0.034757  0.125744  0.750114  1
  Ge  Ge21  1  0.965243  0.874256  0.249886  1
  Ge  Ge22  1  0.464293  0.624870  0.250188  1
  Ge  Ge23  1  0.535707  0.375130  0.749812  1
  Ge  Ge24  1  0.303455  0.860472  0.749754  1
  Ge  Ge25  1  0.696545  0.139528  0.250246  1
  Ge  Ge26  1  0.197285  0.360796  0.250134  1
  Ge  Ge27  1  0.802715  0.639204  0.749866  1
  Ge  Ge28  1  0.176262  0.459474  0.541501  1
  Ge  Ge29  1  0.823738  0.540526  0.458499  1
  Ge  Ge30  1  0.323913  0.960203  0.458638  1
  Ge  Ge31  1  0.823715  0.540309  0.041579  1
  Ge  Ge32  1  0.676087  0.039797  0.541362  1
  Ge  Ge33  1  0.176285  0.459691  0.958421  1
  Ge  Ge34  1  0.673358  0.039804  0.958573  1
  Ge  Ge35  1  0.326642  0.960196  0.041427  1
