# generated using pymatgen
data_Tb4Tc2MoOs5
_symmetry_space_group_name_H-M   'P 1'
_cell_length_a   5.30512463
_cell_length_b   5.23831491
_cell_length_c   9.05757400
_cell_angle_alpha   90.00000000
_cell_angle_beta   90.00000000
_cell_angle_gamma   117.73587467
_symmetry_Int_Tables_number   1
_chemical_formula_structural   Tb4Tc2MoOs5
_chemical_formula_sum   'Tb4 Tc2 Mo1 Os5'
_cell_volume   222.78841509
_cell_formula_units_Z   1
loop_
 _symmetry_equiv_pos_site_id
 _symmetry_equiv_pos_as_xyz
  1  'x, y, z'
loop_
 _atom_site_type_symbol
 _atom_site_label
 _atom_site_symmetry_multiplicity
 _atom_site_fract_x
 _atom_site_fract_y
 _atom_site_fract_z
 _atom_site_occupancy
  Tb  Tb0  1  0.330204  0.670192  0.434993  1
  Tb  Tb1  1  0.669097  0.333451  0.565391  1
  Tb  Tb2  1  0.669097  0.333451  0.934609  1
  Tb  Tb3  1  0.330204  0.670192  0.065007  1
  Tc  Tc4  1  0.165530  0.831560  0.750000  1
  Tc  Tc5  1  0.170510  0.341167  0.750000  1
  Mo  Mo6  1  0.839195  0.160276  0.250000  1
  Os  Os7  1  0.000816  0.004926  0.501285  1
  Os  Os8  1  0.000816  0.004926  0.998715  1
  Os  Os9  1  0.825045  0.650990  0.250000  1
  Os  Os10  1  0.346779  0.173223  0.250000  1
  Os  Os11  1  0.652706  0.825645  0.750000  1
