# generated using pymatgen
data_TbHo15(In3Fe)2
_symmetry_space_group_name_H-M   'P 1'
_cell_length_a   10.29479129
_cell_length_b   10.29594586
_cell_length_c   7.06159003
_cell_angle_alpha   89.98964489
_cell_angle_beta   90.00071368
_cell_angle_gamma   120.02304543
_symmetry_Int_Tables_number   1
_chemical_formula_structural   TbHo15(In3Fe)2
_chemical_formula_sum   'Tb1 Ho15 In6 Fe2'
_cell_volume   648.06119942
_cell_formula_units_Z   1
loop_
 _symmetry_equiv_pos_site_id
 _symmetry_equiv_pos_as_xyz
  1  'x, y, z'
loop_
 _atom_site_type_symbol
 _atom_site_label
 _atom_site_symmetry_multiplicity
 _atom_site_fract_x
 _atom_site_fract_y
 _atom_site_fract_z
 _atom_site_occupancy
  Tb  Tb0  1  0.000067  0.999990  0.274221  1
  Ho  Ho1  1  0.820992  0.642157  0.492428  1
  Ho  Ho2  1  0.357670  0.178780  0.492647  1
  Ho  Ho3  1  0.821059  0.178924  0.492319  1
  Ho  Ho4  1  0.178692  0.357327  0.991566  1
  Ho  Ho5  1  0.642857  0.821488  0.991711  1
  Ho  Ho6  1  0.178747  0.821351  0.991427  1
  Ho  Ho7  1  0.666614  0.333391  0.176615  1
  Ho  Ho8  1  0.333413  0.666674  0.678169  1
  Ho  Ho9  1  0.536377  0.072725  0.787647  1
  Ho  Ho10  1  0.927119  0.463605  0.787499  1
  Ho  Ho11  1  0.536184  0.463840  0.787680  1
  Ho  Ho12  1  0.463573  0.927187  0.287677  1
  Ho  Ho13  1  0.073043  0.536514  0.287551  1
  Ho  Ho14  1  0.463787  0.536266  0.287627  1
  Ho  Ho15  1  0.999931  0.000002  0.773843  1
  In  In16  1  0.836443  0.673022  0.036731  1
  In  In17  1  0.327019  0.163472  0.036740  1
  In  In18  1  0.836351  0.163551  0.036917  1
  In  In19  1  0.163673  0.326931  0.537504  1
  In  In20  1  0.673276  0.836467  0.537371  1
  In  In21  1  0.163042  0.836272  0.537596  1
  Fe  Fe22  1  0.666156  0.333313  0.561551  1
  Fe  Fe23  1  0.333913  0.666750  0.061037  1
