# generated using pymatgen
data_Tb6Nb4Cr3(MoN8)3
_symmetry_space_group_name_H-M   'P 1'
_cell_length_a   11.03144327
_cell_length_b   11.03144391
_cell_length_c   11.02756179
_cell_angle_alpha   109.54046420
_cell_angle_beta   109.54047037
_cell_angle_gamma   109.34711043
_symmetry_Int_Tables_number   1
_chemical_formula_structural   Tb6Nb4Cr3(MoN8)3
_chemical_formula_sum   'Tb12 Nb8 Cr6 Mo6 N48'
_cell_volume   1032.86594010
_cell_formula_units_Z   2
loop_
 _symmetry_equiv_pos_site_id
 _symmetry_equiv_pos_as_xyz
  1  'x, y, z'
loop_
 _atom_site_type_symbol
 _atom_site_label
 _atom_site_symmetry_multiplicity
 _atom_site_fract_x
 _atom_site_fract_y
 _atom_site_fract_z
 _atom_site_occupancy
  Tb  Tb0  1  0.249374  0.381384  0.126186  1
  Tb  Tb1  1  0.376812  0.744802  0.126186  1
  Tb  Tb2  1  0.375000  0.125000  0.250000  1
  Tb  Tb3  1  0.875000  0.625000  0.250000  1
  Tb  Tb4  1  0.755198  0.123188  0.373814  1
  Tb  Tb5  1  0.118616  0.250626  0.373814  1
  Tb  Tb6  1  0.869094  0.749896  0.623322  1
  Tb  Tb7  1  0.254228  0.873426  0.623322  1
  Tb  Tb8  1  0.125000  0.375000  0.750000  1
  Tb  Tb9  1  0.625000  0.875000  0.750000  1
  Tb  Tb10  1  0.626574  0.245772  0.876678  1
  Tb  Tb11  1  0.750104  0.630906  0.876678  1
  Nb  Nb12  1  0.009158  0.011429  0.012852  1
  Nb  Nb13  1  0.503694  0.001423  0.012852  1
  Nb  Nb14  1  0.989859  0.498935  0.006403  1
  Nb  Nb15  1  0.516544  0.507469  0.006403  1
  Nb  Nb16  1  0.992531  0.983456  0.493597  1
  Nb  Nb17  1  0.498577  0.996306  0.487148  1
  Nb  Nb18  1  0.001065  0.510141  0.493597  1
  Nb  Nb19  1  0.488571  0.490842  0.487148  1
  Cr  Cr20  1  0.873123  0.249306  0.127423  1
  Cr  Cr21  1  0.754299  0.878117  0.127423  1
  Cr  Cr22  1  0.625840  0.375840  0.250000  1
  Cr  Cr23  1  0.124160  0.874160  0.250000  1
  Cr  Cr24  1  0.250694  0.626877  0.372577  1
  Cr  Cr25  1  0.621883  0.745701  0.372577  1
  Mo  Mo26  1  0.372812  0.246443  0.622583  1
  Mo  Mo27  1  0.749770  0.376140  0.622583  1
  Mo  Mo28  1  0.874216  0.124216  0.750000  1
  Mo  Mo29  1  0.375784  0.625784  0.750000  1
  Mo  Mo30  1  0.253557  0.127188  0.877417  1
  Mo  Mo31  1  0.123860  0.750230  0.877417  1
  N  N32  1  0.208478  0.124330  0.028498  1
  N  N33  1  0.320021  0.904168  0.028498  1
  N  N34  1  0.881341  0.396090  0.088397  1
  N  N35  1  0.707056  0.692307  0.088397  1
  N  N36  1  0.618412  0.417096  0.106191  1
  N  N37  1  0.987779  0.689096  0.106191  1
  N  N38  1  0.011054  0.203018  0.118278  1
  N  N39  1  0.607224  0.915259  0.118278  1
  N  N40  1  0.208555  0.589603  0.192462  1
  N  N41  1  0.483907  0.602859  0.192462  1
  N  N42  1  0.114893  0.009960  0.201597  1
  N  N43  1  0.586704  0.191637  0.201597  1
  N  N44  1  0.490040  0.385107  0.298403  1
  N  N45  1  0.308363  0.913296  0.298403  1
  N  N46  1  0.897141  0.016093  0.307538  1
  N  N47  1  0.910397  0.291445  0.307538  1
  N  N48  1  0.296982  0.488946  0.381722  1
  N  N49  1  0.584741  0.892776  0.381722  1
  N  N50  1  0.810904  0.512221  0.393809  1
  N  N51  1  0.082904  0.881588  0.393809  1
  N  N52  1  0.103910  0.618659  0.411603  1
  N  N53  1  0.807693  0.792944  0.411603  1
  N  N54  1  0.595832  0.179979  0.471502  1
  N  N55  1  0.375670  0.291522  0.471502  1
  N  N56  1  0.614537  0.704504  0.508383  1
  N  N57  1  0.393846  0.803879  0.508383  1
  N  N58  1  0.183677  0.204593  0.584914  1
  N  N59  1  0.901238  0.380321  0.584914  1
  N  N60  1  0.912280  0.120295  0.595692  1
  N  N61  1  0.183411  0.475397  0.595692  1
  N  N62  1  0.412214  0.094996  0.620552  1
  N  N63  1  0.708338  0.525557  0.620552  1
  N  N64  1  0.084203  0.704709  0.682113  1
  N  N65  1  0.097911  0.977404  0.682113  1
  N  N66  1  0.681066  0.084433  0.707755  1
  N  N67  1  0.526689  0.623322  0.707755  1
  N  N68  1  0.415567  0.818934  0.792245  1
  N  N69  1  0.876678  0.973311  0.792245  1
  N  N70  1  0.522596  0.402089  0.817887  1
  N  N71  1  0.795291  0.415797  0.817887  1
  N  N72  1  0.405004  0.087786  0.879448  1
  N  N73  1  0.974443  0.791662  0.879448  1
  N  N74  1  0.024603  0.316589  0.904308  1
  N  N75  1  0.379705  0.587720  0.904308  1
  N  N76  1  0.295407  0.316323  0.915086  1
  N  N77  1  0.119679  0.598762  0.915086  1
  N  N78  1  0.696121  0.106154  0.991617  1
  N  N79  1  0.795496  0.885463  0.991617  1
