# generated using pymatgen
data_Ce4Si10(NiPd)3
_symmetry_space_group_name_H-M   'P 1'
_cell_length_a   8.13030000
_cell_length_b   8.11986495
_cell_length_c   8.11986513
_cell_angle_alpha   137.63719475
_cell_angle_beta   106.17642606
_cell_angle_gamma   88.97870062
_symmetry_Int_Tables_number   1
_chemical_formula_structural   Ce4Si10(NiPd)3
_chemical_formula_sum   'Ce4 Si10 Ni3 Pd3'
_cell_volume   331.93579829
_cell_formula_units_Z   1
loop_
 _symmetry_equiv_pos_site_id
 _symmetry_equiv_pos_as_xyz
  1  'x, y, z'
loop_
 _atom_site_type_symbol
 _atom_site_label
 _atom_site_symmetry_multiplicity
 _atom_site_fract_x
 _atom_site_fract_y
 _atom_site_fract_z
 _atom_site_occupancy
  Ce  Ce0  1  0.636932  0.369784  0.267148  1
  Ce  Ce1  1  0.361693  0.629363  0.732330  1
  Ce  Ce2  1  0.107136  0.870392  0.236745  1
  Ce  Ce3  1  0.892744  0.128827  0.763916  1
  Si  Si4  1  0.452199  0.105951  0.346248  1
  Si  Si5  1  0.535166  0.894033  0.641133  1
  Si  Si6  1  0.745624  0.602742  0.142882  1
  Si  Si7  1  0.252055  0.395080  0.856975  1
  Si  Si8  1  0.277787  0.510335  0.242214  1
  Si  Si9  1  0.717523  0.466175  0.745705  1
  Si  Si10  1  0.717523  0.971818  0.251347  1
  Si  Si11  1  0.277787  0.035573  0.767451  1
  Si  Si12  1  0.012265  0.240361  0.238675  1
  Si  Si13  1  0.012265  0.773590  0.771904  1
  Ni  Ni14  1  0.498707  0.247024  0.742674  1
  Ni  Ni15  1  0.498707  0.756033  0.251683  1
  Ni  Ni16  1  0.253994  0.139988  0.114006  1
  Pd  Pd17  1  0.749840  0.860948  0.888890  1
  Pd  Pd18  1  0.027668  0.637927  0.389741  1
  Pd  Pd19  1  0.972388  0.364055  0.608333  1
