# generated using pymatgen
data_Eu4AgH12Rh
_symmetry_space_group_name_H-M   'P 1'
_cell_length_a   7.26322301
_cell_length_b   7.26322271
_cell_length_c   5.49864400
_cell_angle_alpha   89.99646596
_cell_angle_beta   89.99647385
_cell_angle_gamma   135.34204985
_symmetry_Int_Tables_number   1
_chemical_formula_structural   Eu4AgH12Rh
_chemical_formula_sum   'Eu4 Ag1 H12 Rh1'
_cell_volume   203.88773741
_cell_formula_units_Z   1
loop_
 _symmetry_equiv_pos_site_id
 _symmetry_equiv_pos_as_xyz
  1  'x, y, z'
loop_
 _atom_site_type_symbol
 _atom_site_label
 _atom_site_symmetry_multiplicity
 _atom_site_fract_x
 _atom_site_fract_y
 _atom_site_fract_z
 _atom_site_occupancy
  Eu  Eu0  1  0.651204  0.348796  0.000000  1
  Eu  Eu1  1  0.348796  0.651204  0.000000  1
  Eu  Eu2  1  0.851441  0.148559  0.500000  1
  Eu  Eu3  1  0.148559  0.851441  0.500000  1
  Ag  Ag4  1  0.000000  0.000000  0.000000  1
  H  H5  1  0.865957  0.134043  0.000000  1
  H  H6  1  0.134043  0.865957  0.000000  1
  H  H7  1  0.626414  0.373586  0.500000  1
  H  H8  1  0.373586  0.626414  0.500000  1
  H  H9  1  0.000121  0.500154  0.254146  1
  H  H10  1  0.999879  0.499846  0.745854  1
  H  H11  1  0.499846  0.999879  0.745854  1
  H  H12  1  0.500154  0.000121  0.254146  1
  H  H13  1  0.277751  0.277751  0.281766  1
  H  H14  1  0.722249  0.722249  0.718234  1
  H  H15  1  0.283790  0.283790  0.724288  1
  H  H16  1  0.716210  0.716210  0.275712  1
  Rh  Rh17  1  0.500000  0.500000  0.500000  1
