# generated using pymatgen
data_Tb2HoPa3(Co3P2)6
_symmetry_space_group_name_H-M   'P 1'
_cell_length_a   3.73319300
_cell_length_b   10.47915799
_cell_length_c   12.20757504
_cell_angle_alpha   90.09835259
_cell_angle_beta   90.00000000
_cell_angle_gamma   90.00000000
_symmetry_Int_Tables_number   1
_chemical_formula_structural   Tb2HoPa3(Co3P2)6
_chemical_formula_sum   'Tb2 Ho1 Pa3 Co18 P12'
_cell_volume   477.56841233
_cell_formula_units_Z   1
loop_
 _symmetry_equiv_pos_site_id
 _symmetry_equiv_pos_as_xyz
  1  'x, y, z'
loop_
 _atom_site_type_symbol
 _atom_site_label
 _atom_site_symmetry_multiplicity
 _atom_site_fract_x
 _atom_site_fract_y
 _atom_site_fract_z
 _atom_site_occupancy
  Tb  Tb0  1  0.000000  0.685946  0.794487  1
  Tb  Tb1  1  0.000000  0.313999  0.793033  1
  Ho  Ho2  1  0.500000  0.186964  0.205678  1
  Pa  Pa3  1  0.000000  0.498933  0.528158  1
  Pa  Pa4  1  0.500000  0.000970  0.474273  1
  Pa  Pa5  1  0.500000  0.818193  0.208122  1
  Co  Co6  1  0.500000  0.499999  0.159534  1
  Co  Co7  1  0.000000  0.999090  0.843437  1
  Co  Co8  1  0.500000  0.499211  0.694855  1
  Co  Co9  1  0.000000  0.994145  0.300109  1
  Co  Co10  1  0.000000  0.499742  0.981478  1
  Co  Co11  1  0.500000  0.000447  0.016950  1
  Co  Co12  1  0.500000  0.335075  0.993370  1
  Co  Co13  1  0.500000  0.666118  0.994956  1
  Co  Co14  1  0.000000  0.167597  0.006532  1
  Co  Co15  1  0.000000  0.835041  0.008211  1
  Co  Co16  1  0.500000  0.300727  0.430382  1
  Co  Co17  1  0.500000  0.696617  0.429875  1
  Co  Co18  1  0.000000  0.195381  0.567530  1
  Co  Co19  1  0.000000  0.803313  0.570804  1
  Co  Co20  1  0.500000  0.881200  0.712568  1
  Co  Co21  1  0.500000  0.118775  0.711961  1
  Co  Co22  1  0.000000  0.622721  0.286188  1
  Co  Co23  1  0.000000  0.380858  0.288142  1
  P  P24  1  0.500000  0.500184  0.877346  1
  P  P25  1  0.000000  0.003770  0.119402  1
  P  P26  1  0.500000  0.498612  0.343306  1
  P  P27  1  0.000000  0.999519  0.659124  1
  P  P28  1  0.500000  0.305211  0.615452  1
  P  P29  1  0.500000  0.693361  0.616678  1
  P  P30  1  0.000000  0.190581  0.381485  1
  P  P31  1  0.000000  0.806337  0.388673  1
  P  P32  1  0.500000  0.848497  0.895332  1
  P  P33  1  0.500000  0.152870  0.895041  1
  P  P34  1  0.000000  0.650580  0.102631  1
  P  P35  1  0.000000  0.349419  0.104898  1
