# generated using pymatgen
data_Ho3Al10(SiRu2)2
_symmetry_space_group_name_H-M   'P 1'
_cell_length_a   8.66383300
_cell_length_b   8.66383284
_cell_length_c   9.60400600
_cell_angle_alpha   90.00000000
_cell_angle_beta   90.00000000
_cell_angle_gamma   120.00000442
_symmetry_Int_Tables_number   1
_chemical_formula_structural   Ho3Al10(SiRu2)2
_chemical_formula_sum   'Ho6 Al20 Si4 Ru8'
_cell_volume   624.31414092
_cell_formula_units_Z   2
loop_
 _symmetry_equiv_pos_site_id
 _symmetry_equiv_pos_as_xyz
  1  'x, y, z'
loop_
 _atom_site_type_symbol
 _atom_site_label
 _atom_site_symmetry_multiplicity
 _atom_site_fract_x
 _atom_site_fract_y
 _atom_site_fract_z
 _atom_site_occupancy
  Ho  Ho0  1  0.195436  0.390874  0.250000  1
  Ho  Ho1  1  0.804564  0.609126  0.750000  1
  Ho  Ho2  1  0.609126  0.804564  0.250000  1
  Ho  Ho3  1  0.390874  0.195436  0.750000  1
  Ho  Ho4  1  0.195436  0.804564  0.250000  1
  Ho  Ho5  1  0.804564  0.195436  0.750000  1
  Al  Al6  1  0.164852  0.329705  0.577295  1
  Al  Al7  1  0.835148  0.670295  0.422705  1
  Al  Al8  1  0.670295  0.835148  0.577295  1
  Al  Al9  1  0.835148  0.670295  0.077295  1
  Al  Al10  1  0.329705  0.164852  0.422705  1
  Al  Al11  1  0.164852  0.329705  0.922705  1
  Al  Al12  1  0.164852  0.835148  0.577295  1
  Al  Al13  1  0.329705  0.164852  0.077295  1
  Al  Al14  1  0.835148  0.164852  0.422705  1
  Al  Al15  1  0.670295  0.835148  0.922705  1
  Al  Al16  1  0.835148  0.164852  0.077295  1
  Al  Al17  1  0.164852  0.835148  0.922705  1
  Al  Al18  1  0.563399  0.126797  0.250000  1
  Al  Al19  1  0.436601  0.873203  0.750000  1
  Al  Al20  1  0.873203  0.436601  0.250000  1
  Al  Al21  1  0.126797  0.563399  0.750000  1
  Al  Al22  1  0.563399  0.436601  0.250000  1
  Al  Al23  1  0.436601  0.563399  0.750000  1
  Al  Al24  1  0.000000  0.000000  0.250000  1
  Al  Al25  1  0.000000  0.000000  0.750000  1
  Si  Si26  1  0.333333  0.666667  0.037231  1
  Si  Si27  1  0.666667  0.333333  0.962769  1
  Si  Si28  1  0.666667  0.333333  0.537231  1
  Si  Si29  1  0.333333  0.666667  0.462769  1
  Ru  Ru30  1  0.500000  0.000000  0.000000  1
  Ru  Ru31  1  0.000000  0.500000  0.000000  1
  Ru  Ru32  1  0.500000  0.000000  0.500000  1
  Ru  Ru33  1  0.500000  0.500000  0.000000  1
  Ru  Ru34  1  0.000000  0.500000  0.500000  1
  Ru  Ru35  1  0.500000  0.500000  0.500000  1
  Ru  Ru36  1  0.000000  0.000000  0.000000  1
  Ru  Ru37  1  0.000000  0.000000  0.500000  1
