# generated using pymatgen
data_Sm4Al17ZnPd6
_symmetry_space_group_name_H-M   'P 1'
_cell_length_a   7.68621000
_cell_length_b   7.68620925
_cell_length_c   9.63484900
_cell_angle_alpha   90.00000000
_cell_angle_beta   90.00000000
_cell_angle_gamma   119.08940902
_symmetry_Int_Tables_number   1
_chemical_formula_structural   Sm4Al17ZnPd6
_chemical_formula_sum   'Sm4 Al17 Zn1 Pd6'
_cell_volume   497.40743098
_cell_formula_units_Z   1
loop_
 _symmetry_equiv_pos_site_id
 _symmetry_equiv_pos_as_xyz
  1  'x, y, z'
loop_
 _atom_site_type_symbol
 _atom_site_label
 _atom_site_symmetry_multiplicity
 _atom_site_fract_x
 _atom_site_fract_y
 _atom_site_fract_z
 _atom_site_occupancy
  Sm  Sm0  1  0.994017  0.670891  0.250000  1
  Sm  Sm1  1  0.006365  0.329663  0.750000  1
  Sm  Sm2  1  0.670891  0.994017  0.250000  1
  Sm  Sm3  1  0.329663  0.006365  0.750000  1
  Al  Al4  1  0.866122  0.866122  0.750000  1
  Al  Al5  1  0.003074  0.332392  0.076833  1
  Al  Al6  1  0.998111  0.664492  0.926201  1
  Al  Al7  1  0.998111  0.664492  0.573799  1
  Al  Al8  1  0.332392  0.003074  0.423167  1
  Al  Al9  1  0.003074  0.332392  0.423167  1
  Al  Al10  1  0.664492  0.998111  0.573799  1
  Al  Al11  1  0.664492  0.998111  0.926201  1
  Al  Al12  1  0.332392  0.003074  0.076833  1
  Al  Al13  1  0.334054  0.334054  0.552077  1
  Al  Al14  1  0.666203  0.666203  0.445734  1
  Al  Al15  1  0.666203  0.666203  0.054266  1
  Al  Al16  1  0.334054  0.334054  0.947923  1
  Al  Al17  1  0.340385  0.546189  0.250000  1
  Al  Al18  1  0.659937  0.452793  0.750000  1
  Al  Al19  1  0.546189  0.340385  0.250000  1
  Al  Al20  1  0.452793  0.659937  0.750000  1
  Zn  Zn21  1  0.139808  0.139808  0.250000  1
  Pd  Pd22  1  0.671502  0.328700  0.000010  1
  Pd  Pd23  1  0.328700  0.671502  0.000010  1
  Pd  Pd24  1  0.328700  0.671502  0.499990  1
  Pd  Pd25  1  0.671502  0.328700  0.499990  1
  Pd  Pd26  1  0.998389  0.998389  0.995221  1
  Pd  Pd27  1  0.998389  0.998389  0.504779  1
