# generated using pymatgen
data_Y6Sb(P3Rh5)4
_symmetry_space_group_name_H-M   'P 1'
_cell_length_a   13.46899200
_cell_length_b   13.46899043
_cell_length_c   3.93180100
_cell_angle_alpha   90.00000000
_cell_angle_beta   90.00000000
_cell_angle_gamma   119.99999894
_symmetry_Int_Tables_number   1
_chemical_formula_structural   Y6Sb(P3Rh5)4
_chemical_formula_sum   'Y6 Sb1 P12 Rh20'
_cell_volume   617.72091266
_cell_formula_units_Z   1
loop_
 _symmetry_equiv_pos_site_id
 _symmetry_equiv_pos_as_xyz
  1  'x, y, z'
loop_
 _atom_site_type_symbol
 _atom_site_label
 _atom_site_symmetry_multiplicity
 _atom_site_fract_x
 _atom_site_fract_y
 _atom_site_fract_z
 _atom_site_occupancy
  Y  Y0  1  0.528531  0.716179  0.250331  1
  Y  Y1  1  0.283821  0.812352  0.250331  1
  Y  Y2  1  0.187648  0.471469  0.250331  1
  Y  Y3  1  0.471469  0.283821  0.749669  1
  Y  Y4  1  0.716179  0.187648  0.749669  1
  Y  Y5  1  0.812352  0.528531  0.749669  1
  Sb  Sb6  1  0.000000  0.000000  0.000000  1
  P  P7  1  0.527646  0.139327  0.249407  1
  P  P8  1  0.860673  0.388320  0.249407  1
  P  P9  1  0.611680  0.472354  0.249407  1
  P  P10  1  0.946099  0.713252  0.248249  1
  P  P11  1  0.286748  0.232847  0.248249  1
  P  P12  1  0.767153  0.053901  0.248249  1
  P  P13  1  0.388320  0.527646  0.750593  1
  P  P14  1  0.472354  0.860673  0.750593  1
  P  P15  1  0.139327  0.611680  0.750593  1
  P  P16  1  0.713252  0.767153  0.751751  1
  P  P17  1  0.232847  0.946099  0.751751  1
  P  P18  1  0.053901  0.286748  0.751751  1
  Rh  Rh19  1  0.333333  0.666667  0.753514  1
  Rh  Rh20  1  0.918571  0.252666  0.243941  1
  Rh  Rh21  1  0.747334  0.665905  0.243941  1
  Rh  Rh22  1  0.334095  0.081429  0.243941  1
  Rh  Rh23  1  0.440297  0.023293  0.748551  1
  Rh  Rh24  1  0.976707  0.417005  0.748551  1
  Rh  Rh25  1  0.582995  0.559703  0.748551  1
  Rh  Rh26  1  0.666667  0.333333  0.246486  1
  Rh  Rh27  1  0.099655  0.203520  0.265120  1
  Rh  Rh28  1  0.796480  0.896135  0.265120  1
  Rh  Rh29  1  0.103865  0.900345  0.265120  1
  Rh  Rh30  1  0.023293  0.582995  0.251449  1
  Rh  Rh31  1  0.417005  0.440297  0.251449  1
  Rh  Rh32  1  0.559703  0.976707  0.251449  1
  Rh  Rh33  1  0.665905  0.918571  0.756059  1
  Rh  Rh34  1  0.081429  0.747334  0.756059  1
  Rh  Rh35  1  0.252666  0.334095  0.756059  1
  Rh  Rh36  1  0.900345  0.796480  0.734880  1
  Rh  Rh37  1  0.203520  0.103865  0.734880  1
  Rh  Rh38  1  0.896135  0.099655  0.734880  1
