# generated using pymatgen
data_La3Th(B10Os)2
_symmetry_space_group_name_H-M   'P 1'
_cell_length_a   4.24434700
_cell_length_b   5.79494033
_cell_length_c   11.53953366
_cell_angle_alpha   90.03854022
_cell_angle_beta   90.00000000
_cell_angle_gamma   90.00000000
_symmetry_Int_Tables_number   1
_chemical_formula_structural   La3Th(B10Os)2
_chemical_formula_sum   'La3 Th1 B20 Os2'
_cell_volume   283.82327748
_cell_formula_units_Z   1
loop_
 _symmetry_equiv_pos_site_id
 _symmetry_equiv_pos_as_xyz
  1  'x, y, z'
loop_
 _atom_site_type_symbol
 _atom_site_label
 _atom_site_symmetry_multiplicity
 _atom_site_fract_x
 _atom_site_fract_y
 _atom_site_fract_z
 _atom_site_occupancy
  La  La0  1  0.500000  0.279912  0.869785  1
  La  La1  1  0.500000  0.720529  0.129827  1
  La  La2  1  0.500000  0.781732  0.632971  1
  Th  Th3  1  0.500000  0.223476  0.369928  1
  B  B4  1  0.000000  0.117663  0.542283  1
  B  B5  1  0.000000  0.877742  0.457852  1
  B  B6  1  0.000000  0.619581  0.957027  1
  B  B7  1  0.000000  0.380068  0.043586  1
  B  B8  1  0.000000  0.134445  0.696278  1
  B  B9  1  0.000000  0.866513  0.303448  1
  B  B10  1  0.298653  0.221169  0.119582  1
  B  B11  1  0.297976  0.778321  0.881834  1
  B  B12  1  0.700866  0.722526  0.381551  1
  B  B13  1  0.701725  0.277173  0.617022  1
  B  B14  1  0.702024  0.778321  0.881834  1
  B  B15  1  0.701347  0.221169  0.119582  1
  B  B16  1  0.298275  0.277173  0.617022  1
  B  B17  1  0.299134  0.722526  0.381551  1
  B  B18  1  0.000000  0.060315  0.193794  1
  B  B19  1  0.000000  0.940727  0.807387  1
  B  B20  1  0.000000  0.560583  0.306491  1
  B  B21  1  0.000000  0.441093  0.691280  1
  B  B22  1  0.000000  0.366404  0.197302  1
  B  B23  1  0.000000  0.634510  0.802683  1
  Os  Os24  1  0.000000  0.496048  0.497837  1
  Os  Os25  1  0.000000  0.000281  0.000262  1
