# generated using pymatgen
data_Ho5In2Hg2PdPt
_symmetry_space_group_name_H-M   'P 1'
_cell_length_a   3.61275900
_cell_length_b   8.02250059
_cell_length_c   18.28438838
_cell_angle_alpha   90.04425213
_cell_angle_beta   90.00000000
_cell_angle_gamma   90.00000000
_symmetry_Int_Tables_number   1
_chemical_formula_structural   Ho5In2Hg2PdPt
_chemical_formula_sum   'Ho10 In4 Hg4 Pd2 Pt2'
_cell_volume   529.94287490
_cell_formula_units_Z   2
loop_
 _symmetry_equiv_pos_site_id
 _symmetry_equiv_pos_as_xyz
  1  'x, y, z'
loop_
 _atom_site_type_symbol
 _atom_site_label
 _atom_site_symmetry_multiplicity
 _atom_site_fract_x
 _atom_site_fract_y
 _atom_site_fract_z
 _atom_site_occupancy
  Ho  Ho0  1  0.000000  0.500000  0.500000  1
  Ho  Ho1  1  0.000000  0.000000  0.000000  1
  Ho  Ho2  1  0.000000  0.740203  0.282836  1
  Ho  Ho3  1  0.000000  0.259797  0.717164  1
  Ho  Ho4  1  0.000000  0.753178  0.783722  1
  Ho  Ho5  1  0.000000  0.246822  0.216278  1
  Ho  Ho6  1  0.000000  0.608215  0.084565  1
  Ho  Ho7  1  0.000000  0.391785  0.915435  1
  Ho  Ho8  1  0.000000  0.891538  0.583580  1
  Ho  Ho9  1  0.000000  0.108462  0.416420  1
  In  In10  1  0.500000  0.580256  0.647934  1
  In  In11  1  0.500000  0.419744  0.352066  1
  In  In12  1  0.500000  0.921428  0.148518  1
  In  In13  1  0.500000  0.078572  0.851482  1
  Hg  Hg14  1  0.500000  0.715534  0.933959  1
  Hg  Hg15  1  0.500000  0.284466  0.066041  1
  Hg  Hg16  1  0.500000  0.786772  0.433039  1
  Hg  Hg17  1  0.500000  0.213228  0.566961  1
  Pd  Pd18  1  0.500000  0.970455  0.697568  1
  Pd  Pd19  1  0.500000  0.029545  0.302432  1
  Pt  Pt20  1  0.500000  0.529951  0.197876  1
  Pt  Pt21  1  0.500000  0.470049  0.802124  1
