# generated using pymatgen
data_Li3Nd3PtAu2
_symmetry_space_group_name_H-M   'P 1'
_cell_length_a   7.63971800
_cell_length_b   7.63971812
_cell_length_c   4.03248400
_cell_angle_alpha   90.00000000
_cell_angle_beta   90.00000000
_cell_angle_gamma   119.99999950
_symmetry_Int_Tables_number   1
_chemical_formula_structural   Li3Nd3PtAu2
_chemical_formula_sum   'Li3 Nd3 Pt1 Au2'
_cell_volume   203.82523394
_cell_formula_units_Z   1
loop_
 _symmetry_equiv_pos_site_id
 _symmetry_equiv_pos_as_xyz
  1  'x, y, z'
loop_
 _atom_site_type_symbol
 _atom_site_label
 _atom_site_symmetry_multiplicity
 _atom_site_fract_x
 _atom_site_fract_y
 _atom_site_fract_z
 _atom_site_occupancy
  Li  Li0  1  0.000953  0.240336  0.000000  1
  Li  Li1  1  0.239384  0.999047  0.000000  1
  Li  Li2  1  0.759664  0.760616  0.000000  1
  Nd  Nd3  1  0.012221  0.598464  0.500000  1
  Nd  Nd4  1  0.586244  0.987779  0.500000  1
  Nd  Nd5  1  0.401536  0.413756  0.500000  1
  Pt  Pt6  1  0.333333  0.666667  0.000000  1
  Au  Au7  1  0.000000  0.000000  0.500000  1
  Au  Au8  1  0.666667  0.333333  0.000000  1
