# generated using pymatgen
data_Zr4SiB4PRu10
_symmetry_space_group_name_H-M   'P 1'
_cell_length_a   9.33328400
_cell_length_b   9.33328400
_cell_length_c   3.04257900
_cell_angle_alpha   90.00000000
_cell_angle_beta   90.00000000
_cell_angle_gamma   90.00000000
_symmetry_Int_Tables_number   1
_chemical_formula_structural   Zr4SiB4PRu10
_chemical_formula_sum   'Zr4 Si1 B4 P1 Ru10'
_cell_volume   265.03963546
_cell_formula_units_Z   1
loop_
 _symmetry_equiv_pos_site_id
 _symmetry_equiv_pos_as_xyz
  1  'x, y, z'
loop_
 _atom_site_type_symbol
 _atom_site_label
 _atom_site_symmetry_multiplicity
 _atom_site_fract_x
 _atom_site_fract_y
 _atom_site_fract_z
 _atom_site_occupancy
  Zr  Zr0  1  0.674265  0.176728  0.000000  1
  Zr  Zr1  1  0.325735  0.823272  0.000000  1
  Zr  Zr2  1  0.176728  0.325735  0.000000  1
  Zr  Zr3  1  0.823272  0.674265  0.000000  1
  Si  Si4  1  0.500000  0.500000  0.000000  1
  B  B5  1  0.124550  0.623436  0.000000  1
  B  B6  1  0.875450  0.376564  0.000000  1
  B  B7  1  0.623436  0.875450  0.000000  1
  B  B8  1  0.376564  0.124550  0.000000  1
  P  P9  1  0.000000  0.000000  0.000000  1
  Ru  Ru10  1  0.208541  0.066952  0.500000  1
  Ru  Ru11  1  0.791459  0.933048  0.500000  1
  Ru  Ru12  1  0.066952  0.791459  0.500000  1
  Ru  Ru13  1  0.711798  0.431057  0.500000  1
  Ru  Ru14  1  0.933048  0.208541  0.500000  1
  Ru  Ru15  1  0.288202  0.568943  0.500000  1
  Ru  Ru16  1  0.568943  0.711798  0.500000  1
  Ru  Ru17  1  0.431057  0.288202  0.500000  1
  Ru  Ru18  1  0.500000  0.000000  0.500000  1
  Ru  Ru19  1  0.000000  0.500000  0.500000  1
