# generated using pymatgen
data_Nd4YIr3
_symmetry_space_group_name_H-M   'P 1'
_cell_length_a   11.21765700
_cell_length_b   11.21765700
_cell_length_c   6.51845000
_cell_angle_alpha   90.00000000
_cell_angle_beta   90.00000000
_cell_angle_gamma   90.00000000
_symmetry_Int_Tables_number   1
_chemical_formula_structural   Nd4YIr3
_chemical_formula_sum   'Nd16 Y4 Ir12'
_cell_volume   820.25455674
_cell_formula_units_Z   4
loop_
 _symmetry_equiv_pos_site_id
 _symmetry_equiv_pos_as_xyz
  1  'x, y, z'
loop_
 _atom_site_type_symbol
 _atom_site_label
 _atom_site_symmetry_multiplicity
 _atom_site_fract_x
 _atom_site_fract_y
 _atom_site_fract_z
 _atom_site_occupancy
  Nd  Nd0  1  0.289537  0.088066  0.380116  1
  Nd  Nd1  1  0.289537  0.911934  0.880116  1
  Nd  Nd2  1  0.710463  0.088066  0.880116  1
  Nd  Nd3  1  0.710463  0.911934  0.380116  1
  Nd  Nd4  1  0.588066  0.789537  0.880116  1
  Nd  Nd5  1  0.588066  0.210463  0.380116  1
  Nd  Nd6  1  0.411934  0.789537  0.380116  1
  Nd  Nd7  1  0.411934  0.210463  0.880116  1
  Nd  Nd8  1  0.210463  0.411934  0.619884  1
  Nd  Nd9  1  0.210463  0.588066  0.119884  1
  Nd  Nd10  1  0.789537  0.411934  0.119884  1
  Nd  Nd11  1  0.789537  0.588066  0.619884  1
  Nd  Nd12  1  0.911934  0.710463  0.119884  1
  Nd  Nd13  1  0.911934  0.289537  0.619884  1
  Nd  Nd14  1  0.088066  0.710463  0.619884  1
  Nd  Nd15  1  0.088066  0.289537  0.119884  1
  Y  Y16  1  0.000000  0.000000  0.500000  1
  Y  Y17  1  0.000000  0.000000  0.000000  1
  Y  Y18  1  0.500000  0.500000  0.000000  1
  Y  Y19  1  0.500000  0.500000  0.500000  1
  Ir  Ir20  1  0.849366  0.150634  0.250000  1
  Ir  Ir21  1  0.849366  0.849366  0.750000  1
  Ir  Ir22  1  0.150634  0.150634  0.750000  1
  Ir  Ir23  1  0.150634  0.849366  0.250000  1
  Ir  Ir24  1  0.650634  0.349366  0.750000  1
  Ir  Ir25  1  0.650634  0.650634  0.250000  1
  Ir  Ir26  1  0.349366  0.349366  0.250000  1
  Ir  Ir27  1  0.349366  0.650634  0.750000  1
  Ir  Ir28  1  0.500000  0.000000  0.121042  1
  Ir  Ir29  1  0.500000  0.000000  0.621042  1
  Ir  Ir30  1  0.000000  0.500000  0.878958  1
  Ir  Ir31  1  0.000000  0.500000  0.378958  1
