# generated using pymatgen
data_Ho3ZnIn4Ru
_symmetry_space_group_name_H-M   'P 1'
_cell_length_a   7.92870000
_cell_length_b   7.92870070
_cell_length_c   3.81536200
_cell_angle_alpha   90.00000000
_cell_angle_beta   90.00000000
_cell_angle_gamma   119.99998875
_symmetry_Int_Tables_number   1
_chemical_formula_structural   Ho3ZnIn4Ru
_chemical_formula_sum   'Ho3 Zn1 In4 Ru1'
_cell_volume   207.71623414
_cell_formula_units_Z   1
loop_
 _symmetry_equiv_pos_site_id
 _symmetry_equiv_pos_as_xyz
  1  'x, y, z'
loop_
 _atom_site_type_symbol
 _atom_site_label
 _atom_site_symmetry_multiplicity
 _atom_site_fract_x
 _atom_site_fract_y
 _atom_site_fract_z
 _atom_site_occupancy
  Ho  Ho0  1  0.706608  0.954873  0.500000  1
  Ho  Ho1  1  0.248267  0.293392  0.500000  1
  Ho  Ho2  1  0.045127  0.751733  0.500000  1
  Zn  Zn3  1  0.666667  0.333333  0.500000  1
  In  In4  1  0.929558  0.330626  0.000000  1
  In  In5  1  0.401068  0.070442  0.000000  1
  In  In6  1  0.669374  0.598932  0.000000  1
  In  In7  1  0.333333  0.666667  0.000000  1
  Ru  Ru8  1  0.000000  0.000000  0.000000  1
