# generated using pymatgen
data_Dy3Ho3Al24ZnRu7
_symmetry_space_group_name_H-M   'P 1'
_cell_length_a   8.83292311
_cell_length_b   8.83208873
_cell_length_c   9.53426702
_cell_angle_alpha   90.00535284
_cell_angle_beta   89.98788615
_cell_angle_gamma   119.96079684
_symmetry_Int_Tables_number   1
_chemical_formula_structural   Dy3Ho3Al24ZnRu7
_chemical_formula_sum   'Dy3 Ho3 Al24 Zn1 Ru7'
_cell_volume   644.40252464
_cell_formula_units_Z   1
loop_
 _symmetry_equiv_pos_site_id
 _symmetry_equiv_pos_as_xyz
  1  'x, y, z'
loop_
 _atom_site_type_symbol
 _atom_site_label
 _atom_site_symmetry_multiplicity
 _atom_site_fract_x
 _atom_site_fract_y
 _atom_site_fract_z
 _atom_site_occupancy
  Dy  Dy0  1  0.192990  0.386281  0.247527  1
  Dy  Dy1  1  0.806944  0.613659  0.752473  1
  Dy  Dy2  1  0.613721  0.807022  0.247547  1
  Ho  Ho3  1  0.386472  0.193017  0.752343  1
  Ho  Ho4  1  0.194345  0.805625  0.253283  1
  Ho  Ho5  1  0.805607  0.194370  0.746744  1
  Al  Al6  1  0.329106  0.670892  0.021199  1
  Al  Al7  1  0.670781  0.329055  0.978728  1
  Al  Al8  1  0.666265  0.333580  0.516216  1
  Al  Al9  1  0.333635  0.666370  0.483846  1
  Al  Al10  1  0.162127  0.324205  0.576815  1
  Al  Al11  1  0.837933  0.675775  0.423231  1
  Al  Al12  1  0.675784  0.837921  0.576787  1
  Al  Al13  1  0.849543  0.678005  0.081825  1
  Al  Al14  1  0.324232  0.162075  0.423293  1
  Al  Al15  1  0.150499  0.321975  0.918129  1
  Al  Al16  1  0.162502  0.837608  0.578177  1
  Al  Al17  1  0.321995  0.150447  0.081766  1
  Al  Al18  1  0.837546  0.162470  0.421862  1
  Al  Al19  1  0.678023  0.849550  0.918164  1
  Al  Al20  1  0.837261  0.162726  0.078380  1
  Al  Al21  1  0.162792  0.837350  0.921581  1
  Al  Al22  1  0.561053  0.121203  0.248552  1
  Al  Al23  1  0.438915  0.878928  0.751445  1
  Al  Al24  1  0.878813  0.438960  0.248565  1
  Al  Al25  1  0.121218  0.561056  0.751440  1
  Al  Al26  1  0.563487  0.436511  0.254575  1
  Al  Al27  1  0.436487  0.563344  0.745429  1
  Al  Al28  1  0.999193  0.000812  0.250377  1
  Al  Al29  1  0.000923  0.999257  0.749623  1
  Zn  Zn30  1  0.499990  0.499988  0.999985  1
  Ru  Ru31  1  0.499957  0.000057  0.999924  1
  Ru  Ru32  1  0.999972  0.499984  0.999986  1
  Ru  Ru33  1  0.499976  0.000056  0.500071  1
  Ru  Ru34  1  0.999935  0.499965  0.500027  1
  Ru  Ru35  1  0.499965  0.499900  0.500075  1
  Ru  Ru36  1  0.999999  0.999991  0.999992  1
  Ru  Ru37  1  0.000014  0.000010  0.500015  1
