# generated using pymatgen
data_Ca4TbZr3(Co4As3)4
_symmetry_space_group_name_H-M   'P 1'
_cell_length_a   12.80194435
_cell_length_b   12.78588779
_cell_length_c   3.86370300
_cell_angle_alpha   90.00000000
_cell_angle_beta   90.00000000
_cell_angle_gamma   119.95852629
_symmetry_Int_Tables_number   1
_chemical_formula_structural   Ca4TbZr3(Co4As3)4
_chemical_formula_sum   'Ca4 Tb1 Zr3 Co16 As12'
_cell_volume   547.92679365
_cell_formula_units_Z   1
loop_
 _symmetry_equiv_pos_site_id
 _symmetry_equiv_pos_as_xyz
  1  'x, y, z'
loop_
 _atom_site_type_symbol
 _atom_site_label
 _atom_site_symmetry_multiplicity
 _atom_site_fract_x
 _atom_site_fract_y
 _atom_site_fract_z
 _atom_site_occupancy
  Ca  Ca0  1  0.182012  0.182177  0.500000  1
  Ca  Ca1  1  0.817988  0.000164  0.500000  1
  Ca  Ca2  1  0.333214  0.666669  0.000000  1
  Ca  Ca3  1  0.666786  0.333454  0.000000  1
  Tb  Tb4  1  0.000000  0.818474  0.500000  1
  Zr  Zr5  1  0.561249  0.560803  0.000000  1
  Zr  Zr6  1  0.438751  0.999553  0.000000  1
  Zr  Zr7  1  0.000000  0.438646  0.000000  1
  Co  Co8  1  0.719558  0.718382  0.500000  1
  Co  Co9  1  0.280442  0.998824  0.500000  1
  Co  Co10  1  0.000000  0.281371  0.500000  1
  Co  Co11  1  0.178109  0.374785  0.000000  1
  Co  Co12  1  0.624668  0.803404  0.000000  1
  Co  Co13  1  0.195078  0.822124  0.000000  1
  Co  Co14  1  0.804922  0.627046  0.000000  1
  Co  Co15  1  0.821891  0.196676  0.000000  1
  Co  Co16  1  0.375332  0.178735  0.000000  1
  Co  Co17  1  0.357882  0.478481  0.500000  1
  Co  Co18  1  0.521676  0.879387  0.500000  1
  Co  Co19  1  0.120560  0.643143  0.500000  1
  Co  Co20  1  0.879440  0.522582  0.500000  1
  Co  Co21  1  0.642118  0.120598  0.500000  1
  Co  Co22  1  0.478324  0.357709  0.500000  1
  Co  Co23  1  0.000000  0.997461  0.000000  1
  As  As24  1  0.820425  0.821357  0.000000  1
  As  As25  1  0.179575  0.000932  0.000000  1
  As  As26  1  0.000000  0.177958  0.000000  1
  As  As27  1  0.173897  0.481050  0.500000  1
  As  As28  1  0.519195  0.692572  0.500000  1
  As  As29  1  0.307247  0.826097  0.500000  1
  As  As30  1  0.692753  0.518849  0.500000  1
  As  As31  1  0.826103  0.307152  0.500000  1
  As  As32  1  0.480805  0.173376  0.500000  1
  As  As33  1  0.352252  0.352517  0.000000  1
  As  As34  1  0.647748  0.000265  0.000000  1
  As  As35  1  0.000000  0.647224  0.000000  1
