# generated using pymatgen
data_Dy9Tm(InSb)3
_symmetry_space_group_name_H-M   'P 1'
_cell_length_a   8.97603900
_cell_length_b   8.96037083
_cell_length_c   6.56380900
_cell_angle_alpha   90.00173287
_cell_angle_beta   90.00082343
_cell_angle_gamma   120.14233609
_symmetry_Int_Tables_number   1
_chemical_formula_structural   Dy9Tm(InSb)3
_chemical_formula_sum   'Dy9 Tm1 In3 Sb3'
_cell_volume   456.53344152
_cell_formula_units_Z   1
loop_
 _symmetry_equiv_pos_site_id
 _symmetry_equiv_pos_as_xyz
  1  'x, y, z'
loop_
 _atom_site_type_symbol
 _atom_site_label
 _atom_site_symmetry_multiplicity
 _atom_site_fract_x
 _atom_site_fract_y
 _atom_site_fract_z
 _atom_site_occupancy
  Dy  Dy0  1  0.330049  0.666052  0.001206  1
  Dy  Dy1  1  0.664641  0.333392  0.499725  1
  Dy  Dy2  1  0.664578  0.333588  0.000460  1
  Dy  Dy3  1  0.761820  0.999808  0.750006  1
  Dy  Dy4  1  0.764125  0.761292  0.250407  1
  Dy  Dy5  1  0.003674  0.238741  0.250003  1
  Dy  Dy6  1  0.001829  0.763045  0.749643  1
  Dy  Dy7  1  0.239551  0.235950  0.749430  1
  Dy  Dy8  1  0.238435  0.001088  0.250435  1
  Tm  Tm9  1  0.329556  0.665958  0.498395  1
  In  In10  1  0.397335  0.999002  0.749196  1
  In  In11  1  0.396368  0.399379  0.251191  1
  In  In12  1  0.998957  0.602161  0.250941  1
  Sb  Sb13  1  0.997353  0.391903  0.749209  1
  Sb  Sb14  1  0.605065  0.608408  0.748707  1
  Sb  Sb15  1  0.606659  0.000233  0.251045  1
