# generated using pymatgen
data_Li3La3MgSn4
_symmetry_space_group_name_H-M   'P 1'
_cell_length_a   9.00111755
_cell_length_b   8.89061463
_cell_length_c   8.89061300
_cell_angle_alpha   149.03594092
_cell_angle_beta   131.18642098
_cell_angle_gamma   58.81849460
_symmetry_Int_Tables_number   1
_chemical_formula_structural   Li3La3MgSn4
_chemical_formula_sum   'Li3 La3 Mg1 Sn4'
_cell_volume   273.45212645
_cell_formula_units_Z   1
loop_
 _symmetry_equiv_pos_site_id
 _symmetry_equiv_pos_as_xyz
  1  'x, y, z'
loop_
 _atom_site_type_symbol
 _atom_site_label
 _atom_site_symmetry_multiplicity
 _atom_site_fract_x
 _atom_site_fract_y
 _atom_site_fract_z
 _atom_site_occupancy
  Li  Li0  1  0.484162  0.672818  0.811345  1
  Li  Li1  1  0.856993  0.671752  0.185240  1
  Li  Li2  1  0.132293  0.327627  0.804664  1
  La  La3  1  0.499607  0.999475  0.500131  1
  La  La4  1  0.884048  0.871926  0.012122  1
  La  La5  1  0.125833  0.126943  0.998890  1
  Mg  Mg6  1  0.519022  0.328220  0.190803  1
  Sn  Sn7  1  0.268837  0.783286  0.485551  1
  Sn  Sn8  1  0.719506  0.213683  0.505823  1
  Sn  Sn9  1  0.810708  0.503487  0.307221  1
  Sn  Sn10  1  0.198991  0.500781  0.698210  1
