# generated using pymatgen
data_TbHoCr3O12
_symmetry_space_group_name_H-M   'P 1'
_cell_length_a   10.01861622
_cell_length_b   10.01898093
_cell_length_c   10.01867061
_cell_angle_alpha   58.21493707
_cell_angle_beta   58.21660984
_cell_angle_gamma   58.21589656
_symmetry_Int_Tables_number   1
_chemical_formula_structural   TbHoCr3O12
_chemical_formula_sum   'Tb2 Ho2 Cr6 O24'
_cell_volume   682.02407915
_cell_formula_units_Z   2
loop_
 _symmetry_equiv_pos_site_id
 _symmetry_equiv_pos_as_xyz
  1  'x, y, z'
loop_
 _atom_site_type_symbol
 _atom_site_label
 _atom_site_symmetry_multiplicity
 _atom_site_fract_x
 _atom_site_fract_y
 _atom_site_fract_z
 _atom_site_occupancy
  Tb  Tb0  1  0.642486  0.642446  0.642482  1
  Tb  Tb1  1  0.357528  0.357527  0.357533  1
  Ho  Ho2  1  0.142608  0.142615  0.142648  1
  Ho  Ho3  1  0.857361  0.857407  0.857359  1
  Cr  Cr4  1  0.751416  0.035749  0.464137  1
  Cr  Cr5  1  0.964187  0.535895  0.248538  1
  Cr  Cr6  1  0.535892  0.248558  0.964176  1
  Cr  Cr7  1  0.464140  0.751466  0.035776  1
  Cr  Cr8  1  0.035826  0.464154  0.751435  1
  Cr  Cr9  1  0.248566  0.964150  0.535917  1
  O  O10  1  0.918511  0.064291  0.294669  1
  O  O11  1  0.778733  0.002796  0.630189  1
  O  O12  1  0.997169  0.369830  0.221217  1
  O  O13  1  0.705394  0.081469  0.935674  1
  O  O14  1  0.584116  0.205010  0.436569  1
  O  O15  1  0.871179  0.495139  0.723283  1
  O  O16  1  0.504892  0.276716  0.128823  1
  O  O17  1  0.794932  0.563477  0.415846  1
  O  O18  1  0.935664  0.705407  0.081458  1
  O  O19  1  0.563461  0.415873  0.794928  1
  O  O20  1  0.369818  0.221246  0.997172  1
  O  O21  1  0.276707  0.128804  0.504907  1
  O  O22  1  0.723277  0.871100  0.495132  1
  O  O23  1  0.630201  0.778778  0.002822  1
  O  O24  1  0.436549  0.584166  0.205029  1
  O  O25  1  0.064327  0.294647  0.918531  1
  O  O26  1  0.205072  0.436566  0.584122  1
  O  O27  1  0.495118  0.723311  0.871139  1
  O  O28  1  0.128825  0.504914  0.276699  1
  O  O29  1  0.415882  0.794897  0.563482  1
  O  O30  1  0.294640  0.918542  0.064303  1
  O  O31  1  0.002836  0.630224  0.778755  1
  O  O32  1  0.221227  0.997166  0.369846  1
  O  O33  1  0.081462  0.935664  0.705401  1
