# generated using pymatgen
data_TbHo2Zn2Ga6Co7
_symmetry_space_group_name_H-M   'P 1'
_cell_length_a   4.07988800
_cell_length_b   8.79108049
_cell_length_c   8.90794764
_cell_angle_alpha   59.40041142
_cell_angle_beta   90.00000000
_cell_angle_gamma   90.00000000
_symmetry_Int_Tables_number   1
_chemical_formula_structural   TbHo2Zn2Ga6Co7
_chemical_formula_sum   'Tb1 Ho2 Zn2 Ga6 Co7'
_cell_volume   275.00652997
_cell_formula_units_Z   1
loop_
 _symmetry_equiv_pos_site_id
 _symmetry_equiv_pos_as_xyz
  1  'x, y, z'
loop_
 _atom_site_type_symbol
 _atom_site_label
 _atom_site_symmetry_multiplicity
 _atom_site_fract_x
 _atom_site_fract_y
 _atom_site_fract_z
 _atom_site_occupancy
  Tb  Tb0  1  0.500000  0.677615  0.657186  1
  Ho  Ho1  1  0.500000  0.322036  0.334606  1
  Ho  Ho2  1  0.000000  0.999961  0.000697  1
  Zn  Zn3  1  0.500000  0.295611  0.707193  1
  Zn  Zn4  1  0.500000  0.704483  0.003238  1
  Ga  Ga5  1  0.000000  0.496512  0.506316  1
  Ga  Ga6  1  0.000000  0.503300  0.003379  1
  Ga  Ga7  1  0.000000  0.000503  0.489880  1
  Ga  Ga8  1  0.500000  0.726044  0.281666  1
  Ga  Ga9  1  0.500000  0.273198  0.008696  1
  Ga  Ga10  1  0.500000  0.000406  0.717909  1
  Co  Co11  1  0.000000  0.180251  0.178847  1
  Co  Co12  1  0.000000  0.179130  0.630167  1
  Co  Co13  1  0.000000  0.631204  0.190882  1
  Co  Co14  1  0.000000  0.822105  0.810171  1
  Co  Co15  1  0.000000  0.367250  0.822841  1
  Co  Co16  1  0.000000  0.820286  0.358178  1
  Co  Co17  1  0.500000  0.000004  0.298243  1
