# generated using pymatgen
data_Er2CoSi14Ir5
_symmetry_space_group_name_H-M   'P 1'
_cell_length_a   7.98818015
_cell_length_b   7.98818065
_cell_length_c   7.97236711
_cell_angle_alpha   56.66913659
_cell_angle_beta   56.66913471
_cell_angle_gamma   56.57759789
_symmetry_Int_Tables_number   1
_chemical_formula_structural   Er2CoSi14Ir5
_chemical_formula_sum   'Er2 Co1 Si14 Ir5'
_cell_volume   331.79256323
_cell_formula_units_Z   1
loop_
 _symmetry_equiv_pos_site_id
 _symmetry_equiv_pos_as_xyz
  1  'x, y, z'
loop_
 _atom_site_type_symbol
 _atom_site_label
 _atom_site_symmetry_multiplicity
 _atom_site_fract_x
 _atom_site_fract_y
 _atom_site_fract_z
 _atom_site_occupancy
  Er  Er0  1  0.000875  0.998847  0.999559  1
  Er  Er1  1  0.501153  0.499125  0.500441  1
  Co  Co2  1  0.069915  0.430085  0.750000  1
  Si  Si3  1  0.759889  0.740111  0.750000  1
  Si  Si4  1  0.249719  0.250281  0.250000  1
  Si  Si5  1  0.850897  0.065856  0.670971  1
  Si  Si6  1  0.671286  0.850946  0.064116  1
  Si  Si7  1  0.063283  0.666040  0.846555  1
  Si  Si8  1  0.649054  0.828714  0.435884  1
  Si  Si9  1  0.434144  0.649103  0.829029  1
  Si  Si10  1  0.833960  0.436717  0.653445  1
  Si  Si11  1  0.170190  0.561756  0.359751  1
  Si  Si12  1  0.565598  0.350534  0.172193  1
  Si  Si13  1  0.342721  0.179019  0.572314  1
  Si  Si14  1  0.938244  0.329810  0.140249  1
  Si  Si15  1  0.320981  0.157279  0.927686  1
  Si  Si16  1  0.149466  0.934402  0.327807  1
  Ir  Ir17  1  0.248718  0.929437  0.572431  1
  Ir  Ir18  1  0.570563  0.251282  0.927569  1
  Ir  Ir19  1  0.929085  0.570915  0.250000  1
  Ir  Ir20  1  0.429379  0.749120  0.071442  1
  Ir  Ir21  1  0.750880  0.070621  0.428558  1
