# generated using pymatgen
data_Ho4Ga18(OsPd)3
_symmetry_space_group_name_H-M   'P 1'
_cell_length_a   7.61640808
_cell_length_b   7.61640789
_cell_length_c   9.55095487
_cell_angle_alpha   89.88183459
_cell_angle_beta   89.88184025
_cell_angle_gamma   120.05031052
_symmetry_Int_Tables_number   1
_chemical_formula_structural   Ho4Ga18(OsPd)3
_chemical_formula_sum   'Ho4 Ga18 Os3 Pd3'
_cell_volume   479.57190137
_cell_formula_units_Z   1
loop_
 _symmetry_equiv_pos_site_id
 _symmetry_equiv_pos_as_xyz
  1  'x, y, z'
loop_
 _atom_site_type_symbol
 _atom_site_label
 _atom_site_symmetry_multiplicity
 _atom_site_fract_x
 _atom_site_fract_y
 _atom_site_fract_z
 _atom_site_occupancy
  Ho  Ho0  1  0.995367  0.667128  0.252421  1
  Ho  Ho1  1  0.003583  0.332436  0.746487  1
  Ho  Ho2  1  0.667564  0.996417  0.253513  1
  Ho  Ho3  1  0.332872  0.004633  0.747579  1
  Ga  Ga4  1  0.130403  0.127923  0.250089  1
  Ga  Ga5  1  0.872077  0.869597  0.749911  1
  Ga  Ga6  1  0.002864  0.336132  0.080470  1
  Ga  Ga7  1  0.003166  0.665537  0.918482  1
  Ga  Ga8  1  0.000924  0.662365  0.578750  1
  Ga  Ga9  1  0.337635  0.999076  0.421250  1
  Ga  Ga10  1  0.999942  0.337633  0.419984  1
  Ga  Ga11  1  0.662367  0.000058  0.580016  1
  Ga  Ga12  1  0.663868  0.997136  0.919530  1
  Ga  Ga13  1  0.334463  0.996834  0.081518  1
  Ga  Ga14  1  0.339365  0.338827  0.564878  1
  Ga  Ga15  1  0.661173  0.660635  0.435122  1
  Ga  Ga16  1  0.661290  0.666349  0.070066  1
  Ga  Ga17  1  0.333651  0.338710  0.929934  1
  Ga  Ga18  1  0.335835  0.549096  0.250889  1
  Ga  Ga19  1  0.666395  0.455843  0.747524  1
  Ga  Ga20  1  0.544157  0.333605  0.252476  1
  Ga  Ga21  1  0.450904  0.664165  0.749111  1
  Os  Os22  1  0.327479  0.672521  0.000000  1
  Os  Os23  1  0.327342  0.672658  0.500000  1
  Os  Os24  1  0.672964  0.327036  0.500000  1
  Pd  Pd25  1  0.671675  0.328325  0.000000  1
  Pd  Pd26  1  0.001116  0.998884  0.000000  1
  Pd  Pd27  1  0.999558  0.000442  0.500000  1
