# generated using pymatgen
data_Tm8Lu2(AlSb)3
_symmetry_space_group_name_H-M   'P 1'
_cell_length_a   8.69546555
_cell_length_b   8.71736736
_cell_length_c   6.35579402
_cell_angle_alpha   89.99843737
_cell_angle_beta   89.99333604
_cell_angle_gamma   119.70949209
_symmetry_Int_Tables_number   1
_chemical_formula_structural   Tm8Lu2(AlSb)3
_chemical_formula_sum   'Tm8 Lu2 Al3 Sb3'
_cell_volume   418.44899637
_cell_formula_units_Z   1
loop_
 _symmetry_equiv_pos_site_id
 _symmetry_equiv_pos_as_xyz
  1  'x, y, z'
loop_
 _atom_site_type_symbol
 _atom_site_label
 _atom_site_symmetry_multiplicity
 _atom_site_fract_x
 _atom_site_fract_y
 _atom_site_fract_z
 _atom_site_occupancy
  Tm  Tm0  1  0.666559  0.325840  0.002677  1
  Tm  Tm1  1  0.332914  0.678893  0.497174  1
  Tm  Tm2  1  0.233749  0.989267  0.249978  1
  Tm  Tm3  1  0.759320  0.002033  0.749983  1
  Tm  Tm4  1  0.987877  0.233618  0.250014  1
  Tm  Tm5  1  0.764158  0.764895  0.250002  1
  Tm  Tm6  1  0.242994  0.231957  0.749986  1
  Tm  Tm7  1  0.012640  0.770428  0.750035  1
  Lu  Lu8  1  0.332875  0.679135  0.002901  1
  Lu  Lu9  1  0.666579  0.325663  0.497247  1
  Al  Al10  1  0.600016  0.999122  0.249977  1
  Al  Al11  1  0.403620  0.003636  0.750016  1
  Al  Al12  1  0.994952  0.600279  0.250007  1
  Sb  Sb13  1  0.387868  0.391780  0.250003  1
  Sb  Sb14  1  0.608962  0.607121  0.749999  1
  Sb  Sb15  1  0.004917  0.396330  0.750001  1
