# generated using pymatgen
data_Dy10Y2Fe2I17
_symmetry_space_group_name_H-M   'P 1'
_cell_length_a   9.70182523
_cell_length_b   11.64490798
_cell_length_c   11.66887188
_cell_angle_alpha   93.56821889
_cell_angle_beta   104.71045767
_cell_angle_gamma   114.08794393
_symmetry_Int_Tables_number   1
_chemical_formula_structural   Dy10Y2Fe2I17
_chemical_formula_sum   'Dy10 Y2 Fe2 I17'
_cell_volume   1143.33985124
_cell_formula_units_Z   1
loop_
 _symmetry_equiv_pos_site_id
 _symmetry_equiv_pos_as_xyz
  1  'x, y, z'
loop_
 _atom_site_type_symbol
 _atom_site_label
 _atom_site_symmetry_multiplicity
 _atom_site_fract_x
 _atom_site_fract_y
 _atom_site_fract_z
 _atom_site_occupancy
  Dy  Dy0  1  0.655244  0.241320  0.280447  1
  Dy  Dy1  1  0.007399  0.190725  0.411462  1
  Dy  Dy2  1  0.219124  0.671399  0.982703  1
  Dy  Dy3  1  0.255033  0.978066  0.888921  1
  Dy  Dy4  1  0.344871  0.758431  0.719684  1
  Dy  Dy5  1  0.947767  0.497337  0.680365  1
  Dy  Dy6  1  0.744945  0.021867  0.111132  1
  Dy  Dy7  1  0.140856  0.286580  0.153952  1
  Dy  Dy8  1  0.780784  0.328508  0.017144  1
  Dy  Dy9  1  0.859034  0.713270  0.846117  1
  Y  Y10  1  0.052911  0.503577  0.320219  1
  Y  Y11  1  0.992096  0.809548  0.587916  1
  Fe  Fe12  1  0.104205  0.738015  0.786281  1
  Fe  Fe13  1  0.895630  0.261245  0.213880  1
  I  I14  1  0.783478  0.528567  0.417320  1
  I  I15  1  0.643738  0.419168  0.761659  1
  I  I16  1  0.843846  0.895056  0.326978  1
  I  I17  1  0.327574  0.213324  0.368913  1
  I  I18  1  0.156309  0.104951  0.673220  1
  I  I19  1  0.586344  0.053039  0.842434  1
  I  I20  1  0.757516  0.187567  0.538563  1
  I  I21  1  0.551648  0.710390  0.954063  1
  I  I22  1  0.356451  0.580899  0.238331  1
  I  I23  1  0.216350  0.471247  0.582670  1
  I  I24  1  0.056368  0.367200  0.896836  1
  I  I25  1  0.448377  0.289684  0.045920  1
  I  I26  1  0.000016  0.000017  0.999967  1
  I  I27  1  0.242728  0.812493  0.461179  1
  I  I28  1  0.413567  0.946997  0.157495  1
  I  I29  1  0.672290  0.786686  0.631126  1
  I  I30  1  0.943501  0.632827  0.103103  1
