# generated using pymatgen
data_HoSc6Sn23Ir6
_symmetry_space_group_name_H-M   'P 1'
_cell_length_a   9.73369200
_cell_length_b   9.73369153
_cell_length_c   9.95872700
_cell_angle_alpha   90.00000000
_cell_angle_beta   90.00000000
_cell_angle_gamma   120.00000160
_symmetry_Int_Tables_number   1
_chemical_formula_structural   HoSc6Sn23Ir6
_chemical_formula_sum   'Ho1 Sc6 Sn23 Ir6'
_cell_volume   817.12713098
_cell_formula_units_Z   1
loop_
 _symmetry_equiv_pos_site_id
 _symmetry_equiv_pos_as_xyz
  1  'x, y, z'
loop_
 _atom_site_type_symbol
 _atom_site_label
 _atom_site_symmetry_multiplicity
 _atom_site_fract_x
 _atom_site_fract_y
 _atom_site_fract_z
 _atom_site_occupancy
  Ho  Ho0  1  0.000000  0.000000  0.000000  1
  Sc  Sc1  1  0.515862  0.484138  0.691560  1
  Sc  Sc2  1  0.515862  0.031723  0.691560  1
  Sc  Sc3  1  0.968277  0.484138  0.691560  1
  Sc  Sc4  1  0.031723  0.515862  0.308440  1
  Sc  Sc5  1  0.484138  0.968277  0.308440  1
  Sc  Sc6  1  0.484138  0.515862  0.308440  1
  Sn  Sn7  1  0.666667  0.333333  0.168397  1
  Sn  Sn8  1  0.666667  0.333333  0.860747  1
  Sn  Sn9  1  0.333333  0.666667  0.139253  1
  Sn  Sn10  1  0.353534  0.353534  0.000000  1
  Sn  Sn11  1  0.000000  0.646466  0.000000  1
  Sn  Sn12  1  0.646466  0.000000  0.000000  1
  Sn  Sn13  1  0.646466  0.646466  0.000000  1
  Sn  Sn14  1  0.333333  0.666667  0.831603  1
  Sn  Sn15  1  0.449149  0.224574  0.459352  1
  Sn  Sn16  1  0.224574  0.775426  0.540648  1
  Sn  Sn17  1  0.224574  0.449149  0.540648  1
  Sn  Sn18  1  0.550851  0.775426  0.540648  1
  Sn  Sn19  1  0.122823  0.877177  0.285946  1
  Sn  Sn20  1  0.775426  0.550851  0.459352  1
  Sn  Sn21  1  0.775426  0.224574  0.459352  1
  Sn  Sn22  1  0.353534  0.000000  0.000000  1
  Sn  Sn23  1  0.122823  0.245644  0.285946  1
  Sn  Sn24  1  0.754356  0.877177  0.285946  1
  Sn  Sn25  1  0.245644  0.122823  0.714054  1
  Sn  Sn26  1  0.877177  0.754356  0.714054  1
  Sn  Sn27  1  0.877177  0.122823  0.714054  1
  Sn  Sn28  1  0.000000  0.000000  0.500000  1
  Sn  Sn29  1  0.000000  0.353534  0.000000  1
  Ir  Ir30  1  0.169891  0.830109  0.799290  1
  Ir  Ir31  1  0.169891  0.339782  0.799290  1
  Ir  Ir32  1  0.660218  0.830109  0.799290  1
  Ir  Ir33  1  0.339782  0.169891  0.200710  1
  Ir  Ir34  1  0.830109  0.660218  0.200710  1
  Ir  Ir35  1  0.830109  0.169891  0.200710  1
