# generated using pymatgen
data_Zr6Zn19Cu2SiPd2
_symmetry_space_group_name_H-M   'P 1'
_cell_length_a   8.77437718
_cell_length_b   8.77517990
_cell_length_c   8.74155008
_cell_angle_alpha   60.01416496
_cell_angle_beta   59.91986446
_cell_angle_gamma   59.75487059
_symmetry_Int_Tables_number   1
_chemical_formula_structural   Zr6Zn19Cu2SiPd2
_chemical_formula_sum   'Zr6 Zn19 Cu2 Si1 Pd2'
_cell_volume   474.80825134
_cell_formula_units_Z   1
loop_
 _symmetry_equiv_pos_site_id
 _symmetry_equiv_pos_as_xyz
  1  'x, y, z'
loop_
 _atom_site_type_symbol
 _atom_site_label
 _atom_site_symmetry_multiplicity
 _atom_site_fract_x
 _atom_site_fract_y
 _atom_site_fract_z
 _atom_site_occupancy
  Zr  Zr0  1  0.711872  0.288475  0.288158  1
  Zr  Zr1  1  0.288128  0.711525  0.711842  1
  Zr  Zr2  1  0.290668  0.709496  0.290566  1
  Zr  Zr3  1  0.709332  0.290504  0.709434  1
  Zr  Zr4  1  0.291966  0.292304  0.707875  1
  Zr  Zr5  1  0.708034  0.707696  0.292125  1
  Zn  Zn6  1  0.129309  0.118487  0.118738  1
  Zn  Zn7  1  0.870691  0.881513  0.881262  1
  Zn  Zn8  1  0.126512  0.124413  0.631533  1
  Zn  Zn9  1  0.120215  0.632927  0.127297  1
  Zn  Zn10  1  0.873488  0.875587  0.368467  1
  Zn  Zn11  1  0.879785  0.367073  0.872703  1
  Zn  Zn12  1  0.632282  0.116430  0.125785  1
  Zn  Zn13  1  0.367718  0.883570  0.874215  1
  Zn  Zn14  1  0.000000  0.500000  0.000000  1
  Zn  Zn15  1  0.000000  0.000000  0.500000  1
  Zn  Zn16  1  0.500000  0.500000  0.000000  1
  Zn  Zn17  1  0.340392  0.330491  0.337624  1
  Zn  Zn18  1  0.659608  0.669509  0.662376  1
  Zn  Zn19  1  0.338840  0.330815  0.992487  1
  Zn  Zn20  1  0.340489  0.991960  0.334262  1
  Zn  Zn21  1  0.661160  0.669185  0.007513  1
  Zn  Zn22  1  0.659511  0.008040  0.665738  1
  Zn  Zn23  1  0.992265  0.334523  0.335690  1
  Zn  Zn24  1  0.007735  0.665477  0.664310  1
  Cu  Cu25  1  0.500000  0.000000  0.000000  1
  Cu  Cu26  1  0.500000  0.000000  0.500000  1
  Si  Si27  1  0.500000  0.500000  0.500000  1
  Pd  Pd28  1  0.000000  0.500000  0.500000  1
  Pd  Pd29  1  0.000000  0.000000  0.000000  1
