# generated using pymatgen
data_CsSmGd5CoI12
_symmetry_space_group_name_H-M   'P 1'
_cell_length_a   9.94252054
_cell_length_b   9.96000930
_cell_length_c   9.98838839
_cell_angle_alpha   103.97922613
_cell_angle_beta   103.46992092
_cell_angle_gamma   103.76425964
_symmetry_Int_Tables_number   1
_chemical_formula_structural   CsSmGd5CoI12
_chemical_formula_sum   'Cs1 Sm1 Gd5 Co1 I12'
_cell_volume   886.90987433
_cell_formula_units_Z   1
loop_
 _symmetry_equiv_pos_site_id
 _symmetry_equiv_pos_as_xyz
  1  'x, y, z'
loop_
 _atom_site_type_symbol
 _atom_site_label
 _atom_site_symmetry_multiplicity
 _atom_site_fract_x
 _atom_site_fract_y
 _atom_site_fract_z
 _atom_site_occupancy
  Cs  Cs0  1  0.499968  0.499814  0.499713  1
  Sm  Sm1  1  0.993249  0.911095  0.701933  1
  Gd  Gd2  1  0.008481  0.089557  0.297463  1
  Gd  Gd3  1  0.087994  0.297381  0.010143  1
  Gd  Gd4  1  0.254405  0.007659  0.074615  1
  Gd  Gd5  1  0.910853  0.702576  0.989135  1
  Gd  Gd6  1  0.745364  0.992505  0.926537  1
  Co  Co7  1  0.999224  0.999343  0.999149  1
  I  I8  1  0.586754  0.671337  0.905733  1
  I  I9  1  0.412367  0.328368  0.094019  1
  I  I10  1  0.323350  0.924548  0.782819  1
  I  I11  1  0.329186  0.092359  0.407367  1
  I  I12  1  0.922293  0.776634  0.328872  1
  I  I13  1  0.680348  0.076125  0.220623  1
  I  I14  1  0.078285  0.224981  0.669041  1
  I  I15  1  0.777874  0.324461  0.922663  1
  I  I16  1  0.220980  0.675337  0.077635  1
  I  I17  1  0.906137  0.579425  0.667783  1
  I  I18  1  0.093355  0.418301  0.331022  1
  I  I19  1  0.669534  0.908195  0.593736  1
