# generated using pymatgen
data_Dy3Sn2BiRh3
_symmetry_space_group_name_H-M   'P 1'
_cell_length_a   7.60130200
_cell_length_b   7.60130251
_cell_length_c   3.87939600
_cell_angle_alpha   90.00000000
_cell_angle_beta   90.00000000
_cell_angle_gamma   119.41220526
_symmetry_Int_Tables_number   1
_chemical_formula_structural   Dy3Sn2BiRh3
_chemical_formula_sum   'Dy3 Sn2 Bi1 Rh3'
_cell_volume   195.25974905
_cell_formula_units_Z   1
loop_
 _symmetry_equiv_pos_site_id
 _symmetry_equiv_pos_as_xyz
  1  'x, y, z'
loop_
 _atom_site_type_symbol
 _atom_site_label
 _atom_site_symmetry_multiplicity
 _atom_site_fract_x
 _atom_site_fract_y
 _atom_site_fract_z
 _atom_site_occupancy
  Dy  Dy0  1  0.398932  0.398932  0.500000  1
  Dy  Dy1  1  0.595939  0.008127  0.500000  1
  Dy  Dy2  1  0.008127  0.595939  0.500000  1
  Sn  Sn3  1  0.263980  0.001666  0.000000  1
  Sn  Sn4  1  0.001666  0.263980  0.000000  1
  Bi  Bi5  1  0.736675  0.736675  0.000000  1
  Rh  Rh6  1  0.662959  0.323989  0.000000  1
  Rh  Rh7  1  0.323989  0.662959  0.000000  1
  Rh  Rh8  1  0.007732  0.007732  0.500000  1
