# generated using pymatgen
data_Pr15Nd(In3Ir)2
_symmetry_space_group_name_H-M   'P 1'
_cell_length_a   10.86538600
_cell_length_b   10.87714123
_cell_length_c   7.37753200
_cell_angle_alpha   90.02919271
_cell_angle_beta   90.00000000
_cell_angle_gamma   119.96425623
_symmetry_Int_Tables_number   1
_chemical_formula_structural   Pr15Nd(In3Ir)2
_chemical_formula_sum   'Pr15 Nd1 In6 Ir2'
_cell_volume   755.36680631
_cell_formula_units_Z   1
loop_
 _symmetry_equiv_pos_site_id
 _symmetry_equiv_pos_as_xyz
  1  'x, y, z'
loop_
 _atom_site_type_symbol
 _atom_site_label
 _atom_site_symmetry_multiplicity
 _atom_site_fract_x
 _atom_site_fract_y
 _atom_site_fract_z
 _atom_site_occupancy
  Pr  Pr0  1  0.930348  0.465587  0.790955  1
  Pr  Pr1  1  0.535237  0.465587  0.790955  1
  Pr  Pr2  1  0.464896  0.929791  0.291018  1
  Pr  Pr3  1  0.069662  0.534170  0.291466  1
  Pr  Pr4  1  0.464509  0.534170  0.291466  1
  Pr  Pr5  1  0.824591  0.649182  0.498859  1
  Pr  Pr6  1  0.351906  0.175767  0.500107  1
  Pr  Pr7  1  0.823861  0.175767  0.500107  1
  Pr  Pr8  1  0.175734  0.351468  0.999327  1
  Pr  Pr9  1  0.648540  0.824376  0.999909  1
  Pr  Pr10  1  0.175837  0.824376  0.999909  1
  Pr  Pr11  1  0.666725  0.333449  0.174110  1
  Pr  Pr12  1  0.333569  0.667139  0.674180  1
  Pr  Pr13  1  0.000046  0.000091  0.781746  1
  Pr  Pr14  1  0.000102  0.000204  0.281496  1
  Nd  Nd15  1  0.534866  0.069731  0.790845  1
  In  In16  1  0.836867  0.673737  0.040707  1
  In  In17  1  0.326274  0.162998  0.040317  1
  In  In18  1  0.836722  0.162998  0.040317  1
  In  In19  1  0.163047  0.326092  0.541393  1
  In  In20  1  0.673792  0.837061  0.540325  1
  In  In21  1  0.163270  0.837061  0.540325  1
  Ir  Ir22  1  0.666467  0.332933  0.568474  1
  Ir  Ir23  1  0.333133  0.666266  0.067587  1
