# generated using pymatgen
data_RbYThSe4
_symmetry_space_group_name_H-M   'P 1'
_cell_length_a   4.29120400
_cell_length_b   7.28646886
_cell_length_c   8.67415893
_cell_angle_alpha   74.24130864
_cell_angle_beta   90.00000000
_cell_angle_gamma   90.00000000
_symmetry_Int_Tables_number   1
_chemical_formula_structural   RbYThSe4
_chemical_formula_sum   'Rb1 Y1 Th1 Se4'
_cell_volume   261.02710342
_cell_formula_units_Z   1
loop_
 _symmetry_equiv_pos_site_id
 _symmetry_equiv_pos_as_xyz
  1  'x, y, z'
loop_
 _atom_site_type_symbol
 _atom_site_label
 _atom_site_symmetry_multiplicity
 _atom_site_fract_x
 _atom_site_fract_y
 _atom_site_fract_z
 _atom_site_occupancy
  Rb  Rb0  1  0.000000  0.500000  0.500000  1
  Y  Y1  1  0.500000  0.500000  0.000000  1
  Th  Th2  1  0.000000  0.000000  0.000000  1
  Se  Se3  1  0.500000  0.769637  0.192007  1
  Se  Se4  1  0.000000  0.275118  0.184297  1
  Se  Se5  1  0.500000  0.230363  0.807993  1
  Se  Se6  1  0.000000  0.724882  0.815703  1
