# generated using pymatgen
data_Ho2Lu(Ni3P2)3
_symmetry_space_group_name_H-M   'P 1'
_cell_length_a   3.75621105
_cell_length_b   10.43097554
_cell_length_c   12.27551578
_cell_angle_alpha   90.03676302
_cell_angle_beta   89.98231919
_cell_angle_gamma   89.99787378
_symmetry_Int_Tables_number   1
_chemical_formula_structural   Ho2Lu(Ni3P2)3
_chemical_formula_sum   'Ho4 Lu2 Ni18 P12'
_cell_volume   480.96619283
_cell_formula_units_Z   2
loop_
 _symmetry_equiv_pos_site_id
 _symmetry_equiv_pos_as_xyz
  1  'x, y, z'
loop_
 _atom_site_type_symbol
 _atom_site_label
 _atom_site_symmetry_multiplicity
 _atom_site_fract_x
 _atom_site_fract_y
 _atom_site_fract_z
 _atom_site_occupancy
  Ho  Ho0  1  0.751673  0.000008  0.478924  1
  Ho  Ho1  1  0.251774  0.500036  0.522022  1
  Ho  Ho2  1  0.751677  0.816452  0.205688  1
  Ho  Ho3  1  0.751658  0.183456  0.205711  1
  Lu  Lu4  1  0.251601  0.682232  0.793862  1
  Lu  Lu5  1  0.251527  0.317918  0.793868  1
  Ni  Ni6  1  0.753214  0.000207  0.014544  1
  Ni  Ni7  1  0.252657  0.499851  0.982454  1
  Ni  Ni8  1  0.252959  0.199334  0.571351  1
  Ni  Ni9  1  0.253236  0.800957  0.571663  1
  Ni  Ni10  1  0.754180  0.301009  0.430432  1
  Ni  Ni11  1  0.753980  0.699188  0.430497  1
  Ni  Ni12  1  0.250820  0.620755  0.290103  1
  Ni  Ni13  1  0.249975  0.379313  0.289763  1
  Ni  Ni14  1  0.750345  0.878248  0.711170  1
  Ni  Ni15  1  0.750567  0.121982  0.711725  1
  Ni  Ni16  1  0.252464  0.167871  0.003369  1
  Ni  Ni17  1  0.250968  0.832589  0.003576  1
  Ni  Ni18  1  0.750510  0.332710  0.994731  1
  Ni  Ni19  1  0.751819  0.666762  0.994645  1
  Ni  Ni20  1  0.254186  0.999145  0.841687  1
  Ni  Ni21  1  0.750724  0.499401  0.157608  1
  Ni  Ni22  1  0.250520  0.999838  0.299846  1
  Ni  Ni23  1  0.749772  0.500394  0.700251  1
  P  P24  1  0.252198  0.186347  0.385727  1
  P  P25  1  0.252203  0.813500  0.385915  1
  P  P26  1  0.751966  0.313807  0.615894  1
  P  P27  1  0.752060  0.686592  0.615738  1
  P  P28  1  0.252098  0.000036  0.122965  1
  P  P29  1  0.752074  0.499931  0.875170  1
  P  P30  1  0.251937  0.651556  0.107793  1
  P  P31  1  0.251547  0.348427  0.107930  1
  P  P32  1  0.751600  0.846207  0.891344  1
  P  P33  1  0.751998  0.153831  0.891307  1
  P  P34  1  0.251470  0.000062  0.655922  1
  P  P35  1  0.751651  0.500046  0.344807  1
