# generated using pymatgen
data_Sm7YCu4(As3O)4
_symmetry_space_group_name_H-M   'P 1'
_cell_length_a   34.70473862
_cell_length_b   3.97280100
_cell_length_c   3.97860800
_cell_angle_alpha   90.00000000
_cell_angle_beta   89.98701714
_cell_angle_gamma   90.00000000
_symmetry_Int_Tables_number   1
_chemical_formula_structural   Sm7YCu4(As3O)4
_chemical_formula_sum   'Sm7 Y1 Cu4 As12 O4'
_cell_volume   548.55064500
_cell_formula_units_Z   1
loop_
 _symmetry_equiv_pos_site_id
 _symmetry_equiv_pos_as_xyz
  1  'x, y, z'
loop_
 _atom_site_type_symbol
 _atom_site_label
 _atom_site_symmetry_multiplicity
 _atom_site_fract_x
 _atom_site_fract_y
 _atom_site_fract_z
 _atom_site_occupancy
  Sm  Sm0  1  0.033389  0.250002  0.750784  1
  Sm  Sm1  1  0.966632  0.750002  0.249256  1
  Sm  Sm2  1  0.532088  0.250002  0.748554  1
  Sm  Sm3  1  0.325952  0.250002  0.806900  1
  Sm  Sm4  1  0.175344  0.750002  0.307187  1
  Sm  Sm5  1  0.824781  0.250002  0.692830  1
  Sm  Sm6  1  0.674657  0.750002  0.192920  1
  Y  Y7  1  0.467166  0.750002  0.250132  1
  Cu  Cu8  1  0.250327  0.250002  0.309096  1
  Cu  Cu9  1  0.250452  0.750002  0.809855  1
  Cu  Cu10  1  0.749791  0.250002  0.190459  1
  Cu  Cu11  1  0.749918  0.750002  0.690521  1
  As  As12  1  0.394889  0.250002  0.317993  1
  As  As13  1  0.106780  0.750002  0.818289  1
  As  As14  1  0.893280  0.250002  0.181912  1
  As  As15  1  0.605937  0.750002  0.681893  1
  As  As16  1  0.395413  0.750002  0.764075  1
  As  As17  1  0.106206  0.250002  0.260724  1
  As  As18  1  0.893847  0.750002  0.739069  1
  As  As19  1  0.605290  0.250002  0.239046  1
  As  As20  1  0.206008  0.250002  0.808552  1
  As  As21  1  0.294965  0.750002  0.308696  1
  As  As22  1  0.705421  0.250002  0.691316  1
  As  As23  1  0.794232  0.750002  0.191318  1
  O  O24  1  0.498547  0.750002  0.750520  1
  O  O25  1  0.000102  0.250002  0.251258  1
  O  O26  1  0.999927  0.750002  0.748770  1
  O  O27  1  0.498660  0.250002  0.248076  1
