# generated using pymatgen
data_Zr2B2Os5W
_symmetry_space_group_name_H-M   'P 1'
_cell_length_a   9.56724100
_cell_length_b   9.56724100
_cell_length_c   3.09393900
_cell_angle_alpha   90.00000000
_cell_angle_beta   90.00000000
_cell_angle_gamma   90.00000000
_symmetry_Int_Tables_number   1
_chemical_formula_structural   Zr2B2Os5W
_chemical_formula_sum   'Zr4 B4 Os10 W2'
_cell_volume   283.19473503
_cell_formula_units_Z   2
loop_
 _symmetry_equiv_pos_site_id
 _symmetry_equiv_pos_as_xyz
  1  'x, y, z'
loop_
 _atom_site_type_symbol
 _atom_site_label
 _atom_site_symmetry_multiplicity
 _atom_site_fract_x
 _atom_site_fract_y
 _atom_site_fract_z
 _atom_site_occupancy
  Zr  Zr0  1  0.677614  0.177614  0.000000  1
  Zr  Zr1  1  0.322386  0.822386  0.000000  1
  Zr  Zr2  1  0.177614  0.322386  0.000000  1
  Zr  Zr3  1  0.822386  0.677614  0.000000  1
  B  B4  1  0.120379  0.620379  0.000000  1
  B  B5  1  0.879621  0.379621  0.000000  1
  B  B6  1  0.620379  0.879621  0.000000  1
  B  B7  1  0.379621  0.120379  0.000000  1
  Os  Os8  1  0.217182  0.070185  0.500000  1
  Os  Os9  1  0.782818  0.929815  0.500000  1
  Os  Os10  1  0.070185  0.782818  0.500000  1
  Os  Os11  1  0.717182  0.429815  0.500000  1
  Os  Os12  1  0.929815  0.217182  0.500000  1
  Os  Os13  1  0.282818  0.570185  0.500000  1
  Os  Os14  1  0.570185  0.717182  0.500000  1
  Os  Os15  1  0.429815  0.282818  0.500000  1
  Os  Os16  1  0.500000  0.000000  0.500000  1
  Os  Os17  1  0.000000  0.500000  0.500000  1
  W  W18  1  0.000000  0.000000  0.000000  1
  W  W19  1  0.500000  0.500000  0.000000  1
