# generated using pymatgen
data_Hf4Cu3Si4Ru
_symmetry_space_group_name_H-M   'P 1'
_cell_length_a   3.85548400
_cell_length_b   6.52251019
_cell_length_c   7.39256369
_cell_angle_alpha   89.35303324
_cell_angle_beta   90.00000000
_cell_angle_gamma   90.00000000
_symmetry_Int_Tables_number   1
_chemical_formula_structural   Hf4Cu3Si4Ru
_chemical_formula_sum   'Hf4 Cu3 Si4 Ru1'
_cell_volume   185.89215362
_cell_formula_units_Z   1
loop_
 _symmetry_equiv_pos_site_id
 _symmetry_equiv_pos_as_xyz
  1  'x, y, z'
loop_
 _atom_site_type_symbol
 _atom_site_label
 _atom_site_symmetry_multiplicity
 _atom_site_fract_x
 _atom_site_fract_y
 _atom_site_fract_z
 _atom_site_occupancy
  Hf  Hf0  1  0.250000  0.522158  0.682029  1
  Hf  Hf1  1  0.750000  0.475698  0.319393  1
  Hf  Hf2  1  0.250000  0.012518  0.816155  1
  Hf  Hf3  1  0.750000  0.981059  0.185047  1
  Cu  Cu4  1  0.250000  0.151148  0.435935  1
  Cu  Cu5  1  0.750000  0.347130  0.934251  1
  Cu  Cu6  1  0.250000  0.655573  0.067487  1
  Si  Si7  1  0.250000  0.271338  0.115557  1
  Si  Si8  1  0.750000  0.727241  0.881434  1
  Si  Si9  1  0.250000  0.762990  0.384194  1
  Si  Si10  1  0.750000  0.230409  0.621200  1
  Ru  Ru11  1  0.750000  0.862738  0.557318  1
