# generated using pymatgen
data_Lu5ReRuO12
_symmetry_space_group_name_H-M   'P 1'
_cell_length_a   6.71203258
_cell_length_b   6.71203360
_cell_length_c   7.35104226
_cell_angle_alpha   73.82691144
_cell_angle_beta   73.82689706
_cell_angle_gamma   49.26207645
_symmetry_Int_Tables_number   1
_chemical_formula_structural   Lu5ReRuO12
_chemical_formula_sum   'Lu5 Re1 Ru1 O12'
_cell_volume   238.86105687
_cell_formula_units_Z   1
loop_
 _symmetry_equiv_pos_site_id
 _symmetry_equiv_pos_as_xyz
  1  'x, y, z'
loop_
 _atom_site_type_symbol
 _atom_site_label
 _atom_site_symmetry_multiplicity
 _atom_site_fract_x
 _atom_site_fract_y
 _atom_site_fract_z
 _atom_site_occupancy
  Lu  Lu0  1  0.712398  0.685457  0.640620  1
  Lu  Lu1  1  0.314543  0.287602  0.359380  1
  Lu  Lu2  1  0.689694  0.681578  0.176231  1
  Lu  Lu3  1  0.318422  0.310306  0.823769  1
  Lu  Lu4  1  0.007745  0.992255  0.500000  1
  Re  Re5  1  0.204366  0.795634  0.000000  1
  Ru  Ru6  1  0.769792  0.230208  0.000000  1
  O  O7  1  0.005582  0.999513  0.206278  1
  O  O8  1  0.000487  0.994418  0.793722  1
  O  O9  1  0.561451  0.086385  0.088293  1
  O  O10  1  0.412073  0.910699  0.912403  1
  O  O11  1  0.913615  0.438549  0.911707  1
  O  O12  1  0.089301  0.587927  0.087597  1
  O  O13  1  0.487961  0.510884  0.182473  1
  O  O14  1  0.489116  0.512039  0.817527  1
  O  O15  1  0.407720  0.892621  0.432866  1
  O  O16  1  0.599176  0.090821  0.575375  1
  O  O17  1  0.107379  0.592280  0.567134  1
  O  O18  1  0.909179  0.400824  0.424625  1
