# generated using pymatgen
data_Er3Lu5Ti8(NbSi4)4
_symmetry_space_group_name_H-M   'P 1'
_cell_length_a   7.00800463
_cell_length_b   7.00903233
_cell_length_c   12.89229300
_cell_angle_alpha   89.99325251
_cell_angle_beta   90.02245515
_cell_angle_gamma   89.96045334
_symmetry_Int_Tables_number   1
_chemical_formula_structural   Er3Lu5Ti8(NbSi4)4
_chemical_formula_sum   'Er3 Lu5 Ti8 Nb4 Si16'
_cell_volume   633.26060367
_cell_formula_units_Z   1
loop_
 _symmetry_equiv_pos_site_id
 _symmetry_equiv_pos_as_xyz
  1  'x, y, z'
loop_
 _atom_site_type_symbol
 _atom_site_label
 _atom_site_symmetry_multiplicity
 _atom_site_fract_x
 _atom_site_fract_y
 _atom_site_fract_z
 _atom_site_occupancy
  Er  Er0  1  0.658749  0.997897  0.966822  1
  Er  Er1  1  0.002224  0.341036  0.533070  1
  Er  Er2  1  0.997868  0.658741  0.033222  1
  Lu  Lu3  1  0.341647  0.001157  0.466788  1
  Lu  Lu4  1  0.498805  0.841413  0.716831  1
  Lu  Lu5  1  0.501056  0.158673  0.217149  1
  Lu  Lu6  1  0.841273  0.498749  0.283175  1
  Lu  Lu7  1  0.158797  0.501124  0.782884  1
  Ti  Ti8  1  0.152115  0.007548  0.874868  1
  Ti  Ti9  1  0.491919  0.651186  0.125325  1
  Ti  Ti10  1  0.507621  0.348895  0.624902  1
  Ti  Ti11  1  0.651058  0.491947  0.874777  1
  Ti  Ti12  1  0.348984  0.508100  0.374969  1
  Ti  Ti13  1  0.848394  0.992634  0.375124  1
  Ti  Ti14  1  0.007639  0.152017  0.125165  1
  Ti  Ti15  1  0.992492  0.848367  0.624768  1
  Nb  Nb16  1  0.326768  0.326770  0.999976  1
  Nb  Nb17  1  0.173296  0.826931  0.250223  1
  Nb  Nb18  1  0.826763  0.173111  0.749797  1
  Nb  Nb19  1  0.673015  0.673434  0.499945  1
  Si  Si20  1  0.204686  0.131272  0.683399  1
  Si  Si21  1  0.368146  0.703510  0.932687  1
  Si  Si22  1  0.631212  0.295671  0.432621  1
  Si  Si23  1  0.703492  0.368107  0.067338  1
  Si  Si24  1  0.296680  0.632944  0.567091  1
  Si  Si25  1  0.795467  0.868815  0.183883  1
  Si  Si26  1  0.132150  0.203815  0.316931  1
  Si  Si27  1  0.868729  0.795556  0.816168  1
  Si  Si28  1  0.293061  0.953204  0.064334  1
  Si  Si29  1  0.546959  0.793642  0.314067  1
  Si  Si30  1  0.452574  0.206933  0.813597  1
  Si  Si31  1  0.793045  0.547398  0.686250  1
  Si  Si32  1  0.206974  0.452320  0.186435  1
  Si  Si33  1  0.705819  0.046619  0.564044  1
  Si  Si34  1  0.953199  0.293048  0.935654  1
  Si  Si35  1  0.047326  0.707416  0.435717  1
