# generated using pymatgen
data_Zn3Bi8PbO24
_symmetry_space_group_name_H-M   'P 1'
_cell_length_a   4.96393604
_cell_length_b   9.92763895
_cell_length_c   10.01893600
_cell_angle_alpha   90.00001154
_cell_angle_beta   90.00000000
_cell_angle_gamma   90.03207117
_symmetry_Int_Tables_number   1
_chemical_formula_structural   Zn3Bi8PbO24
_chemical_formula_sum   'Zn3 Bi8 Pb1 O24'
_cell_volume   493.73473917
_cell_formula_units_Z   1
loop_
 _symmetry_equiv_pos_site_id
 _symmetry_equiv_pos_as_xyz
  1  'x, y, z'
loop_
 _atom_site_type_symbol
 _atom_site_label
 _atom_site_symmetry_multiplicity
 _atom_site_fract_x
 _atom_site_fract_y
 _atom_site_fract_z
 _atom_site_occupancy
  Zn  Zn0  1  0.003785  0.500104  0.000000  1
  Zn  Zn1  1  0.500082  0.749967  0.500000  1
  Zn  Zn2  1  0.996314  0.999844  0.999999  1
  Bi  Bi3  1  0.998054  0.991106  0.328978  1
  Bi  Bi4  1  0.001795  0.508841  0.328974  1
  Bi  Bi5  1  0.998054  0.991106  0.671022  1
  Bi  Bi6  1  0.001795  0.508841  0.671026  1
  Bi  Bi7  1  0.499981  0.250013  0.161587  1
  Bi  Bi8  1  0.499991  0.749944  0.164589  1
  Bi  Bi9  1  0.499981  0.250013  0.838413  1
  Bi  Bi10  1  0.499991  0.749943  0.835411  1
  Pb  Pb11  1  0.499581  0.249957  0.500000  1
  O  O12  1  0.185967  0.403072  0.500000  1
  O  O13  1  0.201097  0.902930  0.500000  1
  O  O14  1  0.298138  0.149434  0.000000  1
  O  O15  1  0.300574  0.649917  0.000000  1
  O  O16  1  0.702103  0.350703  0.000000  1
  O  O17  1  0.699280  0.849999  0.000000  1
  O  O18  1  0.814125  0.097077  0.500000  1
  O  O19  1  0.799065  0.597137  0.500000  1
  O  O20  1  0.191553  0.404076  0.165285  1
  O  O21  1  0.193869  0.903319  0.161089  1
  O  O22  1  0.191553  0.404076  0.834715  1
  O  O23  1  0.193869  0.903319  0.838911  1
  O  O24  1  0.303014  0.151274  0.330423  1
  O  O25  1  0.313261  0.656539  0.336191  1
  O  O26  1  0.303014  0.151274  0.669577  1
  O  O27  1  0.313261  0.656539  0.663810  1
  O  O28  1  0.696756  0.348734  0.330568  1
  O  O29  1  0.686739  0.843418  0.336144  1
  O  O30  1  0.696756  0.348734  0.669432  1
  O  O31  1  0.686740  0.843418  0.663856  1
  O  O32  1  0.808777  0.096015  0.165306  1
  O  O33  1  0.806153  0.596650  0.161061  1
  O  O34  1  0.808777  0.096014  0.834694  1
  O  O35  1  0.806154  0.596651  0.838939  1
