# generated using pymatgen
data_NaDy(Si7Rh3)2
_symmetry_space_group_name_H-M   'P 1'
_cell_length_a   7.97636650
_cell_length_b   7.97636715
_cell_length_c   7.97636735
_cell_angle_alpha   57.11556220
_cell_angle_beta   57.11555836
_cell_angle_gamma   57.11555787
_symmetry_Int_Tables_number   1
_chemical_formula_structural   NaDy(Si7Rh3)2
_chemical_formula_sum   'Na1 Dy1 Si14 Rh6'
_cell_volume   334.98741857
_cell_formula_units_Z   1
loop_
 _symmetry_equiv_pos_site_id
 _symmetry_equiv_pos_as_xyz
  1  'x, y, z'
loop_
 _atom_site_type_symbol
 _atom_site_label
 _atom_site_symmetry_multiplicity
 _atom_site_fract_x
 _atom_site_fract_y
 _atom_site_fract_z
 _atom_site_occupancy
  Na  Na0  1  0.500000  0.500000  0.500000  1
  Dy  Dy1  1  0.000000  0.000000  0.000000  1
  Si  Si2  1  0.750436  0.750436  0.750436  1
  Si  Si3  1  0.249564  0.249564  0.249564  1
  Si  Si4  1  0.849586  0.068130  0.670767  1
  Si  Si5  1  0.670767  0.849586  0.068130  1
  Si  Si6  1  0.068130  0.670767  0.849586  1
  Si  Si7  1  0.647998  0.825572  0.434518  1
  Si  Si8  1  0.434518  0.647998  0.825572  1
  Si  Si9  1  0.825572  0.434518  0.647998  1
  Si  Si10  1  0.174428  0.565482  0.352002  1
  Si  Si11  1  0.565482  0.352002  0.174428  1
  Si  Si12  1  0.352002  0.174428  0.565482  1
  Si  Si13  1  0.931870  0.329233  0.150414  1
  Si  Si14  1  0.329233  0.150414  0.931870  1
  Si  Si15  1  0.150414  0.931870  0.329233  1
  Rh  Rh16  1  0.068006  0.427165  0.752417  1
  Rh  Rh17  1  0.247583  0.931994  0.572835  1
  Rh  Rh18  1  0.572835  0.247583  0.931994  1
  Rh  Rh19  1  0.931994  0.572835  0.247583  1
  Rh  Rh20  1  0.427165  0.752417  0.068006  1
  Rh  Rh21  1  0.752417  0.068006  0.427165  1
