# generated using pymatgen
data_Sr2La(B3Ir4)2
_symmetry_space_group_name_H-M   'P 1'
_cell_length_a   10.02649455
_cell_length_b   9.12481334
_cell_length_c   5.75385519
_cell_angle_alpha   81.32472808
_cell_angle_beta   64.11314827
_cell_angle_gamma   34.56213683
_symmetry_Int_Tables_number   1
_chemical_formula_structural   Sr2La(B3Ir4)2
_chemical_formula_sum   'Sr2 La1 B6 Ir8'
_cell_volume   245.18083925
_cell_formula_units_Z   1
loop_
 _symmetry_equiv_pos_site_id
 _symmetry_equiv_pos_as_xyz
  1  'x, y, z'
loop_
 _atom_site_type_symbol
 _atom_site_label
 _atom_site_symmetry_multiplicity
 _atom_site_fract_x
 _atom_site_fract_y
 _atom_site_fract_z
 _atom_site_occupancy
  Sr  Sr0  1  0.317052  0.317052  0.682948  1
  Sr  Sr1  1  0.682948  0.682948  0.317052  1
  La  La2  1  0.500000  0.500000  0.500000  1
  B  B3  1  0.667720  0.989786  0.010214  1
  B  B4  1  0.989786  0.667720  0.332280  1
  B  B5  1  0.332280  0.010214  0.989786  1
  B  B6  1  0.010214  0.332280  0.667720  1
  B  B7  1  0.167032  0.832968  0.167032  1
  B  B8  1  0.832968  0.167032  0.832968  1
  Ir  Ir9  1  0.584714  0.584714  0.915286  1
  Ir  Ir10  1  0.913037  0.913037  0.086963  1
  Ir  Ir11  1  0.415286  0.415286  0.084714  1
  Ir  Ir12  1  0.084714  0.084714  0.415286  1
  Ir  Ir13  1  0.915286  0.915286  0.584714  1
  Ir  Ir14  1  0.250000  0.250000  0.250000  1
  Ir  Ir15  1  0.086963  0.086963  0.913037  1
  Ir  Ir16  1  0.750000  0.750000  0.750000  1
