# generated using pymatgen
data_Er16MgIn3Co4
_symmetry_space_group_name_H-M   'P 1'
_cell_length_a   9.47576878
_cell_length_b   9.44365007
_cell_length_c   9.44364900
_cell_angle_alpha   60.00000025
_cell_angle_beta   60.11206286
_cell_angle_gamma   60.11206645
_symmetry_Int_Tables_number   1
_chemical_formula_structural   Er16MgIn3Co4
_chemical_formula_sum   'Er16 Mg1 In3 Co4'
_cell_volume   598.56695963
_cell_formula_units_Z   1
loop_
 _symmetry_equiv_pos_site_id
 _symmetry_equiv_pos_as_xyz
  1  'x, y, z'
loop_
 _atom_site_type_symbol
 _atom_site_label
 _atom_site_symmetry_multiplicity
 _atom_site_fract_x
 _atom_site_fract_y
 _atom_site_fract_z
 _atom_site_occupancy
  Er  Er0  1  0.597414  0.595416  0.595416  1
  Er  Er1  1  0.597414  0.595416  0.211753  1
  Er  Er2  1  0.597414  0.211753  0.595416  1
  Er  Er3  1  0.209230  0.596923  0.596923  1
  Er  Er4  1  0.060417  0.439006  0.439006  1
  Er  Er5  1  0.435324  0.063708  0.063708  1
  Er  Er6  1  0.435324  0.063708  0.437260  1
  Er  Er7  1  0.060417  0.439006  0.061570  1
  Er  Er8  1  0.435324  0.437260  0.063708  1
  Er  Er9  1  0.060417  0.061570  0.439006  1
  Er  Er10  1  0.188423  0.811414  0.811414  1
  Er  Er11  1  0.812204  0.188908  0.188908  1
  Er  Er12  1  0.812204  0.188908  0.809981  1
  Er  Er13  1  0.188423  0.811414  0.188749  1
  Er  Er14  1  0.812204  0.809981  0.188908  1
  Er  Er15  1  0.188423  0.188749  0.811414  1
  Mg  Mg16  1  0.516853  0.827716  0.827716  1
  In  In17  1  0.831547  0.832695  0.832695  1
  In  In18  1  0.831547  0.832695  0.503062  1
  In  In19  1  0.831547  0.503062  0.832695  1
  Co  Co20  1  0.389509  0.391245  0.391245  1
  Co  Co21  1  0.389509  0.391245  0.828002  1
  Co  Co22  1  0.389509  0.828002  0.391245  1
  Co  Co23  1  0.829402  0.390200  0.390200  1
