# generated using pymatgen
data_Dy16Cd4IrOs2Pt
_symmetry_space_group_name_H-M   'P 1'
_cell_length_a   9.64571206
_cell_length_b   9.64354650
_cell_length_c   9.69562800
_cell_angle_alpha   59.82118627
_cell_angle_beta   59.82866633
_cell_angle_gamma   59.76132231
_symmetry_Int_Tables_number   1
_chemical_formula_structural   Dy16Cd4IrOs2Pt
_chemical_formula_sum   'Dy16 Cd4 Ir1 Os2 Pt1'
_cell_volume   634.88099943
_cell_formula_units_Z   1
loop_
 _symmetry_equiv_pos_site_id
 _symmetry_equiv_pos_as_xyz
  1  'x, y, z'
loop_
 _atom_site_type_symbol
 _atom_site_label
 _atom_site_symmetry_multiplicity
 _atom_site_fract_x
 _atom_site_fract_y
 _atom_site_fract_z
 _atom_site_occupancy
  Dy  Dy0  1  0.600747  0.597177  0.599662  1
  Dy  Dy1  1  0.600747  0.597177  0.202414  1
  Dy  Dy2  1  0.597160  0.208511  0.597164  1
  Dy  Dy3  1  0.206006  0.595826  0.599084  1
  Dy  Dy4  1  0.061257  0.437807  0.440698  1
  Dy  Dy5  1  0.438578  0.063339  0.056639  1
  Dy  Dy6  1  0.438578  0.063339  0.441444  1
  Dy  Dy7  1  0.061257  0.437807  0.060239  1
  Dy  Dy8  1  0.438491  0.438793  0.061358  1
  Dy  Dy9  1  0.055775  0.061771  0.441227  1
  Dy  Dy10  1  0.188344  0.806758  0.816281  1
  Dy  Dy11  1  0.807791  0.188732  0.189767  1
  Dy  Dy12  1  0.807791  0.188732  0.813711  1
  Dy  Dy13  1  0.188344  0.806758  0.188618  1
  Dy  Dy14  1  0.814943  0.810828  0.187115  1
  Dy  Dy15  1  0.190023  0.189685  0.810146  1
  Cd  Cd16  1  0.830277  0.830224  0.830936  1
  Cd  Cd17  1  0.830277  0.830224  0.508564  1
  Cd  Cd18  1  0.830856  0.506338  0.831403  1
  Cd  Cd19  1  0.506619  0.830631  0.831375  1
  Ir  Ir20  1  0.826928  0.395071  0.389000  1
  Os  Os21  1  0.392605  0.394117  0.386433  1
  Os  Os22  1  0.392605  0.394117  0.826843  1
  Pt  Pt23  1  0.394005  0.826238  0.389878  1
