# generated using pymatgen
data_Tb3ThZnIr
_symmetry_space_group_name_H-M   'P 1'
_cell_length_a   9.65184255
_cell_length_b   9.65184317
_cell_length_c   9.65184300
_cell_angle_alpha   60.00000402
_cell_angle_beta   60.00000188
_cell_angle_gamma   59.99999745
_symmetry_Int_Tables_number   1
_chemical_formula_structural   Tb3ThZnIr
_chemical_formula_sum   'Tb12 Th4 Zn4 Ir4'
_cell_volume   635.79300783
_cell_formula_units_Z   4
loop_
 _symmetry_equiv_pos_site_id
 _symmetry_equiv_pos_as_xyz
  1  'x, y, z'
loop_
 _atom_site_type_symbol
 _atom_site_label
 _atom_site_symmetry_multiplicity
 _atom_site_fract_x
 _atom_site_fract_y
 _atom_site_fract_z
 _atom_site_occupancy
  Tb  Tb0  1  0.060374  0.439626  0.439626  1
  Tb  Tb1  1  0.439626  0.060374  0.060374  1
  Tb  Tb2  1  0.439626  0.060374  0.439626  1
  Tb  Tb3  1  0.060374  0.439626  0.060374  1
  Tb  Tb4  1  0.439626  0.439626  0.060374  1
  Tb  Tb5  1  0.060374  0.060374  0.439626  1
  Tb  Tb6  1  0.185276  0.814724  0.814724  1
  Tb  Tb7  1  0.814724  0.185276  0.185276  1
  Tb  Tb8  1  0.814724  0.185276  0.814724  1
  Tb  Tb9  1  0.185276  0.814724  0.185276  1
  Tb  Tb10  1  0.814724  0.814724  0.185276  1
  Tb  Tb11  1  0.185276  0.185276  0.814724  1
  Th  Th12  1  0.603097  0.603097  0.603097  1
  Th  Th13  1  0.603097  0.603097  0.190708  1
  Th  Th14  1  0.603097  0.190708  0.603097  1
  Th  Th15  1  0.190708  0.603097  0.603097  1
  Zn  Zn16  1  0.831766  0.831766  0.831766  1
  Zn  Zn17  1  0.831766  0.831766  0.504703  1
  Zn  Zn18  1  0.831766  0.504703  0.831766  1
  Zn  Zn19  1  0.504703  0.831766  0.831766  1
  Ir  Ir20  1  0.394067  0.394067  0.394067  1
  Ir  Ir21  1  0.394067  0.394067  0.817801  1
  Ir  Ir22  1  0.394067  0.817801  0.394067  1
  Ir  Ir23  1  0.817801  0.394067  0.394067  1
