# generated using pymatgen
data_Rb8BaSr3(TiAs4)2
_symmetry_space_group_name_H-M   'P 1'
_cell_length_a   10.65328033
_cell_length_b   10.60543652
_cell_length_c   7.95595888
_cell_angle_alpha   87.74308881
_cell_angle_beta   88.37180138
_cell_angle_gamma   118.79855935
_symmetry_Int_Tables_number   1
_chemical_formula_structural   Rb8BaSr3(TiAs4)2
_chemical_formula_sum   'Rb8 Ba1 Sr3 Ti2 As8'
_cell_volume   785.94604307
_cell_formula_units_Z   1
loop_
 _symmetry_equiv_pos_site_id
 _symmetry_equiv_pos_as_xyz
  1  'x, y, z'
loop_
 _atom_site_type_symbol
 _atom_site_label
 _atom_site_symmetry_multiplicity
 _atom_site_fract_x
 _atom_site_fract_y
 _atom_site_fract_z
 _atom_site_occupancy
  Rb  Rb0  1  0.476970  0.944886  0.386095  1
  Rb  Rb1  1  0.942402  0.474911  0.888034  1
  Rb  Rb2  1  0.865831  0.723112  0.166762  1
  Rb  Rb3  1  0.267314  0.127010  0.233200  1
  Rb  Rb4  1  0.855222  0.139413  0.195217  1
  Rb  Rb5  1  0.126767  0.264889  0.734714  1
  Rb  Rb6  1  0.722288  0.865415  0.670108  1
  Rb  Rb7  1  0.139935  0.857454  0.692486  1
  Ba  Ba8  1  0.068230  0.532383  0.394198  1
  Sr  Sr9  1  0.477362  0.528692  0.376781  1
  Sr  Sr10  1  0.530231  0.069251  0.891107  1
  Sr  Sr11  1  0.526907  0.474196  0.876994  1
  Ti  Ti12  1  0.660688  0.334682  0.493544  1
  Ti  Ti13  1  0.340035  0.665788  0.988778  1
  As  As14  1  0.640654  0.331185  0.174145  1
  As  As15  1  0.336562  0.640957  0.673549  1
  As  As16  1  0.221910  0.414273  0.126426  1
  As  As17  1  0.593585  0.789460  0.076178  1
  As  As18  1  0.218272  0.802388  0.088086  1
  As  As19  1  0.783335  0.591776  0.575956  1
  As  As20  1  0.411885  0.216914  0.631774  1
  As  As21  1  0.793425  0.210773  0.601209  1
