# generated using pymatgen
data_CuAgBi2(Pt2O7)2
_symmetry_space_group_name_H-M   'P 1'
_cell_length_a   7.27078658
_cell_length_b   7.14976885
_cell_length_c   7.27078566
_cell_angle_alpha   60.27258910
_cell_angle_beta   61.45246346
_cell_angle_gamma   60.27258858
_symmetry_Int_Tables_number   1
_chemical_formula_structural   CuAgBi2(Pt2O7)2
_chemical_formula_sum   'Cu1 Ag1 Bi2 Pt4 O14'
_cell_volume   271.20540733
_cell_formula_units_Z   1
loop_
 _symmetry_equiv_pos_site_id
 _symmetry_equiv_pos_as_xyz
  1  'x, y, z'
loop_
 _atom_site_type_symbol
 _atom_site_label
 _atom_site_symmetry_multiplicity
 _atom_site_fract_x
 _atom_site_fract_y
 _atom_site_fract_z
 _atom_site_occupancy
  Cu  Cu0  1  0.125000  0.625000  0.125000  1
  Ag  Ag1  1  0.125000  0.125000  0.125000  1
  Bi  Bi2  1  0.125000  0.125000  0.625000  1
  Bi  Bi3  1  0.625000  0.125000  0.125000  1
  Pt  Pt4  1  0.625000  0.625000  0.125000  1
  Pt  Pt5  1  0.625000  0.125000  0.625000  1
  Pt  Pt6  1  0.125000  0.625000  0.625000  1
  Pt  Pt7  1  0.625000  0.625000  0.625000  1
  O  O8  1  0.235188  0.292577  0.235188  1
  O  O9  1  0.014812  0.957423  0.014812  1
  O  O10  1  0.537147  0.962756  0.537147  1
  O  O11  1  0.293167  0.700639  0.293167  1
  O  O12  1  0.542391  0.541393  0.956107  1
  O  O13  1  0.956107  0.541393  0.542391  1
  O  O14  1  0.543280  0.961403  0.957561  1
  O  O15  1  0.957561  0.961403  0.543280  1
  O  O16  1  0.956833  0.549361  0.956833  1
  O  O17  1  0.706720  0.288597  0.292439  1
  O  O18  1  0.293893  0.708607  0.707609  1
  O  O19  1  0.712853  0.287244  0.712853  1
  O  O20  1  0.292439  0.288597  0.706720  1
  O  O21  1  0.707609  0.708607  0.293893  1
