# generated using pymatgen
data_Nd4AlSn7Pt4
_symmetry_space_group_name_H-M   'P 1'
_cell_length_a   10.25683166
_cell_length_b   10.28527629
_cell_length_c   10.28527622
_cell_angle_alpha   154.10767122
_cell_angle_beta   124.71894391
_cell_angle_gamma   62.03779004
_symmetry_Int_Tables_number   1
_chemical_formula_structural   Nd4AlSn7Pt4
_chemical_formula_sum   'Nd4 Al1 Sn7 Pt4'
_cell_volume   386.58670119
_cell_formula_units_Z   1
loop_
 _symmetry_equiv_pos_site_id
 _symmetry_equiv_pos_as_xyz
  1  'x, y, z'
loop_
 _atom_site_type_symbol
 _atom_site_label
 _atom_site_symmetry_multiplicity
 _atom_site_fract_x
 _atom_site_fract_y
 _atom_site_fract_z
 _atom_site_occupancy
  Nd  Nd0  1  0.768512  0.999064  0.769448  1
  Nd  Nd1  1  0.225855  0.999018  0.226837  1
  Nd  Nd2  1  0.209017  0.205803  0.003215  1
  Nd  Nd3  1  0.798925  0.796772  0.002154  1
  Al  Al4  1  0.467750  0.800085  0.667664  1
  Sn  Sn5  1  0.418386  0.416621  0.001765  1
  Sn  Sn6  1  0.576060  0.579844  0.996216  1
  Sn  Sn7  1  0.914716  0.421278  0.493439  1
  Sn  Sn8  1  0.077752  0.578664  0.499087  1
  Sn  Sn9  1  0.858788  0.200300  0.658488  1
  Sn  Sn10  1  0.157140  0.802382  0.354757  1
  Sn  Sn11  1  0.542383  0.200770  0.341612  1
  Pt  Pt12  1  0.098557  0.353905  0.744654  1
  Pt  Pt13  1  0.897638  0.646932  0.250705  1
  Pt  Pt14  1  0.593130  0.347413  0.245717  1
  Pt  Pt15  1  0.395392  0.651150  0.744242  1
