# generated using pymatgen
data_Nb4V4Si3As
_symmetry_space_group_name_H-M   'P 1'
_cell_length_a   6.57056758
_cell_length_b   3.44474000
_cell_length_c   7.94646470
_cell_angle_alpha   90.00000000
_cell_angle_beta   90.04808497
_cell_angle_gamma   90.00000000
_symmetry_Int_Tables_number   1
_chemical_formula_structural   Nb4V4Si3As
_chemical_formula_sum   'Nb4 V4 Si3 As1'
_cell_volume   179.85939987
_cell_formula_units_Z   1
loop_
 _symmetry_equiv_pos_site_id
 _symmetry_equiv_pos_as_xyz
  1  'x, y, z'
loop_
 _atom_site_type_symbol
 _atom_site_label
 _atom_site_symmetry_multiplicity
 _atom_site_fract_x
 _atom_site_fract_y
 _atom_site_fract_z
 _atom_site_occupancy
  Nb  Nb0  1  0.551403  0.249999  0.169227  1
  Nb  Nb1  1  0.039778  0.249999  0.335169  1
  Nb  Nb2  1  0.956154  0.749999  0.669320  1
  Nb  Nb3  1  0.457961  0.749999  0.826987  1
  V  V4  1  0.867366  0.749999  0.059419  1
  V  V5  1  0.372056  0.749999  0.442604  1
  V  V6  1  0.628208  0.249999  0.559690  1
  V  V7  1  0.127671  0.249999  0.937586  1
  Si  Si8  1  0.746519  0.749999  0.363312  1
  Si  Si9  1  0.252545  0.249999  0.637926  1
  Si  Si10  1  0.753320  0.249999  0.860884  1
  As  As11  1  0.247018  0.749999  0.137877  1
