# generated using pymatgen
data_La5Ge8P4Ir19
_symmetry_space_group_name_H-M   'P 1'
_cell_length_a   13.17196758
_cell_length_b   13.15677097
_cell_length_c   4.06249800
_cell_angle_alpha   90.00000000
_cell_angle_beta   90.00000000
_cell_angle_gamma   120.18458851
_symmetry_Int_Tables_number   1
_chemical_formula_structural   La5Ge8P4Ir19
_chemical_formula_sum   'La5 Ge8 P4 Ir19'
_cell_volume   608.57337413
_cell_formula_units_Z   1
loop_
 _symmetry_equiv_pos_site_id
 _symmetry_equiv_pos_as_xyz
  1  'x, y, z'
loop_
 _atom_site_type_symbol
 _atom_site_label
 _atom_site_symmetry_multiplicity
 _atom_site_fract_x
 _atom_site_fract_y
 _atom_site_fract_z
 _atom_site_occupancy
  La  La0  1  0.668055  0.332789  0.000000  1
  La  La1  1  0.331154  0.664877  0.000000  1
  La  La2  1  0.816418  0.816592  0.500000  1
  La  La3  1  0.183307  0.001912  0.500000  1
  La  La4  1  0.000907  0.182116  0.500000  1
  Ge  Ge5  1  0.681777  0.160510  0.500000  1
  Ge  Ge6  1  0.838096  0.519988  0.500000  1
  Ge  Ge7  1  0.482450  0.318721  0.500000  1
  Ge  Ge8  1  0.163555  0.684276  0.500000  1
  Ge  Ge9  1  0.517359  0.831389  0.500000  1
  Ge  Ge10  1  0.634308  0.635151  0.000000  1
  Ge  Ge11  1  0.364947  0.999937  0.000000  1
  Ge  Ge12  1  0.000809  0.364612  0.000000  1
  P  P13  1  0.306459  0.479836  0.500000  1
  P  P14  1  0.183162  0.184039  0.000000  1
  P  P15  1  0.817484  0.997495  0.000000  1
  P  P16  1  0.000309  0.819993  0.000000  1
  Ir  Ir17  1  0.806886  0.173389  0.000000  1
  Ir  Ir18  1  0.825713  0.631498  0.000000  1
  Ir  Ir19  1  0.367940  0.194513  0.000000  1
  Ir  Ir20  1  0.174707  0.805791  0.000000  1
  Ir  Ir21  1  0.625761  0.821007  0.000000  1
  Ir  Ir22  1  0.208585  0.381947  0.000000  1
  Ir  Ir23  1  0.451642  0.443568  0.000000  1
  Ir  Ir24  1  0.553925  0.002037  0.000000  1
  Ir  Ir25  1  0.000690  0.552015  0.000000  1
  Ir  Ir26  1  0.279980  0.285993  0.500000  1
  Ir  Ir27  1  0.723993  0.997310  0.500000  1
  Ir  Ir28  1  0.000592  0.726857  0.500000  1
  Ir  Ir29  1  0.873314  0.354774  0.500000  1
  Ir  Ir30  1  0.645842  0.519997  0.500000  1
  Ir  Ir31  1  0.481375  0.127087  0.500000  1
  Ir  Ir32  1  0.357902  0.875103  0.500000  1
  Ir  Ir33  1  0.501572  0.628508  0.500000  1
  Ir  Ir34  1  0.127297  0.481880  0.500000  1
  Ir  Ir35  1  0.001725  0.002495  0.000000  1
