# generated using pymatgen
data_Er2Tm2Ga7Ag5
_symmetry_space_group_name_H-M   'P 1'
_cell_length_a   4.33099200
_cell_length_b   6.99114199
_cell_length_c   10.29187200
_cell_angle_alpha   89.95754884
_cell_angle_beta   90.00000000
_cell_angle_gamma   90.00000000
_symmetry_Int_Tables_number   1
_chemical_formula_structural   Er2Tm2Ga7Ag5
_chemical_formula_sum   'Er2 Tm2 Ga7 Ag5'
_cell_volume   311.62318464
_cell_formula_units_Z   1
loop_
 _symmetry_equiv_pos_site_id
 _symmetry_equiv_pos_as_xyz
  1  'x, y, z'
loop_
 _atom_site_type_symbol
 _atom_site_label
 _atom_site_symmetry_multiplicity
 _atom_site_fract_x
 _atom_site_fract_y
 _atom_site_fract_z
 _atom_site_occupancy
  Er  Er0  1  0.500000  0.781195  0.173245  1
  Er  Er1  1  0.000000  0.216692  0.829022  1
  Tm  Tm2  1  0.500000  0.276885  0.327553  1
  Tm  Tm3  1  0.000000  0.723465  0.670520  1
  Ga  Ga4  1  0.500000  0.924243  0.845688  1
  Ga  Ga5  1  0.500000  0.427228  0.655999  1
  Ga  Ga6  1  0.000000  0.076594  0.153944  1
  Ga  Ga7  1  0.000000  0.573390  0.343844  1
  Ga  Ga8  1  0.500000  0.202239  0.035828  1
  Ga  Ga9  1  0.000000  0.299813  0.535113  1
  Ga  Ga10  1  0.000000  0.795784  0.963997  1
  Ag  Ag11  1  0.500000  0.541588  0.903819  1
  Ag  Ag12  1  0.500000  0.046994  0.600430  1
  Ag  Ag13  1  0.000000  0.456950  0.096786  1
  Ag  Ag14  1  0.000000  0.961057  0.401448  1
  Ag  Ag15  1  0.500000  0.695885  0.462765  1
