# generated using pymatgen
data_Zr2Ga3Ru6W
_symmetry_space_group_name_H-M   'P 1'
_cell_length_a   4.43015400
_cell_length_b   6.27189900
_cell_length_c   13.25188700
_cell_angle_alpha   90.00000000
_cell_angle_beta   89.99976686
_cell_angle_gamma   90.00000000
_symmetry_Int_Tables_number   1
_chemical_formula_structural   Zr2Ga3Ru6W
_chemical_formula_sum   'Zr4 Ga6 Ru12 W2'
_cell_volume   368.21002056
_cell_formula_units_Z   2
loop_
 _symmetry_equiv_pos_site_id
 _symmetry_equiv_pos_as_xyz
  1  'x, y, z'
loop_
 _atom_site_type_symbol
 _atom_site_label
 _atom_site_symmetry_multiplicity
 _atom_site_fract_x
 _atom_site_fract_y
 _atom_site_fract_z
 _atom_site_occupancy
  Zr  Zr0  1  0.999929  0.000000  0.332273  1
  Zr  Zr1  1  0.500002  0.500001  0.499928  1
  Zr  Zr2  1  0.000075  0.000000  0.666775  1
  Zr  Zr3  1  0.500073  0.500001  0.834398  1
  Ga  Ga4  1  0.000016  0.500001  0.998670  1
  Ga  Ga5  1  0.499903  0.000000  0.168008  1
  Ga  Ga6  1  0.999927  0.500001  0.333268  1
  Ga  Ga7  1  0.500001  0.000000  0.498722  1
  Ga  Ga8  1  0.000076  0.500001  0.667965  1
  Ga  Ga9  1  0.500081  0.000000  0.833358  1
  Ru  Ru10  1  0.499997  0.241572  0.006163  1
  Ru  Ru11  1  0.499997  0.758428  0.006163  1
  Ru  Ru12  1  0.999917  0.258365  0.160497  1
  Ru  Ru13  1  0.999917  0.741634  0.160497  1
  Ru  Ru14  1  0.499933  0.257592  0.324438  1
  Ru  Ru15  1  0.499933  0.742410  0.324438  1
  Ru  Ru16  1  0.000003  0.249751  0.498231  1
  Ru  Ru17  1  0.000003  0.750248  0.498231  1
  Ru  Ru18  1  0.500079  0.250214  0.668415  1
  Ru  Ru19  1  0.500079  0.749788  0.668415  1
  Ru  Ru20  1  0.000067  0.242325  0.842312  1
  Ru  Ru21  1  0.000067  0.757674  0.842312  1
  W  W22  1  0.000003  0.000000  0.999744  1
  W  W23  1  0.499915  0.500001  0.166782  1
