# generated using pymatgen
data_Pr4Ga4RuPt3
_symmetry_space_group_name_H-M   'P 1'
_cell_length_a   4.51149600
_cell_length_b   7.16567329
_cell_length_c   7.88641432
_cell_angle_alpha   89.82477060
_cell_angle_beta   90.00000000
_cell_angle_gamma   90.00000000
_symmetry_Int_Tables_number   1
_chemical_formula_structural   Pr4Ga4RuPt3
_chemical_formula_sum   'Pr4 Ga4 Ru1 Pt3'
_cell_volume   254.95007145
_cell_formula_units_Z   1
loop_
 _symmetry_equiv_pos_site_id
 _symmetry_equiv_pos_as_xyz
  1  'x, y, z'
loop_
 _atom_site_type_symbol
 _atom_site_label
 _atom_site_symmetry_multiplicity
 _atom_site_fract_x
 _atom_site_fract_y
 _atom_site_fract_z
 _atom_site_occupancy
  Pr  Pr0  1  0.250000  0.030189  0.685332  1
  Pr  Pr1  1  0.250000  0.526396  0.810915  1
  Pr  Pr2  1  0.750000  0.978768  0.307708  1
  Pr  Pr3  1  0.750000  0.474942  0.195793  1
  Ga  Ga4  1  0.250000  0.162719  0.074914  1
  Ga  Ga5  1  0.250000  0.652534  0.428974  1
  Ga  Ga6  1  0.750000  0.840840  0.929267  1
  Ga  Ga7  1  0.750000  0.336435  0.567615  1
  Ru  Ru8  1  0.250000  0.276950  0.394218  1
  Pt  Pt9  1  0.250000  0.783819  0.106263  1
  Pt  Pt10  1  0.750000  0.718243  0.606651  1
  Pt  Pt11  1  0.750000  0.218165  0.892351  1
