# generated using pymatgen
data_YbTa3SbO11
_symmetry_space_group_name_H-M   'P 1'
_cell_length_a   6.27460800
_cell_length_b   6.27460806
_cell_length_c   12.26993300
_cell_angle_alpha   90.00000000
_cell_angle_beta   90.00000000
_cell_angle_gamma   119.99999967
_symmetry_Int_Tables_number   1
_chemical_formula_structural   YbTa3SbO11
_chemical_formula_sum   'Yb2 Ta6 Sb2 O22'
_cell_volume   418.35602371
_cell_formula_units_Z   2
loop_
 _symmetry_equiv_pos_site_id
 _symmetry_equiv_pos_as_xyz
  1  'x, y, z'
loop_
 _atom_site_type_symbol
 _atom_site_label
 _atom_site_symmetry_multiplicity
 _atom_site_fract_x
 _atom_site_fract_y
 _atom_site_fract_z
 _atom_site_occupancy
  Yb  Yb0  1  0.333333  0.666667  0.750000  1
  Yb  Yb1  1  0.666667  0.333333  0.250000  1
  Ta  Ta2  1  0.643462  0.000000  0.500000  1
  Ta  Ta3  1  0.643462  0.643462  0.000000  1
  Ta  Ta4  1  0.000000  0.356538  0.000000  1
  Ta  Ta5  1  0.000000  0.643462  0.500000  1
  Ta  Ta6  1  0.356538  0.356538  0.500000  1
  Ta  Ta7  1  0.356538  0.000000  0.000000  1
  Sb  Sb8  1  0.666667  0.333333  0.750000  1
  Sb  Sb9  1  0.333333  0.666667  0.250000  1
  O  O10  1  0.333333  0.666667  0.534978  1
  O  O11  1  0.666667  0.333333  0.034978  1
  O  O12  1  0.666667  0.333333  0.465022  1
  O  O13  1  0.333333  0.666667  0.965022  1
  O  O14  1  0.244502  0.000000  0.500000  1
  O  O15  1  0.244502  0.244502  0.000000  1
  O  O16  1  0.000000  0.755498  0.000000  1
  O  O17  1  0.000000  0.244502  0.500000  1
  O  O18  1  0.755498  0.755498  0.500000  1
  O  O19  1  0.755498  0.000000  0.000000  1
  O  O20  1  0.378212  0.950232  0.157627  1
  O  O21  1  0.427980  0.378212  0.657627  1
  O  O22  1  0.950232  0.572020  0.657627  1
  O  O23  1  0.049768  0.427980  0.157627  1
  O  O24  1  0.572020  0.621788  0.157627  1
  O  O25  1  0.427980  0.049768  0.842373  1
  O  O26  1  0.621788  0.572020  0.842373  1
  O  O27  1  0.621788  0.049768  0.657627  1
  O  O28  1  0.950232  0.378212  0.842373  1
  O  O29  1  0.049768  0.621788  0.342373  1
  O  O30  1  0.572020  0.950232  0.342373  1
  O  O31  1  0.378212  0.427980  0.342373  1
