# generated using pymatgen
data_Er12Co8Se
_symmetry_space_group_name_H-M   'P 1'
_cell_length_a   11.24410800
_cell_length_b   11.24410858
_cell_length_c   4.01336800
_cell_angle_alpha   90.00000000
_cell_angle_beta   90.00000000
_cell_angle_gamma   119.99999671
_symmetry_Int_Tables_number   1
_chemical_formula_structural   Er12Co8Se
_chemical_formula_sum   'Er12 Co8 Se1'
_cell_volume   439.42996558
_cell_formula_units_Z   1
loop_
 _symmetry_equiv_pos_site_id
 _symmetry_equiv_pos_as_xyz
  1  'x, y, z'
loop_
 _atom_site_type_symbol
 _atom_site_label
 _atom_site_symmetry_multiplicity
 _atom_site_fract_x
 _atom_site_fract_y
 _atom_site_fract_z
 _atom_site_occupancy
  Er  Er0  1  0.517242  0.136225  0.749723  1
  Er  Er1  1  0.863775  0.381016  0.749723  1
  Er  Er2  1  0.618984  0.482758  0.749723  1
  Er  Er3  1  0.482758  0.863775  0.250277  1
  Er  Er4  1  0.136225  0.618984  0.250277  1
  Er  Er5  1  0.381016  0.517242  0.250277  1
  Er  Er6  1  0.975485  0.739684  0.745015  1
  Er  Er7  1  0.260316  0.235801  0.745015  1
  Er  Er8  1  0.764199  0.024515  0.745015  1
  Er  Er9  1  0.024515  0.260316  0.254985  1
  Er  Er10  1  0.739684  0.764199  0.254985  1
  Er  Er11  1  0.235801  0.975485  0.254985  1
  Co  Co12  1  0.333333  0.666667  0.751697  1
  Co  Co13  1  0.666667  0.333333  0.248303  1
  Co  Co14  1  0.156488  0.437393  0.747657  1
  Co  Co15  1  0.562607  0.719095  0.747657  1
  Co  Co16  1  0.280905  0.843512  0.747657  1
  Co  Co17  1  0.843512  0.562607  0.252343  1
  Co  Co18  1  0.437393  0.280905  0.252343  1
  Co  Co19  1  0.719095  0.156488  0.252343  1
  Se  Se20  1  0.000000  0.000000  0.500000  1
