# generated using pymatgen
data_Er12Co3BiOs2
_symmetry_space_group_name_H-M   'P 1'
_cell_length_a   8.29349932
_cell_length_b   8.29350102
_cell_length_c   8.29349943
_cell_angle_alpha   110.86423762
_cell_angle_beta   112.20167120
_cell_angle_gamma   105.42503260
_symmetry_Int_Tables_number   1
_chemical_formula_structural   Er12Co3BiOs2
_chemical_formula_sum   'Er12 Co3 Bi1 Os2'
_cell_volume   437.43682563
_cell_formula_units_Z   1
loop_
 _symmetry_equiv_pos_site_id
 _symmetry_equiv_pos_as_xyz
  1  'x, y, z'
loop_
 _atom_site_type_symbol
 _atom_site_label
 _atom_site_symmetry_multiplicity
 _atom_site_fract_x
 _atom_site_fract_y
 _atom_site_fract_z
 _atom_site_occupancy
  Er  Er0  1  0.274444  0.182037  0.456479  1
  Er  Er1  1  0.723504  0.818912  0.542417  1
  Er  Er2  1  0.276496  0.818912  0.095407  1
  Er  Er3  1  0.725556  0.182037  0.907594  1
  Er  Er4  1  0.618880  0.306595  0.307768  1
  Er  Er5  1  0.381120  0.688888  0.687715  1
  Er  Er6  1  0.998827  0.306595  0.687715  1
  Er  Er7  1  0.001173  0.688888  0.307768  1
  Er  Er8  1  0.221758  0.415175  0.193418  1
  Er  Er9  1  0.782676  0.585725  0.803048  1
  Er  Er10  1  0.217324  0.020372  0.803048  1
  Er  Er11  1  0.778242  0.971660  0.193418  1
  Co  Co12  1  0.000000  0.638994  0.638994  1
  Co  Co13  1  0.390601  0.890487  0.499885  1
  Co  Co14  1  0.609399  0.109285  0.499885  1
  Bi  Bi15  1  0.500000  0.497067  0.997067  1
  Os  Os16  1  0.000000  0.378371  0.378371  1
  Os  Os17  1  0.000000  0.000004  0.000004  1
