# generated using pymatgen
data_Pr6Cd23Pb
_symmetry_space_group_name_H-M   'P 1'
_cell_length_a   10.18475873
_cell_length_b   10.18475892
_cell_length_c   10.18475900
_cell_angle_alpha   60.00000300
_cell_angle_beta   60.00000236
_cell_angle_gamma   60.00000034
_symmetry_Int_Tables_number   1
_chemical_formula_structural   Pr6Cd23Pb
_chemical_formula_sum   'Pr6 Cd23 Pb1'
_cell_volume   747.02868165
_cell_formula_units_Z   1
loop_
 _symmetry_equiv_pos_site_id
 _symmetry_equiv_pos_as_xyz
  1  'x, y, z'
loop_
 _atom_site_type_symbol
 _atom_site_label
 _atom_site_symmetry_multiplicity
 _atom_site_fract_x
 _atom_site_fract_y
 _atom_site_fract_z
 _atom_site_occupancy
  Pr  Pr0  1  0.774726  0.774726  0.225274  1
  Pr  Pr1  1  0.225274  0.774726  0.225274  1
  Pr  Pr2  1  0.774726  0.225274  0.225274  1
  Pr  Pr3  1  0.225274  0.225274  0.774726  1
  Pr  Pr4  1  0.774726  0.225274  0.774726  1
  Pr  Pr5  1  0.225274  0.774726  0.774726  1
  Cd  Cd6  1  0.841691  0.841691  0.474928  1
  Cd  Cd7  1  0.841691  0.474928  0.841691  1
  Cd  Cd8  1  0.474928  0.841691  0.841691  1
  Cd  Cd9  1  0.841691  0.841691  0.841691  1
  Cd  Cd10  1  0.158309  0.158309  0.525072  1
  Cd  Cd11  1  0.158309  0.525072  0.158309  1
  Cd  Cd12  1  0.525072  0.158309  0.158309  1
  Cd  Cd13  1  0.158309  0.158309  0.158309  1
  Cd  Cd14  1  0.626503  0.626503  0.120492  1
  Cd  Cd15  1  0.626503  0.120492  0.626503  1
  Cd  Cd16  1  0.120492  0.626503  0.626503  1
  Cd  Cd17  1  0.626503  0.626503  0.626503  1
  Cd  Cd18  1  0.373497  0.373497  0.879508  1
  Cd  Cd19  1  0.373497  0.879508  0.373497  1
  Cd  Cd20  1  0.879508  0.373497  0.373497  1
  Cd  Cd21  1  0.373497  0.373497  0.373497  1
  Cd  Cd22  1  0.000000  0.000000  0.500000  1
  Cd  Cd23  1  0.500000  0.000000  0.500000  1
  Cd  Cd24  1  0.000000  0.500000  0.500000  1
  Cd  Cd25  1  0.500000  0.500000  0.000000  1
  Cd  Cd26  1  0.000000  0.500000  0.000000  1
  Cd  Cd27  1  0.500000  0.000000  0.000000  1
  Cd  Cd28  1  0.500000  0.500000  0.500000  1
  Pb  Pb29  1  0.000000  0.000000  0.000000  1
