# generated using pymatgen
data_YbY(ZnRh)2
_symmetry_space_group_name_H-M   'P 1'
_cell_length_a   4.07373700
_cell_length_b   6.95293655
_cell_length_c   8.02694061
_cell_angle_alpha   89.22159105
_cell_angle_beta   90.00000000
_cell_angle_gamma   90.00000000
_symmetry_Int_Tables_number   1
_chemical_formula_structural   YbY(ZnRh)2
_chemical_formula_sum   'Yb2 Y2 Zn4 Rh4'
_cell_volume   227.33757475
_cell_formula_units_Z   2
loop_
 _symmetry_equiv_pos_site_id
 _symmetry_equiv_pos_as_xyz
  1  'x, y, z'
loop_
 _atom_site_type_symbol
 _atom_site_label
 _atom_site_symmetry_multiplicity
 _atom_site_fract_x
 _atom_site_fract_y
 _atom_site_fract_z
 _atom_site_occupancy
  Yb  Yb0  1  0.750000  0.973265  0.681106  1
  Yb  Yb1  1  0.250000  0.026735  0.318894  1
  Y  Y2  1  0.250000  0.527632  0.184531  1
  Y  Y3  1  0.750000  0.472368  0.815469  1
  Zn  Zn4  1  0.250000  0.645449  0.564364  1
  Zn  Zn5  1  0.750000  0.354551  0.435636  1
  Zn  Zn6  1  0.750000  0.856893  0.064822  1
  Zn  Zn7  1  0.250000  0.143107  0.935178  1
  Rh  Rh8  1  0.250000  0.768196  0.874907  1
  Rh  Rh9  1  0.750000  0.231804  0.125093  1
  Rh  Rh10  1  0.750000  0.730864  0.373843  1
  Rh  Rh11  1  0.250000  0.269136  0.626157  1
