# generated using pymatgen
data_La3ThSc4(ReB6)4
_symmetry_space_group_name_H-M   'P 1'
_cell_length_a   3.68652500
_cell_length_b   9.11794803
_cell_length_c   11.61983403
_cell_angle_alpha   89.99157075
_cell_angle_beta   90.00000000
_cell_angle_gamma   90.00000000
_symmetry_Int_Tables_number   1
_chemical_formula_structural   La3ThSc4(ReB6)4
_chemical_formula_sum   'La3 Th1 Sc4 Re4 B24'
_cell_volume   390.58379061
_cell_formula_units_Z   1
loop_
 _symmetry_equiv_pos_site_id
 _symmetry_equiv_pos_as_xyz
  1  'x, y, z'
loop_
 _atom_site_type_symbol
 _atom_site_label
 _atom_site_symmetry_multiplicity
 _atom_site_fract_x
 _atom_site_fract_y
 _atom_site_fract_z
 _atom_site_occupancy
  La  La0  1  0.000000  0.322006  0.414992  1
  La  La1  1  0.000000  0.678270  0.584664  1
  La  La2  1  0.000000  0.820833  0.085170  1
  Th  Th3  1  0.000000  0.178015  0.915253  1
  Sc  Sc4  1  0.000000  0.943303  0.368247  1
  Sc  Sc5  1  0.000000  0.056190  0.630965  1
  Sc  Sc6  1  0.000000  0.444485  0.130924  1
  Sc  Sc7  1  0.000000  0.556192  0.869422  1
  Re  Re8  1  0.000000  0.641883  0.316407  1
  Re  Re9  1  0.000000  0.356711  0.685042  1
  Re  Re10  1  0.000000  0.141835  0.182155  1
  Re  Re11  1  0.000000  0.860037  0.816952  1
  B  B12  1  0.500000  0.557442  0.427953  1
  B  B13  1  0.500000  0.442093  0.572572  1
  B  B14  1  0.500000  0.058089  0.071251  1
  B  B15  1  0.500000  0.943221  0.928071  1
  B  B16  1  0.500000  0.754933  0.414233  1
  B  B17  1  0.500000  0.245152  0.585971  1
  B  B18  1  0.500000  0.254833  0.084951  1
  B  B19  1  0.500000  0.745286  0.914097  1
  B  B20  1  0.500000  0.794391  0.265423  1
  B  B21  1  0.500000  0.205582  0.735114  1
  B  B22  1  0.500000  0.294209  0.234003  1
  B  B23  1  0.500000  0.705998  0.765704  1
  B  B24  1  0.500000  0.627931  0.184128  1
  B  B25  1  0.500000  0.371324  0.816542  1
  B  B26  1  0.500000  0.128085  0.315448  1
  B  B27  1  0.500000  0.872137  0.684166  1
  B  B28  1  0.500000  0.984054  0.215444  1
  B  B29  1  0.500000  0.016414  0.784808  1
  B  B30  1  0.500000  0.483930  0.284450  1
  B  B31  1  0.500000  0.515599  0.715918  1
  B  B32  1  0.500000  0.593328  0.024927  1
  B  B33  1  0.500000  0.405929  0.974890  1
  B  B34  1  0.500000  0.092653  0.475103  1
  B  B35  1  0.500000  0.907630  0.524640  1
