# generated using pymatgen
data_PrBi3(SeO5)2
_symmetry_space_group_name_H-M   'P 1'
_cell_length_a   8.87633241
_cell_length_b   8.87633361
_cell_length_c   11.53953400
_cell_angle_alpha   90.00000000
_cell_angle_beta   90.00000000
_cell_angle_gamma   143.34830396
_symmetry_Int_Tables_number   1
_chemical_formula_structural   PrBi3(SeO5)2
_chemical_formula_sum   'Pr2 Bi6 Se4 O20'
_cell_volume   542.74104350
_cell_formula_units_Z   2
loop_
 _symmetry_equiv_pos_site_id
 _symmetry_equiv_pos_as_xyz
  1  'x, y, z'
loop_
 _atom_site_type_symbol
 _atom_site_label
 _atom_site_symmetry_multiplicity
 _atom_site_fract_x
 _atom_site_fract_y
 _atom_site_fract_z
 _atom_site_occupancy
  Pr  Pr0  1  0.734693  0.234693  0.615803  1
  Pr  Pr1  1  0.234693  0.734693  0.384197  1
  Bi  Bi2  1  0.237658  0.737658  0.869538  1
  Bi  Bi3  1  0.737658  0.237658  0.130462  1
  Bi  Bi4  1  0.895561  0.065889  0.394124  1
  Bi  Bi5  1  0.065889  0.895561  0.605876  1
  Bi  Bi6  1  0.395561  0.565889  0.605876  1
  Bi  Bi7  1  0.565889  0.395561  0.394124  1
  Se  Se8  1  0.390021  0.576385  0.145290  1
  Se  Se9  1  0.576385  0.390021  0.854710  1
  Se  Se10  1  0.890021  0.076385  0.854710  1
  Se  Se11  1  0.076385  0.890021  0.145290  1
  O  O12  1  0.137996  0.466504  0.216109  1
  O  O13  1  0.466504  0.137996  0.783891  1
  O  O14  1  0.637996  0.966504  0.783891  1
  O  O15  1  0.966504  0.637996  0.216109  1
  O  O16  1  0.574902  0.898257  0.501047  1
  O  O17  1  0.898257  0.574902  0.498953  1
  O  O18  1  0.074902  0.398257  0.498953  1
  O  O19  1  0.398257  0.074902  0.501047  1
  O  O20  1  0.127585  0.627585  0.699311  1
  O  O21  1  0.627585  0.127585  0.300689  1
  O  O22  1  0.551617  0.853461  0.079413  1
  O  O23  1  0.853461  0.551617  0.920587  1
  O  O24  1  0.172996  0.067444  0.263838  1
  O  O25  1  0.067444  0.172996  0.736162  1
  O  O26  1  0.672996  0.567444  0.736162  1
  O  O27  1  0.567444  0.672996  0.263838  1
  O  O28  1  0.251551  0.251551  0.500000  1
  O  O29  1  0.751551  0.751551  0.500000  1
  O  O30  1  0.353461  0.051617  0.079413  1
  O  O31  1  0.051617  0.353461  0.920587  1
