# generated using pymatgen
data_Lu9ScIn8(PtAu)2
_symmetry_space_group_name_H-M   'P 1'
_cell_length_a   3.58183000
_cell_length_b   8.03727271
_cell_length_c   18.03649815
_cell_angle_alpha   90.06235375
_cell_angle_beta   90.00000000
_cell_angle_gamma   90.00000000
_symmetry_Int_Tables_number   1
_chemical_formula_structural   Lu9ScIn8(PtAu)2
_chemical_formula_sum   'Lu9 Sc1 In8 Pt2 Au2'
_cell_volume   519.23700777
_cell_formula_units_Z   1
loop_
 _symmetry_equiv_pos_site_id
 _symmetry_equiv_pos_as_xyz
  1  'x, y, z'
loop_
 _atom_site_type_symbol
 _atom_site_label
 _atom_site_symmetry_multiplicity
 _atom_site_fract_x
 _atom_site_fract_y
 _atom_site_fract_z
 _atom_site_occupancy
  Lu  Lu0  1  0.000000  0.121251  0.419511  1
  Lu  Lu1  1  0.000000  0.878749  0.580489  1
  Lu  Lu2  1  0.000000  0.383032  0.916293  1
  Lu  Lu3  1  0.000000  0.616968  0.083707  1
  Lu  Lu4  1  0.000000  0.256020  0.217465  1
  Lu  Lu5  1  0.000000  0.743980  0.782535  1
  Lu  Lu6  1  0.000000  0.265529  0.722291  1
  Lu  Lu7  1  0.000000  0.734471  0.277709  1
  Lu  Lu8  1  0.000000  0.000000  0.000000  1
  Sc  Sc9  1  0.000000  0.500000  0.500000  1
  In  In10  1  0.500000  0.424228  0.354157  1
  In  In11  1  0.500000  0.575772  0.645843  1
  In  In12  1  0.500000  0.075705  0.853647  1
  In  In13  1  0.500000  0.924295  0.146353  1
  In  In14  1  0.500000  0.292374  0.064647  1
  In  In15  1  0.500000  0.707626  0.935353  1
  In  In16  1  0.500000  0.213466  0.566040  1
  In  In17  1  0.500000  0.786534  0.433960  1
  Pt  Pt18  1  0.500000  0.470378  0.804265  1
  Pt  Pt19  1  0.500000  0.529622  0.195735  1
  Au  Au20  1  0.500000  0.030550  0.302367  1
  Au  Au21  1  0.500000  0.969450  0.697633  1
