# generated using pymatgen
data_La2CeNd(SnRu)4
_symmetry_space_group_name_H-M   'P 1'
_cell_length_a   6.38757378
_cell_length_b   6.38757466
_cell_length_c   10.36532045
_cell_angle_alpha   77.75291224
_cell_angle_beta   77.75292154
_cell_angle_gamma   44.46319113
_symmetry_Int_Tables_number   1
_chemical_formula_structural   La2CeNd(SnRu)4
_chemical_formula_sum   'La2 Ce1 Nd1 Sn4 Ru4'
_cell_volume   288.34891277
_cell_formula_units_Z   1
loop_
 _symmetry_equiv_pos_site_id
 _symmetry_equiv_pos_as_xyz
  1  'x, y, z'
loop_
 _atom_site_type_symbol
 _atom_site_label
 _atom_site_symmetry_multiplicity
 _atom_site_fract_x
 _atom_site_fract_y
 _atom_site_fract_z
 _atom_site_occupancy
  La  La0  1  0.871165  0.871165  0.408535  1
  La  La1  1  0.872129  0.872129  0.912587  1
  Ce  Ce2  1  0.142478  0.142478  0.085785  1
  Nd  Nd3  1  0.121520  0.121520  0.593304  1
  Sn  Sn4  1  0.422268  0.422268  0.151293  1
  Sn  Sn5  1  0.402773  0.402773  0.655249  1
  Sn  Sn6  1  0.585495  0.585495  0.838649  1
  Sn  Sn7  1  0.588615  0.588615  0.352278  1
  Ru  Ru8  1  0.812699  0.812699  0.174627  1
  Ru  Ru9  1  0.191266  0.191266  0.297520  1
  Ru  Ru10  1  0.186581  0.186581  0.852478  1
  Ru  Ru11  1  0.803013  0.803013  0.677696  1
