# generated using pymatgen
data_Rb2Tm7BBr18
_symmetry_space_group_name_H-M   'P 1'
_cell_length_a   10.54013770
_cell_length_b   10.54013711
_cell_length_c   11.42717590
_cell_angle_alpha   117.46375750
_cell_angle_beta   62.53624636
_cell_angle_gamma   120.00000208
_symmetry_Int_Tables_number   1
_chemical_formula_structural   Rb2Tm7BBr18
_chemical_formula_sum   'Rb2 Tm7 B1 Br18'
_cell_volume   930.55568081
_cell_formula_units_Z   1
loop_
 _symmetry_equiv_pos_site_id
 _symmetry_equiv_pos_as_xyz
  1  'x, y, z'
loop_
 _atom_site_type_symbol
 _atom_site_label
 _atom_site_symmetry_multiplicity
 _atom_site_fract_x
 _atom_site_fract_y
 _atom_site_fract_z
 _atom_site_occupancy
  Rb  Rb0  1  0.222067  0.777933  0.333803  1
  Rb  Rb1  1  0.777934  0.222066  0.666197  1
  Tm  Tm2  1  0.778396  0.107298  0.154476  1
  Tm  Tm3  1  0.892701  0.825575  0.154476  1
  Tm  Tm4  1  0.174426  0.221604  0.154476  1
  Tm  Tm5  1  0.500000  0.500000  0.500000  1
  Tm  Tm6  1  0.825575  0.778397  0.845524  1
  Tm  Tm7  1  0.107298  0.174424  0.845524  1
  Tm  Tm8  1  0.221603  0.892700  0.845524  1
  B  B9  1  0.000000  0.000000  0.000000  1
  Br  Br10  1  0.287323  0.425608  0.007524  1
  Br  Br11  1  0.574390  0.869240  0.007524  1
  Br  Br12  1  0.130761  0.712678  0.007524  1
  Br  Br13  1  0.946071  0.348470  0.333791  1
  Br  Br14  1  0.068608  0.053929  0.333791  1
  Br  Br15  1  0.651529  0.931392  0.333791  1
  Br  Br16  1  0.524516  0.214250  0.333814  1
  Br  Br17  1  0.785749  0.644080  0.333814  1
  Br  Br18  1  0.355920  0.475483  0.333814  1
  Br  Br19  1  0.644080  0.524517  0.666186  1
  Br  Br20  1  0.214252  0.355922  0.666186  1
  Br  Br21  1  0.475483  0.785749  0.666186  1
  Br  Br22  1  0.348470  0.068607  0.666208  1
  Br  Br23  1  0.931393  0.946070  0.666208  1
  Br  Br24  1  0.053929  0.651529  0.666208  1
  Br  Br25  1  0.869241  0.287323  0.992476  1
  Br  Br26  1  0.425608  0.130759  0.992476  1
  Br  Br27  1  0.712677  0.574392  0.992476  1
