# generated using pymatgen
data_Tb3HoAl18(ReAu2)2
_symmetry_space_group_name_H-M   'P 1'
_cell_length_a   7.73469739
_cell_length_b   7.73852570
_cell_length_c   9.56168500
_cell_angle_alpha   90.00000000
_cell_angle_beta   90.00000000
_cell_angle_gamma   119.50695709
_symmetry_Int_Tables_number   1
_chemical_formula_structural   Tb3HoAl18(ReAu2)2
_chemical_formula_sum   'Tb3 Ho1 Al18 Re2 Au4'
_cell_volume   498.08438303
_cell_formula_units_Z   1
loop_
 _symmetry_equiv_pos_site_id
 _symmetry_equiv_pos_as_xyz
  1  'x, y, z'
loop_
 _atom_site_type_symbol
 _atom_site_label
 _atom_site_symmetry_multiplicity
 _atom_site_fract_x
 _atom_site_fract_y
 _atom_site_fract_z
 _atom_site_occupancy
  Tb  Tb0  1  0.992600  0.669213  0.250000  1
  Tb  Tb1  1  0.007888  0.330796  0.750000  1
  Tb  Tb2  1  0.668923  0.991939  0.250000  1
  Ho  Ho3  1  0.329411  0.007984  0.750000  1
  Al  Al4  1  0.122867  0.122532  0.250000  1
  Al  Al5  1  0.877082  0.877254  0.750000  1
  Al  Al6  1  0.001383  0.325311  0.078913  1
  Al  Al7  1  0.999242  0.674849  0.920547  1
  Al  Al8  1  0.999242  0.674849  0.579453  1
  Al  Al9  1  0.325569  0.001301  0.421506  1
  Al  Al10  1  0.001383  0.325311  0.421087  1
  Al  Al11  1  0.673980  0.998862  0.579332  1
  Al  Al12  1  0.673980  0.998862  0.920668  1
  Al  Al13  1  0.325569  0.001301  0.078494  1
  Al  Al14  1  0.324589  0.324221  0.556769  1
  Al  Al15  1  0.675728  0.675641  0.444079  1
  Al  Al16  1  0.675728  0.675641  0.055921  1
  Al  Al17  1  0.324589  0.324221  0.943231  1
  Al  Al18  1  0.344753  0.543965  0.250000  1
  Al  Al19  1  0.655048  0.455322  0.750000  1
  Al  Al20  1  0.544208  0.344412  0.250000  1
  Al  Al21  1  0.455706  0.655799  0.750000  1
  Re  Re22  1  0.000353  0.000288  0.999628  1
  Re  Re23  1  0.000353  0.000288  0.500372  1
  Au  Au24  1  0.673716  0.326462  0.999914  1
  Au  Au25  1  0.326196  0.673456  0.000126  1
  Au  Au26  1  0.326196  0.673456  0.499874  1
  Au  Au27  1  0.673716  0.326462  0.500086  1
