# generated using pymatgen
data_Zr6GaPO2
_symmetry_space_group_name_H-M   'P 1'
_cell_length_a   5.87923289
_cell_length_b   5.87923367
_cell_length_c   8.52342100
_cell_angle_alpha   90.00000000
_cell_angle_beta   90.00000000
_cell_angle_gamma   145.38801799
_symmetry_Int_Tables_number   1
_chemical_formula_structural   Zr6GaPO2
_chemical_formula_sum   'Zr6 Ga1 P1 O2'
_cell_volume   167.34617732
_cell_formula_units_Z   1
loop_
 _symmetry_equiv_pos_site_id
 _symmetry_equiv_pos_as_xyz
  1  'x, y, z'
loop_
 _atom_site_type_symbol
 _atom_site_label
 _atom_site_symmetry_multiplicity
 _atom_site_fract_x
 _atom_site_fract_y
 _atom_site_fract_z
 _atom_site_occupancy
  Zr  Zr0  1  0.946635  0.053365  0.750000  1
  Zr  Zr1  1  0.068657  0.931343  0.250000  1
  Zr  Zr2  1  0.633744  0.366256  0.548495  1
  Zr  Zr3  1  0.359761  0.640239  0.435871  1
  Zr  Zr4  1  0.359761  0.640239  0.064129  1
  Zr  Zr5  1  0.633744  0.366256  0.951505  1
  Ga  Ga6  1  0.255742  0.744258  0.750000  1
  P  P7  1  0.744609  0.255391  0.250000  1
  O  O8  1  0.998673  0.001327  0.497479  1
  O  O9  1  0.998673  0.001327  0.002521  1
