# generated using pymatgen
data_Y4Al17Re2SiPd4
_symmetry_space_group_name_H-M   'P 1'
_cell_length_a   7.61246760
_cell_length_b   7.61246539
_cell_length_c   9.47760700
_cell_angle_alpha   90.00000000
_cell_angle_beta   90.00000000
_cell_angle_gamma   119.00476870
_symmetry_Int_Tables_number   1
_chemical_formula_structural   Y4Al17Re2SiPd4
_chemical_formula_sum   'Y4 Al17 Re2 Si1 Pd4'
_cell_volume   480.33994648
_cell_formula_units_Z   1
loop_
 _symmetry_equiv_pos_site_id
 _symmetry_equiv_pos_as_xyz
  1  'x, y, z'
loop_
 _atom_site_type_symbol
 _atom_site_label
 _atom_site_symmetry_multiplicity
 _atom_site_fract_x
 _atom_site_fract_y
 _atom_site_fract_z
 _atom_site_occupancy
  Y  Y0  1  0.991626  0.680855  0.250000  1
  Y  Y1  1  0.004677  0.323888  0.750000  1
  Y  Y2  1  0.680855  0.991626  0.250000  1
  Y  Y3  1  0.323888  0.004677  0.750000  1
  Al  Al4  1  0.871500  0.871500  0.750000  1
  Al  Al5  1  0.001783  0.335957  0.079412  1
  Al  Al6  1  0.998953  0.667966  0.923982  1
  Al  Al7  1  0.998953  0.667966  0.576018  1
  Al  Al8  1  0.335957  0.001783  0.420588  1
  Al  Al9  1  0.001783  0.335957  0.420588  1
  Al  Al10  1  0.667966  0.998953  0.576018  1
  Al  Al11  1  0.667966  0.998953  0.923982  1
  Al  Al12  1  0.335957  0.001783  0.079412  1
  Al  Al13  1  0.329237  0.329237  0.554860  1
  Al  Al14  1  0.667843  0.667843  0.450154  1
  Al  Al15  1  0.667843  0.667843  0.049846  1
  Al  Al16  1  0.329237  0.329237  0.945140  1
  Al  Al17  1  0.341268  0.550171  0.250000  1
  Al  Al18  1  0.656356  0.448896  0.750000  1
  Al  Al19  1  0.550171  0.341268  0.250000  1
  Al  Al20  1  0.448896  0.656356  0.750000  1
  Re  Re21  1  0.001415  0.001415  0.007179  1
  Re  Re22  1  0.001415  0.001415  0.492821  1
  Si  Si23  1  0.129123  0.129123  0.250000  1
  Pd  Pd24  1  0.670569  0.327097  0.000148  1
  Pd  Pd25  1  0.327097  0.670569  0.000148  1
  Pd  Pd26  1  0.327097  0.670569  0.499852  1
  Pd  Pd27  1  0.670569  0.327097  0.499852  1
