# generated using pymatgen
data_Sr8GaRu3O16
_symmetry_space_group_name_H-M   'P 1'
_cell_length_a   5.55146136
_cell_length_b   5.55140062
_cell_length_c   13.42894673
_cell_angle_alpha   101.86748525
_cell_angle_beta   101.87036490
_cell_angle_gamma   89.99544821
_symmetry_Int_Tables_number   1
_chemical_formula_structural   Sr8GaRu3O16
_chemical_formula_sum   'Sr8 Ga1 Ru3 O16'
_cell_volume   395.96622573
_cell_formula_units_Z   1
loop_
 _symmetry_equiv_pos_site_id
 _symmetry_equiv_pos_as_xyz
  1  'x, y, z'
loop_
 _atom_site_type_symbol
 _atom_site_label
 _atom_site_symmetry_multiplicity
 _atom_site_fract_x
 _atom_site_fract_y
 _atom_site_fract_z
 _atom_site_occupancy
  Sr  Sr0  1  0.822586  0.823104  0.643992  1
  Sr  Sr1  1  0.076587  0.576311  0.148620  1
  Sr  Sr2  1  0.178933  0.178547  0.356013  1
  Sr  Sr3  1  0.425312  0.925641  0.851404  1
  Sr  Sr4  1  0.321312  0.321350  0.643963  1
  Sr  Sr5  1  0.576676  0.076620  0.151995  1
  Sr  Sr6  1  0.677410  0.676958  0.356025  1
  Sr  Sr7  1  0.921868  0.422037  0.848022  1
  Ga  Ga8  1  0.750150  0.250104  0.499999  1
  Ru  Ru9  1  0.999835  0.999937  0.000007  1
  Ru  Ru10  1  0.249997  0.749831  0.499990  1
  Ru  Ru11  1  0.499987  0.500104  0.000005  1
  O  O12  1  0.024304  0.480457  0.500032  1
  O  O13  1  0.916184  0.921654  0.837573  1
  O  O14  1  0.082713  0.077700  0.162426  1
  O  O15  1  0.173226  0.668655  0.341655  1
  O  O16  1  0.326150  0.830537  0.658328  1
  O  O17  1  0.209851  0.710006  0.997342  1
  O  O18  1  0.288726  0.211692  0.000588  1
  O  O19  1  0.475958  0.019301  0.499909  1
  O  O20  1  0.520304  0.524839  0.501573  1
  O  O21  1  0.422102  0.417001  0.837582  1
  O  O22  1  0.578469  0.583470  0.162428  1
  O  O23  1  0.670572  0.174736  0.343293  1
  O  O24  1  0.830211  0.325849  0.656699  1
  O  O25  1  0.711391  0.789025  0.000497  1
  O  O26  1  0.789400  0.289481  0.001591  1
  O  O27  1  0.979787  0.975052  0.498453  1
