# generated using pymatgen
data_Pm2(IO4)3
_symmetry_space_group_name_H-M   'P 1'
_cell_length_a   6.85793910
_cell_length_b   6.85793864
_cell_length_c   12.31350140
_cell_angle_alpha   78.97298517
_cell_angle_beta   78.97298880
_cell_angle_gamma   104.77188601
_symmetry_Int_Tables_number   1
_chemical_formula_structural   Pm2(IO4)3
_chemical_formula_sum   'Pm4 I6 O24'
_cell_volume   531.77108416
_cell_formula_units_Z   2
loop_
 _symmetry_equiv_pos_site_id
 _symmetry_equiv_pos_as_xyz
  1  'x, y, z'
loop_
 _atom_site_type_symbol
 _atom_site_label
 _atom_site_symmetry_multiplicity
 _atom_site_fract_x
 _atom_site_fract_y
 _atom_site_fract_z
 _atom_site_occupancy
  Pm  Pm0  1  0.202907  0.428225  0.592311  1
  Pm  Pm1  1  0.797093  0.571775  0.407689  1
  Pm  Pm2  1  0.571775  0.797093  0.907689  1
  Pm  Pm3  1  0.428225  0.202907  0.092311  1
  I  I4  1  0.953776  0.267314  0.969860  1
  I  I5  1  0.046224  0.732686  0.030140  1
  I  I6  1  0.732686  0.046224  0.530140  1
  I  I7  1  0.267314  0.953776  0.469860  1
  I  I8  1  0.577822  0.422178  0.750000  1
  I  I9  1  0.422178  0.577822  0.250000  1
  O  O10  1  0.579576  0.454252  0.593017  1
  O  O11  1  0.420424  0.545748  0.406983  1
  O  O12  1  0.545748  0.420424  0.906983  1
  O  O13  1  0.454252  0.579576  0.093017  1
  O  O14  1  0.579454  0.136053  0.768289  1
  O  O15  1  0.420546  0.863947  0.231711  1
  O  O16  1  0.863947  0.420546  0.731711  1
  O  O17  1  0.136053  0.579454  0.268289  1
  O  O18  1  0.695780  0.061382  0.007151  1
  O  O19  1  0.304220  0.938618  0.992849  1
  O  O20  1  0.938618  0.304220  0.492849  1
  O  O21  1  0.061382  0.695780  0.507151  1
  O  O22  1  0.406533  0.810901  0.559101  1
  O  O23  1  0.593467  0.189099  0.440899  1
  O  O24  1  0.189099  0.593467  0.940899  1
  O  O25  1  0.810901  0.406533  0.059101  1
  O  O26  1  0.286539  0.353211  0.772364  1
  O  O27  1  0.713461  0.646789  0.227636  1
  O  O28  1  0.646789  0.713461  0.727636  1
  O  O29  1  0.353211  0.286539  0.272364  1
  O  O30  1  0.933759  0.844208  0.919770  1
  O  O31  1  0.066241  0.155792  0.080230  1
  O  O32  1  0.155792  0.066241  0.580230  1
  O  O33  1  0.844208  0.933759  0.419770  1
