# generated using pymatgen
data_Ga2Pd7Au
_symmetry_space_group_name_H-M   'P 1'
_cell_length_a   4.15619904
_cell_length_b   5.56512591
_cell_length_c   7.44174292
_cell_angle_alpha   108.74118617
_cell_angle_beta   106.21539277
_cell_angle_gamma   89.99999816
_symmetry_Int_Tables_number   1
_chemical_formula_structural   Ga2Pd7Au
_chemical_formula_sum   'Ga2 Pd7 Au1'
_cell_volume   155.75153226
_cell_formula_units_Z   1
loop_
 _symmetry_equiv_pos_site_id
 _symmetry_equiv_pos_as_xyz
  1  'x, y, z'
loop_
 _atom_site_type_symbol
 _atom_site_label
 _atom_site_symmetry_multiplicity
 _atom_site_fract_x
 _atom_site_fract_y
 _atom_site_fract_z
 _atom_site_occupancy
  Ga  Ga0  1  0.189509  0.657981  0.379017  1
  Ga  Ga1  1  0.810490  0.342018  0.620982  1
  Pd  Pd2  1  0.000000  0.499998  0.000000  1
  Pd  Pd3  1  0.594590  0.834416  0.189181  1
  Pd  Pd4  1  0.621965  0.360942  0.243931  1
  Pd  Pd5  1  0.208577  0.147684  0.417155  1
  Pd  Pd6  1  0.791423  0.852315  0.582845  1
  Pd  Pd7  1  0.378035  0.639059  0.756070  1
  Pd  Pd8  1  0.405410  0.165585  0.810820  1
  Au  Au9  1  0.000000  0.000000  0.000000  1
