# generated using pymatgen
data_Sm2Ho3Mg3(Co4P3)4
_symmetry_space_group_name_H-M   'P 1'
_cell_length_a   12.16715100
_cell_length_b   12.16715087
_cell_length_c   3.74223100
_cell_angle_alpha   90.00000000
_cell_angle_beta   90.00000000
_cell_angle_gamma   119.99999763
_symmetry_Int_Tables_number   1
_chemical_formula_structural   Sm2Ho3Mg3(Co4P3)4
_chemical_formula_sum   'Sm2 Ho3 Mg3 Co16 P12'
_cell_volume   479.77655908
_cell_formula_units_Z   1
loop_
 _symmetry_equiv_pos_site_id
 _symmetry_equiv_pos_as_xyz
  1  'x, y, z'
loop_
 _atom_site_type_symbol
 _atom_site_label
 _atom_site_symmetry_multiplicity
 _atom_site_fract_x
 _atom_site_fract_y
 _atom_site_fract_z
 _atom_site_occupancy
  Sm  Sm0  1  0.333333  0.666667  0.000000  1
  Sm  Sm1  1  0.666667  0.333333  0.000000  1
  Ho  Ho2  1  0.814307  0.000000  0.500000  1
  Ho  Ho3  1  0.000000  0.814307  0.500000  1
  Ho  Ho4  1  0.185693  0.185693  0.500000  1
  Mg  Mg5  1  0.439636  0.000000  0.000000  1
  Mg  Mg6  1  0.000000  0.439636  0.000000  1
  Mg  Mg7  1  0.560364  0.560364  0.000000  1
  Co  Co8  1  0.278648  0.000000  0.500000  1
  Co  Co9  1  0.000000  0.278648  0.500000  1
  Co  Co10  1  0.721352  0.721352  0.500000  1
  Co  Co11  1  0.626475  0.803804  0.000000  1
  Co  Co12  1  0.196196  0.822672  0.000000  1
  Co  Co13  1  0.177328  0.373525  0.000000  1
  Co  Co14  1  0.373525  0.177328  0.000000  1
  Co  Co15  1  0.803804  0.626475  0.000000  1
  Co  Co16  1  0.822672  0.196196  0.000000  1
  Co  Co17  1  0.519676  0.876317  0.500000  1
  Co  Co18  1  0.123683  0.643361  0.500000  1
  Co  Co19  1  0.356639  0.480324  0.500000  1
  Co  Co20  1  0.480324  0.356639  0.500000  1
  Co  Co21  1  0.876317  0.519676  0.500000  1
  Co  Co22  1  0.643361  0.123683  0.500000  1
  Co  Co23  1  0.000000  0.000000  0.000000  1
  P  P24  1  0.178581  0.000000  0.000000  1
  P  P25  1  0.000000  0.178581  0.000000  1
  P  P26  1  0.821419  0.821419  0.000000  1
  P  P27  1  0.523701  0.694343  0.500000  1
  P  P28  1  0.305657  0.829357  0.500000  1
  P  P29  1  0.170643  0.476299  0.500000  1
  P  P30  1  0.476299  0.170643  0.500000  1
  P  P31  1  0.694343  0.523701  0.500000  1
  P  P32  1  0.829357  0.305657  0.500000  1
  P  P33  1  0.640482  0.000000  0.000000  1
  P  P34  1  0.000000  0.640482  0.000000  1
  P  P35  1  0.359518  0.359518  0.000000  1
