# generated using pymatgen
data_Tb3Dy14Er3Pb16
_symmetry_space_group_name_H-M   'P 1'
_cell_length_a   8.20241209
_cell_length_b   8.28564159
_cell_length_c   15.65258715
_cell_angle_alpha   90.00639132
_cell_angle_beta   90.01437387
_cell_angle_gamma   90.01730797
_symmetry_Int_Tables_number   1
_chemical_formula_structural   Tb3Dy14Er3Pb16
_chemical_formula_sum   'Tb3 Dy14 Er3 Pb16'
_cell_volume   1063.78490125
_cell_formula_units_Z   1
loop_
 _symmetry_equiv_pos_site_id
 _symmetry_equiv_pos_as_xyz
  1  'x, y, z'
loop_
 _atom_site_type_symbol
 _atom_site_label
 _atom_site_symmetry_multiplicity
 _atom_site_fract_x
 _atom_site_fract_y
 _atom_site_fract_z
 _atom_site_occupancy
  Tb  Tb0  1  0.965398  0.823271  0.399974  1
  Tb  Tb1  1  0.534726  0.323134  0.599976  1
  Tb  Tb2  1  0.034501  0.176488  0.900009  1
  Dy  Dy3  1  0.377653  0.840806  0.879511  1
  Dy  Dy4  1  0.877181  0.659435  0.620520  1
  Dy  Dy5  1  0.622591  0.159200  0.379380  1
  Dy  Dy6  1  0.122600  0.340839  0.120711  1
  Dy  Dy7  1  0.622606  0.159162  0.120563  1
  Dy  Dy8  1  0.122619  0.340815  0.379313  1
  Dy  Dy9  1  0.377571  0.840867  0.620503  1
  Dy  Dy10  1  0.877179  0.659445  0.879514  1
  Dy  Dy11  1  0.534820  0.323221  0.899924  1
  Dy  Dy12  1  0.034543  0.176450  0.600099  1
  Dy  Dy13  1  0.465304  0.676623  0.399806  1
  Dy  Dy14  1  0.965319  0.823330  0.100115  1
  Dy  Dy15  1  0.465282  0.676646  0.100154  1
  Dy  Dy16  1  0.208874  0.503793  0.750024  1
  Er  Er17  1  0.709053  0.996016  0.749994  1
  Er  Er18  1  0.790878  0.496102  0.250006  1
  Er  Er19  1  0.291020  0.003789  0.249983  1
  Pb  Pb20  1  0.281029  0.032759  0.043132  1
  Pb  Pb21  1  0.780979  0.467179  0.456872  1
  Pb  Pb22  1  0.719005  0.967164  0.542987  1
  Pb  Pb23  1  0.219221  0.533122  0.957429  1
  Pb  Pb24  1  0.718845  0.966979  0.957135  1
  Pb  Pb25  1  0.218879  0.533185  0.542529  1
  Pb  Pb26  1  0.281146  0.033090  0.457018  1
  Pb  Pb27  1  0.780937  0.467200  0.043019  1
  Pb  Pb28  1  0.573230  0.626699  0.749984  1
  Pb  Pb29  1  0.072358  0.874196  0.750005  1
  Pb  Pb30  1  0.427552  0.373715  0.249975  1
  Pb  Pb31  1  0.927546  0.126310  0.250004  1
  Pb  Pb32  1  0.346521  0.151992  0.750078  1
  Pb  Pb33  1  0.845966  0.346885  0.749919  1
  Pb  Pb34  1  0.653467  0.846963  0.249956  1
  Pb  Pb35  1  0.153599  0.653128  0.249881  1
