# generated using pymatgen
data_DyHo2Er3FeSb2
_symmetry_space_group_name_H-M   'P 1'
_cell_length_a   8.16389600
_cell_length_b   8.16335445
_cell_length_c   4.13040000
_cell_angle_alpha   90.00000000
_cell_angle_beta   90.00000000
_cell_angle_gamma   120.00219449
_symmetry_Int_Tables_number   1
_chemical_formula_structural   DyHo2Er3FeSb2
_chemical_formula_sum   'Dy1 Ho2 Er3 Fe1 Sb2'
_cell_volume   238.38518264
_cell_formula_units_Z   1
loop_
 _symmetry_equiv_pos_site_id
 _symmetry_equiv_pos_as_xyz
  1  'x, y, z'
loop_
 _atom_site_type_symbol
 _atom_site_label
 _atom_site_symmetry_multiplicity
 _atom_site_fract_x
 _atom_site_fract_y
 _atom_site_fract_z
 _atom_site_occupancy
  Dy  Dy0  1  0.602882  0.000000  0.500000  1
  Ho  Ho1  1  0.396978  0.397002  0.500000  1
  Ho  Ho2  1  0.999976  0.602998  0.500000  1
  Er  Er3  1  0.234015  0.000000  0.000000  1
  Er  Er4  1  0.766035  0.765852  0.000000  1
  Er  Er5  1  0.000183  0.234148  0.000000  1
  Fe  Fe6  1  0.000163  0.000000  0.500000  1
  Sb  Sb7  1  0.333099  0.666430  0.000000  1
  Sb  Sb8  1  0.666670  0.333570  0.000000  1
