# generated using pymatgen
data_Nd5SiBiPb2
_symmetry_space_group_name_H-M   'P 1'
_cell_length_a   9.62797600
_cell_length_b   9.63938052
_cell_length_c   6.71384500
_cell_angle_alpha   90.00000000
_cell_angle_beta   90.00000000
_cell_angle_gamma   119.96069212
_symmetry_Int_Tables_number   1
_chemical_formula_structural   Nd5SiBiPb2
_chemical_formula_sum   'Nd10 Si2 Bi2 Pb4'
_cell_volume   539.83116155
_cell_formula_units_Z   2
loop_
 _symmetry_equiv_pos_site_id
 _symmetry_equiv_pos_as_xyz
  1  'x, y, z'
loop_
 _atom_site_type_symbol
 _atom_site_label
 _atom_site_symmetry_multiplicity
 _atom_site_fract_x
 _atom_site_fract_y
 _atom_site_fract_z
 _atom_site_occupancy
  Nd  Nd0  1  0.250810  0.999999  0.250000  1
  Nd  Nd1  1  0.749190  0.000001  0.750000  1
  Nd  Nd2  1  0.000682  0.249144  0.250000  1
  Nd  Nd3  1  0.999318  0.750856  0.750000  1
  Nd  Nd4  1  0.751542  0.750859  0.250000  1
  Nd  Nd5  1  0.248458  0.249141  0.750000  1
  Nd  Nd6  1  0.331371  0.662746  0.000001  1
  Nd  Nd7  1  0.668629  0.337254  0.999999  1
  Nd  Nd8  1  0.668629  0.337254  0.500001  1
  Nd  Nd9  1  0.331371  0.662746  0.499999  1
  Si  Si10  1  0.000000  0.000000  0.000000  1
  Si  Si11  1  0.000000  0.000000  0.500000  1
  Bi  Bi12  1  0.608737  0.000003  0.250000  1
  Bi  Bi13  1  0.391263  0.999997  0.750000  1
  Pb  Pb14  1  0.000855  0.609300  0.250000  1
  Pb  Pb15  1  0.999145  0.390700  0.750000  1
  Pb  Pb16  1  0.391548  0.390692  0.250000  1
  Pb  Pb17  1  0.608452  0.609308  0.750000  1
