# generated using pymatgen
data_Nd3Zn2Ir7
_symmetry_space_group_name_H-M   'P 1'
_cell_length_a   5.47641633
_cell_length_b   5.47641628
_cell_length_c   9.00606733
_cell_angle_alpha   107.70043528
_cell_angle_beta   72.29956236
_cell_angle_gamma   120.00000716
_symmetry_Int_Tables_number   1
_chemical_formula_structural   Nd3Zn2Ir7
_chemical_formula_sum   'Nd3 Zn2 Ir7'
_cell_volume   219.02596031
_cell_formula_units_Z   1
loop_
 _symmetry_equiv_pos_site_id
 _symmetry_equiv_pos_as_xyz
  1  'x, y, z'
loop_
 _atom_site_type_symbol
 _atom_site_label
 _atom_site_symmetry_multiplicity
 _atom_site_fract_x
 _atom_site_fract_y
 _atom_site_fract_z
 _atom_site_occupancy
  Nd  Nd0  1  0.000000  0.000000  0.000000  1
  Nd  Nd1  1  0.859418  0.140581  0.421745  1
  Nd  Nd2  1  0.140582  0.859419  0.578255  1
  Zn  Zn3  1  0.665144  0.334855  0.004567  1
  Zn  Zn4  1  0.334856  0.665145  0.995433  1
  Ir  Ir5  1  0.414856  0.077280  0.247569  1
  Ir  Ir6  1  0.414856  0.585145  0.247569  1
  Ir  Ir7  1  0.922721  0.585145  0.247569  1
  Ir  Ir8  1  0.499999  0.500000  0.500000  1
  Ir  Ir9  1  0.077279  0.414855  0.752431  1
  Ir  Ir10  1  0.585145  0.414856  0.752431  1
  Ir  Ir11  1  0.585145  0.922721  0.752431  1
