# generated using pymatgen
data_Rb4LuUBr12
_symmetry_space_group_name_H-M   'P 1'
_cell_length_a   7.77431900
_cell_length_b   7.77431900
_cell_length_c   11.57418100
_cell_angle_alpha   90.00000000
_cell_angle_beta   90.00000000
_cell_angle_gamma   90.00000000
_symmetry_Int_Tables_number   1
_chemical_formula_structural   Rb4LuUBr12
_chemical_formula_sum   'Rb4 Lu1 U1 Br12'
_cell_volume   699.54391531
_cell_formula_units_Z   1
loop_
 _symmetry_equiv_pos_site_id
 _symmetry_equiv_pos_as_xyz
  1  'x, y, z'
loop_
 _atom_site_type_symbol
 _atom_site_label
 _atom_site_symmetry_multiplicity
 _atom_site_fract_x
 _atom_site_fract_y
 _atom_site_fract_z
 _atom_site_occupancy
  Rb  Rb0  1  0.500000  0.000000  0.800432  1
  Rb  Rb1  1  0.500000  0.000000  0.199568  1
  Rb  Rb2  1  0.000000  0.500000  0.199568  1
  Rb  Rb3  1  0.000000  0.500000  0.800432  1
  Lu  Lu4  1  0.000000  0.000000  0.000000  1
  U  U5  1  0.500000  0.500000  0.500000  1
  Br  Br6  1  0.750070  0.248988  0.000000  1
  Br  Br7  1  0.249930  0.751012  0.000000  1
  Br  Br8  1  0.500000  0.500000  0.264890  1
  Br  Br9  1  0.316705  0.205827  0.500000  1
  Br  Br10  1  0.248988  0.249930  0.000000  1
  Br  Br11  1  0.794173  0.316705  0.500000  1
  Br  Br12  1  0.000000  0.000000  0.236996  1
  Br  Br13  1  0.683295  0.794173  0.500000  1
  Br  Br14  1  0.205827  0.683295  0.500000  1
  Br  Br15  1  0.500000  0.500000  0.735110  1
  Br  Br16  1  0.751012  0.750070  0.000000  1
  Br  Br17  1  0.000000  0.000000  0.763004  1
