# generated using pymatgen
data_Th2(AlCu)5
_symmetry_space_group_name_H-M   'P 1'
_cell_length_a   4.13346300
_cell_length_b   5.36802500
_cell_length_c   9.14136700
_cell_angle_alpha   90.00000000
_cell_angle_beta   90.00000000
_cell_angle_gamma   90.00000000
_symmetry_Int_Tables_number   1
_chemical_formula_structural   Th2(AlCu)5
_chemical_formula_sum   'Th2 Al5 Cu5'
_cell_volume   202.83352079
_cell_formula_units_Z   1
loop_
 _symmetry_equiv_pos_site_id
 _symmetry_equiv_pos_as_xyz
  1  'x, y, z'
loop_
 _atom_site_type_symbol
 _atom_site_label
 _atom_site_symmetry_multiplicity
 _atom_site_fract_x
 _atom_site_fract_y
 _atom_site_fract_z
 _atom_site_occupancy
  Th  Th0  1  0.000000  0.998989  0.000000  1
  Th  Th1  1  0.000000  0.501309  0.500000  1
  Al  Al2  1  0.500000  0.499610  0.000000  1
  Al  Al3  1  0.500000  0.750316  0.259410  1
  Al  Al4  1  0.500000  0.249579  0.740611  1
  Al  Al5  1  0.500000  0.249579  0.259389  1
  Al  Al6  1  0.500000  0.750316  0.740590  1
  Cu  Cu7  1  0.000000  0.001918  0.337884  1
  Cu  Cu8  1  0.000000  0.498684  0.832815  1
  Cu  Cu9  1  0.000000  0.498684  0.167185  1
  Cu  Cu10  1  0.000000  0.001918  0.662116  1
  Cu  Cu11  1  0.500000  0.999301  0.500000  1
