# generated using pymatgen
data_YbMn2(CoAs)3
_symmetry_space_group_name_H-M   'P 1'
_cell_length_a   3.77064300
_cell_length_b   10.82157600
_cell_length_c   12.59162700
_cell_angle_alpha   90.00000000
_cell_angle_beta   90.00000000
_cell_angle_gamma   90.00000000
_symmetry_Int_Tables_number   1
_chemical_formula_structural   YbMn2(CoAs)3
_chemical_formula_sum   'Yb4 Mn8 Co12 As12'
_cell_volume   513.79252299
_cell_formula_units_Z   4
loop_
 _symmetry_equiv_pos_site_id
 _symmetry_equiv_pos_as_xyz
  1  'x, y, z'
loop_
 _atom_site_type_symbol
 _atom_site_label
 _atom_site_symmetry_multiplicity
 _atom_site_fract_x
 _atom_site_fract_y
 _atom_site_fract_z
 _atom_site_occupancy
  Yb  Yb0  1  0.250000  0.581387  0.711101  1
  Yb  Yb1  1  0.250000  0.918613  0.211101  1
  Yb  Yb2  1  0.750000  0.418613  0.288899  1
  Yb  Yb3  1  0.750000  0.081387  0.788899  1
  Mn  Mn4  1  0.250000  0.705304  0.989649  1
  Mn  Mn5  1  0.250000  0.794696  0.489649  1
  Mn  Mn6  1  0.750000  0.294696  0.010351  1
  Mn  Mn7  1  0.750000  0.205304  0.510351  1
  Mn  Mn8  1  0.250000  0.408267  0.489781  1
  Mn  Mn9  1  0.250000  0.091733  0.989781  1
  Mn  Mn10  1  0.750000  0.591733  0.510219  1
  Mn  Mn11  1  0.750000  0.908267  0.010219  1
  Co  Co12  1  0.250000  0.215628  0.174521  1
  Co  Co13  1  0.250000  0.284372  0.674521  1
  Co  Co14  1  0.750000  0.784372  0.825479  1
  Co  Co15  1  0.750000  0.715628  0.325479  1
  Co  Co16  1  0.250000  0.882175  0.693078  1
  Co  Co17  1  0.250000  0.617825  0.193078  1
  Co  Co18  1  0.750000  0.117825  0.306922  1
  Co  Co19  1  0.750000  0.382175  0.806922  1
  Co  Co20  1  0.250000  0.464575  0.934768  1
  Co  Co21  1  0.250000  0.035425  0.434768  1
  Co  Co22  1  0.750000  0.535425  0.065232  1
  Co  Co23  1  0.750000  0.964575  0.565232  1
  As  As24  1  0.250000  0.418257  0.114370  1
  As  As25  1  0.250000  0.081743  0.614370  1
  As  As26  1  0.750000  0.581743  0.885630  1
  As  As27  1  0.750000  0.918257  0.385630  1
  As  As28  1  0.250000  0.267103  0.862851  1
  As  As29  1  0.250000  0.232897  0.362851  1
  As  As30  1  0.750000  0.732897  0.137149  1
  As  As31  1  0.750000  0.767103  0.637149  1
  As  As32  1  0.250000  0.598154  0.379853  1
  As  As33  1  0.250000  0.901846  0.879853  1
  As  As34  1  0.750000  0.401846  0.620147  1
  As  As35  1  0.750000  0.098154  0.120147  1
