# generated using pymatgen
data_Nb12Al11Cu11Os2
_symmetry_space_group_name_H-M   'P 1'
_cell_length_a   8.68748007
_cell_length_b   8.70283330
_cell_length_c   8.15939600
_cell_angle_alpha   90.00000000
_cell_angle_beta   90.00000000
_cell_angle_gamma   120.31532970
_symmetry_Int_Tables_number   1
_chemical_formula_structural   Nb12Al11Cu11Os2
_chemical_formula_sum   'Nb12 Al11 Cu11 Os2'
_cell_volume   532.54263501
_cell_formula_units_Z   1
loop_
 _symmetry_equiv_pos_site_id
 _symmetry_equiv_pos_as_xyz
  1  'x, y, z'
loop_
 _atom_site_type_symbol
 _atom_site_label
 _atom_site_symmetry_multiplicity
 _atom_site_fract_x
 _atom_site_fract_y
 _atom_site_fract_z
 _atom_site_occupancy
  Nb  Nb0  1  0.327464  0.996299  0.065579  1
  Nb  Nb1  1  0.671870  0.001029  0.935244  1
  Nb  Nb2  1  0.999374  0.332420  0.065288  1
  Nb  Nb3  1  0.671870  0.001029  0.564756  1
  Nb  Nb4  1  0.999374  0.332420  0.434712  1
  Nb  Nb5  1  0.002559  0.668953  0.934044  1
  Nb  Nb6  1  0.327464  0.996299  0.434421  1
  Nb  Nb7  1  0.002559  0.668953  0.565956  1
  Nb  Nb8  1  0.668442  0.667786  0.065857  1
  Nb  Nb9  1  0.330289  0.329276  0.935190  1
  Nb  Nb10  1  0.330289  0.329276  0.564810  1
  Nb  Nb11  1  0.668442  0.667786  0.434143  1
  Al  Al12  1  0.158268  0.656812  0.250000  1
  Al  Al13  1  0.340083  0.666091  0.506684  1
  Al  Al14  1  0.666104  0.332399  0.499797  1
  Al  Al15  1  0.666104  0.332399  0.000203  1
  Al  Al16  1  0.340083  0.666091  0.993316  1
  Al  Al17  1  0.180052  0.999320  0.750000  1
  Al  Al18  1  0.817604  0.001725  0.250000  1
  Al  Al19  1  0.000964  0.182456  0.750000  1
  Al  Al20  1  0.992991  0.824295  0.250000  1
  Al  Al21  1  0.822351  0.817992  0.750000  1
  Al  Al22  1  0.179733  0.182658  0.250000  1
  Cu  Cu23  1  0.163327  0.499850  0.750000  1
  Cu  Cu24  1  0.835060  0.502802  0.250000  1
  Cu  Cu25  1  0.503854  0.663746  0.750000  1
  Cu  Cu26  1  0.499510  0.163303  0.750000  1
  Cu  Cu27  1  0.498038  0.334583  0.250000  1
  Cu  Cu28  1  0.496962  0.835894  0.250000  1
  Cu  Cu29  1  0.338902  0.838912  0.750000  1
  Cu  Cu30  1  0.663814  0.499465  0.750000  1
  Cu  Cu31  1  0.661902  0.162923  0.250000  1
  Cu  Cu32  1  0.337995  0.501612  0.250000  1
  Cu  Cu33  1  0.836949  0.336402  0.750000  1
  Os  Os34  1  0.999677  0.003371  0.500811  1
  Os  Os35  1  0.999677  0.003371  0.999189  1
