# generated using pymatgen
data_Pr3HgPt2(RhO7)2
_symmetry_space_group_name_H-M   'P 1'
_cell_length_a   7.51521677
_cell_length_b   7.51521573
_cell_length_c   7.31089719
_cell_angle_alpha   59.10287214
_cell_angle_beta   59.10286650
_cell_angle_gamma   59.92585629
_symmetry_Int_Tables_number   1
_chemical_formula_structural   Pr3HgPt2(RhO7)2
_chemical_formula_sum   'Pr3 Hg1 Pt2 Rh2 O14'
_cell_volume   287.79111413
_cell_formula_units_Z   1
loop_
 _symmetry_equiv_pos_site_id
 _symmetry_equiv_pos_as_xyz
  1  'x, y, z'
loop_
 _atom_site_type_symbol
 _atom_site_label
 _atom_site_symmetry_multiplicity
 _atom_site_fract_x
 _atom_site_fract_y
 _atom_site_fract_z
 _atom_site_occupancy
  Pr  Pr0  1  0.125000  0.125000  0.125000  1
  Pr  Pr1  1  0.625000  0.125000  0.125000  1
  Pr  Pr2  1  0.125000  0.625000  0.125000  1
  Hg  Hg3  1  0.125000  0.125000  0.625000  1
  Pt  Pt4  1  0.625000  0.625000  0.125000  1
  Pt  Pt5  1  0.625000  0.625000  0.625000  1
  Rh  Rh6  1  0.625000  0.125000  0.625000  1
  Rh  Rh7  1  0.125000  0.625000  0.625000  1
  O  O8  1  0.710482  0.292220  0.286649  1
  O  O9  1  0.691747  0.300569  0.706229  1
  O  O10  1  0.006613  0.006613  0.980847  1
  O  O11  1  0.292220  0.710482  0.286649  1
  O  O12  1  0.712634  0.712634  0.284135  1
  O  O13  1  0.949431  0.558253  0.543771  1
  O  O14  1  0.300569  0.691747  0.706229  1
  O  O15  1  0.243387  0.243387  0.269153  1
  O  O16  1  0.957780  0.539518  0.963351  1
  O  O17  1  0.558253  0.949431  0.543771  1
  O  O18  1  0.537366  0.537366  0.965865  1
  O  O19  1  0.946037  0.946037  0.547049  1
  O  O20  1  0.539518  0.957780  0.963351  1
  O  O21  1  0.303963  0.303963  0.702951  1
