# generated using pymatgen
data_Ti3GaPtO
_symmetry_space_group_name_H-M   'P 1'
_cell_length_a   6.88066700
_cell_length_b   6.88066700
_cell_length_c   6.88066700
_cell_angle_alpha   90.00000000
_cell_angle_beta   90.00000000
_cell_angle_gamma   90.00000000
_symmetry_Int_Tables_number   1
_chemical_formula_structural   Ti3GaPtO
_chemical_formula_sum   'Ti12 Ga4 Pt4 O4'
_cell_volume   325.75539732
_cell_formula_units_Z   4
loop_
 _symmetry_equiv_pos_site_id
 _symmetry_equiv_pos_as_xyz
  1  'x, y, z'
loop_
 _atom_site_type_symbol
 _atom_site_label
 _atom_site_symmetry_multiplicity
 _atom_site_fract_x
 _atom_site_fract_y
 _atom_site_fract_z
 _atom_site_occupancy
  Ti  Ti0  1  0.793106  0.957948  0.372530  1
  Ti  Ti1  1  0.706894  0.042052  0.872530  1
  Ti  Ti2  1  0.206894  0.457948  0.127470  1
  Ti  Ti3  1  0.293106  0.542052  0.627470  1
  Ti  Ti4  1  0.957948  0.372530  0.793106  1
  Ti  Ti5  1  0.042052  0.872530  0.706894  1
  Ti  Ti6  1  0.457948  0.127470  0.206894  1
  Ti  Ti7  1  0.542052  0.627470  0.293106  1
  Ti  Ti8  1  0.372530  0.793106  0.957948  1
  Ti  Ti9  1  0.872530  0.706894  0.042052  1
  Ti  Ti10  1  0.127470  0.206894  0.457948  1
  Ti  Ti11  1  0.627470  0.293106  0.542052  1
  Ga  Ga12  1  0.182061  0.817939  0.317939  1
  Ga  Ga13  1  0.317939  0.182061  0.817939  1
  Ga  Ga14  1  0.817939  0.317939  0.182061  1
  Ga  Ga15  1  0.682061  0.682061  0.682061  1
  Pt  Pt16  1  0.569546  0.430454  0.930454  1
  Pt  Pt17  1  0.430454  0.930454  0.569546  1
  Pt  Pt18  1  0.930454  0.569546  0.430454  1
  Pt  Pt19  1  0.069546  0.069546  0.069546  1
  O  O20  1  0.876415  0.123585  0.623585  1
  O  O21  1  0.623585  0.876415  0.123585  1
  O  O22  1  0.123585  0.623585  0.876415  1
  O  O23  1  0.376415  0.376415  0.376415  1
