# generated using pymatgen
data_Er19Lu(Bi2Os)4
_symmetry_space_group_name_H-M   'P 1'
_cell_length_a   7.89274950
_cell_length_b   8.98627547
_cell_length_c   12.42627675
_cell_angle_alpha   89.97463744
_cell_angle_beta   90.03050474
_cell_angle_gamma   89.97296677
_symmetry_Int_Tables_number   1
_chemical_formula_structural   Er19Lu(Bi2Os)4
_chemical_formula_sum   'Er19 Lu1 Bi8 Os4'
_cell_volume   881.35102913
_cell_formula_units_Z   1
loop_
 _symmetry_equiv_pos_site_id
 _symmetry_equiv_pos_as_xyz
  1  'x, y, z'
loop_
 _atom_site_type_symbol
 _atom_site_label
 _atom_site_symmetry_multiplicity
 _atom_site_fract_x
 _atom_site_fract_y
 _atom_site_fract_z
 _atom_site_occupancy
  Er  Er0  1  0.663087  0.750007  0.709418  1
  Er  Er1  1  0.337237  0.250068  0.291079  1
  Er  Er2  1  0.162405  0.250383  0.791155  1
  Er  Er3  1  0.837283  0.749919  0.208730  1
  Er  Er4  1  0.126086  0.749485  0.811011  1
  Er  Er5  1  0.872868  0.250797  0.188596  1
  Er  Er6  1  0.626457  0.249987  0.689181  1
  Er  Er7  1  0.373492  0.749995  0.311018  1
  Er  Er8  1  0.558700  0.749060  0.995255  1
  Er  Er9  1  0.442243  0.250515  0.004468  1
  Er  Er10  1  0.057936  0.250129  0.504574  1
  Er  Er11  1  0.941796  0.750058  0.495671  1
  Er  Er12  1  0.171519  0.541793  0.065410  1
  Er  Er13  1  0.328009  0.542128  0.565951  1
  Er  Er14  1  0.172130  0.958262  0.065495  1
  Er  Er15  1  0.672080  0.458086  0.434440  1
  Er  Er16  1  0.827630  0.041882  0.934171  1
  Er  Er17  1  0.672247  0.041938  0.434443  1
  Er  Er18  1  0.327922  0.958009  0.565870  1
  Lu  Lu19  1  0.830370  0.457764  0.934148  1
  Bi  Bi20  1  0.936002  0.006312  0.672391  1
  Bi  Bi21  1  0.063806  0.993948  0.327513  1
  Bi  Bi22  1  0.435649  0.993673  0.827872  1
  Bi  Bi23  1  0.064002  0.506282  0.327682  1
  Bi  Bi24  1  0.564113  0.006278  0.172086  1
  Bi  Bi25  1  0.935699  0.493640  0.672385  1
  Bi  Bi26  1  0.563555  0.493867  0.172515  1
  Bi  Bi27  1  0.437181  0.505892  0.827983  1
  Os  Os28  1  0.924451  0.749368  0.991063  1
  Os  Os29  1  0.073886  0.250545  0.008370  1
  Os  Os30  1  0.424818  0.250024  0.508640  1
  Os  Os31  1  0.575344  0.749906  0.491417  1
