# generated using pymatgen
data_Nd6In2C
_symmetry_space_group_name_H-M   'P 1'
_cell_length_a   7.16119220
_cell_length_b   7.16119219
_cell_length_c   7.16119300
_cell_angle_alpha   60.00001010
_cell_angle_beta   60.00001016
_cell_angle_gamma   60.00001738
_symmetry_Int_Tables_number   1
_chemical_formula_structural   Nd6In2C
_chemical_formula_sum   'Nd6 In2 C1'
_cell_volume   259.68159091
_cell_formula_units_Z   1
loop_
 _symmetry_equiv_pos_site_id
 _symmetry_equiv_pos_as_xyz
  1  'x, y, z'
loop_
 _atom_site_type_symbol
 _atom_site_label
 _atom_site_symmetry_multiplicity
 _atom_site_fract_x
 _atom_site_fract_y
 _atom_site_fract_z
 _atom_site_occupancy
  Nd  Nd0  1  0.754644  0.754644  0.245355  1
  Nd  Nd1  1  0.754643  0.245356  0.245355  1
  Nd  Nd2  1  0.245356  0.754643  0.245355  1
  Nd  Nd3  1  0.245356  0.245356  0.754643  1
  Nd  Nd4  1  0.754645  0.245354  0.754645  1
  Nd  Nd5  1  0.245354  0.754645  0.754645  1
  In  In6  1  0.250000  0.250000  0.250000  1
  In  In7  1  0.749999  0.749999  0.749999  1
  C  C8  1  0.000000  0.000000  0.000000  1
