# generated using pymatgen
data_La2Ti3As7Rh9
_symmetry_space_group_name_H-M   'P 1'
_cell_length_a   10.06265400
_cell_length_b   10.06265314
_cell_length_c   3.99971200
_cell_angle_alpha   90.00000000
_cell_angle_beta   90.00000000
_cell_angle_gamma   120.00000283
_symmetry_Int_Tables_number   1
_chemical_formula_structural   La2Ti3As7Rh9
_chemical_formula_sum   'La2 Ti3 As7 Rh9'
_cell_volume   350.73926134
_cell_formula_units_Z   1
loop_
 _symmetry_equiv_pos_site_id
 _symmetry_equiv_pos_as_xyz
  1  'x, y, z'
loop_
 _atom_site_type_symbol
 _atom_site_label
 _atom_site_symmetry_multiplicity
 _atom_site_fract_x
 _atom_site_fract_y
 _atom_site_fract_z
 _atom_site_occupancy
  La  La0  1  0.000000  0.000000  0.763403  1
  La  La1  1  0.333333  0.666667  0.263150  1
  Ti  Ti2  1  0.782230  0.551683  0.764962  1
  Ti  Ti3  1  0.448317  0.230546  0.764962  1
  Ti  Ti4  1  0.769454  0.217770  0.764962  1
  As  As5  1  0.666667  0.333333  0.266855  1
  As  As6  1  0.072400  0.623612  0.763380  1
  As  As7  1  0.376388  0.448787  0.763380  1
  As  As8  1  0.551213  0.927600  0.763380  1
  As  As9  1  0.254326  0.035279  0.263597  1
  As  As10  1  0.964721  0.219046  0.263597  1
  As  As11  1  0.780954  0.745674  0.263597  1
  Rh  Rh12  1  0.508881  0.058306  0.263277  1
  Rh  Rh13  1  0.941694  0.450575  0.263277  1
  Rh  Rh14  1  0.549425  0.491119  0.263277  1
  Rh  Rh15  1  0.101411  0.381581  0.763445  1
  Rh  Rh16  1  0.618419  0.719831  0.763445  1
  Rh  Rh17  1  0.280169  0.898589  0.763445  1
  Rh  Rh18  1  0.232845  0.268582  0.263515  1
  Rh  Rh19  1  0.731418  0.964263  0.263515  1
  Rh  Rh20  1  0.035737  0.767155  0.263515  1
