# generated using pymatgen
data_SmU3(PO5)4
_symmetry_space_group_name_H-M   'P 1'
_cell_length_a   5.55272532
_cell_length_b   8.86310520
_cell_length_c   9.30752605
_cell_angle_alpha   101.27223569
_cell_angle_beta   103.54798586
_cell_angle_gamma   98.11388526
_symmetry_Int_Tables_number   1
_chemical_formula_structural   SmU3(PO5)4
_chemical_formula_sum   'Sm1 U3 P4 O20'
_cell_volume   428.25125953
_cell_formula_units_Z   1
loop_
 _symmetry_equiv_pos_site_id
 _symmetry_equiv_pos_as_xyz
  1  'x, y, z'
loop_
 _atom_site_type_symbol
 _atom_site_label
 _atom_site_symmetry_multiplicity
 _atom_site_fract_x
 _atom_site_fract_y
 _atom_site_fract_z
 _atom_site_occupancy
  Sm  Sm0  1  0.352409  0.296223  0.046565  1
  U  U1  1  0.649947  0.704058  0.953303  1
  U  U2  1  0.334752  0.801643  0.551846  1
  U  U3  1  0.661580  0.197847  0.446808  1
  P  P4  1  0.089369  0.519728  0.765976  1
  P  P5  1  0.909691  0.489283  0.239238  1
  P  P6  1  0.284690  0.919855  0.177389  1
  P  P7  1  0.728046  0.075685  0.821849  1
  O  O8  1  0.010546  0.127716  0.886080  1
  O  O9  1  0.000206  0.850214  0.099324  1
  O  O10  1  0.968311  0.379934  0.633543  1
  O  O11  1  0.016925  0.630849  0.374181  1
  O  O12  1  0.718160  0.365075  0.275103  1
  O  O13  1  0.269391  0.649441  0.729658  1
  O  O14  1  0.435128  0.815800  0.088541  1
  O  O15  1  0.579889  0.178454  0.901965  1
  O  O16  1  0.428615  0.300661  0.498976  1
  O  O17  1  0.562810  0.689694  0.505898  1
  O  O18  1  0.876449  0.591962  0.825459  1
  O  O19  1  0.109947  0.419539  0.178795  1
  O  O20  1  0.279255  0.483081  0.899962  1
  O  O21  1  0.728398  0.544550  0.104342  1
  O  O22  1  0.883824  0.092614  0.383385  1
  O  O23  1  0.114468  0.912182  0.610686  1
  O  O24  1  0.358711  0.919637  0.346851  1
  O  O25  1  0.641614  0.055821  0.644849  1
  O  O26  1  0.362831  0.092110  0.175854  1
  O  O27  1  0.644036  0.896340  0.833574  1
