# generated using pymatgen
data_GaPtRhO6
_symmetry_space_group_name_H-M   'P 1'
_cell_length_a   4.56035900
_cell_length_b   4.56035900
_cell_length_c   9.37253300
_cell_angle_alpha   90.00000000
_cell_angle_beta   90.00000000
_cell_angle_gamma   90.00000000
_symmetry_Int_Tables_number   1
_chemical_formula_structural   GaPtRhO6
_chemical_formula_sum   'Ga2 Pt2 Rh2 O12'
_cell_volume   194.91938982
_cell_formula_units_Z   2
loop_
 _symmetry_equiv_pos_site_id
 _symmetry_equiv_pos_as_xyz
  1  'x, y, z'
loop_
 _atom_site_type_symbol
 _atom_site_label
 _atom_site_symmetry_multiplicity
 _atom_site_fract_x
 _atom_site_fract_y
 _atom_site_fract_z
 _atom_site_occupancy
  Ga  Ga0  1  0.500000  0.500000  0.166011  1
  Ga  Ga1  1  0.000000  0.000000  0.666011  1
  Pt  Pt2  1  0.500000  0.500000  0.498803  1
  Pt  Pt3  1  0.000000  0.000000  0.998803  1
  Rh  Rh4  1  0.500000  0.500000  0.834790  1
  Rh  Rh5  1  0.000000  0.000000  0.334790  1
  O  O6  1  0.191809  0.808191  0.501714  1
  O  O7  1  0.808191  0.191809  0.501714  1
  O  O8  1  0.308191  0.308191  0.001714  1
  O  O9  1  0.691809  0.691809  0.001714  1
  O  O10  1  0.192847  0.807153  0.167528  1
  O  O11  1  0.807153  0.192847  0.167528  1
  O  O12  1  0.307153  0.307153  0.667528  1
  O  O13  1  0.692847  0.692847  0.667528  1
  O  O14  1  0.806355  0.193645  0.830957  1
  O  O15  1  0.193645  0.806355  0.830957  1
  O  O16  1  0.693645  0.693645  0.330957  1
  O  O17  1  0.306355  0.306355  0.330957  1
