# generated using pymatgen
data_Y4HoEr3(ReB6)4
_symmetry_space_group_name_H-M   'P 1'
_cell_length_a   3.67182300
_cell_length_b   9.15702400
_cell_length_c   11.54505900
_cell_angle_alpha   90.00284467
_cell_angle_beta   90.00000000
_cell_angle_gamma   90.00000000
_symmetry_Int_Tables_number   1
_chemical_formula_structural   Y4HoEr3(ReB6)4
_chemical_formula_sum   'Y4 Ho1 Er3 Re4 B24'
_cell_volume   388.17918758
_cell_formula_units_Z   1
loop_
 _symmetry_equiv_pos_site_id
 _symmetry_equiv_pos_as_xyz
  1  'x, y, z'
loop_
 _atom_site_type_symbol
 _atom_site_label
 _atom_site_symmetry_multiplicity
 _atom_site_fract_x
 _atom_site_fract_y
 _atom_site_fract_z
 _atom_site_occupancy
  Y  Y0  1  0.000000  0.323309  0.413915  1
  Y  Y1  1  0.000000  0.676649  0.586166  1
  Y  Y2  1  0.000000  0.823253  0.086022  1
  Y  Y3  1  0.000000  0.176750  0.913867  1
  Ho  Ho4  1  0.000000  0.943349  0.370190  1
  Er  Er5  1  0.000000  0.056777  0.630095  1
  Er  Er6  1  0.000000  0.443307  0.129816  1
  Er  Er7  1  0.000000  0.556690  0.870104  1
  Re  Re8  1  0.000000  0.638688  0.320197  1
  Re  Re9  1  0.000000  0.360911  0.679836  1
  Re  Re10  1  0.000000  0.139389  0.179507  1
  Re  Re11  1  0.000000  0.860851  0.820293  1
  B  B12  1  0.500000  0.553407  0.432642  1
  B  B13  1  0.500000  0.446462  0.567418  1
  B  B14  1  0.500000  0.053539  0.067306  1
  B  B15  1  0.500000  0.946486  0.932596  1
  B  B16  1  0.500000  0.749345  0.418364  1
  B  B17  1  0.500000  0.250277  0.581669  1
  B  B18  1  0.500000  0.249824  0.081592  1
  B  B19  1  0.500000  0.750242  0.918363  1
  B  B20  1  0.500000  0.792128  0.265592  1
  B  B21  1  0.500000  0.207574  0.734326  1
  B  B22  1  0.500000  0.292593  0.234267  1
  B  B23  1  0.500000  0.707536  0.765703  1
  B  B24  1  0.500000  0.630456  0.185452  1
  B  B25  1  0.500000  0.369469  0.814481  1
  B  B26  1  0.500000  0.130861  0.314281  1
  B  B27  1  0.500000  0.869439  0.685570  1
  B  B28  1  0.500000  0.982544  0.212102  1
  B  B29  1  0.500000  0.017643  0.787686  1
  B  B30  1  0.500000  0.482245  0.287618  1
  B  B31  1  0.500000  0.517670  0.712347  1
  B  B32  1  0.500000  0.599146  0.027688  1
  B  B33  1  0.500000  0.400872  0.972283  1
  B  B34  1  0.500000  0.099596  0.472554  1
  B  B35  1  0.500000  0.900723  0.528090  1
