# generated using pymatgen
data_Tb3Y3TcPd
_symmetry_space_group_name_H-M   'P 1'
_cell_length_a   6.40995146
_cell_length_b   7.40331756
_cell_length_c   9.29896770
_cell_angle_alpha   89.97480610
_cell_angle_beta   90.09953021
_cell_angle_gamma   90.12626250
_symmetry_Int_Tables_number   1
_chemical_formula_structural   Tb3Y3TcPd
_chemical_formula_sum   'Tb6 Y6 Tc2 Pd2'
_cell_volume   441.27986103
_cell_formula_units_Z   2
loop_
 _symmetry_equiv_pos_site_id
 _symmetry_equiv_pos_as_xyz
  1  'x, y, z'
loop_
 _atom_site_type_symbol
 _atom_site_label
 _atom_site_symmetry_multiplicity
 _atom_site_fract_x
 _atom_site_fract_y
 _atom_site_fract_z
 _atom_site_occupancy
  Tb  Tb0  1  0.629201  0.040280  0.250097  1
  Tb  Tb1  1  0.370214  0.959763  0.750149  1
  Tb  Tb2  1  0.177037  0.185945  0.064543  1
  Tb  Tb3  1  0.823027  0.814627  0.935749  1
  Tb  Tb4  1  0.661711  0.326038  0.940078  1
  Tb  Tb5  1  0.823041  0.814376  0.564677  1
  Y  Y6  1  0.123918  0.470558  0.750051  1
  Y  Y7  1  0.875918  0.530120  0.249980  1
  Y  Y8  1  0.338613  0.673809  0.059672  1
  Y  Y9  1  0.176504  0.185869  0.435672  1
  Y  Y10  1  0.338357  0.673478  0.440486  1
  Y  Y11  1  0.661931  0.326282  0.559197  1
  Tc  Tc12  1  0.465733  0.380427  0.249505  1
  Tc  Tc13  1  0.535907  0.618727  0.750471  1
  Pd  Pd14  1  0.947197  0.112091  0.750027  1
  Pd  Pd15  1  0.051691  0.887609  0.249646  1
