# generated using pymatgen
data_Tm4Ga4Tc3Mo
_symmetry_space_group_name_H-M   'P 1'
_cell_length_a   5.45088152
_cell_length_b   5.47104473
_cell_length_c   8.66259800
_cell_angle_alpha   90.00000000
_cell_angle_beta   90.00000000
_cell_angle_gamma   119.84808963
_symmetry_Int_Tables_number   1
_chemical_formula_structural   Tm4Ga4Tc3Mo
_chemical_formula_sum   'Tm4 Ga4 Tc3 Mo1'
_cell_volume   224.06734238
_cell_formula_units_Z   1
loop_
 _symmetry_equiv_pos_site_id
 _symmetry_equiv_pos_as_xyz
  1  'x, y, z'
loop_
 _atom_site_type_symbol
 _atom_site_label
 _atom_site_symmetry_multiplicity
 _atom_site_fract_x
 _atom_site_fract_y
 _atom_site_fract_z
 _atom_site_occupancy
  Tm  Tm0  1  0.329734  0.668403  0.441964  1
  Tm  Tm1  1  0.662132  0.331637  0.560089  1
  Tm  Tm2  1  0.662132  0.331637  0.939911  1
  Tm  Tm3  1  0.329734  0.668403  0.058036  1
  Ga  Ga4  1  0.840166  0.654539  0.250000  1
  Ga  Ga5  1  0.339377  0.156926  0.250000  1
  Ga  Ga6  1  0.182752  0.841819  0.750000  1
  Ga  Ga7  1  0.187446  0.346777  0.750000  1
  Tc  Tc8  1  0.975191  0.000500  0.499609  1
  Tc  Tc9  1  0.975191  0.000500  0.000391  1
  Tc  Tc10  1  0.679020  0.843912  0.750000  1
  Mo  Mo11  1  0.837129  0.154946  0.250000  1
