# generated using pymatgen
data_Li4Nd2HoPb4
_symmetry_space_group_name_H-M   'P 1'
_cell_length_a   4.77987403
_cell_length_b   7.14596723
_cell_length_c   8.89939620
_cell_angle_alpha   113.67110651
_cell_angle_beta   105.57803197
_cell_angle_gamma   90.00000788
_symmetry_Int_Tables_number   1
_chemical_formula_structural   Li4Nd2HoPb4
_chemical_formula_sum   'Li4 Nd2 Ho1 Pb4'
_cell_volume   266.16307373
_cell_formula_units_Z   1
loop_
 _symmetry_equiv_pos_site_id
 _symmetry_equiv_pos_as_xyz
  1  'x, y, z'
loop_
 _atom_site_type_symbol
 _atom_site_label
 _atom_site_symmetry_multiplicity
 _atom_site_fract_x
 _atom_site_fract_y
 _atom_site_fract_z
 _atom_site_occupancy
  Li  Li0  1  0.672579  0.982377  0.345160  1
  Li  Li1  1  0.327421  0.017623  0.654840  1
  Li  Li2  1  0.327421  0.637217  0.654840  1
  Li  Li3  1  0.672579  0.362783  0.345160  1
  Nd  Nd4  1  0.129151  0.629151  0.258303  1
  Nd  Nd5  1  0.870849  0.370849  0.741697  1
  Ho  Ho6  1  0.000000  0.000000  0.000000  1
  Pb  Pb7  1  0.500000  0.711288  0.000000  1
  Pb  Pb8  1  0.500000  0.288712  0.000000  1
  Pb  Pb9  1  0.789004  0.789004  0.578008  1
  Pb  Pb10  1  0.210996  0.210996  0.421992  1
