# generated using pymatgen
data_YEr19Si15Rh
_symmetry_space_group_name_H-M   'P 1'
_cell_length_a   7.37412981
_cell_length_b   7.61582429
_cell_length_c   14.45330709
_cell_angle_alpha   90.29128565
_cell_angle_beta   90.34364148
_cell_angle_gamma   90.18966471
_symmetry_Int_Tables_number   1
_chemical_formula_structural   YEr19Si15Rh
_chemical_formula_sum   'Y1 Er19 Si15 Rh1'
_cell_volume   811.66921988
_cell_formula_units_Z   1
loop_
 _symmetry_equiv_pos_site_id
 _symmetry_equiv_pos_as_xyz
  1  'x, y, z'
loop_
 _atom_site_type_symbol
 _atom_site_label
 _atom_site_symmetry_multiplicity
 _atom_site_fract_x
 _atom_site_fract_y
 _atom_site_fract_z
 _atom_site_occupancy
  Y  Y0  1  0.024913  0.818696  0.599373  1
  Er  Er1  1  0.525539  0.683557  0.597789  1
  Er  Er2  1  0.321355  0.818960  0.121875  1
  Er  Er3  1  0.816826  0.679994  0.122535  1
  Er  Er4  1  0.851463  0.506177  0.749348  1
  Er  Er5  1  0.471322  0.315986  0.099542  1
  Er  Er6  1  0.028158  0.818262  0.901645  1
  Er  Er7  1  0.472144  0.316066  0.401698  1
  Er  Er8  1  0.652685  0.012148  0.257665  1
  Er  Er9  1  0.529523  0.682491  0.900556  1
  Er  Er10  1  0.681191  0.179786  0.877604  1
  Er  Er11  1  0.178150  0.321119  0.623861  1
  Er  Er12  1  0.184220  0.322775  0.875702  1
  Er  Er13  1  0.816367  0.688164  0.382132  1
  Er  Er14  1  0.323377  0.825150  0.377803  1
  Er  Er15  1  0.352617  0.990679  0.747623  1
  Er  Er16  1  0.683074  0.165226  0.618186  1
  Er  Er17  1  0.147273  0.490321  0.252123  1
  Er  Er18  1  0.971336  0.181196  0.098276  1
  Er  Er19  1  0.971702  0.177180  0.401263  1
  Si  Si20  1  0.233690  0.628872  0.751038  1
  Si  Si21  1  0.343542  0.028874  0.540923  1
  Si  Si22  1  0.027046  0.892900  0.246644  1
  Si  Si23  1  0.733525  0.869431  0.752325  1
  Si  Si24  1  0.265759  0.128423  0.246216  1
  Si  Si25  1  0.850945  0.471267  0.541721  1
  Si  Si26  1  0.481387  0.391907  0.748705  1
  Si  Si27  1  0.148232  0.531014  0.461333  1
  Si  Si28  1  0.147349  0.528036  0.039938  1
  Si  Si29  1  0.977752  0.104387  0.751962  1
  Si  Si30  1  0.768403  0.375805  0.248851  1
  Si  Si31  1  0.350936  0.029936  0.959911  1
  Si  Si32  1  0.856068  0.471371  0.959237  1
  Si  Si33  1  0.646792  0.970901  0.039205  1
  Si  Si34  1  0.521871  0.603322  0.248467  1
  Rh  Rh35  1  0.643471  0.979619  0.456925  1
