# generated using pymatgen
data_TbTh2CoSn3Ir2
_symmetry_space_group_name_H-M   'P 1'
_cell_length_a   7.54561410
_cell_length_b   7.54561317
_cell_length_c   4.01527100
_cell_angle_alpha   90.00000000
_cell_angle_beta   90.00000000
_cell_angle_gamma   120.22984112
_symmetry_Int_Tables_number   1
_chemical_formula_structural   TbTh2CoSn3Ir2
_chemical_formula_sum   'Tb1 Th2 Co1 Sn3 Ir2'
_cell_volume   197.52593010
_cell_formula_units_Z   1
loop_
 _symmetry_equiv_pos_site_id
 _symmetry_equiv_pos_as_xyz
  1  'x, y, z'
loop_
 _atom_site_type_symbol
 _atom_site_label
 _atom_site_symmetry_multiplicity
 _atom_site_fract_x
 _atom_site_fract_y
 _atom_site_fract_z
 _atom_site_occupancy
  Tb  Tb0  1  0.406131  0.406131  0.000000  1
  Th  Th1  1  0.589868  0.000287  0.000000  1
  Th  Th2  1  0.000287  0.589868  0.000000  1
  Co  Co3  1  0.993620  0.993620  0.000000  1
  Sn  Sn4  1  0.245880  0.009429  0.500000  1
  Sn  Sn5  1  0.009429  0.245880  0.500000  1
  Sn  Sn6  1  0.746290  0.746290  0.500000  1
  Ir  Ir7  1  0.331924  0.676569  0.500000  1
  Ir  Ir8  1  0.676569  0.331924  0.500000  1
