# generated using pymatgen
data_Tb2Nd2AlOs7
_symmetry_space_group_name_H-M   'P 1'
_cell_length_a   5.40542400
_cell_length_b   5.40542530
_cell_length_c   8.81346200
_cell_angle_alpha   90.00000000
_cell_angle_beta   90.00000000
_cell_angle_gamma   119.99999206
_symmetry_Int_Tables_number   1
_chemical_formula_structural   Tb2Nd2AlOs7
_chemical_formula_sum   'Tb2 Nd2 Al1 Os7'
_cell_volume   223.01641906
_cell_formula_units_Z   1
loop_
 _symmetry_equiv_pos_site_id
 _symmetry_equiv_pos_as_xyz
  1  'x, y, z'
loop_
 _atom_site_type_symbol
 _atom_site_label
 _atom_site_symmetry_multiplicity
 _atom_site_fract_x
 _atom_site_fract_y
 _atom_site_fract_z
 _atom_site_occupancy
  Tb  Tb0  1  0.666667  0.333333  0.935582  1
  Tb  Tb1  1  0.333333  0.666667  0.064418  1
  Nd  Nd2  1  0.333333  0.666667  0.427717  1
  Nd  Nd3  1  0.666667  0.333333  0.572283  1
  Al  Al4  1  0.000000  0.000000  0.500000  1
  Os  Os5  1  0.000000  0.000000  0.000000  1
  Os  Os6  1  0.828754  0.171246  0.246226  1
  Os  Os7  1  0.828754  0.657509  0.246226  1
  Os  Os8  1  0.342491  0.171246  0.246226  1
  Os  Os9  1  0.171246  0.828754  0.753774  1
  Os  Os10  1  0.171246  0.342491  0.753774  1
  Os  Os11  1  0.657509  0.828754  0.753774  1
