# generated using pymatgen
data_TbYb3(MnOs3)2
_symmetry_space_group_name_H-M   'P 1'
_cell_length_a   5.30583900
_cell_length_b   5.30583707
_cell_length_c   8.64637800
_cell_angle_alpha   90.00000000
_cell_angle_beta   90.00000000
_cell_angle_gamma   119.99999333
_symmetry_Int_Tables_number   1
_chemical_formula_structural   TbYb3(MnOs3)2
_chemical_formula_sum   'Tb1 Yb3 Mn2 Os6'
_cell_volume   210.80109195
_cell_formula_units_Z   1
loop_
 _symmetry_equiv_pos_site_id
 _symmetry_equiv_pos_as_xyz
  1  'x, y, z'
loop_
 _atom_site_type_symbol
 _atom_site_label
 _atom_site_symmetry_multiplicity
 _atom_site_fract_x
 _atom_site_fract_y
 _atom_site_fract_z
 _atom_site_occupancy
  Tb  Tb0  1  0.333333  0.666667  0.429547  1
  Yb  Yb1  1  0.666667  0.333333  0.571243  1
  Yb  Yb2  1  0.666667  0.333333  0.932415  1
  Yb  Yb3  1  0.333333  0.666667  0.062881  1
  Mn  Mn4  1  0.000000  0.000000  0.501552  1
  Mn  Mn5  1  0.000000  0.000000  0.001415  1
  Os  Os6  1  0.829909  0.170091  0.250811  1
  Os  Os7  1  0.829909  0.659818  0.250811  1
  Os  Os8  1  0.340182  0.170091  0.250811  1
  Os  Os9  1  0.169890  0.830110  0.749505  1
  Os  Os10  1  0.169890  0.339781  0.749505  1
  Os  Os11  1  0.660219  0.830110  0.749505  1
