# generated using pymatgen
data_TbYb3(Ga2Ag)4
_symmetry_space_group_name_H-M   'P 1'
_cell_length_a   4.34919800
_cell_length_b   7.00506553
_cell_length_c   10.43463559
_cell_angle_alpha   89.39294787
_cell_angle_beta   90.00000000
_cell_angle_gamma   90.00000000
_symmetry_Int_Tables_number   1
_chemical_formula_structural   TbYb3(Ga2Ag)4
_chemical_formula_sum   'Tb1 Yb3 Ga8 Ag4'
_cell_volume   317.88811586
_cell_formula_units_Z   1
loop_
 _symmetry_equiv_pos_site_id
 _symmetry_equiv_pos_as_xyz
  1  'x, y, z'
loop_
 _atom_site_type_symbol
 _atom_site_label
 _atom_site_symmetry_multiplicity
 _atom_site_fract_x
 _atom_site_fract_y
 _atom_site_fract_z
 _atom_site_occupancy
  Tb  Tb0  1  0.250000  0.280372  0.670773  1
  Yb  Yb1  1  0.250000  0.776318  0.828938  1
  Yb  Yb2  1  0.750000  0.223466  0.172583  1
  Yb  Yb3  1  0.750000  0.723957  0.327835  1
  Ga  Ga4  1  0.250000  0.927560  0.151634  1
  Ga  Ga5  1  0.750000  0.072511  0.847346  1
  Ga  Ga6  1  0.750000  0.574969  0.651990  1
  Ga  Ga7  1  0.250000  0.425343  0.350688  1
  Ga  Ga8  1  0.250000  0.701520  0.535046  1
  Ga  Ga9  1  0.750000  0.296653  0.464405  1
  Ga  Ga10  1  0.750000  0.800282  0.033988  1
  Ga  Ga11  1  0.250000  0.201346  0.965228  1
  Ag  Ag12  1  0.250000  0.541119  0.098912  1
  Ag  Ag13  1  0.750000  0.458736  0.902046  1
  Ag  Ag14  1  0.750000  0.956867  0.598720  1
  Ag  Ag15  1  0.250000  0.038981  0.399866  1
