# generated using pymatgen
data_K2GeSb3Au4
_symmetry_space_group_name_H-M   'P 1'
_cell_length_a   4.82192032
_cell_length_b   4.82262000
_cell_length_c   11.21425519
_cell_angle_alpha   90.00000000
_cell_angle_beta   90.04569229
_cell_angle_gamma   90.00000000
_symmetry_Int_Tables_number   1
_chemical_formula_structural   K2GeSb3Au4
_chemical_formula_sum   'K2 Ge1 Sb3 Au4'
_cell_volume   260.77945228
_cell_formula_units_Z   1
loop_
 _symmetry_equiv_pos_site_id
 _symmetry_equiv_pos_as_xyz
  1  'x, y, z'
loop_
 _atom_site_type_symbol
 _atom_site_label
 _atom_site_symmetry_multiplicity
 _atom_site_fract_x
 _atom_site_fract_y
 _atom_site_fract_z
 _atom_site_occupancy
  K  K0  1  0.253237  0.000000  0.753531  1
  K  K1  1  0.754448  0.500000  0.246441  1
  Ge  Ge2  1  0.758732  0.000000  0.499585  1
  Sb  Sb3  1  0.251081  0.000000  0.131614  1
  Sb  Sb4  1  0.751641  0.500000  0.868512  1
  Sb  Sb5  1  0.258316  0.500000  0.500266  1
  Au  Au6  1  0.258212  0.000000  0.376754  1
  Au  Au7  1  0.758370  0.500000  0.623294  1
  Au  Au8  1  0.250573  0.500000  0.999994  1
  Au  Au9  1  0.749388  0.000000  0.000010  1
