# generated using pymatgen
data_Pa2Co12Ge2P5
_symmetry_space_group_name_H-M   'P 1'
_cell_length_a   9.11479718
_cell_length_b   9.16380763
_cell_length_c   3.64144500
_cell_angle_alpha   90.00000000
_cell_angle_beta   90.00000000
_cell_angle_gamma   119.79499344
_symmetry_Int_Tables_number   1
_chemical_formula_structural   Pa2Co12Ge2P5
_chemical_formula_sum   'Pa2 Co12 Ge2 P5'
_cell_volume   263.94948286
_cell_formula_units_Z   1
loop_
 _symmetry_equiv_pos_site_id
 _symmetry_equiv_pos_as_xyz
  1  'x, y, z'
loop_
 _atom_site_type_symbol
 _atom_site_label
 _atom_site_symmetry_multiplicity
 _atom_site_fract_x
 _atom_site_fract_y
 _atom_site_fract_z
 _atom_site_occupancy
  Pa  Pa0  1  0.665374  0.338727  0.500000  1
  Pa  Pa1  1  0.333873  0.669692  0.000000  1
  Co  Co2  1  0.126453  0.841880  0.000000  1
  Co  Co3  1  0.382652  0.441215  0.500000  1
  Co  Co4  1  0.711391  0.857852  0.000000  1
  Co  Co5  1  0.550651  0.930419  0.500000  1
  Co  Co6  1  0.248946  0.115920  0.500000  1
  Co  Co7  1  0.859653  0.742732  0.500000  1
  Co  Co8  1  0.899884  0.136632  0.500000  1
  Co  Co9  1  0.944074  0.387662  0.000000  1
  Co  Co10  1  0.622327  0.552591  0.000000  1
  Co  Co11  1  0.433094  0.065711  0.000000  1
  Co  Co12  1  0.061742  0.621145  0.500000  1
  Co  Co13  1  0.159781  0.291440  0.000000  1
  Ge  Ge14  1  0.000048  0.003082  0.000000  1
  Ge  Ge15  1  0.712167  0.110222  0.000000  1
  P  P16  1  0.598832  0.703393  0.500000  1
  P  P17  1  0.893417  0.600749  0.000000  1
  P  P18  1  0.397464  0.290976  0.000000  1
  P  P19  1  0.290739  0.896088  0.500000  1
  P  P20  1  0.107435  0.401871  0.500000  1
