# generated using pymatgen
data_Hf16Co4Tc3Pt
_symmetry_space_group_name_H-M   'P 1'
_cell_length_a   8.62504144
_cell_length_b   8.62504203
_cell_length_c   8.62504192
_cell_angle_alpha   59.81263838
_cell_angle_beta   59.81263239
_cell_angle_gamma   59.81263557
_symmetry_Int_Tables_number   1
_chemical_formula_structural   Hf16Co4Tc3Pt
_chemical_formula_sum   'Hf16 Co4 Tc3 Pt1'
_cell_volume   451.77025453
_cell_formula_units_Z   1
loop_
 _symmetry_equiv_pos_site_id
 _symmetry_equiv_pos_as_xyz
  1  'x, y, z'
loop_
 _atom_site_type_symbol
 _atom_site_label
 _atom_site_symmetry_multiplicity
 _atom_site_fract_x
 _atom_site_fract_y
 _atom_site_fract_z
 _atom_site_occupancy
  Hf  Hf0  1  0.053710  0.649358  0.649358  1
  Hf  Hf1  1  0.649358  0.053710  0.649358  1
  Hf  Hf2  1  0.649358  0.649358  0.053710  1
  Hf  Hf3  1  0.647925  0.647925  0.647925  1
  Hf  Hf4  1  0.798262  0.798262  0.202242  1
  Hf  Hf5  1  0.199136  0.199136  0.803308  1
  Hf  Hf6  1  0.798262  0.202242  0.798262  1
  Hf  Hf7  1  0.199136  0.803308  0.199136  1
  Hf  Hf8  1  0.202242  0.798262  0.798262  1
  Hf  Hf9  1  0.803308  0.199136  0.199136  1
  Hf  Hf10  1  0.435620  0.435620  0.058626  1
  Hf  Hf11  1  0.065228  0.065228  0.435097  1
  Hf  Hf12  1  0.435620  0.058626  0.435620  1
  Hf  Hf13  1  0.065228  0.435097  0.065228  1
  Hf  Hf14  1  0.058626  0.435620  0.435620  1
  Hf  Hf15  1  0.435097  0.065228  0.065228  1
  Co  Co16  1  0.423383  0.859213  0.859213  1
  Co  Co17  1  0.859213  0.423383  0.859213  1
  Co  Co18  1  0.859213  0.859213  0.423383  1
  Co  Co19  1  0.859849  0.859849  0.859849  1
  Tc  Tc20  1  0.751600  0.416828  0.416828  1
  Tc  Tc21  1  0.416828  0.751600  0.416828  1
  Tc  Tc22  1  0.416828  0.416828  0.751600  1
  Pt  Pt23  1  0.416973  0.416973  0.416973  1
