# generated using pymatgen
data_Rb2AcCl5
_symmetry_space_group_name_H-M   'P 1'
_cell_length_a   8.49725700
_cell_length_b   9.24626900
_cell_length_c   13.74616100
_cell_angle_alpha   90.00000000
_cell_angle_beta   90.00000000
_cell_angle_gamma   90.00000000
_symmetry_Int_Tables_number   1
_chemical_formula_structural   Rb2AcCl5
_chemical_formula_sum   'Rb8 Ac4 Cl20'
_cell_volume   1080.00733252
_cell_formula_units_Z   4
loop_
 _symmetry_equiv_pos_site_id
 _symmetry_equiv_pos_as_xyz
  1  'x, y, z'
loop_
 _atom_site_type_symbol
 _atom_site_label
 _atom_site_symmetry_multiplicity
 _atom_site_fract_x
 _atom_site_fract_y
 _atom_site_fract_z
 _atom_site_occupancy
  Rb  Rb0  1  0.532914  0.498968  0.826307  1
  Rb  Rb1  1  0.467086  0.501032  0.173693  1
  Rb  Rb2  1  0.032914  0.501032  0.673693  1
  Rb  Rb3  1  0.467086  0.998968  0.173693  1
  Rb  Rb4  1  0.967086  0.498968  0.326307  1
  Rb  Rb5  1  0.532914  0.001032  0.826307  1
  Rb  Rb6  1  0.967086  0.001032  0.326307  1
  Rb  Rb7  1  0.032914  0.998968  0.673693  1
  Ac  Ac8  1  0.571465  0.750000  0.503431  1
  Ac  Ac9  1  0.428535  0.250000  0.496569  1
  Ac  Ac10  1  0.071465  0.250000  0.996569  1
  Ac  Ac11  1  0.928535  0.750000  0.003431  1
  Cl  Cl12  1  0.827817  0.750000  0.800129  1
  Cl  Cl13  1  0.172183  0.250000  0.199871  1
  Cl  Cl14  1  0.327817  0.250000  0.699871  1
  Cl  Cl15  1  0.672183  0.750000  0.300129  1
  Cl  Cl16  1  0.359672  0.750000  0.670333  1
  Cl  Cl17  1  0.640328  0.250000  0.329667  1
  Cl  Cl18  1  0.859672  0.250000  0.829667  1
  Cl  Cl19  1  0.140328  0.750000  0.170333  1
  Cl  Cl20  1  0.915598  0.750000  0.511382  1
  Cl  Cl21  1  0.084402  0.250000  0.488618  1
  Cl  Cl22  1  0.415598  0.250000  0.988618  1
  Cl  Cl23  1  0.584402  0.750000  0.011382  1
  Cl  Cl24  1  0.655178  0.038769  0.583799  1
  Cl  Cl25  1  0.344822  0.961231  0.416201  1
  Cl  Cl26  1  0.155178  0.961231  0.916201  1
  Cl  Cl27  1  0.344822  0.538769  0.416201  1
  Cl  Cl28  1  0.844822  0.038769  0.083799  1
  Cl  Cl29  1  0.655178  0.461231  0.583799  1
  Cl  Cl30  1  0.844822  0.461231  0.083799  1
  Cl  Cl31  1  0.155178  0.538769  0.916201  1
