# generated using pymatgen
data_Dy18SnHgIr12
_symmetry_space_group_name_H-M   'P 1'
_cell_length_a   10.83639800
_cell_length_b   10.83639800
_cell_length_c   6.29595300
_cell_angle_alpha   90.00000000
_cell_angle_beta   90.00000000
_cell_angle_gamma   90.00000000
_symmetry_Int_Tables_number   1
_chemical_formula_structural   Dy18SnHgIr12
_chemical_formula_sum   'Dy18 Sn1 Hg1 Ir12'
_cell_volume   739.31815699
_cell_formula_units_Z   1
loop_
 _symmetry_equiv_pos_site_id
 _symmetry_equiv_pos_as_xyz
  1  'x, y, z'
loop_
 _atom_site_type_symbol
 _atom_site_label
 _atom_site_symmetry_multiplicity
 _atom_site_fract_x
 _atom_site_fract_y
 _atom_site_fract_z
 _atom_site_occupancy
  Dy  Dy0  1  0.285854  0.085741  0.381534  1
  Dy  Dy1  1  0.292978  0.912247  0.879329  1
  Dy  Dy2  1  0.707022  0.087753  0.879329  1
  Dy  Dy3  1  0.714146  0.914259  0.381534  1
  Dy  Dy4  1  0.584144  0.781791  0.881100  1
  Dy  Dy5  1  0.588786  0.207154  0.378507  1
  Dy  Dy6  1  0.411214  0.792846  0.378507  1
  Dy  Dy7  1  0.415856  0.218209  0.881100  1
  Dy  Dy8  1  0.207154  0.411214  0.621493  1
  Dy  Dy9  1  0.218209  0.584144  0.118900  1
  Dy  Dy10  1  0.781791  0.415856  0.118900  1
  Dy  Dy11  1  0.792846  0.588786  0.621493  1
  Dy  Dy12  1  0.912247  0.707022  0.120671  1
  Dy  Dy13  1  0.914259  0.285854  0.618466  1
  Dy  Dy14  1  0.085741  0.714146  0.618466  1
  Dy  Dy15  1  0.087753  0.292978  0.120671  1
  Dy  Dy16  1  0.000000  0.000000  0.000000  1
  Dy  Dy17  1  0.500000  0.500000  0.500000  1
  Sn  Sn18  1  0.000000  0.000000  0.500000  1
  Hg  Hg19  1  0.500000  0.500000  0.000000  1
  Ir  Ir20  1  0.847913  0.157148  0.243149  1
  Ir  Ir21  1  0.842852  0.847913  0.756851  1
  Ir  Ir22  1  0.157148  0.152087  0.756851  1
  Ir  Ir23  1  0.152087  0.842852  0.243149  1
  Ir  Ir24  1  0.661983  0.343466  0.735223  1
  Ir  Ir25  1  0.656534  0.661983  0.264777  1
  Ir  Ir26  1  0.343466  0.338017  0.264777  1
  Ir  Ir27  1  0.338017  0.656534  0.735223  1
  Ir  Ir28  1  0.500000  0.000000  0.121403  1
  Ir  Ir29  1  0.500000  0.000000  0.624203  1
  Ir  Ir30  1  0.000000  0.500000  0.878597  1
  Ir  Ir31  1  0.000000  0.500000  0.375797  1
