# generated using pymatgen
data_La4Zn3Si2Ge3
_symmetry_space_group_name_H-M   'P 1'
_cell_length_a   4.26601200
_cell_length_b   4.26601270
_cell_length_c   17.40020600
_cell_angle_alpha   90.00000000
_cell_angle_beta   90.00000000
_cell_angle_gamma   120.00001005
_symmetry_Int_Tables_number   1
_chemical_formula_structural   La4Zn3Si2Ge3
_chemical_formula_sum   'La4 Zn3 Si2 Ge3'
_cell_volume   274.23898620
_cell_formula_units_Z   1
loop_
 _symmetry_equiv_pos_site_id
 _symmetry_equiv_pos_as_xyz
  1  'x, y, z'
loop_
 _atom_site_type_symbol
 _atom_site_label
 _atom_site_symmetry_multiplicity
 _atom_site_fract_x
 _atom_site_fract_y
 _atom_site_fract_z
 _atom_site_occupancy
  La  La0  1  0.333333  0.666667  0.118685  1
  La  La1  1  0.333333  0.666667  0.625923  1
  La  La2  1  0.333333  0.666667  0.374077  1
  La  La3  1  0.333333  0.666667  0.881315  1
  Zn  Zn4  1  0.666667  0.333333  0.500000  1
  Zn  Zn5  1  0.000000  0.000000  0.249279  1
  Zn  Zn6  1  0.000000  0.000000  0.750721  1
  Si  Si7  1  0.000000  0.000000  0.000000  1
  Si  Si8  1  0.666667  0.333333  0.000000  1
  Ge  Ge9  1  0.666667  0.333333  0.250750  1
  Ge  Ge10  1  0.666667  0.333333  0.749250  1
  Ge  Ge11  1  0.000000  0.000000  0.500000  1
