# generated using pymatgen
data_TaP2HO8
_symmetry_space_group_name_H-M   'P 1'
_cell_length_a   5.21077000
_cell_length_b   8.73012931
_cell_length_c   9.00682726
_cell_angle_alpha   75.53627563
_cell_angle_beta   90.00000000
_cell_angle_gamma   90.00000000
_symmetry_Int_Tables_number   1
_chemical_formula_structural   TaP2HO8
_chemical_formula_sum   'Ta2 P4 H2 O16'
_cell_volume   396.74094502
_cell_formula_units_Z   2
loop_
 _symmetry_equiv_pos_site_id
 _symmetry_equiv_pos_as_xyz
  1  'x, y, z'
loop_
 _atom_site_type_symbol
 _atom_site_label
 _atom_site_symmetry_multiplicity
 _atom_site_fract_x
 _atom_site_fract_y
 _atom_site_fract_z
 _atom_site_occupancy
  Ta  Ta0  1  0.000000  0.000000  0.000000  1
  Ta  Ta1  1  0.500000  0.000000  0.500000  1
  P  P2  1  0.502452  0.198345  0.126368  1
  P  P3  1  0.497548  0.801655  0.873632  1
  P  P4  1  0.002452  0.801655  0.373632  1
  P  P5  1  0.997548  0.198345  0.626368  1
  H  H6  1  0.000000  0.500000  0.500000  1
  H  H7  1  0.500000  0.500000  0.000000  1
  O  O8  1  0.768522  0.137784  0.086493  1
  O  O9  1  0.231478  0.862216  0.913507  1
  O  O10  1  0.268522  0.862216  0.413507  1
  O  O11  1  0.731478  0.137784  0.586493  1
  O  O12  1  0.442289  0.365633  0.045799  1
  O  O13  1  0.557711  0.634367  0.954201  1
  O  O14  1  0.942289  0.634367  0.454201  1
  O  O15  1  0.057711  0.365633  0.545799  1
  O  O16  1  0.296854  0.089602  0.078906  1
  O  O17  1  0.703146  0.910398  0.921094  1
  O  O18  1  0.796854  0.910398  0.421094  1
  O  O19  1  0.203146  0.089602  0.578906  1
  O  O20  1  0.013791  0.167461  0.803657  1
  O  O21  1  0.986209  0.832539  0.196343  1
  O  O22  1  0.513791  0.832539  0.696343  1
  O  O23  1  0.486209  0.167461  0.303657  1
