# generated using pymatgen
data_Ho2Er6SiPd24
_symmetry_space_group_name_H-M   'P 1'
_cell_length_a   8.30342700
_cell_length_b   8.30342700
_cell_length_c   8.30342700
_cell_angle_alpha   90.00172505
_cell_angle_beta   90.00172505
_cell_angle_gamma   90.00172505
_symmetry_Int_Tables_number   1
_chemical_formula_structural   Ho2Er6SiPd24
_chemical_formula_sum   'Ho2 Er6 Si1 Pd24'
_cell_volume   572.49555017
_cell_formula_units_Z   1
loop_
 _symmetry_equiv_pos_site_id
 _symmetry_equiv_pos_as_xyz
  1  'x, y, z'
loop_
 _atom_site_type_symbol
 _atom_site_label
 _atom_site_symmetry_multiplicity
 _atom_site_fract_x
 _atom_site_fract_y
 _atom_site_fract_z
 _atom_site_occupancy
  Ho  Ho0  1  0.253775  0.253775  0.253775  1
  Ho  Ho1  1  0.746225  0.746225  0.746225  1
  Er  Er2  1  0.746241  0.746241  0.253745  1
  Er  Er3  1  0.746241  0.253745  0.746241  1
  Er  Er4  1  0.253759  0.253759  0.746255  1
  Er  Er5  1  0.253759  0.746255  0.253759  1
  Er  Er6  1  0.253745  0.746241  0.746241  1
  Er  Er7  1  0.746255  0.253759  0.253759  1
  Si  Si8  1  0.000000  0.000000  0.000000  1
  Pd  Pd9  1  0.257231  0.500093  0.999905  1
  Pd  Pd10  1  0.742769  0.499907  0.000095  1
  Pd  Pd11  1  0.999905  0.257231  0.500093  1
  Pd  Pd12  1  0.500093  0.257231  0.999905  1
  Pd  Pd13  1  0.000095  0.742769  0.499907  1
  Pd  Pd14  1  0.499907  0.742769  0.000095  1
  Pd  Pd15  1  0.500093  0.999905  0.257231  1
  Pd  Pd16  1  0.257231  0.999905  0.500093  1
  Pd  Pd17  1  0.499907  0.000095  0.742769  1
  Pd  Pd18  1  0.742769  0.000095  0.499907  1
  Pd  Pd19  1  0.999905  0.500093  0.257231  1
  Pd  Pd20  1  0.000095  0.499907  0.742769  1
  Pd  Pd21  1  0.252016  0.500107  0.500107  1
  Pd  Pd22  1  0.747984  0.499893  0.499893  1
  Pd  Pd23  1  0.500107  0.252016  0.500107  1
  Pd  Pd24  1  0.499893  0.747984  0.499893  1
  Pd  Pd25  1  0.500107  0.500107  0.252016  1
  Pd  Pd26  1  0.499893  0.499893  0.747984  1
  Pd  Pd27  1  0.279748  0.999902  0.999902  1
  Pd  Pd28  1  0.720252  0.000098  0.000098  1
  Pd  Pd29  1  0.999902  0.279748  0.999902  1
  Pd  Pd30  1  0.000098  0.720252  0.000098  1
  Pd  Pd31  1  0.999902  0.999902  0.279748  1
  Pd  Pd32  1  0.000098  0.000098  0.720252  1
