# generated using pymatgen
data_Tb3Sn3Rh10
_symmetry_space_group_name_H-M   'P 1'
_cell_length_a   4.33866800
_cell_length_b   5.70209224
_cell_length_c   11.22334012
_cell_angle_alpha   91.52285104
_cell_angle_beta   90.00000000
_cell_angle_gamma   90.00000000
_symmetry_Int_Tables_number   1
_chemical_formula_structural   Tb3Sn3Rh10
_chemical_formula_sum   'Tb3 Sn3 Rh10'
_cell_volume   277.56158813
_cell_formula_units_Z   1
loop_
 _symmetry_equiv_pos_site_id
 _symmetry_equiv_pos_as_xyz
  1  'x, y, z'
loop_
 _atom_site_type_symbol
 _atom_site_label
 _atom_site_symmetry_multiplicity
 _atom_site_fract_x
 _atom_site_fract_y
 _atom_site_fract_z
 _atom_site_occupancy
  Tb  Tb0  1  0.500000  0.833077  0.359764  1
  Tb  Tb1  1  0.500000  0.663195  0.859323  1
  Tb  Tb2  1  0.500000  0.319622  0.142064  1
  Sn  Sn3  1  0.500000  0.164044  0.644169  1
  Sn  Sn4  1  0.000000  0.528050  0.496179  1
  Sn  Sn5  1  0.000000  0.996805  0.999338  1
  Rh  Rh6  1  0.500000  0.176943  0.882964  1
  Rh  Rh7  1  0.500000  0.808798  0.110725  1
  Rh  Rh8  1  0.500000  0.692528  0.611024  1
  Rh  Rh9  1  0.500000  0.321487  0.399518  1
  Rh  Rh10  1  0.000000  0.407819  0.731646  1
  Rh  Rh11  1  0.000000  0.572576  0.249659  1
  Rh  Rh12  1  0.000000  0.037045  0.509425  1
  Rh  Rh13  1  0.000000  0.494258  0.996923  1
  Rh  Rh14  1  0.000000  0.070585  0.254712  1
  Rh  Rh15  1  0.000000  0.913170  0.752566  1
