# generated using pymatgen
data_Ac2H2BrCl3
_symmetry_space_group_name_H-M   'P 1'
_cell_length_a   4.26122400
_cell_length_b   4.26122516
_cell_length_c   14.30543900
_cell_angle_alpha   90.00000000
_cell_angle_beta   90.00000000
_cell_angle_gamma   120.00000650
_symmetry_Int_Tables_number   1
_chemical_formula_structural   Ac2H2BrCl3
_chemical_formula_sum   'Ac2 H2 Br1 Cl3'
_cell_volume   224.95758460
_cell_formula_units_Z   1
loop_
 _symmetry_equiv_pos_site_id
 _symmetry_equiv_pos_as_xyz
  1  'x, y, z'
loop_
 _atom_site_type_symbol
 _atom_site_label
 _atom_site_symmetry_multiplicity
 _atom_site_fract_x
 _atom_site_fract_y
 _atom_site_fract_z
 _atom_site_occupancy
  Ac  Ac0  1  0.000000  0.000000  0.245096  1
  Ac  Ac1  1  0.000000  0.000000  0.750213  1
  H  H2  1  0.333333  0.666667  0.750104  1
  H  H3  1  0.666667  0.333333  0.247188  1
  Br  Br4  1  0.333333  0.666667  0.386688  1
  Cl  Cl5  1  0.333333  0.666667  0.119876  1
  Cl  Cl6  1  0.666667  0.333333  0.875874  1
  Cl  Cl7  1  0.666667  0.333333  0.624961  1
