# generated using pymatgen
data_CaNdDyGa8Ag3
_symmetry_space_group_name_H-M   'P 1'
_cell_length_a   4.37992419
_cell_length_b   8.41340445
_cell_length_c   8.41340396
_cell_angle_alpha   70.09191919
_cell_angle_beta   74.91246195
_cell_angle_gamma   74.91246764
_symmetry_Int_Tables_number   1
_chemical_formula_structural   CaNdDyGa8Ag3
_chemical_formula_sum   'Ca1 Nd1 Dy1 Ga8 Ag3'
_cell_volume   276.38091936
_cell_formula_units_Z   1
loop_
 _symmetry_equiv_pos_site_id
 _symmetry_equiv_pos_as_xyz
  1  'x, y, z'
loop_
 _atom_site_type_symbol
 _atom_site_label
 _atom_site_symmetry_multiplicity
 _atom_site_fract_x
 _atom_site_fract_y
 _atom_site_fract_z
 _atom_site_occupancy
  Ca  Ca0  1  0.801548  0.198452  0.198452  1
  Nd  Nd1  1  0.499602  0.500398  0.500398  1
  Dy  Dy2  1  0.200876  0.799124  0.799124  1
  Ga  Ga3  1  0.641909  0.074732  0.641449  1
  Ga  Ga4  1  0.355753  0.924790  0.363705  1
  Ga  Ga5  1  0.641909  0.641449  0.074732  1
  Ga  Ga6  1  0.355753  0.363705  0.924790  1
  Ga  Ga7  1  0.839991  0.790205  0.529813  1
  Ga  Ga8  1  0.161428  0.205517  0.471626  1
  Ga  Ga9  1  0.839991  0.529813  0.790205  1
  Ga  Ga10  1  0.161428  0.471626  0.205517  1
  Ag  Ag11  1  0.500556  0.999444  0.999444  1
  Ag  Ag12  1  0.999628  0.804848  0.195896  1
  Ag  Ag13  1  0.999628  0.195896  0.804848  1
