# generated using pymatgen
data_Li16Zn4Si5Sn
_symmetry_space_group_name_H-M   'P 1'
_cell_length_a   9.18764804
_cell_length_b   9.23544584
_cell_length_c   9.22650528
_cell_angle_alpha   47.98860516
_cell_angle_beta   48.17641599
_cell_angle_gamma   48.14953561
_symmetry_Int_Tables_number   1
_chemical_formula_structural   Li16Zn4Si5Sn
_chemical_formula_sum   'Li16 Zn4 Si5 Sn1'
_cell_volume   397.49199699
_cell_formula_units_Z   1
loop_
 _symmetry_equiv_pos_site_id
 _symmetry_equiv_pos_as_xyz
  1  'x, y, z'
loop_
 _atom_site_type_symbol
 _atom_site_label
 _atom_site_symmetry_multiplicity
 _atom_site_fract_x
 _atom_site_fract_y
 _atom_site_fract_z
 _atom_site_occupancy
  Li  Li0  1  0.059178  0.056115  0.057098  1
  Li  Li1  1  0.298121  0.594459  0.955613  1
  Li  Li2  1  0.559632  0.551407  0.567619  1
  Li  Li3  1  0.204186  0.911357  0.562095  1
  Li  Li4  1  0.597691  0.957787  0.302919  1
  Li  Li5  1  0.058149  0.407392  0.706243  1
  Li  Li6  1  0.912893  0.558422  0.206215  1
  Li  Li7  1  0.801546  0.451373  0.091083  1
  Li  Li8  1  0.956245  0.298401  0.594811  1
  Li  Li9  1  0.559407  0.211168  0.904915  1
  Li  Li10  1  0.455324  0.096671  0.793258  1
  Li  Li11  1  0.706606  0.058789  0.407677  1
  Li  Li12  1  0.089851  0.797727  0.456360  1
  Li  Li13  1  0.454965  0.444608  0.465951  1
  Li  Li14  1  0.956116  0.958027  0.958245  1
  Li  Li15  1  0.404567  0.702083  0.056434  1
  Zn  Zn16  1  0.674591  0.674562  0.674415  1
  Zn  Zn17  1  0.335759  0.336051  0.336182  1
  Zn  Zn18  1  0.852622  0.836462  0.819450  1
  Zn  Zn19  1  0.157028  0.192474  0.174213  1
  Si  Si20  1  0.180497  0.503309  0.828544  1
  Si  Si21  1  0.676512  0.332213  0.002030  1
  Si  Si22  1  0.828098  0.179738  0.503447  1
  Si  Si23  1  0.332118  0.004035  0.676439  1
  Si  Si24  1  0.002958  0.675438  0.333135  1
  Sn  Sn25  1  0.502084  0.826678  0.182353  1
