# generated using pymatgen
data_K3PrSi2O7
_symmetry_space_group_name_H-M   'P 1'
_cell_length_a   10.16324200
_cell_length_b   10.16324221
_cell_length_c   14.73957700
_cell_angle_alpha   90.00000000
_cell_angle_beta   90.00000000
_cell_angle_gamma   119.99999931
_symmetry_Int_Tables_number   1
_chemical_formula_structural   K3PrSi2O7
_chemical_formula_sum   'K18 Pr6 Si12 O42'
_cell_volume   1318.50019252
_cell_formula_units_Z   6
loop_
 _symmetry_equiv_pos_site_id
 _symmetry_equiv_pos_as_xyz
  1  'x, y, z'
loop_
 _atom_site_type_symbol
 _atom_site_label
 _atom_site_symmetry_multiplicity
 _atom_site_fract_x
 _atom_site_fract_y
 _atom_site_fract_z
 _atom_site_occupancy
  K  K0  1  0.330340  0.000000  0.410548  1
  K  K1  1  0.000000  0.330340  0.410548  1
  K  K2  1  0.669660  0.669660  0.410548  1
  K  K3  1  0.330340  0.330340  0.910548  1
  K  K4  1  0.669660  0.669660  0.089452  1
  K  K5  1  0.669660  0.000000  0.910548  1
  K  K6  1  0.000000  0.669660  0.910548  1
  K  K7  1  0.000000  0.669660  0.589452  1
  K  K8  1  0.669660  0.000000  0.589452  1
  K  K9  1  0.330340  0.000000  0.089452  1
  K  K10  1  0.000000  0.330340  0.089452  1
  K  K11  1  0.330340  0.330340  0.589452  1
  K  K12  1  0.000000  0.000000  0.500000  1
  K  K13  1  0.000000  0.000000  0.000000  1
  K  K14  1  0.666667  0.333333  0.750000  1
  K  K15  1  0.333333  0.666667  0.250000  1
  K  K16  1  0.333333  0.666667  0.750000  1
  K  K17  1  0.666667  0.333333  0.250000  1
  Pr  Pr18  1  0.666667  0.333333  0.500000  1
  Pr  Pr19  1  0.333333  0.666667  0.000000  1
  Pr  Pr20  1  0.333333  0.666667  0.500000  1
  Pr  Pr21  1  0.666667  0.333333  0.000000  1
  Pr  Pr22  1  0.000000  0.000000  0.750000  1
  Pr  Pr23  1  0.000000  0.000000  0.250000  1
  Si  Si24  1  0.660181  0.000000  0.356020  1
  Si  Si25  1  0.000000  0.660181  0.356020  1
  Si  Si26  1  0.339819  0.339819  0.356020  1
  Si  Si27  1  0.660181  0.660181  0.856020  1
  Si  Si28  1  0.339819  0.339819  0.143980  1
  Si  Si29  1  0.339819  0.000000  0.856020  1
  Si  Si30  1  0.000000  0.339819  0.856020  1
  Si  Si31  1  0.000000  0.339819  0.643980  1
  Si  Si32  1  0.339819  0.000000  0.643980  1
  Si  Si33  1  0.660181  0.000000  0.143980  1
  Si  Si34  1  0.000000  0.660181  0.143980  1
  Si  Si35  1  0.660181  0.660181  0.643980  1
  O  O36  1  0.321281  0.473945  0.094913  1
  O  O37  1  0.526055  0.847338  0.094913  1
  O  O38  1  0.152662  0.678719  0.094913  1
  O  O39  1  0.847338  0.321281  0.594913  1
  O  O40  1  0.678719  0.152662  0.405087  1
  O  O41  1  0.678719  0.526055  0.594913  1
  O  O42  1  0.473945  0.152662  0.594913  1
  O  O43  1  0.526055  0.678719  0.905087  1
  O  O44  1  0.152662  0.473945  0.905087  1
  O  O45  1  0.847338  0.526055  0.405087  1
  O  O46  1  0.473945  0.321281  0.405087  1
  O  O47  1  0.321281  0.847338  0.905087  1
  O  O48  1  0.678719  0.526055  0.905087  1
  O  O49  1  0.473945  0.152662  0.905087  1
  O  O50  1  0.847338  0.321281  0.905087  1
  O  O51  1  0.152662  0.678719  0.405087  1
  O  O52  1  0.321281  0.847338  0.594913  1
  O  O53  1  0.321281  0.473945  0.405087  1
  O  O54  1  0.526055  0.847338  0.405087  1
  O  O55  1  0.473945  0.321281  0.094913  1
  O  O56  1  0.847338  0.526055  0.094913  1
  O  O57  1  0.152662  0.473945  0.594913  1
  O  O58  1  0.526055  0.678719  0.594913  1
  O  O59  1  0.678719  0.152662  0.094913  1
  O  O60  1  0.401186  0.401186  0.250000  1
  O  O61  1  0.000000  0.401186  0.750000  1
  O  O62  1  0.401186  0.000000  0.750000  1
  O  O63  1  0.598814  0.000000  0.250000  1
  O  O64  1  0.000000  0.598814  0.250000  1
  O  O65  1  0.598814  0.598814  0.750000  1
  O  O66  1  0.178872  0.000000  0.855849  1
  O  O67  1  0.000000  0.178872  0.855849  1
  O  O68  1  0.821128  0.821128  0.855849  1
  O  O69  1  0.178872  0.178872  0.355849  1
  O  O70  1  0.821128  0.821128  0.644151  1
  O  O71  1  0.821128  0.000000  0.355849  1
  O  O72  1  0.178872  0.178872  0.144151  1
  O  O73  1  0.000000  0.178872  0.644151  1
  O  O74  1  0.178872  0.000000  0.644151  1
  O  O75  1  0.821128  0.000000  0.144151  1
  O  O76  1  0.000000  0.821128  0.144151  1
  O  O77  1  0.000000  0.821128  0.355849  1
