# generated using pymatgen
data_PrPa6Cd3O20
_symmetry_space_group_name_H-M   'P 1'
_cell_length_a   10.15388287
_cell_length_b   10.15388398
_cell_length_c   6.69217491
_cell_angle_alpha   83.46787449
_cell_angle_beta   83.46786520
_cell_angle_gamma   141.35894670
_symmetry_Int_Tables_number   1
_chemical_formula_structural   PrPa6Cd3O20
_chemical_formula_sum   'Pr1 Pa6 Cd3 O20'
_cell_volume   404.57641986
_cell_formula_units_Z   1
loop_
 _symmetry_equiv_pos_site_id
 _symmetry_equiv_pos_as_xyz
  1  'x, y, z'
loop_
 _atom_site_type_symbol
 _atom_site_label
 _atom_site_symmetry_multiplicity
 _atom_site_fract_x
 _atom_site_fract_y
 _atom_site_fract_z
 _atom_site_occupancy
  Pr  Pr0  1  0.000000  0.000000  0.500000  1
  Pa  Pa1  1  0.900573  0.099427  0.000000  1
  Pa  Pa2  1  0.399649  0.600351  0.500000  1
  Pa  Pa3  1  0.099427  0.900573  0.000000  1
  Pa  Pa4  1  0.699348  0.300652  0.000000  1
  Pa  Pa5  1  0.600351  0.399649  0.500000  1
  Pa  Pa6  1  0.300652  0.699348  0.000000  1
  Cd  Cd7  1  0.500000  0.500000  0.000000  1
  Cd  Cd8  1  0.202507  0.797493  0.500000  1
  Cd  Cd9  1  0.797493  0.202507  0.500000  1
  O  O10  1  0.268352  0.472460  0.875854  1
  O  O11  1  0.882130  0.882130  0.887862  1
  O  O12  1  0.761844  0.964239  0.360340  1
  O  O13  1  0.035761  0.238156  0.639660  1
  O  O14  1  0.472460  0.268352  0.875854  1
  O  O15  1  0.387542  0.387542  0.382940  1
  O  O16  1  0.612458  0.612458  0.617060  1
  O  O17  1  0.066103  0.667242  0.899086  1
  O  O18  1  0.527540  0.731648  0.124146  1
  O  O19  1  0.964239  0.761844  0.360340  1
  O  O20  1  0.238156  0.035761  0.639660  1
  O  O21  1  0.667242  0.066103  0.899086  1
  O  O22  1  0.117870  0.117870  0.112138  1
  O  O23  1  0.582607  0.192193  0.356020  1
  O  O24  1  0.807807  0.417393  0.643980  1
  O  O25  1  0.417393  0.807807  0.643980  1
  O  O26  1  0.731648  0.527540  0.124146  1
  O  O27  1  0.192193  0.582607  0.356020  1
  O  O28  1  0.332758  0.933897  0.100914  1
  O  O29  1  0.933897  0.332758  0.100914  1
