# generated using pymatgen
data_Dy2Si5SnAsRh12
_symmetry_space_group_name_H-M   'P 1'
_cell_length_a   9.90797530
_cell_length_b   9.89944339
_cell_length_c   3.87397523
_cell_angle_alpha   90.11163082
_cell_angle_beta   90.10954040
_cell_angle_gamma   119.81994389
_symmetry_Int_Tables_number   1
_chemical_formula_structural   Dy2Si5SnAsRh12
_chemical_formula_sum   'Dy2 Si5 Sn1 As1 Rh12'
_cell_volume   329.65909184
_cell_formula_units_Z   1
loop_
 _symmetry_equiv_pos_site_id
 _symmetry_equiv_pos_as_xyz
  1  'x, y, z'
loop_
 _atom_site_type_symbol
 _atom_site_label
 _atom_site_symmetry_multiplicity
 _atom_site_fract_x
 _atom_site_fract_y
 _atom_site_fract_z
 _atom_site_occupancy
  Dy  Dy0  1  0.333523  0.662319  0.743570  1
  Dy  Dy1  1  0.667317  0.335094  0.243309  1
  Si  Si2  1  0.887325  0.597940  0.743435  1
  Si  Si3  1  0.400621  0.293231  0.743090  1
  Si  Si4  1  0.711437  0.110500  0.743037  1
  Si  Si5  1  0.106867  0.401427  0.242928  1
  Si  Si6  1  0.598124  0.706102  0.243745  1
  Sn  Sn7  1  0.000076  0.001130  0.738545  1
  As  As8  1  0.294260  0.887174  0.243716  1
  Rh  Rh9  1  0.622472  0.552380  0.743485  1
  Rh  Rh10  1  0.454298  0.080006  0.743368  1
  Rh  Rh11  1  0.927347  0.375159  0.742883  1
  Rh  Rh12  1  0.386654  0.446659  0.243261  1
  Rh  Rh13  1  0.559587  0.945763  0.243253  1
  Rh  Rh14  1  0.052204  0.607565  0.243493  1
  Rh  Rh15  1  0.130487  0.836462  0.743857  1
  Rh  Rh16  1  0.159723  0.295473  0.742584  1
  Rh  Rh17  1  0.705556  0.864283  0.743917  1
  Rh  Rh18  1  0.882947  0.139231  0.242542  1
  Rh  Rh19  1  0.858311  0.740936  0.243708  1
  Rh  Rh20  1  0.260862  0.121165  0.242556  1
