# generated using pymatgen
data_Hf6Ta2Ti2Ga5Si
_symmetry_space_group_name_H-M   'P 1'
_cell_length_a   7.88796108
_cell_length_b   7.87631644
_cell_length_c   5.42561605
_cell_angle_alpha   89.99201462
_cell_angle_beta   90.01594718
_cell_angle_gamma   120.04892257
_symmetry_Int_Tables_number   1
_chemical_formula_structural   Hf6Ta2Ti2Ga5Si
_chemical_formula_sum   'Hf6 Ta2 Ti2 Ga5 Si1'
_cell_volume   291.77849440
_cell_formula_units_Z   1
loop_
 _symmetry_equiv_pos_site_id
 _symmetry_equiv_pos_as_xyz
  1  'x, y, z'
loop_
 _atom_site_type_symbol
 _atom_site_label
 _atom_site_symmetry_multiplicity
 _atom_site_fract_x
 _atom_site_fract_y
 _atom_site_fract_z
 _atom_site_occupancy
  Hf  Hf0  1  0.249300  0.000000  0.247428  1
  Hf  Hf1  1  0.751955  0.000000  0.752815  1
  Hf  Hf2  1  0.996995  0.241823  0.246864  1
  Hf  Hf3  1  0.998362  0.756344  0.753363  1
  Hf  Hf4  1  0.755170  0.758177  0.246864  1
  Hf  Hf5  1  0.242017  0.243656  0.753363  1
  Ta  Ta6  1  0.336860  0.670496  0.002183  1
  Ta  Ta7  1  0.666365  0.329504  0.002183  1
  Ti  Ti8  1  0.666084  0.329370  0.498964  1
  Ti  Ti9  1  0.336713  0.670630  0.498964  1
  Ga  Ga10  1  0.396195  0.000000  0.746323  1
  Ga  Ga11  1  0.999573  0.602226  0.253450  1
  Ga  Ga12  1  0.001786  0.400707  0.746508  1
  Ga  Ga13  1  0.397347  0.397774  0.253450  1
  Ga  Ga14  1  0.601080  0.599293  0.746508  1
  Si  Si15  1  0.604196  0.000000  0.250768  1
