# generated using pymatgen
data_Li8DyHo7Sn7Sb
_symmetry_space_group_name_H-M   'P 1'
_cell_length_a   9.37327600
_cell_length_b   9.37261249
_cell_length_c   7.23597007
_cell_angle_alpha   90.07188083
_cell_angle_beta   90.00000000
_cell_angle_gamma   120.00234181
_symmetry_Int_Tables_number   1
_chemical_formula_structural   Li8DyHo7Sn7Sb
_chemical_formula_sum   'Li8 Dy1 Ho7 Sn7 Sb1'
_cell_volume   550.51449174
_cell_formula_units_Z   1
loop_
 _symmetry_equiv_pos_site_id
 _symmetry_equiv_pos_as_xyz
  1  'x, y, z'
loop_
 _atom_site_type_symbol
 _atom_site_label
 _atom_site_symmetry_multiplicity
 _atom_site_fract_x
 _atom_site_fract_y
 _atom_site_fract_z
 _atom_site_occupancy
  Li  Li0  1  0.166804  0.333608  0.288165  1
  Li  Li1  1  0.167024  0.833232  0.288319  1
  Li  Li2  1  0.666207  0.833232  0.288319  1
  Li  Li3  1  0.833291  0.666581  0.788044  1
  Li  Li4  1  0.832334  0.166225  0.789187  1
  Li  Li5  1  0.333892  0.166225  0.789187  1
  Li  Li6  1  0.333588  0.667177  0.671088  1
  Li  Li7  1  0.666717  0.333434  0.172134  1
  Dy  Dy8  1  0.512146  0.024290  0.493968  1
  Ho  Ho9  1  0.514737  0.489892  0.491806  1
  Ho  Ho10  1  0.975154  0.489892  0.491806  1
  Ho  Ho11  1  0.487895  0.975792  0.994372  1
  Ho  Ho12  1  0.490106  0.512395  0.995083  1
  Ho  Ho13  1  0.022288  0.512395  0.995083  1
  Ho  Ho14  1  0.998895  0.997789  0.498364  1
  Ho  Ho15  1  0.999051  0.998103  0.001396  1
  Sn  Sn16  1  0.166197  0.832471  0.730183  1
  Sn  Sn17  1  0.666273  0.832471  0.730183  1
  Sn  Sn18  1  0.833406  0.666811  0.231072  1
  Sn  Sn19  1  0.834210  0.167552  0.230331  1
  Sn  Sn20  1  0.333342  0.167552  0.230331  1
  Sn  Sn21  1  0.332666  0.665332  0.260242  1
  Sn  Sn22  1  0.667066  0.334130  0.761198  1
  Sb  Sb23  1  0.166710  0.333421  0.732109  1
