# generated using pymatgen
data_Dy5Y(Si3Ru)8
_symmetry_space_group_name_H-M   'P 1'
_cell_length_a   10.12664673
_cell_length_b   10.12616603
_cell_length_c   8.14278576
_cell_angle_alpha   89.95314083
_cell_angle_beta   90.04369553
_cell_angle_gamma   132.61119891
_symmetry_Int_Tables_number   1
_chemical_formula_structural   Dy5Y(Si3Ru)8
_chemical_formula_sum   'Dy5 Y1 Si24 Ru8'
_cell_volume   614.52644504
_cell_formula_units_Z   1
loop_
 _symmetry_equiv_pos_site_id
 _symmetry_equiv_pos_as_xyz
  1  'x, y, z'
loop_
 _atom_site_type_symbol
 _atom_site_label
 _atom_site_symmetry_multiplicity
 _atom_site_fract_x
 _atom_site_fract_y
 _atom_site_fract_z
 _atom_site_occupancy
  Dy  Dy0  1  0.499881  0.500018  0.500102  1
  Dy  Dy1  1  0.000070  0.999883  0.999949  1
  Dy  Dy2  1  0.997797  0.497886  0.249731  1
  Dy  Dy3  1  0.497365  0.997169  0.249786  1
  Dy  Dy4  1  0.002727  0.502762  0.750223  1
  Y  Y5  1  0.502237  0.002250  0.750196  1
  Si  Si6  1  0.795290  0.206180  0.499886  1
  Si  Si7  1  0.293337  0.705298  0.999759  1
  Si  Si8  1  0.204750  0.793743  0.500061  1
  Si  Si9  1  0.706730  0.294846  0.000034  1
  Si  Si10  1  0.332412  0.332223  0.832905  1
  Si  Si11  1  0.667826  0.667621  0.167185  1
  Si  Si12  1  0.167996  0.168208  0.333029  1
  Si  Si13  1  0.831924  0.831935  0.667003  1
  Si  Si14  1  0.120245  0.886045  0.727969  1
  Si  Si15  1  0.111981  0.877668  0.272211  1
  Si  Si16  1  0.614425  0.380181  0.227874  1
  Si  Si17  1  0.621983  0.387638  0.772219  1
  Si  Si18  1  0.878726  0.112487  0.271819  1
  Si  Si19  1  0.889436  0.123414  0.728044  1
  Si  Si20  1  0.384192  0.618907  0.772191  1
  Si  Si21  1  0.379112  0.613824  0.227583  1
  Si  Si22  1  0.344188  0.110948  0.503529  1
  Si  Si23  1  0.887777  0.653712  0.495895  1
  Si  Si24  1  0.389747  0.156568  0.003820  1
  Si  Si25  1  0.845397  0.611380  0.996187  1
  Si  Si26  1  0.655641  0.888758  0.494795  1
  Si  Si27  1  0.112267  0.346197  0.505227  1
  Si  Si28  1  0.610126  0.843490  0.997821  1
  Si  Si29  1  0.154519  0.388706  0.003012  1
  Ru  Ru30  1  0.667291  0.328882  0.500028  1
  Ru  Ru31  1  0.170365  0.833369  0.000374  1
  Ru  Ru32  1  0.332675  0.670895  0.499578  1
  Ru  Ru33  1  0.829568  0.166767  0.999862  1
  Ru  Ru34  1  0.126259  0.125733  0.627155  1
  Ru  Ru35  1  0.874439  0.873593  0.372911  1
  Ru  Ru36  1  0.373843  0.374654  0.126434  1
  Ru  Ru37  1  0.625457  0.626164  0.873612  1
