# generated using pymatgen
data_Ta8CdMoS16
_symmetry_space_group_name_H-M   'P 1'
_cell_length_a   6.67993900
_cell_length_b   6.67993850
_cell_length_c   13.08189300
_cell_angle_alpha   90.00000000
_cell_angle_beta   90.00000000
_cell_angle_gamma   120.00000744
_symmetry_Int_Tables_number   1
_chemical_formula_structural   Ta8CdMoS16
_chemical_formula_sum   'Ta8 Cd1 Mo1 S16'
_cell_volume   505.52909076
_cell_formula_units_Z   1
loop_
 _symmetry_equiv_pos_site_id
 _symmetry_equiv_pos_as_xyz
  1  'x, y, z'
loop_
 _atom_site_type_symbol
 _atom_site_label
 _atom_site_symmetry_multiplicity
 _atom_site_fract_x
 _atom_site_fract_y
 _atom_site_fract_z
 _atom_site_occupancy
  Ta  Ta0  1  0.505444  0.494556  0.763338  1
  Ta  Ta1  1  0.010888  0.505444  0.236662  1
  Ta  Ta2  1  0.494556  0.989112  0.236662  1
  Ta  Ta3  1  0.505444  0.010888  0.763338  1
  Ta  Ta4  1  0.989112  0.494556  0.763338  1
  Ta  Ta5  1  0.494556  0.505444  0.236662  1
  Ta  Ta6  1  0.000000  0.000000  0.763281  1
  Ta  Ta7  1  0.000000  0.000000  0.236719  1
  Cd  Cd8  1  0.000000  0.000000  0.500000  1
  Mo  Mo9  1  0.000000  0.000000  0.000000  1
  S  S10  1  0.831252  0.168748  0.356031  1
  S  S11  1  0.831252  0.662504  0.356031  1
  S  S12  1  0.337496  0.168748  0.356031  1
  S  S13  1  0.665577  0.832789  0.882380  1
  S  S14  1  0.168748  0.337496  0.643969  1
  S  S15  1  0.167211  0.832789  0.882380  1
  S  S16  1  0.167211  0.334423  0.882380  1
  S  S17  1  0.832789  0.167211  0.117620  1
  S  S18  1  0.334423  0.167211  0.117620  1
  S  S19  1  0.662504  0.831252  0.643969  1
  S  S20  1  0.333333  0.666667  0.114139  1
  S  S21  1  0.666667  0.333333  0.640363  1
  S  S22  1  0.666667  0.333333  0.885861  1
  S  S23  1  0.333333  0.666667  0.359637  1
  S  S24  1  0.832789  0.665577  0.117620  1
  S  S25  1  0.168748  0.831252  0.643969  1
