# generated using pymatgen
data_Ti3P3Pd4
_symmetry_space_group_name_H-M   'P 1'
_cell_length_a   16.04893800
_cell_length_b   3.71063500
_cell_length_c   9.80119300
_cell_angle_alpha   90.00000000
_cell_angle_beta   90.00000000
_cell_angle_gamma   90.00000000
_symmetry_Int_Tables_number   1
_chemical_formula_structural   Ti3P3Pd4
_chemical_formula_sum   'Ti12 P12 Pd16'
_cell_volume   583.67820558
_cell_formula_units_Z   4
loop_
 _symmetry_equiv_pos_site_id
 _symmetry_equiv_pos_as_xyz
  1  'x, y, z'
loop_
 _atom_site_type_symbol
 _atom_site_label
 _atom_site_symmetry_multiplicity
 _atom_site_fract_x
 _atom_site_fract_y
 _atom_site_fract_z
 _atom_site_occupancy
  Ti  Ti0  1  0.261531  0.249999  0.016557  1
  Ti  Ti1  1  0.940347  0.749999  0.085924  1
  Ti  Ti2  1  0.546815  0.749999  0.113176  1
  Ti  Ti3  1  0.046815  0.749999  0.386824  1
  Ti  Ti4  1  0.440346  0.749999  0.414076  1
  Ti  Ti5  1  0.761531  0.249999  0.483442  1
  Ti  Ti6  1  0.238469  0.749999  0.516557  1
  Ti  Ti7  1  0.559653  0.249999  0.585923  1
  Ti  Ti8  1  0.953185  0.249999  0.613176  1
  Ti  Ti9  1  0.453185  0.249999  0.886824  1
  Ti  Ti10  1  0.059653  0.249999  0.914076  1
  Ti  Ti11  1  0.738469  0.749999  0.983442  1
  P  P12  1  0.388735  0.749999  0.031612  1
  P  P13  1  0.822804  0.249999  0.109860  1
  P  P14  1  0.040926  0.249999  0.176248  1
  P  P15  1  0.540926  0.249999  0.323752  1
  P  P16  1  0.322804  0.249999  0.390140  1
  P  P17  1  0.888734  0.749999  0.468388  1
  P  P18  1  0.111266  0.249999  0.531613  1
  P  P19  1  0.677196  0.749999  0.609861  1
  P  P20  1  0.459074  0.749999  0.676248  1
  P  P21  1  0.959074  0.749999  0.823752  1
  P  P22  1  0.177196  0.749999  0.890139  1
  P  P23  1  0.611266  0.249999  0.968387  1
  Pd  Pd24  1  0.127088  0.749999  0.115827  1
  Pd  Pd25  1  0.420885  0.249999  0.181981  1
  Pd  Pd26  1  0.673729  0.249999  0.187379  1
  Pd  Pd27  1  0.294327  0.749999  0.231584  1
  Pd  Pd28  1  0.794327  0.749999  0.268415  1
  Pd  Pd29  1  0.173729  0.249999  0.312622  1
  Pd  Pd30  1  0.920885  0.249999  0.318018  1
  Pd  Pd31  1  0.627088  0.749999  0.384173  1
  Pd  Pd32  1  0.372912  0.249999  0.615827  1
  Pd  Pd33  1  0.079115  0.749999  0.681981  1
  Pd  Pd34  1  0.826271  0.749999  0.687379  1
  Pd  Pd35  1  0.205673  0.249999  0.731585  1
  Pd  Pd36  1  0.705673  0.249999  0.768415  1
  Pd  Pd37  1  0.326271  0.749999  0.812622  1
  Pd  Pd38  1  0.579116  0.749999  0.818018  1
  Pd  Pd39  1  0.872912  0.249999  0.884173  1
