# generated using pymatgen
data_Sc4Mn3Re5
_symmetry_space_group_name_H-M   'P 1'
_cell_length_a   5.17598946
_cell_length_b   5.17540816
_cell_length_c   8.44328300
_cell_angle_alpha   90.00000000
_cell_angle_beta   90.00000000
_cell_angle_gamma   120.59385778
_symmetry_Int_Tables_number   1
_chemical_formula_structural   Sc4Mn3Re5
_chemical_formula_sum   'Sc4 Mn3 Re5'
_cell_volume   194.69279267
_cell_formula_units_Z   1
loop_
 _symmetry_equiv_pos_site_id
 _symmetry_equiv_pos_as_xyz
  1  'x, y, z'
loop_
 _atom_site_type_symbol
 _atom_site_label
 _atom_site_symmetry_multiplicity
 _atom_site_fract_x
 _atom_site_fract_y
 _atom_site_fract_z
 _atom_site_occupancy
  Sc  Sc0  1  0.334694  0.668427  0.437009  1
  Sc  Sc1  1  0.668951  0.335467  0.937827  1
  Sc  Sc2  1  0.668951  0.335467  0.562173  1
  Sc  Sc3  1  0.334694  0.668427  0.062991  1
  Mn  Mn4  1  0.661055  0.832390  0.750000  1
  Mn  Mn5  1  0.337579  0.169093  0.250000  1
  Mn  Mn6  1  0.828747  0.169988  0.250000  1
  Re  Re7  1  0.174930  0.345666  0.750000  1
  Re  Re8  1  0.174782  0.833470  0.750000  1
  Re  Re9  1  0.817206  0.637157  0.250000  1
  Re  Re10  1  0.999205  0.002224  0.490828  1
  Re  Re11  1  0.999205  0.002224  0.009172  1
