# generated using pymatgen
data_Sr3P2Rh7
_symmetry_space_group_name_H-M   'P 1'
_cell_length_a   8.42409016
_cell_length_b   8.42409128
_cell_length_c   8.42409200
_cell_angle_alpha   39.94162351
_cell_angle_beta   39.94161444
_cell_angle_gamma   39.94162208
_symmetry_Int_Tables_number   1
_chemical_formula_structural   Sr3P2Rh7
_chemical_formula_sum   'Sr3 P2 Rh7'
_cell_volume   221.99208470
_cell_formula_units_Z   1
loop_
 _symmetry_equiv_pos_site_id
 _symmetry_equiv_pos_as_xyz
  1  'x, y, z'
loop_
 _atom_site_type_symbol
 _atom_site_label
 _atom_site_symmetry_multiplicity
 _atom_site_fract_x
 _atom_site_fract_y
 _atom_site_fract_z
 _atom_site_occupancy
  Sr  Sr0  1  0.356231  0.356231  0.356231  1
  Sr  Sr1  1  0.500000  0.500000  0.500000  1
  Sr  Sr2  1  0.643769  0.643769  0.643769  1
  P  P3  1  0.170333  0.170333  0.170333  1
  P  P4  1  0.829667  0.829667  0.829667  1
  Rh  Rh5  1  0.000000  0.000000  0.000000  1
  Rh  Rh6  1  0.581071  0.061954  0.061954  1
  Rh  Rh7  1  0.061954  0.581071  0.061954  1
  Rh  Rh8  1  0.938046  0.938046  0.418928  1
  Rh  Rh9  1  0.061954  0.061954  0.581072  1
  Rh  Rh10  1  0.938046  0.418929  0.938046  1
  Rh  Rh11  1  0.418929  0.938046  0.938046  1
