# generated using pymatgen
data_Hf18MnMo7WSe
_symmetry_space_group_name_H-M   'P 1'
_cell_length_a   8.67152500
_cell_length_b   8.67152394
_cell_length_c   8.58837400
_cell_angle_alpha   90.00000000
_cell_angle_beta   90.00000000
_cell_angle_gamma   120.00000024
_symmetry_Int_Tables_number   1
_chemical_formula_structural   Hf18MnMo7WSe
_chemical_formula_sum   'Hf18 Mn1 Mo7 W1 Se1'
_cell_volume   559.28411804
_cell_formula_units_Z   1
loop_
 _symmetry_equiv_pos_site_id
 _symmetry_equiv_pos_as_xyz
  1  'x, y, z'
loop_
 _atom_site_type_symbol
 _atom_site_label
 _atom_site_symmetry_multiplicity
 _atom_site_fract_x
 _atom_site_fract_y
 _atom_site_fract_z
 _atom_site_occupancy
  Hf  Hf0  1  0.203713  0.796287  0.443342  1
  Hf  Hf1  1  0.203713  0.407424  0.443342  1
  Hf  Hf2  1  0.592576  0.796287  0.443342  1
  Hf  Hf3  1  0.806310  0.193690  0.546959  1
  Hf  Hf4  1  0.806310  0.612619  0.546959  1
  Hf  Hf5  1  0.387381  0.193690  0.546959  1
  Hf  Hf6  1  0.806656  0.193344  0.953083  1
  Hf  Hf7  1  0.806656  0.613313  0.953083  1
  Hf  Hf8  1  0.386687  0.193344  0.953083  1
  Hf  Hf9  1  0.203042  0.796958  0.056574  1
  Hf  Hf10  1  0.203042  0.406082  0.056574  1
  Hf  Hf11  1  0.593918  0.796958  0.056574  1
  Hf  Hf12  1  0.539504  0.460496  0.250035  1
  Hf  Hf13  1  0.539504  0.079007  0.250035  1
  Hf  Hf14  1  0.920993  0.460496  0.250035  1
  Hf  Hf15  1  0.455835  0.544165  0.750042  1
  Hf  Hf16  1  0.455835  0.911671  0.750042  1
  Hf  Hf17  1  0.088329  0.544165  0.750042  1
  Mn  Mn18  1  0.333333  0.666667  0.249855  1
  Mo  Mo19  1  0.888150  0.111850  0.250210  1
  Mo  Mo20  1  0.888150  0.776301  0.250210  1
  Mo  Mo21  1  0.223699  0.111850  0.250210  1
  Mo  Mo22  1  0.111034  0.888966  0.749686  1
  Mo  Mo23  1  0.111034  0.222068  0.749686  1
  Mo  Mo24  1  0.777932  0.888966  0.749686  1
  Mo  Mo25  1  0.000000  0.000000  0.497147  1
  W  W26  1  0.000000  0.000000  0.002762  1
  Se  Se27  1  0.666667  0.333333  0.750449  1
