# generated using pymatgen
data_NdLu19ZnBi11
_symmetry_space_group_name_H-M   'P 1'
_cell_length_a   8.07045457
_cell_length_b   9.35214000
_cell_length_c   11.76062600
_cell_angle_alpha   90.00000000
_cell_angle_beta   89.73925764
_cell_angle_gamma   90.00000000
_symmetry_Int_Tables_number   1
_chemical_formula_structural   NdLu19ZnBi11
_chemical_formula_sum   'Nd1 Lu19 Zn1 Bi11'
_cell_volume   887.63606336
_cell_formula_units_Z   1
loop_
 _symmetry_equiv_pos_site_id
 _symmetry_equiv_pos_as_xyz
  1  'x, y, z'
loop_
 _atom_site_type_symbol
 _atom_site_label
 _atom_site_symmetry_multiplicity
 _atom_site_fract_x
 _atom_site_fract_y
 _atom_site_fract_z
 _atom_site_occupancy
  Nd  Nd0  1  0.314860  0.750000  0.280672  1
  Lu  Lu1  1  0.036677  0.250000  0.509429  1
  Lu  Lu2  1  0.982273  0.750000  0.491814  1
  Lu  Lu3  1  0.476467  0.750000  0.009901  1
  Lu  Lu4  1  0.525089  0.250000  0.988987  1
  Lu  Lu5  1  0.355392  0.250000  0.295440  1
  Lu  Lu6  1  0.648908  0.750000  0.718721  1
  Lu  Lu7  1  0.150472  0.750000  0.780372  1
  Lu  Lu8  1  0.850564  0.250000  0.215797  1
  Lu  Lu9  1  0.193959  0.250000  0.778708  1
  Lu  Lu10  1  0.809202  0.750000  0.216563  1
  Lu  Lu11  1  0.673126  0.250000  0.708523  1
  Lu  Lu12  1  0.193887  0.067402  0.061878  1
  Lu  Lu13  1  0.805926  0.933483  0.939710  1
  Lu  Lu14  1  0.309958  0.953154  0.558995  1
  Lu  Lu15  1  0.805926  0.566517  0.939710  1
  Lu  Lu16  1  0.682327  0.072950  0.445628  1
  Lu  Lu17  1  0.193887  0.432598  0.061878  1
  Lu  Lu18  1  0.682327  0.427050  0.445628  1
  Lu  Lu19  1  0.309958  0.546846  0.558995  1
  Zn  Zn20  1  0.406908  0.250000  0.539904  1
  Bi  Bi21  1  0.602201  0.750000  0.461502  1
  Bi  Bi22  1  0.093382  0.750000  0.040001  1
  Bi  Bi23  1  0.905721  0.250000  0.953741  1
  Bi  Bi24  1  0.055946  0.005957  0.324089  1
  Bi  Bi25  1  0.936108  0.998602  0.676285  1
  Bi  Bi26  1  0.435721  0.996854  0.824935  1
  Bi  Bi27  1  0.936108  0.501398  0.676285  1
  Bi  Bi28  1  0.567528  0.006868  0.173445  1
  Bi  Bi29  1  0.055946  0.494043  0.324089  1
  Bi  Bi30  1  0.567528  0.493132  0.173445  1
  Bi  Bi31  1  0.435721  0.503146  0.824935  1
