# generated using pymatgen
data_Sr2InHg3
_symmetry_space_group_name_H-M   'P 1'
_cell_length_a   6.57867980
_cell_length_b   6.57867927
_cell_length_c   8.03036644
_cell_angle_alpha   50.36448675
_cell_angle_beta   50.36448812
_cell_angle_gamma   45.37445439
_symmetry_Int_Tables_number   1
_chemical_formula_structural   Sr2InHg3
_chemical_formula_sum   'Sr2 In1 Hg3'
_cell_volume   178.70608216
_cell_formula_units_Z   1
loop_
 _symmetry_equiv_pos_site_id
 _symmetry_equiv_pos_as_xyz
  1  'x, y, z'
loop_
 _atom_site_type_symbol
 _atom_site_label
 _atom_site_symmetry_multiplicity
 _atom_site_fract_x
 _atom_site_fract_y
 _atom_site_fract_z
 _atom_site_occupancy
  Sr  Sr0  1  0.542120  0.542120  0.713357  1
  Sr  Sr1  1  0.458063  0.458063  0.289387  1
  In  In2  1  0.165327  0.165327  0.276324  1
  Hg  Hg3  1  0.840031  0.840031  0.704717  1
  Hg  Hg4  1  0.833048  0.833048  0.123884  1
  Hg  Hg5  1  0.161411  0.161411  0.892331  1
