# generated using pymatgen
data_Mn2BIO3
_symmetry_space_group_name_H-M   'P 1'
_cell_length_a   5.16884054
_cell_length_b   5.16887460
_cell_length_c   14.48936628
_cell_angle_alpha   100.34041273
_cell_angle_beta   100.34030400
_cell_angle_gamma   59.99868779
_symmetry_Int_Tables_number   1
_chemical_formula_structural   Mn2BIO3
_chemical_formula_sum   'Mn4 B2 I2 O6'
_cell_volume   327.96615552
_cell_formula_units_Z   2
loop_
 _symmetry_equiv_pos_site_id
 _symmetry_equiv_pos_as_xyz
  1  'x, y, z'
loop_
 _atom_site_type_symbol
 _atom_site_label
 _atom_site_symmetry_multiplicity
 _atom_site_fract_x
 _atom_site_fract_y
 _atom_site_fract_z
 _atom_site_occupancy
  Mn  Mn0  1  0.064046  0.564871  0.193701  1
  Mn  Mn1  1  0.435139  0.935951  0.306300  1
  Mn  Mn2  1  0.564861  0.064048  0.693700  1
  Mn  Mn3  1  0.935954  0.435129  0.806300  1
  B  B4  1  0.749514  0.250488  0.250000  1
  B  B5  1  0.250486  0.749512  0.750000  1
  I  I6  1  0.000000  0.500000  0.000000  1
  I  I7  1  0.500000  0.000000  0.500000  1
  O  O8  1  0.749496  0.518903  0.249943  1
  O  O9  1  0.017993  0.982011  0.250001  1
  O  O10  1  0.481098  0.250506  0.250057  1
  O  O11  1  0.518903  0.749494  0.749943  1
  O  O12  1  0.982008  0.017989  0.749999  1
  O  O13  1  0.250504  0.481097  0.750057  1
