# generated using pymatgen
data_Dy3Lu5B24OsW3
_symmetry_space_group_name_H-M   'P 1'
_cell_length_a   3.57773600
_cell_length_b   9.20029341
_cell_length_c   11.60094001
_cell_angle_alpha   89.92053026
_cell_angle_beta   90.00000000
_cell_angle_gamma   90.00000000
_symmetry_Int_Tables_number   1
_chemical_formula_structural   Dy3Lu5B24OsW3
_chemical_formula_sum   'Dy3 Lu5 B24 Os1 W3'
_cell_volume   381.85873726
_cell_formula_units_Z   1
loop_
 _symmetry_equiv_pos_site_id
 _symmetry_equiv_pos_as_xyz
  1  'x, y, z'
loop_
 _atom_site_type_symbol
 _atom_site_label
 _atom_site_symmetry_multiplicity
 _atom_site_fract_x
 _atom_site_fract_y
 _atom_site_fract_z
 _atom_site_occupancy
  Dy  Dy0  1  0.000000  0.320485  0.413553  1
  Dy  Dy1  1  0.000000  0.678833  0.586183  1
  Dy  Dy2  1  0.000000  0.820992  0.085089  1
  Lu  Lu3  1  0.000000  0.178583  0.913687  1
  Lu  Lu4  1  0.000000  0.944326  0.372734  1
  Lu  Lu5  1  0.000000  0.054646  0.629966  1
  Lu  Lu6  1  0.000000  0.445142  0.126322  1
  Lu  Lu7  1  0.000000  0.558290  0.871477  1
  B  B8  1  0.500000  0.551168  0.434660  1
  B  B9  1  0.500000  0.447536  0.566397  1
  B  B10  1  0.500000  0.051398  0.062601  1
  B  B11  1  0.500000  0.945849  0.931606  1
  B  B12  1  0.500000  0.753094  0.421578  1
  B  B13  1  0.500000  0.246299  0.580156  1
  B  B14  1  0.500000  0.253675  0.076462  1
  B  B15  1  0.500000  0.750824  0.917575  1
  B  B16  1  0.500000  0.795754  0.264648  1
  B  B17  1  0.500000  0.203126  0.738540  1
  B  B18  1  0.500000  0.295027  0.234655  1
  B  B19  1  0.500000  0.709108  0.765824  1
  B  B20  1  0.500000  0.630817  0.182144  1
  B  B21  1  0.500000  0.369192  0.819278  1
  B  B22  1  0.500000  0.129720  0.316522  1
  B  B23  1  0.500000  0.870088  0.686238  1
  B  B24  1  0.500000  0.978381  0.212983  1
  B  B25  1  0.500000  0.017276  0.788326  1
  B  B26  1  0.500000  0.478264  0.285620  1
  B  B27  1  0.500000  0.522273  0.714113  1
  B  B28  1  0.500000  0.600921  0.026271  1
  B  B29  1  0.500000  0.401159  0.971759  1
  B  B30  1  0.500000  0.098417  0.473510  1
  B  B31  1  0.500000  0.900463  0.529238  1
  Os  Os32  1  0.000000  0.861411  0.820388  1
  W  W33  1  0.000000  0.639257  0.319898  1
  W  W34  1  0.000000  0.359433  0.682145  1
  W  W35  1  0.000000  0.138772  0.177855  1
