# generated using pymatgen
data_Nd16Mg3Cd(OsPt)2
_symmetry_space_group_name_H-M   'P 1'
_cell_length_a   10.02644442
_cell_length_b   10.04307339
_cell_length_c   10.11037200
_cell_angle_alpha   59.77808410
_cell_angle_beta   59.72271358
_cell_angle_gamma   59.65651179
_symmetry_Int_Tables_number   1
_chemical_formula_structural   Nd16Mg3Cd(OsPt)2
_chemical_formula_sum   'Nd16 Mg3 Cd1 Os2 Pt2'
_cell_volume   715.29493821
_cell_formula_units_Z   1
loop_
 _symmetry_equiv_pos_site_id
 _symmetry_equiv_pos_as_xyz
  1  'x, y, z'
loop_
 _atom_site_type_symbol
 _atom_site_label
 _atom_site_symmetry_multiplicity
 _atom_site_fract_x
 _atom_site_fract_y
 _atom_site_fract_z
 _atom_site_occupancy
  Nd  Nd0  1  0.346947  0.347605  0.352073  1
  Nd  Nd1  1  0.346947  0.347605  0.953375  1
  Nd  Nd2  1  0.343244  0.960307  0.348225  1
  Nd  Nd3  1  0.962056  0.342866  0.347540  1
  Nd  Nd4  1  0.816155  0.187002  0.190218  1
  Nd  Nd5  1  0.188496  0.814907  0.805298  1
  Nd  Nd6  1  0.188496  0.814907  0.191300  1
  Nd  Nd7  1  0.816155  0.187002  0.806626  1
  Nd  Nd8  1  0.189014  0.188598  0.811194  1
  Nd  Nd9  1  0.808730  0.808649  0.191310  1
  Nd  Nd10  1  0.939915  0.555714  0.565895  1
  Nd  Nd11  1  0.556355  0.938030  0.939552  1
  Nd  Nd12  1  0.556355  0.938030  0.566063  1
  Nd  Nd13  1  0.939915  0.555714  0.938477  1
  Nd  Nd14  1  0.563082  0.562503  0.937207  1
  Nd  Nd15  1  0.940736  0.937323  0.560971  1
  Mg  Mg16  1  0.575896  0.578834  0.579445  1
  Mg  Mg17  1  0.575896  0.578834  0.265825  1
  Mg  Mg18  1  0.576659  0.263777  0.579783  1
  Cd  Cd19  1  0.257482  0.580863  0.580828  1
  Os  Os20  1  0.144986  0.144433  0.135274  1
  Os  Os21  1  0.144986  0.144433  0.575307  1
  Pt  Pt22  1  0.146551  0.575363  0.139043  1
  Pt  Pt23  1  0.574949  0.146704  0.139173  1
