# generated using pymatgen
data_Ca8HfNb4(FeO8)3
_symmetry_space_group_name_H-M   'P 1'
_cell_length_a   5.51365112
_cell_length_b   9.71738120
_cell_length_c   9.73604664
_cell_angle_alpha   71.36593582
_cell_angle_beta   89.94652278
_cell_angle_gamma   90.21716048
_symmetry_Int_Tables_number   1
_chemical_formula_structural   Ca8HfNb4(FeO8)3
_chemical_formula_sum   'Ca8 Hf1 Nb4 Fe3 O24'
_cell_volume   494.29041173
_cell_formula_units_Z   1
loop_
 _symmetry_equiv_pos_site_id
 _symmetry_equiv_pos_as_xyz
  1  'x, y, z'
loop_
 _atom_site_type_symbol
 _atom_site_label
 _atom_site_symmetry_multiplicity
 _atom_site_fract_x
 _atom_site_fract_y
 _atom_site_fract_z
 _atom_site_occupancy
  Ca  Ca0  1  0.012379  0.346249  0.898885  1
  Ca  Ca1  1  0.009929  0.844286  0.398066  1
  Ca  Ca2  1  0.987620  0.653749  0.101116  1
  Ca  Ca3  1  0.990069  0.155717  0.601936  1
  Ca  Ca4  1  0.484871  0.598321  0.654349  1
  Ca  Ca5  1  0.488601  0.099216  0.143898  1
  Ca  Ca6  1  0.515131  0.401677  0.345651  1
  Ca  Ca7  1  0.511402  0.900785  0.856102  1
  Hf  Hf8  1  0.500000  0.000001  0.500000  1
  Nb  Nb9  1  0.003880  0.256592  0.244697  1
  Nb  Nb10  1  0.996119  0.743412  0.755304  1
  Nb  Nb11  1  0.503587  0.253128  0.751337  1
  Nb  Nb12  1  0.496411  0.746868  0.248666  1
  Fe  Fe13  1  0.999994  0.500002  0.499999  1
  Fe  Fe14  1  0.999998  0.999999  0.000005  1
  Fe  Fe15  1  0.500004  0.500006  0.999994  1
  O  O16  1  0.906330  0.141189  0.111168  1
  O  O17  1  0.902784  0.641667  0.609426  1
  O  O18  1  0.093671  0.858809  0.888835  1
  O  O19  1  0.097218  0.358334  0.390572  1
  O  O20  1  0.598890  0.385455  0.854361  1
  O  O21  1  0.595982  0.890766  0.356972  1
  O  O22  1  0.401113  0.614546  0.145637  1
  O  O23  1  0.404018  0.109232  0.643028  1
  O  O24  1  0.205279  0.374631  0.671328  1
  O  O25  1  0.208792  0.877450  0.170956  1
  O  O26  1  0.794721  0.625368  0.328671  1
  O  O27  1  0.791204  0.122546  0.829048  1
  O  O28  1  0.297990  0.320669  0.128411  1
  O  O29  1  0.296480  0.823935  0.625099  1
  O  O30  1  0.702010  0.679332  0.871585  1
  O  O31  1  0.703523  0.176065  0.374901  1
  O  O32  1  0.295507  0.129247  0.919364  1
  O  O33  1  0.298195  0.631266  0.422754  1
  O  O34  1  0.704493  0.870751  0.080639  1
  O  O35  1  0.701805  0.368733  0.577245  1
  O  O36  1  0.184918  0.577153  0.867328  1
  O  O37  1  0.195830  0.075427  0.373114  1
  O  O38  1  0.815081  0.422846  0.132669  1
  O  O39  1  0.804173  0.924573  0.626883  1
