# generated using pymatgen
data_Y4Ga6CoCu
_symmetry_space_group_name_H-M   'P 1'
_cell_length_a   7.03968900
_cell_length_b   8.78967489
_cell_length_c   8.78967500
_cell_angle_alpha   119.99999666
_cell_angle_beta   90.00000000
_cell_angle_gamma   90.00000000
_symmetry_Int_Tables_number   1
_chemical_formula_structural   Y4Ga6CoCu
_chemical_formula_sum   'Y8 Ga12 Co2 Cu2'
_cell_volume   471.00958874
_cell_formula_units_Z   2
loop_
 _symmetry_equiv_pos_site_id
 _symmetry_equiv_pos_as_xyz
  1  'x, y, z'
loop_
 _atom_site_type_symbol
 _atom_site_label
 _atom_site_symmetry_multiplicity
 _atom_site_fract_x
 _atom_site_fract_y
 _atom_site_fract_z
 _atom_site_occupancy
  Y  Y0  1  0.746327  0.000000  0.000000  1
  Y  Y1  1  0.253673  0.000000  0.000000  1
  Y  Y2  1  0.742192  0.478329  0.521671  1
  Y  Y3  1  0.257808  0.521671  0.478329  1
  Y  Y4  1  0.742192  0.043342  0.521671  1
  Y  Y5  1  0.257808  0.956658  0.478329  1
  Y  Y6  1  0.742192  0.478329  0.956658  1
  Y  Y7  1  0.257808  0.521671  0.043342  1
  Ga  Ga8  1  0.953811  0.830632  0.169368  1
  Ga  Ga9  1  0.046189  0.169368  0.830632  1
  Ga  Ga10  1  0.953811  0.338737  0.169368  1
  Ga  Ga11  1  0.456292  0.173092  0.826908  1
  Ga  Ga12  1  0.046189  0.661263  0.830632  1
  Ga  Ga13  1  0.543708  0.826908  0.173092  1
  Ga  Ga14  1  0.953811  0.830632  0.661263  1
  Ga  Ga15  1  0.456292  0.653817  0.826908  1
  Ga  Ga16  1  0.046189  0.169368  0.338737  1
  Ga  Ga17  1  0.543708  0.346183  0.173092  1
  Ga  Ga18  1  0.456292  0.173092  0.346183  1
  Ga  Ga19  1  0.543708  0.826908  0.653817  1
  Co  Co20  1  0.484095  0.333333  0.666667  1
  Co  Co21  1  0.515905  0.666667  0.333333  1
  Cu  Cu22  1  0.947543  0.666667  0.333333  1
  Cu  Cu23  1  0.052457  0.333333  0.666667  1
