# generated using pymatgen
data_Ce4ErIr2Os
_symmetry_space_group_name_H-M   'P 1'
_cell_length_a   11.05040900
_cell_length_b   11.05040900
_cell_length_c   6.25877300
_cell_angle_alpha   90.00000000
_cell_angle_beta   90.00000000
_cell_angle_gamma   90.00000000
_symmetry_Int_Tables_number   1
_chemical_formula_structural   Ce4ErIr2Os
_chemical_formula_sum   'Ce16 Er4 Ir8 Os4'
_cell_volume   764.26840370
_cell_formula_units_Z   4
loop_
 _symmetry_equiv_pos_site_id
 _symmetry_equiv_pos_as_xyz
  1  'x, y, z'
loop_
 _atom_site_type_symbol
 _atom_site_label
 _atom_site_symmetry_multiplicity
 _atom_site_fract_x
 _atom_site_fract_y
 _atom_site_fract_z
 _atom_site_occupancy
  Ce  Ce0  1  0.289667  0.088732  0.376199  1
  Ce  Ce1  1  0.289667  0.911268  0.876199  1
  Ce  Ce2  1  0.710333  0.088732  0.876199  1
  Ce  Ce3  1  0.710333  0.911268  0.376199  1
  Ce  Ce4  1  0.588732  0.789667  0.876199  1
  Ce  Ce5  1  0.588732  0.210333  0.376199  1
  Ce  Ce6  1  0.411268  0.789667  0.376199  1
  Ce  Ce7  1  0.411268  0.210333  0.876199  1
  Ce  Ce8  1  0.210333  0.411268  0.623801  1
  Ce  Ce9  1  0.210333  0.588732  0.123801  1
  Ce  Ce10  1  0.789667  0.411268  0.123801  1
  Ce  Ce11  1  0.789667  0.588732  0.623801  1
  Ce  Ce12  1  0.911268  0.710333  0.123801  1
  Ce  Ce13  1  0.911268  0.289667  0.623801  1
  Ce  Ce14  1  0.088732  0.710333  0.623801  1
  Ce  Ce15  1  0.088732  0.289667  0.123801  1
  Er  Er16  1  0.000000  0.000000  0.500000  1
  Er  Er17  1  0.000000  0.000000  0.000000  1
  Er  Er18  1  0.500000  0.500000  0.000000  1
  Er  Er19  1  0.500000  0.500000  0.500000  1
  Ir  Ir20  1  0.845457  0.154543  0.250000  1
  Ir  Ir21  1  0.845457  0.845457  0.750000  1
  Ir  Ir22  1  0.154543  0.154543  0.750000  1
  Ir  Ir23  1  0.154543  0.845457  0.250000  1
  Ir  Ir24  1  0.654543  0.345457  0.750000  1
  Ir  Ir25  1  0.654543  0.654543  0.250000  1
  Ir  Ir26  1  0.345457  0.345457  0.250000  1
  Ir  Ir27  1  0.345457  0.654543  0.750000  1
  Os  Os28  1  0.500000  0.000000  0.121956  1
  Os  Os29  1  0.500000  0.000000  0.621956  1
  Os  Os30  1  0.000000  0.500000  0.878044  1
  Os  Os31  1  0.000000  0.500000  0.378044  1
