# generated using pymatgen
data_Rb6Na3GaSb4
_symmetry_space_group_name_H-M   'P 1'
_cell_length_a   10.58560600
_cell_length_b   10.58560575
_cell_length_c   10.93591300
_cell_angle_alpha   90.00000000
_cell_angle_beta   90.00000000
_cell_angle_gamma   119.99999453
_symmetry_Int_Tables_number   1
_chemical_formula_structural   Rb6Na3GaSb4
_chemical_formula_sum   'Rb12 Na6 Ga2 Sb8'
_cell_volume   1061.24863024
_cell_formula_units_Z   2
loop_
 _symmetry_equiv_pos_site_id
 _symmetry_equiv_pos_as_xyz
  1  'x, y, z'
loop_
 _atom_site_type_symbol
 _atom_site_label
 _atom_site_symmetry_multiplicity
 _atom_site_fract_x
 _atom_site_fract_y
 _atom_site_fract_z
 _atom_site_occupancy
  Rb  Rb0  1  0.207500  0.414999  0.541643  1
  Rb  Rb1  1  0.792500  0.207500  0.041643  1
  Rb  Rb2  1  0.414999  0.207500  0.041643  1
  Rb  Rb3  1  0.585001  0.792500  0.541643  1
  Rb  Rb4  1  0.207500  0.792500  0.541643  1
  Rb  Rb5  1  0.792500  0.585001  0.458357  1
  Rb  Rb6  1  0.792500  0.207500  0.458357  1
  Rb  Rb7  1  0.792500  0.585001  0.041643  1
  Rb  Rb8  1  0.414999  0.207500  0.458357  1
  Rb  Rb9  1  0.585001  0.792500  0.958357  1
  Rb  Rb10  1  0.207500  0.414999  0.958357  1
  Rb  Rb11  1  0.207500  0.792500  0.958357  1
  Na  Na12  1  0.116218  0.232435  0.250000  1
  Na  Na13  1  0.883782  0.116218  0.750000  1
  Na  Na14  1  0.232435  0.116218  0.750000  1
  Na  Na15  1  0.767565  0.883782  0.250000  1
  Na  Na16  1  0.116218  0.883782  0.250000  1
  Na  Na17  1  0.883782  0.767565  0.750000  1
  Ga  Ga18  1  0.333333  0.666667  0.250000  1
  Ga  Ga19  1  0.666667  0.333333  0.750000  1
  Sb  Sb20  1  0.477539  0.522461  0.250000  1
  Sb  Sb21  1  0.955077  0.477539  0.750000  1
  Sb  Sb22  1  0.522461  0.044923  0.750000  1
  Sb  Sb23  1  0.477539  0.955077  0.250000  1
  Sb  Sb24  1  0.044923  0.522461  0.250000  1
  Sb  Sb25  1  0.522461  0.477539  0.750000  1
  Sb  Sb26  1  0.000000  0.000000  0.000000  1
  Sb  Sb27  1  0.000000  0.000000  0.500000  1
