# generated using pymatgen
data_La2Pr3Si4
_symmetry_space_group_name_H-M   'P 1'
_cell_length_a   7.98490800
_cell_length_b   7.98490800
_cell_length_c   15.36554100
_cell_angle_alpha   90.00000000
_cell_angle_beta   90.00000000
_cell_angle_gamma   90.00000000
_symmetry_Int_Tables_number   1
_chemical_formula_structural   La2Pr3Si4
_chemical_formula_sum   'La8 Pr12 Si16'
_cell_volume   979.68777587
_cell_formula_units_Z   4
loop_
 _symmetry_equiv_pos_site_id
 _symmetry_equiv_pos_as_xyz
  1  'x, y, z'
loop_
 _atom_site_type_symbol
 _atom_site_label
 _atom_site_symmetry_multiplicity
 _atom_site_fract_x
 _atom_site_fract_y
 _atom_site_fract_z
 _atom_site_occupancy
  La  La0  1  0.375751  0.011536  0.449315  1
  La  La1  1  0.488464  0.875751  0.699315  1
  La  La2  1  0.511536  0.124249  0.199315  1
  La  La3  1  0.875751  0.488464  0.300685  1
  La  La4  1  0.124249  0.511536  0.800685  1
  La  La5  1  0.624249  0.988464  0.949315  1
  La  La6  1  0.011536  0.375751  0.550685  1
  La  La7  1  0.988464  0.624249  0.050685  1
  Pr  Pr8  1  0.309639  0.309639  0.000000  1
  Pr  Pr9  1  0.190361  0.809639  0.250000  1
  Pr  Pr10  1  0.809639  0.190361  0.750000  1
  Pr  Pr11  1  0.690361  0.690361  0.500000  1
  Pr  Pr12  1  0.128182  0.982901  0.875844  1
  Pr  Pr13  1  0.517099  0.628182  0.125844  1
  Pr  Pr14  1  0.482901  0.371818  0.625844  1
  Pr  Pr15  1  0.628182  0.517099  0.874156  1
  Pr  Pr16  1  0.371818  0.482901  0.374156  1
  Pr  Pr17  1  0.871818  0.017099  0.375844  1
  Pr  Pr18  1  0.982901  0.128182  0.124156  1
  Pr  Pr19  1  0.017099  0.871818  0.624156  1
  Si  Si20  1  0.197812  0.167560  0.701161  1
  Si  Si21  1  0.332440  0.697812  0.951161  1
  Si  Si22  1  0.667560  0.302188  0.451161  1
  Si  Si23  1  0.697812  0.332440  0.048839  1
  Si  Si24  1  0.302188  0.667560  0.548839  1
  Si  Si25  1  0.802188  0.832440  0.201161  1
  Si  Si26  1  0.167560  0.197812  0.298839  1
  Si  Si27  1  0.832440  0.802188  0.798839  1
  Si  Si28  1  0.288838  0.921935  0.059225  1
  Si  Si29  1  0.578065  0.788838  0.309225  1
  Si  Si30  1  0.421935  0.211162  0.809225  1
  Si  Si31  1  0.788838  0.578065  0.690775  1
  Si  Si32  1  0.211162  0.421935  0.190775  1
  Si  Si33  1  0.711162  0.078065  0.559225  1
  Si  Si34  1  0.921935  0.288838  0.940775  1
  Si  Si35  1  0.078065  0.711162  0.440775  1
