# generated using pymatgen
data_Ho10In3Hg5PdPt3
_symmetry_space_group_name_H-M   'P 1'
_cell_length_a   3.62406500
_cell_length_b   7.96302853
_cell_length_c   18.32767174
_cell_angle_alpha   89.68658595
_cell_angle_beta   90.00000000
_cell_angle_gamma   90.00000000
_symmetry_Int_Tables_number   1
_chemical_formula_structural   Ho10In3Hg5PdPt3
_chemical_formula_sum   'Ho10 In3 Hg5 Pd1 Pt3'
_cell_volume   528.90180610
_cell_formula_units_Z   1
loop_
 _symmetry_equiv_pos_site_id
 _symmetry_equiv_pos_as_xyz
  1  'x, y, z'
loop_
 _atom_site_type_symbol
 _atom_site_label
 _atom_site_symmetry_multiplicity
 _atom_site_fract_x
 _atom_site_fract_y
 _atom_site_fract_z
 _atom_site_occupancy
  Ho  Ho0  1  0.000000  0.498834  0.501126  1
  Ho  Ho1  1  0.000000  0.002376  0.001002  1
  Ho  Ho2  1  0.000000  0.742652  0.284571  1
  Ho  Ho3  1  0.000000  0.262045  0.713810  1
  Ho  Ho4  1  0.000000  0.750924  0.781074  1
  Ho  Ho5  1  0.000000  0.252995  0.216679  1
  Ho  Ho6  1  0.000000  0.611824  0.084533  1
  Ho  Ho7  1  0.000000  0.390499  0.914440  1
  Ho  Ho8  1  0.000000  0.884093  0.587233  1
  Ho  Ho9  1  0.000000  0.105877  0.417478  1
  In  In10  1  0.500000  0.418142  0.352978  1
  In  In11  1  0.500000  0.925900  0.150529  1
  In  In12  1  0.500000  0.075862  0.851331  1
  Hg  Hg13  1  0.500000  0.716714  0.935396  1
  Hg  Hg14  1  0.500000  0.286687  0.065712  1
  Hg  Hg15  1  0.500000  0.784186  0.433567  1
  Hg  Hg16  1  0.500000  0.206998  0.562308  1
  Hg  Hg17  1  0.500000  0.574511  0.644211  1
  Pd  Pd18  1  0.500000  0.034734  0.302559  1
  Pt  Pt19  1  0.500000  0.536586  0.198453  1
  Pt  Pt20  1  0.500000  0.465122  0.802372  1
  Pt  Pt21  1  0.500000  0.972437  0.698637  1
