# generated using pymatgen
data_AcLa9(CoSn2)2
_symmetry_space_group_name_H-M   'P 1'
_cell_length_a   8.26891231
_cell_length_b   9.21130980
_cell_length_c   12.83685700
_cell_angle_alpha   90.13574258
_cell_angle_beta   90.22420413
_cell_angle_gamma   89.97348122
_symmetry_Int_Tables_number   1
_chemical_formula_structural   AcLa9(CoSn2)2
_chemical_formula_sum   'Ac2 La18 Co4 Sn8'
_cell_volume   977.74114162
_cell_formula_units_Z   2
loop_
 _symmetry_equiv_pos_site_id
 _symmetry_equiv_pos_as_xyz
  1  'x, y, z'
loop_
 _atom_site_type_symbol
 _atom_site_label
 _atom_site_symmetry_multiplicity
 _atom_site_fract_x
 _atom_site_fract_y
 _atom_site_fract_z
 _atom_site_occupancy
  Ac  Ac0  1  0.681160  0.040170  0.571476  1
  Ac  Ac1  1  0.318840  0.959830  0.428524  1
  La  La2  1  0.843010  0.750545  0.796510  1
  La  La3  1  0.156990  0.249455  0.203490  1
  La  La4  1  0.340710  0.251629  0.708471  1
  La  La5  1  0.659290  0.748371  0.291529  1
  La  La6  1  0.371492  0.747689  0.697391  1
  La  La7  1  0.628508  0.252311  0.302609  1
  La  La8  1  0.871784  0.249369  0.809561  1
  La  La9  1  0.128216  0.750631  0.190439  1
  La  La10  1  0.938945  0.749014  0.502055  1
  La  La11  1  0.061055  0.250986  0.497945  1
  La  La12  1  0.448022  0.251898  0.997549  1
  La  La13  1  0.551978  0.748102  0.002451  1
  La  La14  1  0.177192  0.970995  0.930888  1
  La  La15  1  0.323583  0.527823  0.431272  1
  La  La16  1  0.822808  0.029005  0.069112  1
  La  La17  1  0.676417  0.472177  0.568728  1
  La  La18  1  0.824696  0.470377  0.069978  1
  La  La19  1  0.175304  0.529623  0.930022  1
  Co  Co20  1  0.582912  0.742479  0.511452  1
  Co  Co21  1  0.417088  0.257521  0.488548  1
  Co  Co22  1  0.079414  0.252107  0.990263  1
  Co  Co23  1  0.920586  0.747893  0.009737  1
  Sn  Sn24  1  0.570196  0.493610  0.829104  1
  Sn  Sn25  1  0.429804  0.506390  0.170896  1
  Sn  Sn26  1  0.064822  0.506080  0.672339  1
  Sn  Sn27  1  0.433743  0.994503  0.167584  1
  Sn  Sn28  1  0.935178  0.493920  0.327661  1
  Sn  Sn29  1  0.566257  0.005497  0.832416  1
  Sn  Sn30  1  0.929775  0.007354  0.325975  1
  Sn  Sn31  1  0.070225  0.992646  0.674025  1
