# generated using pymatgen
data_Cu2Pd3(PtO4)3
_symmetry_space_group_name_H-M   'P 1'
_cell_length_a   3.17334800
_cell_length_b   7.23687892
_cell_length_c   10.08893447
_cell_angle_alpha   89.73048826
_cell_angle_beta   90.00000000
_cell_angle_gamma   90.00000000
_symmetry_Int_Tables_number   1
_chemical_formula_structural   Cu2Pd3(PtO4)3
_chemical_formula_sum   'Cu2 Pd3 Pt3 O12'
_cell_volume   231.69118144
_cell_formula_units_Z   1
loop_
 _symmetry_equiv_pos_site_id
 _symmetry_equiv_pos_as_xyz
  1  'x, y, z'
loop_
 _atom_site_type_symbol
 _atom_site_label
 _atom_site_symmetry_multiplicity
 _atom_site_fract_x
 _atom_site_fract_y
 _atom_site_fract_z
 _atom_site_occupancy
  Cu  Cu0  1  0.000000  0.999481  0.002163  1
  Cu  Cu1  1  0.000000  0.500180  0.497971  1
  Pd  Pd2  1  0.000000  0.002707  0.499108  1
  Pd  Pd3  1  0.000000  0.497355  0.000750  1
  Pd  Pd4  1  0.500000  0.246593  0.248231  1
  Pt  Pt5  1  0.500000  0.753268  0.751570  1
  Pt  Pt6  1  0.500000  0.253142  0.748244  1
  Pt  Pt7  1  0.500000  0.746951  0.251756  1
  O  O8  1  0.500000  0.992046  0.141836  1
  O  O9  1  0.500000  0.002928  0.855564  1
  O  O10  1  0.500000  0.503987  0.644264  1
  O  O11  1  0.500000  0.501141  0.358918  1
  O  O12  1  0.000000  0.206541  0.370707  1
  O  O13  1  0.000000  0.796774  0.630722  1
  O  O14  1  0.000000  0.294466  0.868900  1
  O  O15  1  0.000000  0.700948  0.131813  1
  O  O16  1  0.000000  0.286607  0.124564  1
  O  O17  1  0.000000  0.710161  0.873698  1
  O  O18  1  0.000000  0.212275  0.626593  1
  O  O19  1  0.000000  0.792449  0.372631  1
