# generated using pymatgen
data_Tm2Lu4RePb2
_symmetry_space_group_name_H-M   'P 1'
_cell_length_a   8.13775600
_cell_length_b   8.13775457
_cell_length_c   4.30049100
_cell_angle_alpha   90.00000000
_cell_angle_beta   90.00000000
_cell_angle_gamma   120.15096375
_symmetry_Int_Tables_number   1
_chemical_formula_structural   Tm2Lu4RePb2
_chemical_formula_sum   'Tm2 Lu4 Re1 Pb2'
_cell_volume   246.26078577
_cell_formula_units_Z   1
loop_
 _symmetry_equiv_pos_site_id
 _symmetry_equiv_pos_as_xyz
  1  'x, y, z'
loop_
 _atom_site_type_symbol
 _atom_site_label
 _atom_site_symmetry_multiplicity
 _atom_site_fract_x
 _atom_site_fract_y
 _atom_site_fract_z
 _atom_site_occupancy
  Tm  Tm0  1  0.614202  0.999822  0.000000  1
  Tm  Tm1  1  0.999822  0.614202  0.000000  1
  Lu  Lu2  1  0.238684  0.000685  0.500000  1
  Lu  Lu3  1  0.000685  0.238684  0.500000  1
  Lu  Lu4  1  0.761403  0.761403  0.500000  1
  Lu  Lu5  1  0.384022  0.384022  0.000000  1
  Re  Re6  1  0.000949  0.000949  0.000000  1
  Pb  Pb7  1  0.333587  0.666645  0.500000  1
  Pb  Pb8  1  0.666645  0.333587  0.500000  1
