# generated using pymatgen
data_PrNd5(Te4Cl)2
_symmetry_space_group_name_H-M   'P 1'
_cell_length_a   4.31410800
_cell_length_b   14.12696900
_cell_length_c   16.12004600
_cell_angle_alpha   90.00000000
_cell_angle_beta   90.00000000
_cell_angle_gamma   90.00000000
_symmetry_Int_Tables_number   1
_chemical_formula_structural   PrNd5(Te4Cl)2
_chemical_formula_sum   'Pr2 Nd10 Te16 Cl4'
_cell_volume   982.44055554
_cell_formula_units_Z   2
loop_
 _symmetry_equiv_pos_site_id
 _symmetry_equiv_pos_as_xyz
  1  'x, y, z'
loop_
 _atom_site_type_symbol
 _atom_site_label
 _atom_site_symmetry_multiplicity
 _atom_site_fract_x
 _atom_site_fract_y
 _atom_site_fract_z
 _atom_site_occupancy
  Pr  Pr0  1  0.250000  0.905335  0.627526  1
  Pr  Pr1  1  0.250000  0.594665  0.127526  1
  Nd  Nd2  1  0.750000  0.094627  0.372648  1
  Nd  Nd3  1  0.750000  0.405373  0.872648  1
  Nd  Nd4  1  0.750000  0.253031  0.614967  1
  Nd  Nd5  1  0.750000  0.246969  0.114967  1
  Nd  Nd6  1  0.250000  0.747068  0.385031  1
  Nd  Nd7  1  0.250000  0.752932  0.885031  1
  Nd  Nd8  1  0.750000  0.578218  0.632092  1
  Nd  Nd9  1  0.750000  0.921782  0.132092  1
  Nd  Nd10  1  0.250000  0.421575  0.368017  1
  Nd  Nd11  1  0.250000  0.078425  0.868017  1
  Te  Te12  1  0.250000  0.420899  0.570956  1
  Te  Te13  1  0.250000  0.079101  0.070956  1
  Te  Te14  1  0.750000  0.579072  0.429040  1
  Te  Te15  1  0.750000  0.920928  0.929040  1
  Te  Te16  1  0.750000  0.050563  0.715377  1
  Te  Te17  1  0.750000  0.449437  0.215377  1
  Te  Te18  1  0.250000  0.950255  0.285108  1
  Te  Te19  1  0.250000  0.549745  0.785108  1
  Te  Te20  1  0.750000  0.775783  0.734122  1
  Te  Te21  1  0.750000  0.724217  0.234122  1
  Te  Te22  1  0.250000  0.223572  0.266472  1
  Te  Te23  1  0.250000  0.276428  0.766472  1
  Te  Te24  1  0.250000  0.111629  0.524721  1
  Te  Te25  1  0.250000  0.388371  0.024721  1
  Te  Te26  1  0.750000  0.888767  0.474098  1
  Te  Te27  1  0.750000  0.611233  0.974098  1
  Cl  Cl28  1  0.250000  0.701154  0.569139  1
  Cl  Cl29  1  0.250000  0.798846  0.069139  1
  Cl  Cl30  1  0.750000  0.298326  0.430688  1
  Cl  Cl31  1  0.750000  0.201674  0.930688  1
