# generated using pymatgen
data_Er6Mn3Al12Si12Ru5
_symmetry_space_group_name_H-M   'P 1'
_cell_length_a   8.61072000
_cell_length_b   8.60394771
_cell_length_c   9.12844478
_cell_angle_alpha   89.92253724
_cell_angle_beta   90.00000000
_cell_angle_gamma   120.02604095
_symmetry_Int_Tables_number   1
_chemical_formula_structural   Er6Mn3Al12Si12Ru5
_chemical_formula_sum   'Er6 Mn3 Al12 Si12 Ru5'
_cell_volume   585.53128352
_cell_formula_units_Z   1
loop_
 _symmetry_equiv_pos_site_id
 _symmetry_equiv_pos_as_xyz
  1  'x, y, z'
loop_
 _atom_site_type_symbol
 _atom_site_label
 _atom_site_symmetry_multiplicity
 _atom_site_fract_x
 _atom_site_fract_y
 _atom_site_fract_z
 _atom_site_occupancy
  Er  Er0  1  0.192220  0.384440  0.248423  1
  Er  Er1  1  0.807780  0.615560  0.751577  1
  Er  Er2  1  0.615882  0.809110  0.249273  1
  Er  Er3  1  0.384118  0.190890  0.750727  1
  Er  Er4  1  0.193228  0.809110  0.249273  1
  Er  Er5  1  0.806772  0.190890  0.750727  1
  Mn  Mn6  1  0.500000  0.000000  0.000000  1
  Mn  Mn7  1  0.000000  0.000000  0.000000  1
  Mn  Mn8  1  0.000000  0.000000  0.500000  1
  Al  Al9  1  0.162327  0.324653  0.579412  1
  Al  Al10  1  0.837673  0.675347  0.420588  1
  Al  Al11  1  0.674132  0.837320  0.579355  1
  Al  Al12  1  0.837354  0.674710  0.078969  1
  Al  Al13  1  0.325868  0.162680  0.420645  1
  Al  Al14  1  0.162646  0.325290  0.921031  1
  Al  Al15  1  0.163189  0.837320  0.579355  1
  Al  Al16  1  0.327502  0.159985  0.077805  1
  Al  Al17  1  0.836811  0.162680  0.420645  1
  Al  Al18  1  0.672498  0.840015  0.922195  1
  Al  Al19  1  0.832482  0.159985  0.077805  1
  Al  Al20  1  0.167518  0.840015  0.922195  1
  Si  Si21  1  0.337588  0.675177  0.040072  1
  Si  Si22  1  0.662412  0.324823  0.959928  1
  Si  Si23  1  0.666595  0.333189  0.542799  1
  Si  Si24  1  0.333405  0.666811  0.457201  1
  Si  Si25  1  0.559542  0.119084  0.243835  1
  Si  Si26  1  0.440458  0.880916  0.756165  1
  Si  Si27  1  0.875483  0.437961  0.249809  1
  Si  Si28  1  0.124517  0.562039  0.750191  1
  Si  Si29  1  0.562478  0.437961  0.249809  1
  Si  Si30  1  0.437522  0.562039  0.750191  1
  Si  Si31  1  0.999997  0.999994  0.249783  1
  Si  Si32  1  0.000003  0.000006  0.750217  1
  Ru  Ru33  1  0.000000  0.500000  0.000000  1
  Ru  Ru34  1  0.500000  0.000000  0.500000  1
  Ru  Ru35  1  0.500000  0.500000  0.000000  1
  Ru  Ru36  1  0.000000  0.500000  0.500000  1
  Ru  Ru37  1  0.500000  0.500000  0.500000  1
