# generated using pymatgen
data_Tm3Si2GeOs2
_symmetry_space_group_name_H-M   'P 1'
_cell_length_a   5.69161849
_cell_length_b   5.69161781
_cell_length_c   13.70170300
_cell_angle_alpha   90.00000000
_cell_angle_beta   90.00000000
_cell_angle_gamma   137.05227332
_symmetry_Int_Tables_number   1
_chemical_formula_structural   Tm3Si2GeOs2
_chemical_formula_sum   'Tm6 Si4 Ge2 Os4'
_cell_volume   302.41553919
_cell_formula_units_Z   2
loop_
 _symmetry_equiv_pos_site_id
 _symmetry_equiv_pos_as_xyz
  1  'x, y, z'
loop_
 _atom_site_type_symbol
 _atom_site_label
 _atom_site_symmetry_multiplicity
 _atom_site_fract_x
 _atom_site_fract_y
 _atom_site_fract_z
 _atom_site_occupancy
  Tm  Tm0  1  0.926377  0.073623  0.386655  1
  Tm  Tm1  1  0.073623  0.926377  0.613345  1
  Tm  Tm2  1  0.926377  0.073623  0.113345  1
  Tm  Tm3  1  0.073623  0.926377  0.886655  1
  Tm  Tm4  1  0.645777  0.354223  0.250000  1
  Tm  Tm5  1  0.354223  0.645777  0.750000  1
  Si  Si6  1  0.615276  0.384724  0.461566  1
  Si  Si7  1  0.384724  0.615276  0.538434  1
  Si  Si8  1  0.615276  0.384724  0.038434  1
  Si  Si9  1  0.384724  0.615276  0.961566  1
  Ge  Ge10  1  0.338161  0.661839  0.250000  1
  Ge  Ge11  1  0.661839  0.338161  0.750000  1
  Os  Os12  1  0.789141  0.210859  0.919080  1
  Os  Os13  1  0.210859  0.789141  0.080920  1
  Os  Os14  1  0.789141  0.210859  0.580920  1
  Os  Os15  1  0.210859  0.789141  0.419080  1
