# generated using pymatgen
data_Li7AsPd8
_symmetry_space_group_name_H-M   'P 1'
_cell_length_a   5.79531400
_cell_length_b   5.80024000
_cell_length_c   6.33294800
_cell_angle_alpha   89.99989134
_cell_angle_beta   89.99993079
_cell_angle_gamma   89.99973329
_symmetry_Int_Tables_number   1
_chemical_formula_structural   Li7AsPd8
_chemical_formula_sum   'Li7 As1 Pd8'
_cell_volume   212.87705713
_cell_formula_units_Z   1
loop_
 _symmetry_equiv_pos_site_id
 _symmetry_equiv_pos_as_xyz
  1  'x, y, z'
loop_
 _atom_site_type_symbol
 _atom_site_label
 _atom_site_symmetry_multiplicity
 _atom_site_fract_x
 _atom_site_fract_y
 _atom_site_fract_z
 _atom_site_occupancy
  Li  Li0  1  0.750005  0.250013  0.000010  1
  Li  Li1  1  0.249993  0.749990  0.000007  1
  Li  Li2  1  0.250000  0.749998  0.499997  1
  Li  Li3  1  0.749999  0.250008  0.499995  1
  Li  Li4  1  0.749993  0.749994  0.000020  1
  Li  Li5  1  0.750013  0.749989  0.499988  1
  Li  Li6  1  0.250001  0.250011  0.500006  1
  As  As7  1  0.250003  0.249990  0.999989  1
  Pd  Pd8  1  0.500208  0.999793  0.247504  1
  Pd  Pd9  1  0.500207  0.500203  0.247494  1
  Pd  Pd10  1  0.999791  0.999804  0.247503  1
  Pd  Pd11  1  0.999780  0.500203  0.247507  1
  Pd  Pd12  1  0.999782  0.999794  0.752502  1
  Pd  Pd13  1  0.999784  0.500217  0.752491  1
  Pd  Pd14  1  0.500224  0.999797  0.752492  1
  Pd  Pd15  1  0.500213  0.500206  0.752495  1
