# generated using pymatgen
data_Ce3Th(NiAs)4
_symmetry_space_group_name_H-M   'P 1'
_cell_length_a   4.18685200
_cell_length_b   4.18685270
_cell_length_c   15.30852600
_cell_angle_alpha   90.00000000
_cell_angle_beta   90.00000000
_cell_angle_gamma   119.99999448
_symmetry_Int_Tables_number   1
_chemical_formula_structural   Ce3Th(NiAs)4
_chemical_formula_sum   'Ce3 Th1 Ni4 As4'
_cell_volume   232.40171210
_cell_formula_units_Z   1
loop_
 _symmetry_equiv_pos_site_id
 _symmetry_equiv_pos_as_xyz
  1  'x, y, z'
loop_
 _atom_site_type_symbol
 _atom_site_label
 _atom_site_symmetry_multiplicity
 _atom_site_fract_x
 _atom_site_fract_y
 _atom_site_fract_z
 _atom_site_occupancy
  Ce  Ce0  1  0.000000  0.000000  0.252480  1
  Ce  Ce1  1  0.000000  0.000000  0.500000  1
  Ce  Ce2  1  0.000000  0.000000  0.747520  1
  Th  Th3  1  0.000000  0.000000  0.000000  1
  Ni  Ni4  1  0.333334  0.666668  0.124054  1
  Ni  Ni5  1  0.333334  0.666668  0.372670  1
  Ni  Ni6  1  0.666667  0.333334  0.627330  1
  Ni  Ni7  1  0.666667  0.333334  0.875946  1
  As  As8  1  0.666667  0.333334  0.129083  1
  As  As9  1  0.666667  0.333334  0.377703  1
  As  As10  1  0.333334  0.666668  0.622297  1
  As  As11  1  0.333334  0.666668  0.870917  1
