# generated using pymatgen
data_BaCr2(Sb6Pt)2
_symmetry_space_group_name_H-M   'P 1'
_cell_length_a   8.26076111
_cell_length_b   8.26076139
_cell_length_c   8.24422570
_cell_angle_alpha   109.33727283
_cell_angle_beta   109.72259176
_cell_angle_gamma   109.43537372
_symmetry_Int_Tables_number   1
_chemical_formula_structural   BaCr2(Sb6Pt)2
_chemical_formula_sum   'Ba1 Cr2 Sb12 Pt2'
_cell_volume   432.63947201
_cell_formula_units_Z   1
loop_
 _symmetry_equiv_pos_site_id
 _symmetry_equiv_pos_as_xyz
  1  'x, y, z'
loop_
 _atom_site_type_symbol
 _atom_site_label
 _atom_site_symmetry_multiplicity
 _atom_site_fract_x
 _atom_site_fract_y
 _atom_site_fract_z
 _atom_site_occupancy
  Ba  Ba0  1  0.000000  0.000000  0.000000  1
  Cr  Cr1  1  0.000000  0.000000  0.500000  1
  Cr  Cr2  1  0.500000  0.500000  0.500000  1
  Sb  Sb3  1  0.336440  0.184799  0.836457  1
  Sb  Sb4  1  0.663560  0.815201  0.163543  1
  Sb  Sb5  1  0.651658  0.500016  0.836457  1
  Sb  Sb6  1  0.348342  0.499984  0.163543  1
  Sb  Sb7  1  0.185584  0.849762  0.350250  1
  Sb  Sb8  1  0.814416  0.150238  0.649750  1
  Sb  Sb9  1  0.499511  0.835334  0.649750  1
  Sb  Sb10  1  0.500489  0.164666  0.350250  1
  Sb  Sb11  1  0.846138  0.347275  0.193413  1
  Sb  Sb12  1  0.153862  0.652725  0.806587  1
  Sb  Sb13  1  0.837918  0.661615  0.499531  1
  Sb  Sb14  1  0.162082  0.338385  0.500469  1
  Pt  Pt15  1  0.500000  0.000000  0.000000  1
  Pt  Pt16  1  0.000000  0.500000  0.000000  1
