# generated using pymatgen
data_Pr4In2Ag3Rh
_symmetry_space_group_name_H-M   'P 1'
_cell_length_a   8.15269049
_cell_length_b   8.15269113
_cell_length_c   3.90553500
_cell_angle_alpha   90.00000000
_cell_angle_beta   90.00000000
_cell_angle_gamma   90.24352916
_symmetry_Int_Tables_number   1
_chemical_formula_structural   Pr4In2Ag3Rh
_chemical_formula_sum   'Pr4 In2 Ag3 Rh1'
_cell_volume   259.58437948
_cell_formula_units_Z   1
loop_
 _symmetry_equiv_pos_site_id
 _symmetry_equiv_pos_as_xyz
  1  'x, y, z'
loop_
 _atom_site_type_symbol
 _atom_site_label
 _atom_site_symmetry_multiplicity
 _atom_site_fract_x
 _atom_site_fract_y
 _atom_site_fract_z
 _atom_site_occupancy
  Pr  Pr0  1  0.683476  0.150706  0.500000  1
  Pr  Pr1  1  0.349294  0.816524  0.500000  1
  Pr  Pr2  1  0.807425  0.692575  0.500000  1
  Pr  Pr3  1  0.173393  0.326607  0.500000  1
  In  In4  1  0.500115  0.498765  0.000000  1
  In  In5  1  0.001235  0.999885  0.000000  1
  Ag  Ag6  1  0.374841  0.125159  0.000000  1
  Ag  Ag7  1  0.118319  0.630822  0.000000  1
  Ag  Ag8  1  0.869178  0.381681  0.000000  1
  Rh  Rh9  1  0.622724  0.877276  0.000000  1
