# generated using pymatgen
data_SrTb2Yb5(Si3Pd)4
_symmetry_space_group_name_H-M   'P 1'
_cell_length_a   8.26544571
_cell_length_b   8.26544448
_cell_length_c   8.25064500
_cell_angle_alpha   90.00000000
_cell_angle_beta   90.00000000
_cell_angle_gamma   120.09821480
_symmetry_Int_Tables_number   1
_chemical_formula_structural   SrTb2Yb5(Si3Pd)4
_chemical_formula_sum   'Sr1 Tb2 Yb5 Si12 Pd4'
_cell_volume   487.66362271
_cell_formula_units_Z   1
loop_
 _symmetry_equiv_pos_site_id
 _symmetry_equiv_pos_as_xyz
  1  'x, y, z'
loop_
 _atom_site_type_symbol
 _atom_site_label
 _atom_site_symmetry_multiplicity
 _atom_site_fract_x
 _atom_site_fract_y
 _atom_site_fract_z
 _atom_site_occupancy
  Sr  Sr0  1  0.498855  0.501145  0.750000  1
  Tb  Tb1  1  0.999961  0.000039  0.250000  1
  Tb  Tb2  1  0.000187  0.999813  0.750000  1
  Yb  Yb3  1  0.501274  0.002277  0.250000  1
  Yb  Yb4  1  0.498822  0.997984  0.750000  1
  Yb  Yb5  1  0.997723  0.498726  0.250000  1
  Yb  Yb6  1  0.002016  0.501178  0.750000  1
  Yb  Yb7  1  0.501060  0.498940  0.250000  1
  Si  Si8  1  0.162413  0.327809  0.005777  1
  Si  Si9  1  0.837596  0.672225  0.003796  1
  Si  Si10  1  0.672191  0.837587  0.005777  1
  Si  Si11  1  0.837596  0.672225  0.496204  1
  Si  Si12  1  0.327775  0.162404  0.003796  1
  Si  Si13  1  0.162413  0.327809  0.494223  1
  Si  Si14  1  0.164132  0.835868  0.001701  1
  Si  Si15  1  0.327775  0.162404  0.496204  1
  Si  Si16  1  0.835948  0.164052  0.999357  1
  Si  Si17  1  0.672191  0.837587  0.494223  1
  Si  Si18  1  0.835948  0.164052  0.500643  1
  Si  Si19  1  0.164132  0.835868  0.498299  1
  Pd  Pd20  1  0.331867  0.668133  0.010644  1
  Pd  Pd21  1  0.668129  0.331871  0.007023  1
  Pd  Pd22  1  0.668129  0.331871  0.492977  1
  Pd  Pd23  1  0.331867  0.668133  0.489356  1
