# generated using pymatgen
data_CaCeBr6
_symmetry_space_group_name_H-M   'P 1'
_cell_length_a   7.39302219
_cell_length_b   7.39302250
_cell_length_c   7.14434961
_cell_angle_alpha   100.03771321
_cell_angle_beta   100.03770987
_cell_angle_gamma   119.89815838
_symmetry_Int_Tables_number   1
_chemical_formula_structural   CaCeBr6
_chemical_formula_sum   'Ca1 Ce1 Br6'
_cell_volume   317.35187941
_cell_formula_units_Z   1
loop_
 _symmetry_equiv_pos_site_id
 _symmetry_equiv_pos_as_xyz
  1  'x, y, z'
loop_
 _atom_site_type_symbol
 _atom_site_label
 _atom_site_symmetry_multiplicity
 _atom_site_fract_x
 _atom_site_fract_y
 _atom_site_fract_z
 _atom_site_occupancy
  Ca  Ca0  1  0.834104  0.165897  0.000000  1
  Ce  Ce1  1  0.166541  0.833460  0.000000  1
  Br  Br2  1  0.939612  0.590175  0.234447  1
  Br  Br3  1  0.567473  0.930011  0.238340  1
  Br  Br4  1  0.224436  0.211978  0.244223  1
  Br  Br5  1  0.788022  0.775564  0.755778  1
  Br  Br6  1  0.409824  0.060388  0.765553  1
  Br  Br7  1  0.069989  0.432526  0.761660  1
