# generated using pymatgen
data_Nd2Cu7Pt3
_symmetry_space_group_name_H-M   'P 1'
_cell_length_a   4.08607700
_cell_length_b   5.11871981
_cell_length_c   9.31245960
_cell_angle_alpha   87.63244544
_cell_angle_beta   90.00000000
_cell_angle_gamma   90.00000000
_symmetry_Int_Tables_number   1
_chemical_formula_structural   Nd2Cu7Pt3
_chemical_formula_sum   'Nd2 Cu7 Pt3'
_cell_volume   194.60833014
_cell_formula_units_Z   1
loop_
 _symmetry_equiv_pos_site_id
 _symmetry_equiv_pos_as_xyz
  1  'x, y, z'
loop_
 _atom_site_type_symbol
 _atom_site_label
 _atom_site_symmetry_multiplicity
 _atom_site_fract_x
 _atom_site_fract_y
 _atom_site_fract_z
 _atom_site_occupancy
  Nd  Nd0  1  0.000000  0.238695  0.755192  1
  Nd  Nd1  1  0.000000  0.761305  0.244808  1
  Cu  Cu2  1  0.000000  0.267268  0.080872  1
  Cu  Cu3  1  0.000000  0.747928  0.570458  1
  Cu  Cu4  1  0.000000  0.732732  0.919128  1
  Cu  Cu5  1  0.000000  0.252072  0.429542  1
  Cu  Cu6  1  0.500000  0.500000  0.500000  1
  Cu  Cu7  1  0.500000  0.500000  0.000000  1
  Cu  Cu8  1  0.500000  0.000000  0.500000  1
  Pt  Pt9  1  0.500000  0.733279  0.744239  1
  Pt  Pt10  1  0.500000  0.266721  0.255761  1
  Pt  Pt11  1  0.500000  0.000000  0.000000  1
