# generated using pymatgen
data_TbSm3Ge4F28
_symmetry_space_group_name_H-M   'P 1'
_cell_length_a   5.48524287
_cell_length_b   8.85812247
_cell_length_c   11.86530100
_cell_angle_alpha   62.08111277
_cell_angle_beta   90.03219285
_cell_angle_gamma   89.99901293
_symmetry_Int_Tables_number   1
_chemical_formula_structural   TbSm3Ge4F28
_chemical_formula_sum   'Tb1 Sm3 Ge4 F28'
_cell_volume   509.42175542
_cell_formula_units_Z   1
loop_
 _symmetry_equiv_pos_site_id
 _symmetry_equiv_pos_as_xyz
  1  'x, y, z'
loop_
 _atom_site_type_symbol
 _atom_site_label
 _atom_site_symmetry_multiplicity
 _atom_site_fract_x
 _atom_site_fract_y
 _atom_site_fract_z
 _atom_site_occupancy
  Tb  Tb0  1  0.761645  0.808897  0.763931  1
  Sm  Sm1  1  0.260021  0.189422  0.735974  1
  Sm  Sm2  1  0.239534  0.190792  0.235890  1
  Sm  Sm3  1  0.739511  0.808499  0.263916  1
  Ge  Ge4  1  0.756813  0.276455  0.956497  1
  Ge  Ge5  1  0.258764  0.725994  0.544487  1
  Ge  Ge6  1  0.242827  0.725515  0.040621  1
  Ge  Ge7  1  0.743373  0.273019  0.458358  1
  F  F8  1  0.433003  0.707130  0.921508  1
  F  F9  1  0.930339  0.292484  0.578152  1
  F  F10  1  0.568776  0.294078  0.076581  1
  F  F11  1  0.067703  0.707490  0.425425  1
  F  F12  1  0.461640  0.282781  0.538965  1
  F  F13  1  0.961903  0.717327  0.957991  1
  F  F14  1  0.537839  0.716685  0.461808  1
  F  F15  1  0.037762  0.285244  0.037826  1
  F  F16  1  0.767219  0.509522  0.862942  1
  F  F17  1  0.270208  0.493823  0.637689  1
  F  F18  1  0.229708  0.493354  0.134480  1
  F  F19  1  0.731685  0.505672  0.364866  1
  F  F20  1  0.760898  0.043852  0.046151  1
  F  F21  1  0.261567  0.958118  0.454327  1
  F  F22  1  0.239396  0.957891  0.952457  1
  F  F23  1  0.739959  0.040707  0.547987  1
  F  F24  1  0.987434  0.729252  0.633662  1
  F  F25  1  0.483701  0.272098  0.869437  1
  F  F26  1  0.017579  0.270978  0.371257  1
  F  F27  1  0.515184  0.727821  0.129223  1
  F  F28  1  0.054924  0.739575  0.164172  1
  F  F29  1  0.558002  0.259523  0.334015  1
  F  F30  1  0.942599  0.261943  0.832726  1
  F  F31  1  0.449566  0.741697  0.666926  1
  F  F32  1  0.397293  0.965473  0.226226  1
  F  F33  1  0.897800  0.033916  0.273443  1
  F  F34  1  0.599706  0.028129  0.772651  1
  F  F35  1  0.094119  0.964843  0.727434  1
