# generated using pymatgen
data_Hf4Si4MoAu
_symmetry_space_group_name_H-M   'P 1'
_cell_length_a   6.63227800
_cell_length_b   6.63227800
_cell_length_c   3.86710600
_cell_angle_alpha   90.00000000
_cell_angle_beta   90.00000000
_cell_angle_gamma   90.00000000
_symmetry_Int_Tables_number   1
_chemical_formula_structural   Hf4Si4MoAu
_chemical_formula_sum   'Hf4 Si4 Mo1 Au1'
_cell_volume   170.10282269
_cell_formula_units_Z   1
loop_
 _symmetry_equiv_pos_site_id
 _symmetry_equiv_pos_as_xyz
  1  'x, y, z'
loop_
 _atom_site_type_symbol
 _atom_site_label
 _atom_site_symmetry_multiplicity
 _atom_site_fract_x
 _atom_site_fract_y
 _atom_site_fract_z
 _atom_site_occupancy
  Hf  Hf0  1  0.823025  0.670158  0.500000  1
  Hf  Hf1  1  0.329842  0.823025  0.500000  1
  Hf  Hf2  1  0.176975  0.329842  0.500000  1
  Hf  Hf3  1  0.670158  0.176975  0.500000  1
  Si  Si4  1  0.130440  0.621834  0.000000  1
  Si  Si5  1  0.621834  0.869560  0.000000  1
  Si  Si6  1  0.378166  0.130440  0.000000  1
  Si  Si7  1  0.869560  0.378166  0.000000  1
  Mo  Mo8  1  0.500000  0.500000  0.000000  1
  Au  Au9  1  0.000000  0.000000  0.000000  1
