# generated using pymatgen
data_Cd3Bi(IO6)2
_symmetry_space_group_name_H-M   'P 1'
_cell_length_a   5.03404594
_cell_length_b   5.03065495
_cell_length_c   10.01219100
_cell_angle_alpha   90.00000000
_cell_angle_beta   90.00000000
_cell_angle_gamma   90.56628172
_symmetry_Int_Tables_number   1
_chemical_formula_structural   Cd3Bi(IO6)2
_chemical_formula_sum   'Cd3 Bi1 I2 O12'
_cell_volume   253.54182924
_cell_formula_units_Z   1
loop_
 _symmetry_equiv_pos_site_id
 _symmetry_equiv_pos_as_xyz
  1  'x, y, z'
loop_
 _atom_site_type_symbol
 _atom_site_label
 _atom_site_symmetry_multiplicity
 _atom_site_fract_x
 _atom_site_fract_y
 _atom_site_fract_z
 _atom_site_occupancy
  Cd  Cd0  1  0.500000  0.500000  0.157334  1
  Cd  Cd1  1  0.000000  0.000000  0.670812  1
  Cd  Cd2  1  0.500000  0.500000  0.836067  1
  Bi  Bi3  1  0.000000  0.000000  0.334033  1
  I  I4  1  0.500000  0.500000  0.503084  1
  I  I5  1  0.000000  0.000000  0.996808  1
  O  O6  1  0.682892  0.683318  0.638857  1
  O  O7  1  0.317108  0.316682  0.638857  1
  O  O8  1  0.817110  0.183145  0.860900  1
  O  O9  1  0.182890  0.816855  0.860900  1
  O  O10  1  0.320054  0.319974  0.353252  1
  O  O11  1  0.679946  0.680026  0.353252  1
  O  O12  1  0.179820  0.819861  0.148990  1
  O  O13  1  0.820180  0.180139  0.148990  1
  O  O14  1  0.733011  0.732915  0.001078  1
  O  O15  1  0.266989  0.267085  0.001078  1
  O  O16  1  0.770551  0.229405  0.497855  1
  O  O17  1  0.229449  0.770595  0.497855  1
