# generated using pymatgen
data_Tb2Ce(InIr)3
_symmetry_space_group_name_H-M   'P 1'
_cell_length_a   7.51964433
_cell_length_b   7.51964540
_cell_length_c   3.94357500
_cell_angle_alpha   90.00000000
_cell_angle_beta   90.00000000
_cell_angle_gamma   118.04320727
_symmetry_Int_Tables_number   1
_chemical_formula_structural   Tb2Ce(InIr)3
_chemical_formula_sum   'Tb2 Ce1 In3 Ir3'
_cell_volume   196.80920013
_cell_formula_units_Z   1
loop_
 _symmetry_equiv_pos_site_id
 _symmetry_equiv_pos_as_xyz
  1  'x, y, z'
loop_
 _atom_site_type_symbol
 _atom_site_label
 _atom_site_symmetry_multiplicity
 _atom_site_fract_x
 _atom_site_fract_y
 _atom_site_fract_z
 _atom_site_occupancy
  Tb  Tb0  1  0.594144  0.999556  0.000000  1
  Tb  Tb1  1  0.999556  0.594144  0.000000  1
  Ce  Ce2  1  0.417390  0.417390  0.000000  1
  In  In3  1  0.994461  0.256686  0.500000  1
  In  In4  1  0.751786  0.751786  0.500000  1
  In  In5  1  0.256686  0.994461  0.500000  1
  Ir  Ir6  1  0.001910  0.001910  0.000000  1
  Ir  Ir7  1  0.333278  0.650788  0.500000  1
  Ir  Ir8  1  0.650788  0.333278  0.500000  1
