# generated using pymatgen
data_Nb3SiOsN
_symmetry_space_group_name_H-M   'P 1'
_cell_length_a   6.98085400
_cell_length_b   6.98085400
_cell_length_c   6.98085400
_cell_angle_alpha   90.00000000
_cell_angle_beta   90.00000000
_cell_angle_gamma   90.00000000
_symmetry_Int_Tables_number   1
_chemical_formula_structural   Nb3SiOsN
_chemical_formula_sum   'Nb12 Si4 Os4 N4'
_cell_volume   340.19322894
_cell_formula_units_Z   4
loop_
 _symmetry_equiv_pos_site_id
 _symmetry_equiv_pos_as_xyz
  1  'x, y, z'
loop_
 _atom_site_type_symbol
 _atom_site_label
 _atom_site_symmetry_multiplicity
 _atom_site_fract_x
 _atom_site_fract_y
 _atom_site_fract_z
 _atom_site_occupancy
  Nb  Nb0  1  0.794599  0.952607  0.379458  1
  Nb  Nb1  1  0.705401  0.047393  0.879458  1
  Nb  Nb2  1  0.205401  0.452607  0.120542  1
  Nb  Nb3  1  0.294599  0.547393  0.620542  1
  Nb  Nb4  1  0.952607  0.379458  0.794599  1
  Nb  Nb5  1  0.047393  0.879458  0.705401  1
  Nb  Nb6  1  0.452607  0.120542  0.205401  1
  Nb  Nb7  1  0.547393  0.620542  0.294599  1
  Nb  Nb8  1  0.379458  0.794599  0.952607  1
  Nb  Nb9  1  0.879458  0.705401  0.047393  1
  Nb  Nb10  1  0.120542  0.205401  0.452607  1
  Nb  Nb11  1  0.620542  0.294599  0.547393  1
  Si  Si12  1  0.570237  0.429763  0.929763  1
  Si  Si13  1  0.429763  0.929763  0.570237  1
  Si  Si14  1  0.929763  0.570237  0.429763  1
  Si  Si15  1  0.070237  0.070237  0.070237  1
  Os  Os16  1  0.175689  0.824311  0.324311  1
  Os  Os17  1  0.324311  0.175689  0.824311  1
  Os  Os18  1  0.824311  0.324311  0.175689  1
  Os  Os19  1  0.675689  0.675689  0.675689  1
  N  N20  1  0.872587  0.127413  0.627413  1
  N  N21  1  0.627413  0.872587  0.127413  1
  N  N22  1  0.127413  0.627413  0.872587  1
  N  N23  1  0.372587  0.372587  0.372587  1
