# generated using pymatgen
data_Tb3Ho2(CoB3)2
_symmetry_space_group_name_H-M   'P 1'
_cell_length_a   5.40917994
_cell_length_b   5.40918063
_cell_length_c   8.40770794
_cell_angle_alpha   71.23546382
_cell_angle_beta   71.23546326
_cell_angle_gamma   60.00000058
_symmetry_Int_Tables_number   1
_chemical_formula_structural   Tb3Ho2(CoB3)2
_chemical_formula_sum   'Tb3 Ho2 Co2 B6'
_cell_volume   197.80271290
_cell_formula_units_Z   1
loop_
 _symmetry_equiv_pos_site_id
 _symmetry_equiv_pos_as_xyz
  1  'x, y, z'
loop_
 _atom_site_type_symbol
 _atom_site_label
 _atom_site_symmetry_multiplicity
 _atom_site_fract_x
 _atom_site_fract_y
 _atom_site_fract_z
 _atom_site_occupancy
  Tb  Tb0  1  0.000000  0.000000  0.000000  1
  Tb  Tb1  1  0.251578  0.251578  0.245267  1
  Tb  Tb2  1  0.748422  0.748422  0.754733  1
  Ho  Ho3  1  0.417572  0.417572  0.747284  1
  Ho  Ho4  1  0.582428  0.582428  0.252716  1
  Co  Co5  1  0.119879  0.119879  0.640362  1
  Co  Co6  1  0.880121  0.880121  0.359638  1
  B  B7  1  0.168349  0.831651  0.500000  1
  B  B8  1  0.831651  0.500000  0.500000  1
  B  B9  1  0.500000  0.168349  0.500000  1
  B  B10  1  0.168349  0.500000  0.500000  1
  B  B11  1  0.500000  0.831651  0.500000  1
  B  B12  1  0.831651  0.168349  0.500000  1
