# generated using pymatgen
data_Sc5Al16GeIr7
_symmetry_space_group_name_H-M   'P 1'
_cell_length_a   8.65881308
_cell_length_b   8.76972418
_cell_length_c   8.76972548
_cell_angle_alpha   59.16502961
_cell_angle_beta   60.41749287
_cell_angle_gamma   60.41749470
_symmetry_Int_Tables_number   1
_chemical_formula_structural   Sc5Al16GeIr7
_chemical_formula_sum   'Sc5 Al16 Ge1 Ir7'
_cell_volume   470.73678256
_cell_formula_units_Z   1
loop_
 _symmetry_equiv_pos_site_id
 _symmetry_equiv_pos_as_xyz
  1  'x, y, z'
loop_
 _atom_site_type_symbol
 _atom_site_label
 _atom_site_symmetry_multiplicity
 _atom_site_fract_x
 _atom_site_fract_y
 _atom_site_fract_z
 _atom_site_occupancy
  Sc  Sc0  1  0.795003  0.204997  0.204997  1
  Sc  Sc1  1  0.778429  0.221571  0.773308  1
  Sc  Sc2  1  0.778429  0.773308  0.221571  1
  Sc  Sc3  1  0.226692  0.773308  0.221571  1
  Sc  Sc4  1  0.226692  0.221571  0.773308  1
  Al  Al5  1  0.883004  0.837845  0.837845  1
  Al  Al6  1  0.849955  0.823575  0.476516  1
  Al  Al7  1  0.441306  0.837845  0.837845  1
  Al  Al8  1  0.849955  0.476516  0.823575  1
  Al  Al9  1  0.176425  0.150045  0.150045  1
  Al  Al10  1  0.162155  0.116996  0.558694  1
  Al  Al11  1  0.162155  0.558694  0.116996  1
  Al  Al12  1  0.523484  0.150045  0.150045  1
  Al  Al13  1  0.608510  0.621670  0.621670  1
  Al  Al14  1  0.632393  0.618262  0.116952  1
  Al  Al15  1  0.148151  0.621670  0.621670  1
  Al  Al16  1  0.632393  0.116952  0.618262  1
  Al  Al17  1  0.381738  0.367607  0.367607  1
  Al  Al18  1  0.378330  0.391490  0.851849  1
  Al  Al19  1  0.378330  0.851849  0.391490  1
  Al  Al20  1  0.883048  0.367607  0.367607  1
  Ge  Ge21  1  0.026397  0.973603  0.973603  1
  Ir  Ir22  1  0.512915  0.487085  0.487085  1
  Ir  Ir23  1  0.011129  0.488871  0.488871  1
  Ir  Ir24  1  0.511129  0.988871  0.988871  1
  Ir  Ir25  1  0.514896  0.993969  0.485104  1
  Ir  Ir26  1  0.514896  0.485104  0.993969  1
  Ir  Ir27  1  0.006031  0.485104  0.993969  1
  Ir  Ir28  1  0.006031  0.993969  0.485104  1
