# generated using pymatgen
data_CePr3(HgPd2)2
_symmetry_space_group_name_H-M   'P 1'
_cell_length_a   7.86793117
_cell_length_b   7.86793117
_cell_length_c   3.89831300
_cell_angle_alpha   90.00000000
_cell_angle_beta   90.00000000
_cell_angle_gamma   88.70659711
_symmetry_Int_Tables_number   1
_chemical_formula_structural   CePr3(HgPd2)2
_chemical_formula_sum   'Ce1 Pr3 Hg2 Pd4'
_cell_volume   241.26101174
_cell_formula_units_Z   1
loop_
 _symmetry_equiv_pos_site_id
 _symmetry_equiv_pos_as_xyz
  1  'x, y, z'
loop_
 _atom_site_type_symbol
 _atom_site_label
 _atom_site_symmetry_multiplicity
 _atom_site_fract_x
 _atom_site_fract_y
 _atom_site_fract_z
 _atom_site_occupancy
  Ce  Ce0  1  0.325330  0.174670  0.499999  1
  Pr  Pr1  1  0.824629  0.324130  0.499999  1
  Pr  Pr2  1  0.175870  0.675371  0.499999  1
  Pr  Pr3  1  0.675471  0.824529  0.499999  1
  Hg  Hg4  1  0.999413  0.000789  0.000000  1
  Hg  Hg5  1  0.499211  0.500587  0.000000  1
  Pd  Pd6  1  0.616783  0.130832  0.000000  1
  Pd  Pd7  1  0.135779  0.364222  0.000000  1
  Pd  Pd8  1  0.878345  0.621655  0.000000  1
  Pd  Pd9  1  0.369169  0.883217  0.000000  1
