# generated using pymatgen
data_YbCe(PuB8)2
_symmetry_space_group_name_H-M   'P 1'
_cell_length_a   7.11243470
_cell_length_b   7.11913760
_cell_length_c   4.03522700
_cell_angle_alpha   90.00000000
_cell_angle_beta   90.00000000
_cell_angle_gamma   90.26928098
_symmetry_Int_Tables_number   1
_chemical_formula_structural   YbCe(PuB8)2
_chemical_formula_sum   'Yb1 Ce1 Pu2 B16'
_cell_volume   204.31904652
_cell_formula_units_Z   1
loop_
 _symmetry_equiv_pos_site_id
 _symmetry_equiv_pos_as_xyz
  1  'x, y, z'
loop_
 _atom_site_type_symbol
 _atom_site_label
 _atom_site_symmetry_multiplicity
 _atom_site_fract_x
 _atom_site_fract_y
 _atom_site_fract_z
 _atom_site_occupancy
  Yb  Yb0  1  0.315724  0.184311  0.000000  1
  Ce  Ce1  1  0.813213  0.313657  0.000000  1
  Pu  Pu2  1  0.188242  0.687794  0.000000  1
  Pu  Pu3  1  0.685766  0.813622  0.000000  1
  B  B4  1  0.321569  0.462576  0.500000  1
  B  B5  1  0.675012  0.539698  0.500000  1
  B  B6  1  0.537564  0.324517  0.500000  1
  B  B7  1  0.460743  0.677824  0.500000  1
  B  B8  1  0.002897  0.000072  0.201965  1
  B  B9  1  0.497372  0.499088  0.797924  1
  B  B10  1  0.002897  0.000072  0.798035  1
  B  B11  1  0.497372  0.499088  0.202076  1
  B  B12  1  0.588569  0.087856  0.500000  1
  B  B13  1  0.085895  0.413965  0.500000  1
  B  B14  1  0.912488  0.587265  0.500000  1
  B  B15  1  0.412989  0.912915  0.500000  1
  B  B16  1  0.038681  0.175768  0.500000  1
  B  B17  1  0.177610  0.960450  0.500000  1
  B  B18  1  0.823888  0.036530  0.500000  1
  B  B19  1  0.961509  0.822932  0.500000  1
