# generated using pymatgen
data_Ca3La17(Ga3Bi)3
_symmetry_space_group_name_H-M   'P 1'
_cell_length_a   8.33484100
_cell_length_b   8.33484100
_cell_length_c   14.26166900
_cell_angle_alpha   90.00000000
_cell_angle_beta   90.00000000
_cell_angle_gamma   90.00000000
_symmetry_Int_Tables_number   1
_chemical_formula_structural   Ca3La17(Ga3Bi)3
_chemical_formula_sum   'Ca3 La17 Ga9 Bi3'
_cell_volume   990.75207702
_cell_formula_units_Z   1
loop_
 _symmetry_equiv_pos_site_id
 _symmetry_equiv_pos_as_xyz
  1  'x, y, z'
loop_
 _atom_site_type_symbol
 _atom_site_label
 _atom_site_symmetry_multiplicity
 _atom_site_fract_x
 _atom_site_fract_y
 _atom_site_fract_z
 _atom_site_occupancy
  Ca  Ca0  1  0.500000  0.500000  0.756049  1
  Ca  Ca1  1  0.000000  0.000000  0.757500  1
  Ca  Ca2  1  0.500000  0.500000  0.249310  1
  La  La3  1  0.668305  0.165796  0.103026  1
  La  La4  1  0.166766  0.666785  0.608545  1
  La  La5  1  0.331695  0.834204  0.103026  1
  La  La6  1  0.833234  0.333215  0.608545  1
  La  La7  1  0.834204  0.668305  0.103026  1
  La  La8  1  0.333215  0.166766  0.608545  1
  La  La9  1  0.165796  0.331695  0.103026  1
  La  La10  1  0.666785  0.833234  0.608545  1
  La  La11  1  0.837020  0.325173  0.899384  1
  La  La12  1  0.329012  0.834223  0.392566  1
  La  La13  1  0.162980  0.674827  0.899384  1
  La  La14  1  0.670988  0.165777  0.392566  1
  La  La15  1  0.674827  0.837020  0.899384  1
  La  La16  1  0.165777  0.329012  0.392566  1
  La  La17  1  0.325173  0.162980  0.899384  1
  La  La18  1  0.834223  0.670988  0.392566  1
  La  La19  1  0.000000  0.000000  0.212161  1
  Ga  Ga20  1  0.622068  0.123863  0.751814  1
  Ga  Ga21  1  0.123441  0.623698  0.251020  1
  Ga  Ga22  1  0.876559  0.376302  0.251020  1
  Ga  Ga23  1  0.377932  0.876137  0.751814  1
  Ga  Ga24  1  0.876137  0.622068  0.751814  1
  Ga  Ga25  1  0.376302  0.123441  0.251020  1
  Ga  Ga26  1  0.123863  0.377932  0.751814  1
  Ga  Ga27  1  0.623698  0.876559  0.251020  1
  Ga  Ga28  1  0.000000  0.000000  0.995393  1
  Bi  Bi29  1  0.500000  0.500000  0.500789  1
  Bi  Bi30  1  0.500000  0.500000  0.999633  1
  Bi  Bi31  1  0.000000  0.000000  0.503746  1
