# generated using pymatgen
data_Zr6Ta2Nb3Ga11Os7
_symmetry_space_group_name_H-M   'P 1'
_cell_length_a   8.92023551
_cell_length_b   8.92023505
_cell_length_c   8.88266660
_cell_angle_alpha   59.82397968
_cell_angle_beta   59.82397929
_cell_angle_gamma   59.99846177
_symmetry_Int_Tables_number   1
_chemical_formula_structural   Zr6Ta2Nb3Ga11Os7
_chemical_formula_sum   'Zr6 Ta2 Nb3 Ga11 Os7'
_cell_volume   498.44283846
_cell_formula_units_Z   1
loop_
 _symmetry_equiv_pos_site_id
 _symmetry_equiv_pos_as_xyz
  1  'x, y, z'
loop_
 _atom_site_type_symbol
 _atom_site_label
 _atom_site_symmetry_multiplicity
 _atom_site_fract_x
 _atom_site_fract_y
 _atom_site_fract_z
 _atom_site_occupancy
  Zr  Zr0  1  0.704086  0.704086  0.299134  1
  Zr  Zr1  1  0.292992  0.703667  0.299220  1
  Zr  Zr2  1  0.703667  0.292992  0.299220  1
  Zr  Zr3  1  0.305579  0.305579  0.702929  1
  Zr  Zr4  1  0.685749  0.305369  0.703537  1
  Zr  Zr5  1  0.305369  0.685749  0.703537  1
  Ta  Ta6  1  0.874658  0.874658  0.879549  1
  Ta  Ta7  1  0.126128  0.126128  0.620836  1
  Nb  Nb8  1  0.878006  0.878006  0.365966  1
  Nb  Nb9  1  0.874037  0.371538  0.880261  1
  Nb  Nb10  1  0.371538  0.874037  0.880261  1
  Ga  Ga11  1  0.118932  0.642823  0.119313  1
  Ga  Ga12  1  0.642823  0.118932  0.119313  1
  Ga  Ga13  1  0.118869  0.118869  0.119358  1
  Ga  Ga14  1  0.653812  0.653812  0.038483  1
  Ga  Ga15  1  0.657368  0.029942  0.655232  1
  Ga  Ga16  1  0.029942  0.657368  0.655232  1
  Ga  Ga17  1  0.657475  0.657475  0.655261  1
  Ga  Ga18  1  0.337357  0.337357  0.987887  1
  Ga  Ga19  1  0.341971  0.977858  0.338195  1
  Ga  Ga20  1  0.977858  0.341971  0.338195  1
  Ga  Ga21  1  0.342029  0.342029  0.338565  1
  Os  Os22  1  0.005338  0.005338  0.982649  1
  Os  Os23  1  0.998537  0.998537  0.506962  1
  Os  Os24  1  0.496225  0.998792  0.505923  1
  Os  Os25  1  0.998792  0.496225  0.505923  1
  Os  Os26  1  0.501398  0.501398  0.999884  1
  Os  Os27  1  0.996938  0.502529  0.999585  1
  Os  Os28  1  0.502529  0.996938  0.999585  1
