# generated using pymatgen
data_Y10GaBi2Pb3
_symmetry_space_group_name_H-M   'P 1'
_cell_length_a   9.04334849
_cell_length_b   9.03512932
_cell_length_c   6.60367800
_cell_angle_alpha   90.00000000
_cell_angle_beta   90.00000000
_cell_angle_gamma   119.96993967
_symmetry_Int_Tables_number   1
_chemical_formula_structural   Y10GaBi2Pb3
_chemical_formula_sum   'Y10 Ga1 Bi2 Pb3'
_cell_volume   467.42467183
_cell_formula_units_Z   1
loop_
 _symmetry_equiv_pos_site_id
 _symmetry_equiv_pos_as_xyz
  1  'x, y, z'
loop_
 _atom_site_type_symbol
 _atom_site_label
 _atom_site_symmetry_multiplicity
 _atom_site_fract_x
 _atom_site_fract_y
 _atom_site_fract_z
 _atom_site_occupancy
  Y  Y0  1  0.679743  0.344824  0.998202  1
  Y  Y1  1  0.320257  0.665081  0.998202  1
  Y  Y2  1  0.320257  0.665081  0.501798  1
  Y  Y3  1  0.679743  0.344824  0.501798  1
  Y  Y4  1  0.772291  0.756202  0.750000  1
  Y  Y5  1  0.227709  0.983912  0.750000  1
  Y  Y6  1  0.000000  0.244497  0.750000  1
  Y  Y7  1  0.238581  0.238098  0.250000  1
  Y  Y8  1  0.761419  0.999517  0.250000  1
  Y  Y9  1  0.000000  0.761513  0.250000  1
  Ga  Ga10  1  0.000000  0.602406  0.750000  1
  Bi  Bi11  1  0.391234  0.389706  0.750000  1
  Bi  Bi12  1  0.608766  0.998472  0.750000  1
  Pb  Pb13  1  0.602601  0.607780  0.250000  1
  Pb  Pb14  1  0.397399  0.005179  0.250000  1
  Pb  Pb15  1  0.000000  0.392910  0.250000  1
