# generated using pymatgen
data_CeTmZnRu2
_symmetry_space_group_name_H-M   'P 1'
_cell_length_a   5.53185567
_cell_length_b   5.53185668
_cell_length_c   7.22414353
_cell_angle_alpha   85.81720798
_cell_angle_beta   94.18279121
_cell_angle_gamma   115.99069313
_symmetry_Int_Tables_number   1
_chemical_formula_structural   CeTmZnRu2
_chemical_formula_sum   'Ce2 Tm2 Zn2 Ru4'
_cell_volume   197.97496311
_cell_formula_units_Z   2
loop_
 _symmetry_equiv_pos_site_id
 _symmetry_equiv_pos_as_xyz
  1  'x, y, z'
loop_
 _atom_site_type_symbol
 _atom_site_label
 _atom_site_symmetry_multiplicity
 _atom_site_fract_x
 _atom_site_fract_y
 _atom_site_fract_z
 _atom_site_occupancy
  Ce  Ce0  1  0.174349  0.825651  0.602885  1
  Ce  Ce1  1  0.825651  0.174349  0.397115  1
  Tm  Tm2  1  0.347677  0.652323  0.091238  1
  Tm  Tm3  1  0.652323  0.347677  0.908762  1
  Zn  Zn4  1  0.000000  0.000000  0.000000  1
  Zn  Zn5  1  0.500000  0.500000  0.500000  1
  Ru  Ru6  1  0.867565  0.632083  0.262001  1
  Ru  Ru7  1  0.632083  0.867565  0.737999  1
  Ru  Ru8  1  0.132435  0.367917  0.737999  1
  Ru  Ru9  1  0.367917  0.132435  0.262001  1
