# generated using pymatgen
data_CsCa3(NO3)8
_symmetry_space_group_name_H-M   'P 1'
_cell_length_a   8.14208225
_cell_length_b   8.14208221
_cell_length_c   8.14208151
_cell_angle_alpha   93.19222255
_cell_angle_beta   93.19222296
_cell_angle_gamma   93.19222512
_symmetry_Int_Tables_number   1
_chemical_formula_structural   CsCa3(NO3)8
_chemical_formula_sum   'Cs1 Ca3 N8 O24'
_cell_volume   537.15691864
_cell_formula_units_Z   1
loop_
 _symmetry_equiv_pos_site_id
 _symmetry_equiv_pos_as_xyz
  1  'x, y, z'
loop_
 _atom_site_type_symbol
 _atom_site_label
 _atom_site_symmetry_multiplicity
 _atom_site_fract_x
 _atom_site_fract_y
 _atom_site_fract_z
 _atom_site_occupancy
  Cs  Cs0  1  0.500000  0.500000  0.500000  1
  Ca  Ca1  1  0.500000  0.000000  0.000000  1
  Ca  Ca2  1  0.000000  0.000000  0.500000  1
  Ca  Ca3  1  0.000000  0.500000  0.000000  1
  N  N4  1  0.669744  0.886925  0.317712  1
  N  N5  1  0.330256  0.113075  0.682288  1
  N  N6  1  0.166198  0.166198  0.166198  1
  N  N7  1  0.886925  0.317712  0.669744  1
  N  N8  1  0.317712  0.669744  0.886925  1
  N  N9  1  0.833802  0.833802  0.833802  1
  N  N10  1  0.113075  0.682288  0.330256  1
  N  N11  1  0.682288  0.330256  0.113075  1
  O  O12  1  0.053370  0.179197  0.265395  1
  O  O13  1  0.835173  0.453255  0.723037  1
  O  O14  1  0.252877  0.752181  0.000334  1
  O  O15  1  0.946630  0.820803  0.734605  1
  O  O16  1  0.164827  0.546745  0.276963  1
  O  O17  1  0.747123  0.247819  0.999666  1
  O  O18  1  0.265395  0.053370  0.179197  1
  O  O19  1  0.827362  0.245968  0.535994  1
  O  O20  1  0.453255  0.723037  0.835173  1
  O  O21  1  0.734605  0.946630  0.820803  1
  O  O22  1  0.172638  0.754032  0.464006  1
  O  O23  1  0.546745  0.276963  0.164827  1
  O  O24  1  0.179197  0.265395  0.053370  1
  O  O25  1  0.000334  0.252877  0.752181  1
  O  O26  1  0.245968  0.535994  0.827362  1
  O  O27  1  0.820803  0.734605  0.946630  1
  O  O28  1  0.999666  0.747123  0.247819  1
  O  O29  1  0.754032  0.464006  0.172638  1
  O  O30  1  0.752181  0.000334  0.252877  1
  O  O31  1  0.723037  0.835173  0.453255  1
  O  O32  1  0.535994  0.827362  0.245968  1
  O  O33  1  0.247819  0.999666  0.747123  1
  O  O34  1  0.276963  0.164827  0.546745  1
  O  O35  1  0.464006  0.172638  0.754032  1
