# generated using pymatgen
data_Li5MnN4
_symmetry_space_group_name_H-M   'P 1'
_cell_length_a   6.48612800
_cell_length_b   6.39223800
_cell_length_c   4.83495100
_cell_angle_alpha   90.00000000
_cell_angle_beta   90.00000000
_cell_angle_gamma   90.00000000
_symmetry_Int_Tables_number   1
_chemical_formula_structural   Li5MnN4
_chemical_formula_sum   'Li10 Mn2 N8'
_cell_volume   200.46129360
_cell_formula_units_Z   2
loop_
 _symmetry_equiv_pos_site_id
 _symmetry_equiv_pos_as_xyz
  1  'x, y, z'
loop_
 _atom_site_type_symbol
 _atom_site_label
 _atom_site_symmetry_multiplicity
 _atom_site_fract_x
 _atom_site_fract_y
 _atom_site_fract_z
 _atom_site_occupancy
  Li  Li0  1  0.548028  0.493621  0.244095  1
  Li  Li1  1  0.951972  0.493621  0.244095  1
  Li  Li2  1  0.548028  0.006379  0.244095  1
  Li  Li3  1  0.951972  0.006379  0.244095  1
  Li  Li4  1  0.451972  0.506379  0.755905  1
  Li  Li5  1  0.048028  0.506379  0.755905  1
  Li  Li6  1  0.451972  0.993621  0.755905  1
  Li  Li7  1  0.048028  0.993621  0.755905  1
  Li  Li8  1  0.750000  0.750000  0.684272  1
  Li  Li9  1  0.250000  0.250000  0.315728  1
  Mn  Mn10  1  0.750000  0.250000  0.719647  1
  Mn  Mn11  1  0.250000  0.750000  0.280353  1
  N  N12  1  0.750000  0.027522  0.915394  1
  N  N13  1  0.750000  0.472478  0.915394  1
  N  N14  1  0.250000  0.972478  0.084606  1
  N  N15  1  0.250000  0.527522  0.084606  1
  N  N16  1  0.471543  0.750000  0.474744  1
  N  N17  1  0.028457  0.750000  0.474744  1
  N  N18  1  0.528457  0.250000  0.525256  1
  N  N19  1  0.971543  0.250000  0.525256  1
