# generated using pymatgen
data_Er4Ga2TcOs5
_symmetry_space_group_name_H-M   'P 1'
_cell_length_a   5.33307919
_cell_length_b   5.33307991
_cell_length_c   8.77712700
_cell_angle_alpha   90.00000000
_cell_angle_beta   90.00000000
_cell_angle_gamma   119.24107451
_symmetry_Int_Tables_number   1
_chemical_formula_structural   Er4Ga2TcOs5
_chemical_formula_sum   'Er4 Ga2 Tc1 Os5'
_cell_volume   217.82605941
_cell_formula_units_Z   1
loop_
 _symmetry_equiv_pos_site_id
 _symmetry_equiv_pos_as_xyz
  1  'x, y, z'
loop_
 _atom_site_type_symbol
 _atom_site_label
 _atom_site_symmetry_multiplicity
 _atom_site_fract_x
 _atom_site_fract_y
 _atom_site_fract_z
 _atom_site_occupancy
  Er  Er0  1  0.328217  0.671783  0.443764  1
  Er  Er1  1  0.662375  0.337625  0.569718  1
  Er  Er2  1  0.662375  0.337625  0.930282  1
  Er  Er3  1  0.328217  0.671783  0.056236  1
  Ga  Ga4  1  0.840005  0.653206  0.250000  1
  Ga  Ga5  1  0.346794  0.159995  0.250000  1
  Tc  Tc6  1  0.840344  0.159656  0.250000  1
  Os  Os7  1  0.989582  0.010418  0.498121  1
  Os  Os8  1  0.989582  0.010418  0.001879  1
  Os  Os9  1  0.180187  0.819813  0.750000  1
  Os  Os10  1  0.163281  0.330959  0.750000  1
  Os  Os11  1  0.669041  0.836719  0.750000  1
