# generated using pymatgen
data_Y4ScGa3
_symmetry_space_group_name_H-M   'P 1'
_cell_length_a   7.48898700
_cell_length_b   7.48898700
_cell_length_c   14.33068400
_cell_angle_alpha   90.00000000
_cell_angle_beta   90.00000000
_cell_angle_gamma   90.00000000
_symmetry_Int_Tables_number   1
_chemical_formula_structural   Y4ScGa3
_chemical_formula_sum   'Y16 Sc4 Ga12'
_cell_volume   803.73535577
_cell_formula_units_Z   4
loop_
 _symmetry_equiv_pos_site_id
 _symmetry_equiv_pos_as_xyz
  1  'x, y, z'
loop_
 _atom_site_type_symbol
 _atom_site_label
 _atom_site_symmetry_multiplicity
 _atom_site_fract_x
 _atom_site_fract_y
 _atom_site_fract_z
 _atom_site_occupancy
  Y  Y0  1  0.831441  0.828050  0.895197  1
  Y  Y1  1  0.171950  0.168559  0.604803  1
  Y  Y2  1  0.831441  0.171950  0.395197  1
  Y  Y3  1  0.168559  0.828050  0.395197  1
  Y  Y4  1  0.328050  0.331441  0.395197  1
  Y  Y5  1  0.828050  0.168559  0.104803  1
  Y  Y6  1  0.328050  0.668559  0.895197  1
  Y  Y7  1  0.171950  0.831441  0.104803  1
  Y  Y8  1  0.331441  0.671950  0.604803  1
  Y  Y9  1  0.668559  0.671950  0.104803  1
  Y  Y10  1  0.668559  0.328050  0.604803  1
  Y  Y11  1  0.828050  0.831441  0.604803  1
  Y  Y12  1  0.671950  0.331441  0.895197  1
  Y  Y13  1  0.168559  0.171950  0.895197  1
  Y  Y14  1  0.671950  0.668559  0.395197  1
  Y  Y15  1  0.331441  0.328050  0.104803  1
  Sc  Sc16  1  0.500000  0.000000  0.753680  1
  Sc  Sc17  1  0.000000  0.500000  0.246320  1
  Sc  Sc18  1  0.000000  0.500000  0.746320  1
  Sc  Sc19  1  0.500000  0.000000  0.253680  1
  Ga  Ga20  1  0.626750  0.373250  0.250000  1
  Ga  Ga21  1  0.373250  0.626750  0.250000  1
  Ga  Ga22  1  0.000000  0.500000  0.002197  1
  Ga  Ga23  1  0.500000  0.000000  0.997803  1
  Ga  Ga24  1  0.126750  0.126750  0.250000  1
  Ga  Ga25  1  0.373250  0.373250  0.750000  1
  Ga  Ga26  1  0.500000  0.000000  0.497803  1
  Ga  Ga27  1  0.000000  0.500000  0.502197  1
  Ga  Ga28  1  0.126750  0.873250  0.750000  1
  Ga  Ga29  1  0.873250  0.873250  0.250000  1
  Ga  Ga30  1  0.626750  0.626750  0.750000  1
  Ga  Ga31  1  0.873250  0.126750  0.750000  1
