# generated using pymatgen
data_SrPrCuS3
_symmetry_space_group_name_H-M   'P 1'
_cell_length_a   10.71302500
_cell_length_b   4.02336300
_cell_length_c   13.05201700
_cell_angle_alpha   90.00000000
_cell_angle_beta   90.00000000
_cell_angle_gamma   90.00000000
_symmetry_Int_Tables_number   1
_chemical_formula_structural   SrPrCuS3
_chemical_formula_sum   'Sr4 Pr4 Cu4 S12'
_cell_volume   562.57310618
_cell_formula_units_Z   4
loop_
 _symmetry_equiv_pos_site_id
 _symmetry_equiv_pos_as_xyz
  1  'x, y, z'
loop_
 _atom_site_type_symbol
 _atom_site_label
 _atom_site_symmetry_multiplicity
 _atom_site_fract_x
 _atom_site_fract_y
 _atom_site_fract_z
 _atom_site_occupancy
  Sr  Sr0  1  0.714878  0.750000  0.002988  1
  Sr  Sr1  1  0.214878  0.750000  0.497012  1
  Sr  Sr2  1  0.785122  0.250001  0.502987  1
  Sr  Sr3  1  0.285122  0.250001  0.997012  1
  Pr  Pr4  1  0.016276  0.250001  0.235288  1
  Pr  Pr5  1  0.516276  0.250001  0.264713  1
  Pr  Pr6  1  0.483724  0.750000  0.735287  1
  Pr  Pr7  1  0.983724  0.750000  0.764713  1
  Cu  Cu8  1  0.266925  0.750000  0.222914  1
  Cu  Cu9  1  0.766925  0.750000  0.277085  1
  Cu  Cu10  1  0.233075  0.250001  0.722914  1
  Cu  Cu11  1  0.733075  0.250001  0.777086  1
  S  S12  1  0.106302  0.750000  0.102488  1
  S  S13  1  0.445217  0.750000  0.118082  1
  S  S14  1  0.759187  0.250001  0.173248  1
  S  S15  1  0.259187  0.250001  0.326752  1
  S  S16  1  0.945217  0.750000  0.381917  1
  S  S17  1  0.606302  0.750000  0.397512  1
  S  S18  1  0.393698  0.250001  0.602488  1
  S  S19  1  0.054783  0.250001  0.618082  1
  S  S20  1  0.740813  0.750000  0.673249  1
  S  S21  1  0.240813  0.750000  0.826751  1
  S  S22  1  0.554783  0.250001  0.881918  1
  S  S23  1  0.893698  0.250001  0.897512  1
