# generated using pymatgen
data_Sc8Ti8Re3Si16Os
_symmetry_space_group_name_H-M   'P 1'
_cell_length_a   6.77492175
_cell_length_b   6.75212189
_cell_length_c   12.45767136
_cell_angle_alpha   90.01576824
_cell_angle_beta   90.42152752
_cell_angle_gamma   90.05313631
_symmetry_Int_Tables_number   1
_chemical_formula_structural   Sc8Ti8Re3Si16Os
_chemical_formula_sum   'Sc8 Ti8 Re3 Si16 Os1'
_cell_volume   569.86170005
_cell_formula_units_Z   1
loop_
 _symmetry_equiv_pos_site_id
 _symmetry_equiv_pos_as_xyz
  1  'x, y, z'
loop_
 _atom_site_type_symbol
 _atom_site_label
 _atom_site_symmetry_multiplicity
 _atom_site_fract_x
 _atom_site_fract_y
 _atom_site_fract_z
 _atom_site_occupancy
  Sc  Sc0  1  0.999894  0.660777  0.028059  1
  Sc  Sc1  1  0.000071  0.336464  0.531479  1
  Sc  Sc2  1  0.340212  0.997890  0.470136  1
  Sc  Sc3  1  0.161691  0.497708  0.780330  1
  Sc  Sc4  1  0.839138  0.499772  0.280156  1
  Sc  Sc5  1  0.500361  0.160726  0.218760  1
  Sc  Sc6  1  0.502678  0.841017  0.720695  1
  Sc  Sc7  1  0.658464  0.001532  0.968984  1
  Ti  Ti8  1  0.168067  0.823998  0.250275  1
  Ti  Ti9  1  0.330126  0.331038  0.998899  1
  Ti  Ti10  1  0.999057  0.848396  0.628510  1
  Ti  Ti11  1  0.000271  0.148788  0.126144  1
  Ti  Ti12  1  0.846585  0.996021  0.371375  1
  Ti  Ti13  1  0.342524  0.502731  0.379422  1
  Ti  Ti14  1  0.654229  0.503093  0.875140  1
  Ti  Ti15  1  0.503595  0.343944  0.623255  1
  Re  Re16  1  0.487003  0.653490  0.123246  1
  Re  Re17  1  0.166090  0.006208  0.875501  1
  Re  Re18  1  0.826358  0.170212  0.746299  1
  Si  Si19  1  0.039601  0.702891  0.435980  1
  Si  Si20  1  0.634514  0.296984  0.428119  1
  Si  Si21  1  0.365772  0.707764  0.928792  1
  Si  Si22  1  0.204790  0.134291  0.681487  1
  Si  Si23  1  0.295301  0.634020  0.573860  1
  Si  Si24  1  0.703660  0.367868  0.069305  1
  Si  Si25  1  0.789110  0.861092  0.178323  1
  Si  Si26  1  0.136561  0.203874  0.320300  1
  Si  Si27  1  0.955049  0.293273  0.933071  1
  Si  Si28  1  0.705268  0.039536  0.563717  1
  Si  Si29  1  0.200329  0.454347  0.185635  1
  Si  Si30  1  0.798379  0.544419  0.684279  1
  Si  Si31  1  0.460550  0.208695  0.814144  1
  Si  Si32  1  0.542151  0.796186  0.315936  1
  Si  Si33  1  0.297189  0.959211  0.066007  1
  Si  Si34  1  0.871404  0.805332  0.822829  1
  Os  Os35  1  0.673957  0.666410  0.501554  1
