# generated using pymatgen
data_NaLaH6Ir
_symmetry_space_group_name_H-M   'P 1'
_cell_length_a   5.22107424
_cell_length_b   5.22107387
_cell_length_c   5.22107400
_cell_angle_alpha   59.99999920
_cell_angle_beta   60.00000154
_cell_angle_gamma   60.00000234
_symmetry_Int_Tables_number   1
_chemical_formula_structural   NaLaH6Ir
_chemical_formula_sum   'Na1 La1 H6 Ir1'
_cell_volume   100.63859569
_cell_formula_units_Z   1
loop_
 _symmetry_equiv_pos_site_id
 _symmetry_equiv_pos_as_xyz
  1  'x, y, z'
loop_
 _atom_site_type_symbol
 _atom_site_label
 _atom_site_symmetry_multiplicity
 _atom_site_fract_x
 _atom_site_fract_y
 _atom_site_fract_z
 _atom_site_occupancy
  Na  Na0  1  0.250000  0.250000  0.250000  1
  La  La1  1  0.750000  0.750000  0.750000  1
  H  H2  1  0.766921  0.233079  0.233079  1
  H  H3  1  0.233079  0.766921  0.233079  1
  H  H4  1  0.766921  0.766921  0.233079  1
  H  H5  1  0.233079  0.766921  0.766921  1
  H  H6  1  0.766921  0.233079  0.766921  1
  H  H7  1  0.233079  0.233079  0.766921  1
  Ir  Ir8  1  0.000000  0.000000  0.000000  1
