# generated using pymatgen
data_In3Ni2Pt
_symmetry_space_group_name_H-M   'P 1'
_cell_length_a   5.39170218
_cell_length_b   5.39170133
_cell_length_c   4.44067700
_cell_angle_alpha   90.00000000
_cell_angle_beta   90.00000000
_cell_angle_gamma   119.11393450
_symmetry_Int_Tables_number   1
_chemical_formula_structural   In3Ni2Pt
_chemical_formula_sum   'In3 Ni2 Pt1'
_cell_volume   112.78214140
_cell_formula_units_Z   1
loop_
 _symmetry_equiv_pos_site_id
 _symmetry_equiv_pos_as_xyz
  1  'x, y, z'
loop_
 _atom_site_type_symbol
 _atom_site_label
 _atom_site_symmetry_multiplicity
 _atom_site_fract_x
 _atom_site_fract_y
 _atom_site_fract_z
 _atom_site_occupancy
  In  In0  1  0.000000  0.000000  0.000000  1
  In  In1  1  0.680834  0.319166  0.500000  1
  In  In2  1  0.319166  0.680834  0.500000  1
  Ni  Ni3  1  0.500000  0.000000  0.000000  1
  Ni  Ni4  1  0.000000  0.500000  0.000000  1
  Pt  Pt5  1  0.500000  0.500000  0.000000  1
