# generated using pymatgen
data_Tb7Ho(LuPb3)2
_symmetry_space_group_name_H-M   'P 1'
_cell_length_a   9.05599500
_cell_length_b   9.05599462
_cell_length_c   6.62806300
_cell_angle_alpha   90.00000000
_cell_angle_beta   90.00000000
_cell_angle_gamma   120.00000504
_symmetry_Int_Tables_number   1
_chemical_formula_structural   Tb7Ho(LuPb3)2
_chemical_formula_sum   'Tb7 Ho1 Lu2 Pb6'
_cell_volume   470.74917474
_cell_formula_units_Z   1
loop_
 _symmetry_equiv_pos_site_id
 _symmetry_equiv_pos_as_xyz
  1  'x, y, z'
loop_
 _atom_site_type_symbol
 _atom_site_label
 _atom_site_symmetry_multiplicity
 _atom_site_fract_x
 _atom_site_fract_y
 _atom_site_fract_z
 _atom_site_occupancy
  Tb  Tb0  1  0.666667  0.333333  0.500000  1
  Tb  Tb1  1  0.761195  0.761264  0.750759  1
  Tb  Tb2  1  0.238736  0.999931  0.750759  1
  Tb  Tb3  1  0.000069  0.238805  0.750759  1
  Tb  Tb4  1  0.238736  0.238805  0.249241  1
  Tb  Tb5  1  0.761195  0.999931  0.249241  1
  Tb  Tb6  1  0.000069  0.761264  0.249241  1
  Ho  Ho7  1  0.333333  0.666667  0.500000  1
  Lu  Lu8  1  0.666667  0.333333  0.000000  1
  Lu  Lu9  1  0.333333  0.666667  0.000000  1
  Pb  Pb10  1  0.395298  0.395582  0.752412  1
  Pb  Pb11  1  0.604418  0.999716  0.752412  1
  Pb  Pb12  1  0.000284  0.604702  0.752412  1
  Pb  Pb13  1  0.604418  0.604702  0.247588  1
  Pb  Pb14  1  0.395298  0.999716  0.247588  1
  Pb  Pb15  1  0.000284  0.395582  0.247588  1
