# generated using pymatgen
data_Ti12Al8PdPt3N4
_symmetry_space_group_name_H-M   'P 1'
_cell_length_a   8.17619115
_cell_length_b   8.17619189
_cell_length_c   8.17619270
_cell_angle_alpha   60.16486123
_cell_angle_beta   60.16485901
_cell_angle_gamma   60.16486006
_symmetry_Int_Tables_number   1
_chemical_formula_structural   Ti12Al8PdPt3N4
_chemical_formula_sum   'Ti12 Al8 Pd1 Pt3 N4'
_cell_volume   387.93308367
_cell_formula_units_Z   1
loop_
 _symmetry_equiv_pos_site_id
 _symmetry_equiv_pos_as_xyz
  1  'x, y, z'
loop_
 _atom_site_type_symbol
 _atom_site_label
 _atom_site_symmetry_multiplicity
 _atom_site_fract_x
 _atom_site_fract_y
 _atom_site_fract_z
 _atom_site_occupancy
  Ti  Ti0  1  0.818821  0.818821  0.180175  1
  Ti  Ti1  1  0.069825  0.431179  0.431179  1
  Ti  Ti2  1  0.431747  0.068348  0.068348  1
  Ti  Ti3  1  0.068348  0.068348  0.431747  1
  Ti  Ti4  1  0.068348  0.431747  0.068348  1
  Ti  Ti5  1  0.431179  0.069825  0.431179  1
  Ti  Ti6  1  0.181652  0.818253  0.181652  1
  Ti  Ti7  1  0.180175  0.818821  0.818821  1
  Ti  Ti8  1  0.818253  0.181652  0.181652  1
  Ti  Ti9  1  0.818821  0.180175  0.818821  1
  Ti  Ti10  1  0.431179  0.431179  0.069825  1
  Ti  Ti11  1  0.181652  0.181652  0.818253  1
  Al  Al12  1  0.414979  0.756208  0.414979  1
  Al  Al13  1  0.835021  0.835021  0.493792  1
  Al  Al14  1  0.493792  0.835021  0.835021  1
  Al  Al15  1  0.835306  0.835306  0.835306  1
  Al  Al16  1  0.756208  0.414979  0.414979  1
  Al  Al17  1  0.414694  0.414694  0.414694  1
  Al  Al18  1  0.414979  0.414979  0.756208  1
  Al  Al19  1  0.835021  0.493792  0.835021  1
  Pd  Pd20  1  0.625000  0.625000  0.625000  1
  Pt  Pt21  1  0.625000  0.125000  0.625000  1
  Pt  Pt22  1  0.625000  0.625000  0.125000  1
  Pt  Pt23  1  0.125000  0.625000  0.625000  1
  N  N24  1  0.125000  0.625000  0.125000  1
  N  N25  1  0.125000  0.125000  0.625000  1
  N  N26  1  0.625000  0.125000  0.125000  1
  N  N27  1  0.125000  0.125000  0.125000  1
