# generated using pymatgen
data_Nd3Th(Ga5Ir3)2
_symmetry_space_group_name_H-M   'P 1'
_cell_length_a   8.63581630
_cell_length_b   8.68112382
_cell_length_c   8.68112315
_cell_angle_alpha   140.79786668
_cell_angle_beta   108.37263518
_cell_angle_gamma   84.89761227
_symmetry_Int_Tables_number   1
_chemical_formula_structural   Nd3Th(Ga5Ir3)2
_chemical_formula_sum   'Nd3 Th1 Ga10 Ir6'
_cell_volume   377.06935062
_cell_formula_units_Z   1
loop_
 _symmetry_equiv_pos_site_id
 _symmetry_equiv_pos_as_xyz
  1  'x, y, z'
loop_
 _atom_site_type_symbol
 _atom_site_label
 _atom_site_symmetry_multiplicity
 _atom_site_fract_x
 _atom_site_fract_y
 _atom_site_fract_z
 _atom_site_occupancy
  Nd  Nd0  1  0.133931  0.364470  0.769462  1
  Nd  Nd1  1  0.407532  0.136905  0.270628  1
  Nd  Nd2  1  0.592993  0.863209  0.729783  1
  Th  Th3  1  0.866891  0.639176  0.227714  1
  Ga  Ga4  1  0.497075  0.751733  0.251484  1
  Ga  Ga5  1  0.497075  0.245590  0.745342  1
  Ga  Ga6  1  0.209665  0.958128  0.753287  1
  Ga  Ga7  1  0.792535  0.541431  0.746800  1
  Ga  Ga8  1  0.792535  0.045735  0.251104  1
  Ga  Ga9  1  0.209665  0.456378  0.251537  1
  Ga  Ga10  1  0.079691  0.910648  0.169045  1
  Ga  Ga11  1  0.921250  0.089611  0.831637  1
  Ga  Ga12  1  0.736905  0.408505  0.328400  1
  Ga  Ga13  1  0.263327  0.590930  0.672396  1
  Ir  Ir14  1  0.999841  0.749597  0.748169  1
  Ir  Ir15  1  0.999841  0.251673  0.250244  1
  Ir  Ir16  1  0.248131  0.847933  0.400200  1
  Ir  Ir17  1  0.747982  0.148079  0.599902  1
  Ir  Ir18  1  0.447181  0.352730  0.094452  1
  Ir  Ir19  1  0.555954  0.647538  0.908415  1
