# generated using pymatgen
data_Nd7Y(GePd)8
_symmetry_space_group_name_H-M   'P 1'
_cell_length_a   4.50128700
_cell_length_b   7.73273801
_cell_length_c   14.47827709
_cell_angle_alpha   89.99057180
_cell_angle_beta   90.00000000
_cell_angle_gamma   90.00000000
_symmetry_Int_Tables_number   1
_chemical_formula_structural   Nd7Y(GePd)8
_chemical_formula_sum   'Nd7 Y1 Ge8 Pd8'
_cell_volume   503.94933767
_cell_formula_units_Z   1
loop_
 _symmetry_equiv_pos_site_id
 _symmetry_equiv_pos_as_xyz
  1  'x, y, z'
loop_
 _atom_site_type_symbol
 _atom_site_label
 _atom_site_symmetry_multiplicity
 _atom_site_fract_x
 _atom_site_fract_y
 _atom_site_fract_z
 _atom_site_occupancy
  Nd  Nd0  1  0.000000  0.213865  0.751361  1
  Nd  Nd1  1  0.000000  0.211318  0.249016  1
  Nd  Nd2  1  0.500000  0.785816  0.748591  1
  Nd  Nd3  1  0.000000  0.285321  0.499274  1
  Nd  Nd4  1  0.500000  0.715615  0.001211  1
  Nd  Nd5  1  0.000000  0.295397  0.001198  1
  Nd  Nd6  1  0.500000  0.705749  0.498780  1
  Y  Y7  1  0.500000  0.781484  0.251164  1
  Ge  Ge8  1  0.000000  0.589391  0.856876  1
  Ge  Ge9  1  0.000000  0.591882  0.145522  1
  Ge  Ge10  1  0.500000  0.410935  0.643029  1
  Ge  Ge11  1  0.500000  0.412062  0.356242  1
  Ge  Ge12  1  0.000000  0.910388  0.400662  1
  Ge  Ge13  1  0.000000  0.911151  0.595399  1
  Ge  Ge14  1  0.500000  0.088082  0.098637  1
  Ge  Ge15  1  0.500000  0.088510  0.904319  1
  Pd  Pd16  1  0.000000  0.923335  0.891362  1
  Pd  Pd17  1  0.000000  0.922373  0.112328  1
  Pd  Pd18  1  0.500000  0.076907  0.608621  1
  Pd  Pd19  1  0.500000  0.073335  0.387615  1
  Pd  Pd20  1  0.000000  0.583328  0.342614  1
  Pd  Pd21  1  0.000000  0.579737  0.653737  1
  Pd  Pd22  1  0.500000  0.423608  0.156038  1
  Pd  Pd23  1  0.500000  0.420407  0.846405  1
