# generated using pymatgen
data_Ac5(HgPd)3
_symmetry_space_group_name_H-M   'P 1'
_cell_length_a   18.32584352
_cell_length_b   18.32584140
_cell_length_c   4.57316700
_cell_angle_alpha   90.00000000
_cell_angle_beta   90.00000000
_cell_angle_gamma   167.37119544
_symmetry_Int_Tables_number   1
_chemical_formula_structural   Ac5(HgPd)3
_chemical_formula_sum   'Ac5 Hg3 Pd3'
_cell_volume   335.78581261
_cell_formula_units_Z   1
loop_
 _symmetry_equiv_pos_site_id
 _symmetry_equiv_pos_as_xyz
  1  'x, y, z'
loop_
 _atom_site_type_symbol
 _atom_site_label
 _atom_site_symmetry_multiplicity
 _atom_site_fract_x
 _atom_site_fract_y
 _atom_site_fract_z
 _atom_site_occupancy
  Ac  Ac0  1  0.990946  0.009054  0.000000  1
  Ac  Ac1  1  0.611709  0.388289  0.000000  1
  Ac  Ac2  1  0.377469  0.622529  0.000000  1
  Ac  Ac3  1  0.799763  0.200235  0.500001  1
  Ac  Ac4  1  0.188503  0.811495  0.500001  1
  Hg  Hg5  1  0.727683  0.272315  0.000000  1
  Hg  Hg6  1  0.910643  0.089356  0.500001  1
  Hg  Hg7  1  0.541654  0.458344  0.500001  1
  Pd  Pd8  1  0.287324  0.712674  0.000000  1
  Pd  Pd9  1  0.463984  0.536014  0.500001  1
  Pd  Pd10  1  0.100314  0.899685  0.500001  1
