# generated using pymatgen
data_Y4Mn4Co11Ni5P12
_symmetry_space_group_name_H-M   'P 1'
_cell_length_a   3.67959800
_cell_length_b   10.34349739
_cell_length_c   11.87234244
_cell_angle_alpha   90.03138088
_cell_angle_beta   90.00000000
_cell_angle_gamma   90.00000000
_symmetry_Int_Tables_number   1
_chemical_formula_structural   Y4Mn4Co11Ni5P12
_chemical_formula_sum   'Y4 Mn4 Co11 Ni5 P12'
_cell_volume   451.86024450
_cell_formula_units_Z   1
loop_
 _symmetry_equiv_pos_site_id
 _symmetry_equiv_pos_as_xyz
  1  'x, y, z'
loop_
 _atom_site_type_symbol
 _atom_site_label
 _atom_site_symmetry_multiplicity
 _atom_site_fract_x
 _atom_site_fract_y
 _atom_site_fract_z
 _atom_site_occupancy
  Y  Y0  1  0.250000  0.917611  0.204764  1
  Y  Y1  1  0.750000  0.081873  0.795333  1
  Y  Y2  1  0.750000  0.418054  0.294789  1
  Y  Y3  1  0.250000  0.582577  0.705521  1
  Mn  Mn4  1  0.250000  0.791001  0.486877  1
  Mn  Mn5  1  0.750000  0.210183  0.512157  1
  Mn  Mn6  1  0.750000  0.290518  0.013023  1
  Mn  Mn7  1  0.250000  0.709463  0.987233  1
  Co  Co8  1  0.750000  0.721619  0.323474  1
  Co  Co9  1  0.750000  0.777996  0.823291  1
  Co  Co10  1  0.250000  0.221601  0.176231  1
  Co  Co11  1  0.250000  0.616962  0.197780  1
  Co  Co12  1  0.750000  0.382692  0.802031  1
  Co  Co13  1  0.750000  0.116812  0.302083  1
  Co  Co14  1  0.250000  0.882415  0.697851  1
  Co  Co15  1  0.250000  0.033451  0.432510  1
  Co  Co16  1  0.750000  0.966343  0.567209  1
  Co  Co17  1  0.750000  0.533376  0.067550  1
  Co  Co18  1  0.250000  0.467250  0.932888  1
  Ni  Ni19  1  0.250000  0.092235  0.987364  1
  Ni  Ni20  1  0.750000  0.907475  0.012762  1
  Ni  Ni21  1  0.750000  0.593196  0.512452  1
  Ni  Ni22  1  0.250000  0.407379  0.487305  1
  Ni  Ni23  1  0.250000  0.277792  0.677196  1
  P  P24  1  0.250000  0.077472  0.612155  1
  P  P25  1  0.750000  0.918928  0.387377  1
  P  P26  1  0.750000  0.580852  0.888122  1
  P  P27  1  0.250000  0.419288  0.112296  1
  P  P28  1  0.250000  0.227942  0.365227  1
  P  P29  1  0.750000  0.771713  0.633859  1
  P  P30  1  0.750000  0.727833  0.133874  1
  P  P31  1  0.250000  0.272171  0.869139  1
  P  P32  1  0.250000  0.895171  0.888270  1
  P  P33  1  0.750000  0.104440  0.111948  1
  P  P34  1  0.750000  0.399454  0.610361  1
  P  P35  1  0.250000  0.604857  0.387698  1
