# generated using pymatgen
data_Tb4Y5Tm11Sb12
_symmetry_space_group_name_H-M   'P 1'
_cell_length_a   8.02606415
_cell_length_b   9.22113653
_cell_length_c   11.74053500
_cell_angle_alpha   89.99207775
_cell_angle_beta   90.07090887
_cell_angle_gamma   89.98221428
_symmetry_Int_Tables_number   1
_chemical_formula_structural   Tb4Y5Tm11Sb12
_chemical_formula_sum   'Tb4 Y5 Tm11 Sb12'
_cell_volume   868.90962654
_cell_formula_units_Z   1
loop_
 _symmetry_equiv_pos_site_id
 _symmetry_equiv_pos_as_xyz
  1  'x, y, z'
loop_
 _atom_site_type_symbol
 _atom_site_label
 _atom_site_symmetry_multiplicity
 _atom_site_fract_x
 _atom_site_fract_y
 _atom_site_fract_z
 _atom_site_occupancy
  Tb  Tb0  1  0.184365  0.749929  0.720076  1
  Tb  Tb1  1  0.684742  0.750017  0.780107  1
  Tb  Tb2  1  0.815287  0.249466  0.279614  1
  Tb  Tb3  1  0.315249  0.249685  0.219856  1
  Y  Y4  1  0.808094  0.441486  0.559609  1
  Y  Y5  1  0.352879  0.749688  0.214128  1
  Y  Y6  1  0.852277  0.749491  0.285645  1
  Y  Y7  1  0.646363  0.249084  0.786291  1
  Y  Y8  1  0.148046  0.249331  0.714464  1
  Tm  Tm9  1  0.026609  0.749741  0.988789  1
  Tm  Tm10  1  0.526650  0.749992  0.511378  1
  Tm  Tm11  1  0.973331  0.249737  0.011365  1
  Tm  Tm12  1  0.472705  0.249589  0.488502  1
  Tm  Tm13  1  0.307825  0.438348  0.940755  1
  Tm  Tm14  1  0.807719  0.062077  0.559702  1
  Tm  Tm15  1  0.692091  0.938422  0.059234  1
  Tm  Tm16  1  0.192194  0.561773  0.440479  1
  Tm  Tm17  1  0.692026  0.561426  0.059388  1
  Tm  Tm18  1  0.193093  0.939134  0.440013  1
  Tm  Tm19  1  0.307832  0.061273  0.940995  1
  Sb  Sb20  1  0.434054  0.004174  0.671584  1
  Sb  Sb21  1  0.934540  0.495039  0.828775  1
  Sb  Sb22  1  0.565641  0.504296  0.328117  1
  Sb  Sb23  1  0.065812  0.994928  0.171510  1
  Sb  Sb24  1  0.565818  0.995137  0.328455  1
  Sb  Sb25  1  0.066016  0.504392  0.171409  1
  Sb  Sb26  1  0.433312  0.495084  0.671718  1
  Sb  Sb27  1  0.934236  0.004431  0.828672  1
  Sb  Sb28  1  0.408598  0.749782  0.958653  1
  Sb  Sb29  1  0.909951  0.753248  0.540553  1
  Sb  Sb30  1  0.591396  0.250011  0.041553  1
  Sb  Sb31  1  0.091253  0.249789  0.458613  1
