# generated using pymatgen
data_Nd3In3CuHgIr
_symmetry_space_group_name_H-M   'P 1'
_cell_length_a   7.89997100
_cell_length_b   7.89996975
_cell_length_c   4.03380900
_cell_angle_alpha   90.00000000
_cell_angle_beta   90.00000000
_cell_angle_gamma   119.99999266
_symmetry_Int_Tables_number   1
_chemical_formula_structural   Nd3In3CuHgIr
_chemical_formula_sum   'Nd3 In3 Cu1 Hg1 Ir1'
_cell_volume   218.02029346
_cell_formula_units_Z   1
loop_
 _symmetry_equiv_pos_site_id
 _symmetry_equiv_pos_as_xyz
  1  'x, y, z'
loop_
 _atom_site_type_symbol
 _atom_site_label
 _atom_site_symmetry_multiplicity
 _atom_site_fract_x
 _atom_site_fract_y
 _atom_site_fract_z
 _atom_site_occupancy
  Nd  Nd0  1  0.025616  0.601318  0.500000  1
  Nd  Nd1  1  0.398682  0.424297  0.500000  1
  Nd  Nd2  1  0.575703  0.974384  0.500000  1
  In  In3  1  0.754176  0.759181  0.000000  1
  In  In4  1  0.005005  0.245824  0.000000  1
  In  In5  1  0.240819  0.994995  0.000000  1
  Cu  Cu6  1  0.000000  0.000000  0.500000  1
  Hg  Hg7  1  0.666667  0.333333  0.000000  1
  Ir  Ir8  1  0.333333  0.666667  0.000000  1
