# generated using pymatgen
data_Li8Ho7TmSn5Sb3
_symmetry_space_group_name_H-M   'P 1'
_cell_length_a   9.37746000
_cell_length_b   9.37199937
_cell_length_c   7.15387900
_cell_angle_alpha   90.00256675
_cell_angle_beta   90.00000000
_cell_angle_gamma   120.01928295
_symmetry_Int_Tables_number   1
_chemical_formula_structural   Li8Ho7TmSn5Sb3
_chemical_formula_sum   'Li8 Ho7 Tm1 Sn5 Sb3'
_cell_volume   544.38390058
_cell_formula_units_Z   1
loop_
 _symmetry_equiv_pos_site_id
 _symmetry_equiv_pos_as_xyz
  1  'x, y, z'
loop_
 _atom_site_type_symbol
 _atom_site_label
 _atom_site_symmetry_multiplicity
 _atom_site_fract_x
 _atom_site_fract_y
 _atom_site_fract_z
 _atom_site_occupancy
  Li  Li0  1  0.166475  0.332952  0.284174  1
  Li  Li1  1  0.166670  0.833584  0.284291  1
  Li  Li2  1  0.666912  0.833584  0.284291  1
  Li  Li3  1  0.833174  0.666347  0.785916  1
  Li  Li4  1  0.833083  0.166783  0.785916  1
  Li  Li5  1  0.333702  0.166783  0.785916  1
  Li  Li6  1  0.333454  0.666909  0.675657  1
  Li  Li7  1  0.666612  0.333222  0.179327  1
  Ho  Ho8  1  0.512367  0.487652  0.490617  1
  Ho  Ho9  1  0.975286  0.487652  0.490617  1
  Ho  Ho10  1  0.489647  0.979295  0.996090  1
  Ho  Ho11  1  0.489599  0.510360  0.996067  1
  Ho  Ho12  1  0.020761  0.510360  0.996067  1
  Ho  Ho13  1  0.999980  0.999960  0.497549  1
  Ho  Ho14  1  0.999974  0.999947  0.004553  1
  Tm  Tm15  1  0.512423  0.024844  0.490414  1
  Sn  Sn16  1  0.833026  0.666052  0.231781  1
  Sn  Sn17  1  0.832713  0.166792  0.232062  1
  Sn  Sn18  1  0.334080  0.166792  0.232062  1
  Sn  Sn19  1  0.333462  0.666926  0.259947  1
  Sn  Sn20  1  0.666522  0.333043  0.759633  1
  Sb  Sb21  1  0.166749  0.333500  0.733265  1
  Sb  Sb22  1  0.166984  0.833330  0.732880  1
  Sb  Sb23  1  0.666344  0.833330  0.732880  1
