# generated using pymatgen
data_Hf7ZrNb2(Si3N)2
_symmetry_space_group_name_H-M   'P 1'
_cell_length_a   7.81096900
_cell_length_b   7.80064577
_cell_length_c   5.47920100
_cell_angle_alpha   90.00192027
_cell_angle_beta   89.99617186
_cell_angle_gamma   120.04378255
_symmetry_Int_Tables_number   1
_chemical_formula_structural   Hf7ZrNb2(Si3N)2
_chemical_formula_sum   'Hf7 Zr1 Nb2 Si6 N2'
_cell_volume   288.99582099
_cell_formula_units_Z   1
loop_
 _symmetry_equiv_pos_site_id
 _symmetry_equiv_pos_as_xyz
  1  'x, y, z'
loop_
 _atom_site_type_symbol
 _atom_site_label
 _atom_site_symmetry_multiplicity
 _atom_site_fract_x
 _atom_site_fract_y
 _atom_site_fract_z
 _atom_site_occupancy
  Hf  Hf0  1  0.764025  0.000000  0.750200  1
  Hf  Hf1  1  0.000122  0.234714  0.250043  1
  Hf  Hf2  1  0.999443  0.764931  0.749750  1
  Hf  Hf3  1  0.765408  0.765286  0.250043  1
  Hf  Hf4  1  0.234512  0.235069  0.749750  1
  Hf  Hf5  1  0.333339  0.666213  0.999954  1
  Hf  Hf6  1  0.667126  0.333787  0.999954  1
  Zr  Zr7  1  0.238092  0.000000  0.249725  1
  Nb  Nb8  1  0.667474  0.333900  0.499940  1
  Nb  Nb9  1  0.333573  0.666100  0.499940  1
  Si  Si10  1  0.594496  0.000000  0.259704  1
  Si  Si11  1  0.407302  0.000000  0.740538  1
  Si  Si12  1  0.999584  0.591875  0.259974  1
  Si  Si13  1  0.000099  0.407345  0.740211  1
  Si  Si14  1  0.407709  0.408125  0.259974  1
  Si  Si15  1  0.592754  0.592655  0.740211  1
  N  N16  1  0.997624  0.000000  0.998228  1
  N  N17  1  0.997318  0.000000  0.501860  1
